@<TRIPOS>MOLECULE
NONAME
50 52 1 0 0 
SMALL
USER_CHARGES


@<TRIPOS>ATOM
  1 O       -1.1410     0.1490     0.4090 O.2   1 <1>  -0.5700 
  2 C       -1.8040     0.9720    -0.1960 C.2   1 <1>   0.6160 
  3 N       -2.9020     0.5180    -0.8910 N.am  1 <1>  -0.6600 
  4 C       -1.4650     2.3670    -0.1580 C.2   1 <1>  -0.1360 
  5 C       -2.9810    -0.9250    -1.2370 C.3   1 <1>   0.1400 
  6 C       -4.2320     1.1590    -0.7130 C.3   1 <1>   0.1400 
  7 C       -0.5370     2.9590     0.6290 C.2   1 <1>  -0.1780 
  8 C       -3.6760    -1.6730    -0.0780 C.3   1 <1>   0.4230 
  9 C       -4.9630     0.4380     0.4290 C.3   1 <1>  -0.1600 
 10 C       -0.1650     4.3510     0.6970 C.ar  1 <1>   0.0280 
 11 N       -3.6280    -3.1890    -0.2010 N.4   1 <1>  -0.9590 
 12 C       -5.0960    -1.1000     0.2180 C.3   1 <1>   0.0000 
 13 C        0.6980     4.7880     1.7010 C.ar  1 <1>  -0.1500 
 14 C       -0.6320     5.3060    -0.2070 C.ar  1 <1>  -0.1500 
 15 C       -4.6230    -3.9050     0.6630 C.3   1 <1>   0.3430 
 16 C       -3.6790    -3.7290    -1.5990 C.3   1 <1>   0.2630 
 17 C       -5.6440    -1.7390     1.5290 C.3   1 <1>  -0.1600 
 18 C       -6.0520    -1.4000    -0.9720 C.3   1 <1>   0.1200 
 19 C        1.0760     6.1140     1.8050 C.ar  1 <1>  -0.1500 
 20 C       -0.2580     6.6350    -0.1090 C.ar  1 <1>  -0.1500 
 21 C       -4.9730    -3.0760     1.8970 C.3   1 <1>  -0.1600 
 22 O       -7.2590    -0.7330    -0.8410 O.3   1 <1>  -0.6800 
 23 C        0.5970     7.0420     0.8990 C.ar  1 <1>  -0.1500 
 24 H       -2.0330     2.9570    -0.8480 H     1 <1>   0.1500 
 25 H       -3.5160    -1.0310    -2.1620 H     1 <1>   0.0800 
 26 H       -1.9850    -1.3100    -1.3750 H     1 <1>   0.0800 
 27 H       -4.1240     2.2020    -0.4670 H     1 <1>   0.0800 
 28 H       -4.7960     1.0940    -1.6290 H     1 <1>   0.0800 
 29 H        0.0150     2.3320     1.3090 H     1 <1>   0.1500 
 30 H       -3.0890    -1.4280     0.7940 H     1 <1>   0.0800 
 31 H       -4.4100     0.6340     1.3330 H     1 <1>   0.0800 
 32 H       -5.9300     0.8900     0.5610 H     1 <1>   0.0800 
 33 H       -2.7000    -3.4360     0.1770 H     1 <1>   0.4500 
 34 H        1.0800     4.0790     2.4140 H     1 <1>   0.1500 
 35 H       -1.2910     5.0180    -1.0020 H     1 <1>   0.1500 
 36 H       -5.5270    -4.0840     0.1050 H     1 <1>   0.0800 
 37 H       -4.2250    -4.8610     0.9650 H     1 <1>   0.0800 
 38 H       -4.6100    -3.4650    -2.0730 H     1 <1>   0.0800 
 39 H       -3.5930    -4.8040    -1.5870 H     1 <1>   0.0800 
 40 H       -2.8660    -3.3340    -2.1880 H     1 <1>   0.0800 
 41 H       -5.5040    -1.0710     2.3630 H     1 <1>   0.0800 
 42 H       -6.7060    -1.8920     1.4500 H     1 <1>   0.0800 
 43 H       -6.2730    -2.4490    -1.0480 H     1 <1>   0.0800 
 44 H       -5.6310    -1.0740    -1.9060 H     1 <1>   0.0800 
 45 H        1.7430     6.4240     2.5900 H     1 <1>   0.1500 
 46 H       -0.6310     7.3530    -0.8170 H     1 <1>   0.1500 
 47 H       -5.6390    -3.6420     2.5270 H     1 <1>   0.0800 
 48 H       -4.0780    -2.8980     2.4680 H     1 <1>   0.0800 
 49 H       -7.7610    -1.0240    -0.0540 H     1 <1>   0.4000 
 50 H        0.8890     8.0750     0.9770 H     1 <1>   0.1500 
@<TRIPOS>BOND
  1   1   2  2   
  2   2   3  am  
  3   2   4  1   
  4   3   5  1   
  5   3   6  1   
  6   4   7  2   
  7   4  24  1   
  8   5   8  1   
  9   5  25  1   
 10   5  26  1   
 11   6   9  1   
 12   6  27  1   
 13   6  28  1   
 14   7  10  1   
 15   7  29  1   
 16   8  11  1   
 17   8  12  1   
 18   8  30  1   
 19   9  12  1   
 20   9  31  1   
 21   9  32  1   
 22  10  13  ar  
 23  10  14  ar  
 24  11  15  1   
 25  11  16  1   
 26  11  33  1   
 27  12  17  1   
 28  12  18  1   
 29  13  19  ar  
 30  13  34  1   
 31  14  20  ar  
 32  14  35  1   
 33  15  21  1   
 34  15  36  1   
 35  15  37  1   
 36  16  38  1   
 37  16  39  1   
 38  16  40  1   
 39  17  21  1   
 40  17  41  1   
 41  17  42  1   
 42  18  22  1   
 43  18  43  1   
 44  18  44  1   
 45  19  23  ar  
 46  19  45  1   
 47  20  23  ar  
 48  20  46  1   
 49  21  47  1   
 50  21  48  1   
 51  22  49  1   
 52  23  50  1   
@<TRIPOS>SUBSTRUCTURE
  1 ****   2 GROUP 4 **** **** 0

# MOE 2024.06 (io_trps.svl 2023.06)
