@<TRIPOS>MOLECULE
NONAME
48 50 1 0 0 
SMALL
USER_CHARGES


@<TRIPOS>ATOM
  1 S       -0.8680    -1.7770     1.8920 S.3   1 <1>  -0.4600 
  2 C       -1.7040    -3.2730     1.2910 C.3   1 <1>   0.0700 
  3 C       -1.8110    -0.4510     1.0850 C.3   1 <1>   0.0700 
  4 C       -1.8170    -3.2260    -0.2370 C.3   1 <1>   0.1400 
  5 C       -1.8830    -0.7300    -0.4190 C.3   1 <1>   0.1400 
  6 N       -2.5880    -2.0220    -0.6910 N.am  1 <1>  -0.6600 
  7 C       -3.7970    -2.0380    -1.3600 C.2   1 <1>   0.5690 
  8 O       -4.3540    -1.0030    -1.6470 O.2   1 <1>  -0.5700 
  9 C       -4.5380    -3.3330    -1.7230 C.3   1 <1>   0.2610 
 10 O       -3.7060    -4.2340    -2.4340 O.3   1 <1>  -0.5600 
 11 C       -5.1580    -3.9290    -0.4300 C.3   1 <1>   0.3640 
 12 C       -4.3010    -5.4800    -2.6800 C.3   1 <1>   0.1810 
 13 N       -5.0930    -5.4250    -0.3150 N.am  1 <1>  -0.6600 
 14 C       -6.6030    -3.4500    -0.2920 C.ar  1 <1>  -0.1440 
 15 C       -4.6740    -6.1840    -1.3790 C.2   1 <1>   0.5690 
 16 C       -5.4290    -5.9630     1.0340 C.3   1 <1>   0.2200 
 17 C       -7.6470    -4.0980    -0.9400 C.ar  1 <1>  -0.1500 
 18 C       -6.8850    -2.3340     0.4850 C.ar  1 <1>  -0.1500 
 19 O       -4.5770    -7.3880    -1.3460 O.2   1 <1>  -0.5700 
 20 C       -4.1830    -6.5600     1.6860 C.3   1 <1>  -0.2400 
 21 C       -6.5760    -6.9720     0.9670 C.3   1 <1>  -0.2400 
 22 C       -8.9480    -3.6450    -0.8070 C.ar  1 <1>  -0.1500 
 23 C       -8.1850    -1.8800     0.6180 C.ar  1 <1>  -0.1500 
 24 C       -9.2180    -2.5360    -0.0270 C.ar  1 <1>  -0.1500 
 25 H       -1.1130    -4.1130     1.6100 H     1 <1>   0.0800 
 26 H       -2.6710    -3.3120     1.7570 H     1 <1>   0.0800 
 27 H       -2.7920    -0.4250     1.5240 H     1 <1>   0.0800 
 28 H       -1.2960     0.4720     1.2850 H     1 <1>   0.0800 
 29 H       -2.2790    -4.1360    -0.5660 H     1 <1>   0.0800 
 30 H       -0.8310    -3.1940    -0.6670 H     1 <1>   0.0800 
 31 H       -0.8870    -0.7750    -0.8240 H     1 <1>   0.0800 
 32 H       -2.3900     0.0880    -0.9020 H     1 <1>   0.0800 
 33 H       -5.3350    -3.0650    -2.3940 H     1 <1>   0.0800 
 34 H       -4.6100    -3.5320     0.4050 H     1 <1>   0.0800 
 35 H       -5.1760    -5.3360    -3.2880 H     1 <1>   0.0800 
 36 H       -3.5920    -6.0800    -3.2220 H     1 <1>   0.0800 
 37 H       -5.7630    -5.1490     1.6560 H     1 <1>   0.0800 
 38 H       -7.4560    -4.9640    -1.5500 H     1 <1>   0.1500 
 39 H       -6.0940    -1.8030     0.9870 H     1 <1>   0.1500 
 40 H       -3.8450    -7.4240     1.1430 H     1 <1>   0.0800 
 41 H       -4.4100    -6.8650     2.6910 H     1 <1>   0.0800 
 42 H       -3.3940    -5.8320     1.7220 H     1 <1>   0.0800 
 43 H       -6.2860    -7.8590     0.4330 H     1 <1>   0.0800 
 44 H       -7.4320    -6.5340     0.4900 H     1 <1>   0.0800 
 45 H       -6.8600    -7.2630     1.9610 H     1 <1>   0.0800 
 46 H       -9.7500    -4.1560    -1.3110 H     1 <1>   0.1500 
 47 H       -8.3930    -1.0130     1.2210 H     1 <1>   0.1500 
 48 H      -10.2290    -2.1820     0.0760 H     1 <1>   0.1500 
@<TRIPOS>BOND
  1   1   2  1   
  2   1   3  1   
  3   2   4  1   
  4   2  25  1   
  5   2  26  1   
  6   3   5  1   
  7   3  27  1   
  8   3  28  1   
  9   4   6  1   
 10   4  29  1   
 11   4  30  1   
 12   5   6  1   
 13   5  31  1   
 14   5  32  1   
 15   6   7  am  
 16   7   8  2   
 17   7   9  1   
 18   9  10  1   
 19   9  11  1   
 20   9  33  1   
 21  10  12  1   
 22  11  13  1   
 23  11  14  1   
 24  11  34  1   
 25  12  15  1   
 26  12  35  1   
 27  12  36  1   
 28  13  15  am  
 29  13  16  1   
 30  14  17  ar  
 31  14  18  ar  
 32  15  19  2   
 33  16  20  1   
 34  16  21  1   
 35  16  37  1   
 36  17  22  ar  
 37  17  38  1   
 38  18  23  ar  
 39  18  39  1   
 40  20  40  1   
 41  20  41  1   
 42  20  42  1   
 43  21  43  1   
 44  21  44  1   
 45  21  45  1   
 46  22  24  ar  
 47  22  46  1   
 48  23  24  ar  
 49  23  47  1   
 50  24  48  1   
@<TRIPOS>SUBSTRUCTURE
  1 ****  11 GROUP 4 **** **** 0

# MOE 2024.06 (io_trps.svl 2023.06)
