@<TRIPOS>MOLECULE
NONAME
52 54 1 0 0 
SMALL
USER_CHARGES


@<TRIPOS>ATOM
  1 O       -0.3380     0.9660    -2.5410 O.2   1 <1>  -0.5700 
  2 C       -0.7940     1.6270    -1.6410 C.2   1 <1>   0.5690 
  3 N       -1.9470     1.3920    -0.9860 N.am  1 <1>  -0.6600 
  4 C       -0.1150     2.8530    -1.1020 C.3   1 <1>  -0.0990 
  5 C       -2.2350     2.4150     0.0330 C.3   1 <1>   0.1400 
  6 C       -2.9090     0.3190    -1.2960 C.3   1 <1>   0.2780 
  7 C       -0.8870     3.1440     0.2000 C.3   1 <1>  -0.0190 
  8 C       -3.0930    -0.5410    -0.0620 C.2   1 <1>  -0.2880 
  9 C       -1.0130     4.6320     0.5290 C.2   1 <1>   0.5690 
 10 C       -4.2370    -0.7030     0.6120 C.2   1 <1>  -0.3000 
 11 O       -2.0720     5.1650     0.2950 O.2   1 <1>  -0.5700 
 12 N        0.0330     5.3440     1.0760 N.am  1 <1>  -0.6600 
 13 C        1.4170     4.8040     1.2830 C.3   1 <1>   0.1400 
 14 C       -0.1990     6.7420     1.5660 C.3   1 <1>   0.1400 
 15 C        2.3230     5.1120     0.0820 C.3   1 <1>   0.1400 
 16 C        0.8980     7.7500     1.1930 C.3   1 <1>  -0.1600 
 17 N        2.7040     6.5520     0.0250 N.am  1 <1>  -0.6600 
 18 C        1.5710     7.5020    -0.1600 C.3   1 <1>   0.1400 
 19 C        3.9530     6.9640     0.4460 C.2   1 <1>   0.5440 
 20 O        4.6350     6.1900     1.0910 O.2   1 <1>  -0.5700 
 21 C        4.4590     8.2880     0.1780 C.ar  1 <1>   0.0860 
 22 C        4.9940     9.0580     1.2080 C.ar  1 <1>   0.1600 
 23 C        4.4480     8.8580    -1.0930 C.ar  1 <1>  -0.1500 
 24 N        5.4630    10.2890     1.0970 N.ar  1 <1>  -0.6200 
 25 C        4.9380    10.1340    -1.2300 C.ar  1 <1>  -0.1500 
 26 C        5.4260    10.8080    -0.1160 C.ar  1 <1>   0.4100 
 27 N        5.9150    12.0640    -0.2040 N.pl3 1 <1>  -0.9000 
 28 H       -0.2320     3.6500    -1.8140 H     1 <1>   0.0800 
 29 H        0.9240     2.6550    -0.9250 H     1 <1>   0.0800 
 30 H       -2.5540     1.9660     0.9590 H     1 <1>   0.0800 
 31 H       -3.0090     3.0640    -0.3400 H     1 <1>   0.0800 
 32 H       -2.5380    -0.2820    -2.1100 H     1 <1>   0.0800 
 33 H       -3.8460     0.7570    -1.5950 H     1 <1>   0.0800 
 34 H       -0.3930     2.6510     1.0150 H     1 <1>   0.0800 
 35 H       -2.1740    -1.0230     0.2270 H     1 <1>   0.1500 
 36 H       -4.3340    -1.3230     1.4870 H     1 <1>   0.1500 
 37 H       -5.1690    -0.2340     0.3480 H     1 <1>   0.1500 
 38 H        1.3860     3.7410     1.4270 H     1 <1>   0.0800 
 39 H        1.8510     5.2260     2.1740 H     1 <1>   0.0800 
 40 H       -0.3090     6.7200     2.6370 H     1 <1>   0.0800 
 41 H       -1.1270     7.1140     1.1650 H     1 <1>   0.0800 
 42 H        1.8290     4.8430    -0.8330 H     1 <1>   0.0800 
 43 H        3.2110     4.5080     0.1560 H     1 <1>   0.0800 
 44 H        1.6400     7.7830     1.9720 H     1 <1>   0.0800 
 45 H        0.4400     8.7220     1.1700 H     1 <1>   0.0800 
 46 H        1.9330     8.4370    -0.5480 H     1 <1>   0.0800 
 47 H        0.8630     7.1060    -0.8700 H     1 <1>   0.0800 
 48 H        5.0300     8.6140     2.1890 H     1 <1>   0.1500 
 49 H        4.0660     8.3050    -1.9330 H     1 <1>   0.1500 
 50 H        4.9480    10.6240    -2.1850 H     1 <1>   0.1500 
 51 H        6.3770    12.3660    -1.0600 H     1 <1>   0.4000 
 52 H        6.3580    12.3980     0.6540 H     1 <1>   0.4000 
@<TRIPOS>BOND
  1   1   2  2   
  2   2   3  am  
  3   2   4  1   
  4   3   5  1   
  5   3   6  1   
  6   4   7  1   
  7   4  28  1   
  8   4  29  1   
  9   5   7  1   
 10   5  30  1   
 11   5  31  1   
 12   6   8  1   
 13   6  32  1   
 14   6  33  1   
 15   7   9  1   
 16   7  34  1   
 17   8  10  2   
 18   8  35  1   
 19   9  11  2   
 20   9  12  am  
 21  10  36  1   
 22  10  37  1   
 23  12  13  1   
 24  12  14  1   
 25  13  15  1   
 26  13  38  1   
 27  13  39  1   
 28  14  16  1   
 29  14  40  1   
 30  14  41  1   
 31  15  17  1   
 32  15  42  1   
 33  15  43  1   
 34  16  18  1   
 35  16  44  1   
 36  16  45  1   
 37  17  18  1   
 38  17  19  am  
 39  18  46  1   
 40  18  47  1   
 41  19  20  2   
 42  19  21  1   
 43  21  22  ar  
 44  21  23  ar  
 45  22  24  ar  
 46  22  48  1   
 47  23  25  ar  
 48  23  49  1   
 49  24  26  ar  
 50  25  26  ar  
 51  25  50  1   
 52  26  27  1   
 53  27  51  1   
 54  27  52  1   
@<TRIPOS>SUBSTRUCTURE
  1 ****  15 GROUP 4 **** **** 0

# MOE 2024.06 (io_trps.svl 2023.06)
