@<TRIPOS>MOLECULE
NONAME
37 37 1 0 0 
SMALL
USER_CHARGES


@<TRIPOS>ATOM
  1 O       -0.6220    -0.2880     1.1990 O.2   1 <1>  -0.5700 
  2 C       -1.1610    -0.7710     0.2250 C.2   1 <1>   0.7800 
  3 O       -2.1690    -0.1710    -0.4030 O.3   1 <1>  -0.4300 
  4 N       -0.7840    -1.9520    -0.2960 N.am  1 <1>  -0.7300 
  5 C       -2.7530     1.0720    -0.0780 C.3   1 <1>   0.2800 
  6 C        0.1620    -2.8750     0.3270 C.3   1 <1>   0.3640 
  7 C       -1.7170     2.1950    -0.2080 C.3   1 <1>  -0.2400 
  8 C       -3.8550     1.2800    -1.1180 C.3   1 <1>  -0.2400 
  9 C       -3.3820     1.0160     1.3190 C.3   1 <1>  -0.2400 
 10 C       -0.2870    -4.2990     0.0170 C.ar  1 <1>  -0.1440 
 11 C        1.5620    -2.5870    -0.2080 C.3   1 <1>  -0.2400 
 12 C       -0.6420    -5.1480     1.0540 C.ar  1 <1>  -0.1500 
 13 C       -0.3530    -4.7690    -1.2900 C.ar  1 <1>  -0.1500 
 14 C       -1.0580    -6.4490     0.8070 C.ar  1 <1>   0.1000 
 15 C       -0.7620    -6.0670    -1.5470 C.ar  1 <1>  -0.1500 
 16 N       -1.4190    -7.2790     1.8510 N.pl3 1 <1>  -0.9000 
 17 C       -1.1100    -6.9020    -0.5030 C.ar  1 <1>  -0.1500 
 18 H       -1.3660    -2.3540    -1.0260 H     1 <1>   0.3700 
 19 H        0.1580    -2.7180     1.3930 H     1 <1>   0.0800 
 20 H       -2.1950     3.1500    -0.0950 H     1 <1>   0.0800 
 21 H       -1.2470     2.1600    -1.1740 H     1 <1>   0.0800 
 22 H       -0.9630     2.1180     0.5540 H     1 <1>   0.0800 
 23 H       -4.3600     2.2140    -0.9470 H     1 <1>   0.0800 
 24 H       -4.5780     0.4870    -1.0590 H     1 <1>   0.0800 
 25 H       -3.4340     1.2990    -2.1080 H     1 <1>   0.0800 
 26 H       -3.9390     1.9160     1.5070 H     1 <1>   0.0800 
 27 H       -2.6290     0.9370     2.0810 H     1 <1>   0.0800 
 28 H       -4.0510     0.1790     1.3950 H     1 <1>   0.0800 
 29 H        1.5910    -2.6640    -1.2790 H     1 <1>   0.0800 
 30 H        2.2570    -3.2930     0.2070 H     1 <1>   0.0800 
 31 H        1.8650    -1.5980     0.0850 H     1 <1>   0.0800 
 32 H       -0.5970    -4.8060     2.0720 H     1 <1>   0.1500 
 33 H       -0.0840    -4.1300    -2.1130 H     1 <1>   0.1500 
 34 H       -0.8060    -6.4250    -2.5610 H     1 <1>   0.1500 
 35 H       -1.7130    -6.8180     2.7160 H     1 <1>   0.4000 
 36 H       -2.0280    -8.0660     1.6120 H     1 <1>   0.4000 
 37 H       -1.4210    -7.9100    -0.7020 H     1 <1>   0.1500 
@<TRIPOS>BOND
  1   1   2  2   
  2   2   3  1   
  3   2   4  am  
  4   3   5  1   
  5   4   6  1   
  6   4  18  1   
  7   5   7  1   
  8   5   8  1   
  9   5   9  1   
 10   6  10  1   
 11   6  11  1   
 12   6  19  1   
 13   7  20  1   
 14   7  21  1   
 15   7  22  1   
 16   8  23  1   
 17   8  24  1   
 18   8  25  1   
 19   9  26  1   
 20   9  27  1   
 21   9  28  1   
 22  10  12  ar  
 23  10  13  ar  
 24  11  29  1   
 25  11  30  1   
 26  11  31  1   
 27  12  14  ar  
 28  12  32  1   
 29  13  15  ar  
 30  13  33  1   
 31  14  16  1   
 32  14  17  ar  
 33  15  17  ar  
 34  15  34  1   
 35  16  35  1   
 36  16  36  1   
 37  17  37  1   
@<TRIPOS>SUBSTRUCTURE
  1 ****   4 GROUP 4 **** **** 0

# MOE 2024.06 (io_trps.svl 2023.06)
