@<TRIPOS>MOLECULE
NONAME
58 62 1 0 0 
SMALL
USER_CHARGES


@<TRIPOS>ATOM
  1 O       -3.6870    -0.9820    -1.9510 O.2   1 <1>  -0.5700 
  2 C       -2.7210    -1.2420    -1.2760 C.2   1 <1>   0.5690 
  3 N       -2.4170    -2.5250    -0.9080 N.am  1 <1>  -0.6600 
  4 C       -1.8570    -0.0780    -0.8170 C.3   1 <1>  -0.0990 
  5 C       -1.2240    -2.8990    -0.0950 C.3   1 <1>   0.1400 
  6 C       -3.1930    -3.6950    -1.4500 C.3   1 <1>   0.2010 
  7 C       -0.4720    -0.5000    -0.3110 C.3   1 <1>  -0.1600 
  8 C       -0.6200    -1.6950     0.6330 C.3   1 <1>  -0.1600 
  9 C       -3.8540    -4.5580    -0.3690 C.2   1 <1>   0.5690 
 10 O       -3.2150    -5.5090     0.0250 O.2   1 <1>  -0.5700 
 11 N       -5.1100    -4.2860     0.1270 N.am  1 <1>  -0.6600 
 12 C       -5.9870    -3.1470    -0.3090 C.3   1 <1>   0.1400 
 13 C       -5.7390    -5.1750     1.1460 C.3   1 <1>   0.1400 
 14 C       -6.4680    -2.3020     0.8880 C.3   1 <1>   0.1430 
 15 C       -6.1580    -4.3540     2.3690 C.3   1 <1>  -0.1600 
 16 C       -7.4630    -1.2690     0.3890 C.ar  1 <1>   0.1670 
 17 C       -7.0980    -3.2060     1.9700 C.3   1 <1>  -0.1600 
 18 C       -5.3210    -1.4240     1.4600 C.3   1 <1>  -0.1600 
 19 N       -8.6790    -1.5280    -0.0310 N.ar  1 <1>  -0.6200 
 20 C       -6.9450    -0.0130     0.4140 C.ar  1 <1>  -0.1440 
 21 C       -5.5260     0.0040     0.9190 C.3   1 <1>  -0.0170 
 22 C       -9.4000    -0.4710    -0.4280 C.ar  1 <1>   0.6200 
 23 C       -7.7420     1.0160    -0.0130 C.ar  1 <1>   0.1600 
 24 N       -8.9690     0.7990    -0.4290 N.ar  1 <1>  -0.6200 
 25 C      -10.7590    -0.7220    -0.8930 C.ar  1 <1>   0.0000 
 26 C      -11.1250    -1.9430    -1.4670 C.ar  1 <1>  -0.1500 
 27 C      -11.7610     0.2470    -0.7850 C.ar  1 <1>  -0.1500 
 28 C      -12.4140    -2.1850    -1.9070 C.ar  1 <1>  -0.1500 
 29 C      -13.0520     0.0130    -1.2230 C.ar  1 <1>  -0.1500 
 30 C      -13.3820    -1.2060    -1.7860 C.ar  1 <1>  -0.1500 
 31 H       -2.3820     0.4260    -0.0280 H     1 <1>   0.0800 
 32 H       -1.7470     0.6140    -1.6330 H     1 <1>   0.0800 
 33 H       -0.4860    -3.3290    -0.7510 H     1 <1>   0.0800 
 34 H       -1.4960    -3.6460     0.6330 H     1 <1>   0.0800 
 35 H       -2.5150    -4.3220    -1.9990 H     1 <1>   0.0800 
 36 H       -3.9380    -3.3680    -2.1510 H     1 <1>   0.0800 
 37 H       -0.0010     0.3230     0.1980 H     1 <1>   0.0800 
 38 H        0.1480    -0.7780    -1.1470 H     1 <1>   0.0800 
 39 H        0.3420    -1.9700     1.0270 H     1 <1>   0.0800 
 40 H       -1.2500    -1.4320     1.4650 H     1 <1>   0.0800 
 41 H       -6.8460    -3.5550    -0.8130 H     1 <1>   0.0800 
 42 H       -5.4800    -2.5040    -1.0040 H     1 <1>   0.0800 
 43 H       -5.0580    -5.9500     1.4540 H     1 <1>   0.0800 
 44 H       -6.6020    -5.6480     0.7100 H     1 <1>   0.0800 
 45 H       -5.2760    -3.9680     2.8490 H     1 <1>   0.0800 
 46 H       -6.6560    -4.9980     3.0710 H     1 <1>   0.0800 
 47 H       -8.0090    -3.6300     1.5820 H     1 <1>   0.0800 
 48 H       -7.3610    -2.6230     2.8350 H     1 <1>   0.0800 
 49 H       -4.3500    -1.8070     1.2020 H     1 <1>   0.0800 
 50 H       -5.3910    -1.3890     2.5330 H     1 <1>   0.0800 
 51 H       -4.8610     0.2040     0.0990 H     1 <1>   0.0800 
 52 H       -5.3880     0.7420     1.6900 H     1 <1>   0.0800 
 53 H       -7.3720     2.0270    -0.0140 H     1 <1>   0.1500 
 54 H      -10.3850    -2.7170    -1.5710 H     1 <1>   0.1500 
 55 H      -11.5230     1.2020    -0.3490 H     1 <1>   0.1500 
 56 H      -12.6630    -3.1360    -2.3450 H     1 <1>   0.1500 
 57 H      -13.8000     0.7800    -1.1260 H     1 <1>   0.1500 
 58 H      -14.3860    -1.3910    -2.1280 H     1 <1>   0.1500 
@<TRIPOS>BOND
  1   1   2  2   
  2   2   3  am  
  3   2   4  1   
  4   3   5  1   
  5   3   6  1   
  6   4   7  1   
  7   4  31  1   
  8   4  32  1   
  9   5   8  1   
 10   5  33  1   
 11   5  34  1   
 12   6   9  1   
 13   6  35  1   
 14   6  36  1   
 15   7   8  1   
 16   7  37  1   
 17   7  38  1   
 18   8  39  1   
 19   8  40  1   
 20   9  10  2   
 21   9  11  am  
 22  11  12  1   
 23  11  13  1   
 24  12  14  1   
 25  12  41  1   
 26  12  42  1   
 27  13  15  1   
 28  13  43  1   
 29  13  44  1   
 30  14  16  1   
 31  14  17  1   
 32  14  18  1   
 33  15  17  1   
 34  15  45  1   
 35  15  46  1   
 36  16  19  ar  
 37  16  20  ar  
 38  17  47  1   
 39  17  48  1   
 40  18  21  1   
 41  18  49  1   
 42  18  50  1   
 43  19  22  ar  
 44  20  21  1   
 45  20  23  ar  
 46  21  51  1   
 47  21  52  1   
 48  22  24  ar  
 49  22  25  1   
 50  23  24  ar  
 51  23  53  1   
 52  25  26  ar  
 53  25  27  ar  
 54  26  28  ar  
 55  26  54  1   
 56  27  29  ar  
 57  27  55  1   
 58  28  30  ar  
 59  28  56  1   
 60  29  30  ar  
 61  29  57  1   
 62  30  58  1   
@<TRIPOS>SUBSTRUCTURE
  1 ****  14 GROUP 4 **** **** 0

# MOE 2024.06 (io_trps.svl 2023.06)
