@<TRIPOS>MOLECULE
NONAME
50 53 1 0 0 
SMALL
USER_CHARGES


@<TRIPOS>ATOM
  1 S       -0.1120    -0.7350     0.3750 S.3   1 <1>  -0.0800 
  2 C       -1.8010    -0.2440     0.2140 C.2   1 <1>   0.0400 
  3 C        0.4370     0.9280     0.4700 C.2   1 <1>  -0.1100 
  4 C       -2.8180    -1.2500     0.0870 C.2   1 <1>   0.1400 
  5 C       -1.8640     1.1110     0.2390 C.2   1 <1>  -0.1500 
  6 C       -0.6070     1.7710     0.3830 C.2   1 <1>  -0.1500 
  7 O       -2.5080    -2.5400     0.0890 O.3   1 <1>  -0.2800 
  8 C       -4.1660    -1.1310    -0.0470 C.2   1 <1>  -0.1500 
  9 C       -3.6090    -3.2480    -0.0400 C.2   1 <1>  -0.0400 
 10 C       -4.6790    -2.4270    -0.1300 C.2   1 <1>  -0.1500 
 11 C       -3.4790    -4.7620    -0.0620 C.3   1 <1>   0.0200 
 12 C       -4.8390    -5.4660    -0.1790 C.3   1 <1>  -0.0990 
 13 C       -4.7380    -6.9830    -0.1740 C.2   1 <1>   0.5690 
 14 O       -3.6540    -7.5050    -0.2820 O.2   1 <1>  -0.5700 
 15 N       -5.8760    -7.7290    -0.0570 N.am  1 <1>  -0.6600 
 16 C       -7.2710    -7.2240     0.0100 C.3   1 <1>   0.1400 
 17 C       -5.8520    -9.2110    -0.0130 C.3   1 <1>   0.1400 
 18 C       -8.1430    -8.4730    -0.1170 C.3   1 <1>   0.2000 
 19 C       -7.2720    -9.6240     0.3770 C.3   1 <1>  -0.0800 
 20 O       -9.2910    -8.3720     0.6520 O.3   1 <1>  -0.6800 
 21 C       -7.6920   -10.9910    -0.1840 C.3   1 <1>   0.0210 
 22 C       -6.7220   -12.0750     0.2450 C.2   1 <1>   0.1080 
 23 N       -6.4780   -12.3470     1.4900 N.2   1 <1>  -0.7070 
 24 C       -5.9870   -12.8760    -0.6220 C.2   1 <1>  -0.1500 
 25 N       -5.5710   -13.3410     1.4490 N.pl3 1 <1>   0.3000 
 26 C       -5.2570   -13.6780     0.1810 C.2   1 <1>  -0.3320 
 27 C       -4.2610   -14.7610    -0.1920 C.3   1 <1>  -0.0600 
 28 H        1.4930     1.0960     0.5820 H     1 <1>   0.1500 
 29 H       -2.7740     1.6780     0.1600 H     1 <1>   0.1500 
 30 H       -0.5440     2.8450     0.4140 H     1 <1>   0.1500 
 31 H       -4.7440    -0.2270    -0.0850 H     1 <1>   0.1500 
 32 H       -5.7190    -2.6750    -0.2420 H     1 <1>   0.1500 
 33 H       -2.8530    -5.0420    -0.8920 H     1 <1>   0.0800 
 34 H       -2.9870    -5.0790     0.8410 H     1 <1>   0.0800 
 35 H       -5.3140    -5.1630    -1.0930 H     1 <1>   0.0800 
 36 H       -5.4540    -5.1620     0.6480 H     1 <1>   0.0800 
 37 H       -7.4280    -6.7460     0.9610 H     1 <1>   0.0800 
 38 H       -7.4680    -6.5390    -0.7950 H     1 <1>   0.0800 
 39 H       -5.5920    -9.5860    -0.9890 H     1 <1>   0.0800 
 40 H       -5.1300    -9.5640     0.7050 H     1 <1>   0.0800 
 41 H       -8.4330    -8.6090    -1.1450 H     1 <1>   0.0800 
 42 H       -7.3000    -9.6640     1.4520 H     1 <1>   0.0800 
 43 H       -9.0710    -8.4550     1.6010 H     1 <1>   0.4000 
 44 H       -7.7320   -10.9550    -1.2580 H     1 <1>   0.0800 
 45 H       -8.6720   -11.2430     0.1790 H     1 <1>   0.0800 
 46 H       -6.0130   -12.8420    -1.6960 H     1 <1>   0.1500 
 47 H       -5.1870   -13.7640     2.3020 H     1 <1>   0.2700 
 48 H       -4.1840   -14.8400    -1.2620 H     1 <1>   0.0800 
 49 H       -4.5800   -15.7110     0.2000 H     1 <1>   0.0800 
 50 H       -3.2890   -14.5250     0.2040 H     1 <1>   0.0800 
@<TRIPOS>BOND
  1   1   2  1   
  2   1   3  1   
  3   2   4  1   
  4   2   5  2   
  5   3   6  2   
  6   3  28  1   
  7   4   7  1   
  8   4   8  2   
  9   5   6  1   
 10   5  29  1   
 11   6  30  1   
 12   7   9  1   
 13   8  10  1   
 14   8  31  1   
 15   9  10  2   
 16   9  11  1   
 17  10  32  1   
 18  11  12  1   
 19  11  33  1   
 20  11  34  1   
 21  12  13  1   
 22  12  35  1   
 23  12  36  1   
 24  13  14  2   
 25  13  15  am  
 26  15  16  1   
 27  15  17  1   
 28  16  18  1   
 29  16  37  1   
 30  16  38  1   
 31  17  19  1   
 32  17  39  1   
 33  17  40  1   
 34  18  19  1   
 35  18  20  1   
 36  18  41  1   
 37  19  21  1   
 38  19  42  1   
 39  20  43  1   
 40  21  22  1   
 41  21  44  1   
 42  21  45  1   
 43  22  23  2   
 44  22  24  1   
 45  23  25  1   
 46  24  26  2   
 47  24  46  1   
 48  25  26  1   
 49  25  47  1   
 50  26  27  1   
 51  27  48  1   
 52  27  49  1   
 53  27  50  1   
@<TRIPOS>SUBSTRUCTURE
  1 ****  13 GROUP 4 **** **** 0

# MOE 2024.06 (io_trps.svl 2023.06)
