@<TRIPOS>MOLECULE
NONAME
46 48 1 0 0 
SMALL
USER_CHARGES


@<TRIPOS>ATOM
  1 O       -0.9630     0.2180     1.0030 O.2   1 <1>  -0.5700 
  2 C       -2.0940     0.6210     0.9380 C.2   1 <1>   0.4230 
  3 C       -3.1610    -0.1620     0.3800 C.ar  1 <1>   0.0860 
  4 C       -2.3630     1.9850     1.5430 C.3   1 <1>  -0.1790 
  5 C       -4.1650     0.2940    -0.4700 C.ar  1 <1>   0.1660 
  6 C       -3.2380    -1.5080     0.6930 C.ar  1 <1>   0.1600 
  7 N       -5.1390    -0.4760    -0.8800 N.ar  1 <1>  -0.6200 
  8 C       -4.2020     1.7130    -1.0150 C.3   1 <1>  -0.0960 
  9 N       -4.1980    -2.2980     0.2850 N.ar  1 <1>  -0.6200 
 10 C       -5.1370    -1.7490    -0.4830 C.ar  1 <1>   0.7200 
 11 N       -6.1710    -2.5530    -0.9030 N.pl3 1 <1>  -0.8380 
 12 C       -6.1340    -4.0400    -0.7900 C.3   1 <1>   0.2090 
 13 C       -7.3960    -2.0120    -1.5620 C.3   1 <1>   0.2090 
 14 C       -7.3740    -4.5370    -0.0470 C.3   1 <1>  -0.1600 
 15 C       -8.6400    -2.5100    -0.8260 C.3   1 <1>  -0.1600 
 16 C       -8.6480    -4.0340    -0.7320 C.3   1 <1>   0.2000 
 17 O       -9.7600    -4.3940     0.0230 O.3   1 <1>  -0.5600 
 18 C      -10.2570    -5.6780    -0.2050 C.3   1 <1>   0.2630 
 19 C      -11.4890    -5.9070     0.6570 C.ar  1 <1>  -0.1430 
 20 C      -11.6990    -7.1400     1.2580 C.ar  1 <1>   0.1600 
 21 C      -12.4250    -4.9110     0.8530 C.ar  1 <1>  -0.1500 
 22 N      -12.7410    -7.4540     2.0120 N.ar  1 <1>  -0.6200 
 23 C      -13.5160    -5.2160     1.6380 C.ar  1 <1>  -0.1500 
 24 C      -13.6230    -6.4830     2.1850 C.ar  1 <1>   0.1600 
 25 H       -3.4040     2.1040     1.7770 H     1 <1>   0.0800 
 26 H       -2.0520     2.7550     0.8620 H     1 <1>   0.0800 
 27 H       -1.7970     2.0870     2.4520 H     1 <1>   0.0800 
 28 H       -2.4690    -1.9350     1.3150 H     1 <1>   0.1500 
 29 H       -3.2090     2.0850    -1.1900 H     1 <1>   0.0800 
 30 H       -4.7180     2.3580    -0.3290 H     1 <1>   0.0800 
 31 H       -4.7280     1.7300    -1.9540 H     1 <1>   0.0800 
 32 H       -5.2530    -4.3790    -0.2730 H     1 <1>   0.0800 
 33 H       -6.1080    -4.4600    -1.7810 H     1 <1>   0.0800 
 34 H       -7.4150    -2.3420    -2.5870 H     1 <1>   0.0800 
 35 H       -7.4040    -0.9360    -1.5620 H     1 <1>   0.0800 
 36 H       -7.3360    -4.1730     0.9650 H     1 <1>   0.0800 
 37 H       -7.3540    -5.6100    -0.0280 H     1 <1>   0.0800 
 38 H       -9.5170    -2.1760    -1.3490 H     1 <1>   0.0800 
 39 H       -8.6470    -2.0850     0.1620 H     1 <1>   0.0800 
 40 H       -8.7400    -4.4500    -1.7220 H     1 <1>   0.0800 
 41 H       -9.4910    -6.3930     0.0380 H     1 <1>   0.0800 
 42 H      -10.5210    -5.7650    -1.2450 H     1 <1>   0.0800 
 43 H      -10.9710    -7.9190     1.1110 H     1 <1>   0.1500 
 44 H      -12.3030    -3.9350     0.4140 H     1 <1>   0.1500 
 45 H      -14.2750    -4.4800     1.8270 H     1 <1>   0.1500 
 46 H      -14.4800    -6.7100     2.7960 H     1 <1>   0.1500 
@<TRIPOS>BOND
  1   1   2  2   
  2   2   3  1   
  3   2   4  1   
  4   3   5  ar  
  5   3   6  ar  
  6   4  25  1   
  7   4  26  1   
  8   4  27  1   
  9   5   7  ar  
 10   5   8  1   
 11   6   9  ar  
 12   6  28  1   
 13   7  10  ar  
 14   8  29  1   
 15   8  30  1   
 16   8  31  1   
 17   9  10  ar  
 18  10  11  1   
 19  11  12  1   
 20  11  13  1   
 21  12  14  1   
 22  12  32  1   
 23  12  33  1   
 24  13  15  1   
 25  13  34  1   
 26  13  35  1   
 27  14  16  1   
 28  14  36  1   
 29  14  37  1   
 30  15  16  1   
 31  15  38  1   
 32  15  39  1   
 33  16  17  1   
 34  16  40  1   
 35  17  18  1   
 36  18  19  1   
 37  18  41  1   
 38  18  42  1   
 39  19  20  ar  
 40  19  21  ar  
 41  20  22  ar  
 42  20  43  1   
 43  21  23  ar  
 44  21  44  1   
 45  22  24  ar  
 46  23  24  ar  
 47  23  45  1   
 48  24  46  1   
@<TRIPOS>SUBSTRUCTURE
  1 ****  11 GROUP 4 **** **** 0

# MOE 2024.06 (io_trps.svl 2023.06)
