@<TRIPOS>MOLECULE
NONAME
44 45 1 0 0 
SMALL
USER_CHARGES


@<TRIPOS>ATOM
  1 F       -1.3700    -0.6320     1.3610 F     1 <1>  -0.1900 
  2 C       -1.5470    -1.8930     1.0580 C.ar  1 <1>   0.1900 
  3 C       -0.6840    -2.5780     0.1950 C.ar  1 <1>   0.0830 
  4 C       -2.6320    -2.5190     1.6380 C.ar  1 <1>  -0.1500 
  5 O        0.4140    -2.0730    -0.4380 O.3   1 <1>  -0.3630 
  6 C       -0.9560    -3.9120    -0.0580 C.ar  1 <1>  -0.1500 
  7 C       -2.8730    -3.8520     1.3620 C.ar  1 <1>  -0.1500 
  8 C        0.8090    -0.7230    -0.3360 C.3   1 <1>   0.0400 
  9 C       -2.0440    -4.5850     0.5080 C.ar  1 <1>   0.0530 
 10 C       -2.2860    -5.9810     0.2140 C.2   1 <1>   0.0870 
 11 O       -1.4510    -6.6490    -0.5540 O.3   1 <1>  -0.0190 
 12 C       -3.2630    -6.8600     0.5600 C.2   1 <1>  -0.2330 
 13 N       -1.8070    -7.8950    -0.7440 N.2   1 <1>  -0.4100 
 14 C       -2.8840    -8.0390    -0.0660 C.2   1 <1>   0.3720 
 15 C       -4.4910    -6.7810     1.2740 C.2   1 <1>   1.0330 
 16 N       -3.6350    -9.2030     0.0030 N.pl3 1 <1>  -0.8520 
 17 O       -5.3650    -5.9640     0.9480 O.co2 1 <1>  -0.9000 
 18 O       -4.8250    -7.6900     2.0560 O.co2 1 <1>  -0.9000 
 19 C       -4.5500    -9.3700    -1.1620 C.3   1 <1>   0.2090 
 20 C       -5.8810    -8.5720    -1.0240 C.3   1 <1>   0.4230 
 21 N       -6.9160    -9.1320    -0.0830 N.4   1 <1>  -0.9590 
 22 C       -6.5640    -8.4480    -2.3840 C.3   1 <1>  -0.2400 
 23 C       -7.5800    -7.9870     0.6250 C.3   1 <1>   0.2630 
 24 C       -6.4080   -10.0800     0.9610 C.3   1 <1>   0.2630 
 25 H       -3.2830    -1.9710     2.2950 H     1 <1>   0.1500 
 26 H       -0.2940    -4.4410    -0.7200 H     1 <1>   0.1500 
 27 H       -3.7240    -4.3210     1.8210 H     1 <1>   0.1500 
 28 H        1.6820    -0.5830    -0.9490 H     1 <1>   0.0800 
 29 H        1.0460    -0.5030     0.6890 H     1 <1>   0.0800 
 30 H        0.0110    -0.0960    -0.6920 H     1 <1>   0.0800 
 31 H       -4.1760    -9.0990     0.8840 H     1 <1>   0.4000 
 32 H       -4.7550   -10.4150    -1.3130 H     1 <1>   0.0800 
 33 H       -4.0300    -9.0230    -2.0390 H     1 <1>   0.0800 
 34 H       -5.6200    -7.5750    -0.7070 H     1 <1>   0.0800 
 35 H       -7.6170    -9.6120    -0.6550 H     1 <1>   0.4500 
 36 H       -6.8230    -9.4150    -2.7770 H     1 <1>   0.0800 
 37 H       -5.8940    -7.9700    -3.0780 H     1 <1>   0.0800 
 38 H       -7.4440    -7.8340    -2.3130 H     1 <1>   0.0800 
 39 H       -6.9180    -7.5580     1.3580 H     1 <1>   0.0800 
 40 H       -8.4670    -8.3210     1.1350 H     1 <1>   0.0800 
 41 H       -7.8480    -7.2110    -0.0730 H     1 <1>   0.0800 
 42 H       -5.7410    -9.5780     1.6400 H     1 <1>   0.0800 
 43 H       -5.8790   -10.9000     0.5050 H     1 <1>   0.0800 
 44 H       -7.2290   -10.4750     1.5350 H     1 <1>   0.0800 
@<TRIPOS>BOND
  1   1   2  1   
  2   2   3  ar  
  3   2   4  ar  
  4   3   5  1   
  5   3   6  ar  
  6   4   7  ar  
  7   4  25  1   
  8   5   8  1   
  9   6   9  ar  
 10   6  26  1   
 11   7   9  ar  
 12   7  27  1   
 13   8  28  1   
 14   8  29  1   
 15   8  30  1   
 16   9  10  1   
 17  10  11  1   
 18  10  12  2   
 19  11  13  1   
 20  12  14  1   
 21  12  15  1   
 22  13  14  2   
 23  14  16  1   
 24  15  17  ar  
 25  15  18  ar  
 26  16  19  1   
 27  16  31  1   
 28  19  20  1   
 29  19  32  1   
 30  19  33  1   
 31  20  21  1   
 32  20  22  1   
 33  20  34  1   
 34  21  23  1   
 35  21  24  1   
 36  21  35  1   
 37  22  36  1   
 38  22  37  1   
 39  22  38  1   
 40  23  39  1   
 41  23  40  1   
 42  23  41  1   
 43  24  42  1   
 44  24  43  1   
 45  24  44  1   
@<TRIPOS>SUBSTRUCTURE
  1 ****  10 GROUP 4 **** **** 0

# MOE 2024.06 (io_trps.svl 2023.06)
