@<TRIPOS>MOLECULE
NONAME
53 56 1 0 0 
SMALL
USER_CHARGES


@<TRIPOS>ATOM
  1 O       -1.9650    -0.1030    -1.6000 O.2   1 <1>  -0.5700 
  2 C       -2.4070     0.5630    -0.6790 C.2   1 <1>   0.5440 
  3 N       -2.8310    -0.1490     0.4340 N.am  1 <1>  -0.6600 
  4 C       -2.4790     2.0240    -0.8030 C.ar  1 <1>   0.3960 
  5 C       -4.0770     0.1610     1.1750 C.3   1 <1>   0.1400 
  6 C       -2.1710    -1.4210     0.8150 C.3   1 <1>   0.1400 
  7 N       -2.7680     2.7940     0.2620 N.ar  1 <1>  -0.6200 
  8 C       -2.2290     2.6050    -2.0560 C.ar  1 <1>   0.1600 
  9 C       -5.0800    -0.9640     0.9080 C.3   1 <1>  -0.1600 
 10 C       -3.1340    -2.5650     0.5090 C.3   1 <1>  -0.1600 
 11 C       -2.7820     4.0870    -0.0070 C.ar  1 <1>   0.1600 
 12 N       -2.2520     3.9000    -2.3290 N.ar  1 <1>  -0.6200 
 13 C       -4.4710    -2.3370     1.2230 C.3   1 <1>   0.4230 
 14 C       -2.5340     4.6240    -1.2630 C.ar  1 <1>   0.1600 
 15 N       -5.4520    -3.4070     0.9030 N.4   1 <1>  -0.9060 
 16 C       -5.7830    -3.6330    -0.5380 C.3   1 <1>   0.4230 
 17 C       -7.2070    -4.1710    -0.6790 C.3   1 <1>  -0.0800 
 18 C       -5.0120    -4.8600    -1.0120 C.3   1 <1>   0.1200 
 19 C       -7.0400    -5.6780    -0.4230 C.3   1 <1>   0.1200 
 20 C       -8.3070    -3.5010     0.1690 C.3   1 <1>  -0.0160 
 21 O       -5.6610    -5.8960    -0.3540 O.3   1 <1>  -0.5600 
 22 C       -9.6680    -4.0810    -0.1770 C.ar  1 <1>  -0.1430 
 23 C      -10.2780    -5.0450     0.6020 C.ar  1 <1>  -0.1500 
 24 C      -10.3670    -3.6720    -1.2960 C.ar  1 <1>  -0.1500 
 25 C      -11.5160    -5.5440     0.2310 C.ar  1 <1>   0.1600 
 26 C      -11.6010    -4.2350    -1.5770 C.ar  1 <1>   0.1600 
 27 N      -12.1880    -5.1640    -0.8410 N.ar  1 <1>  -0.6200 
 28 H       -3.8550     0.2440     2.2260 H     1 <1>   0.0800 
 29 H       -4.4990     1.0950     0.8470 H     1 <1>   0.0800 
 30 H       -1.2540    -1.5480     0.2610 H     1 <1>   0.0800 
 31 H       -1.9230    -1.3940     1.8630 H     1 <1>   0.0800 
 32 H       -1.9960     1.9510    -2.8780 H     1 <1>   0.1500 
 33 H       -5.3680    -0.9000    -0.1260 H     1 <1>   0.0800 
 34 H       -5.9490    -0.7950     1.5170 H     1 <1>   0.0800 
 35 H       -2.6860    -3.4860     0.8380 H     1 <1>   0.0800 
 36 H       -3.2560    -2.5940    -0.5590 H     1 <1>   0.0800 
 37 H       -3.0010     4.7590     0.8040 H     1 <1>   0.1500 
 38 H       -4.2740    -2.3630     2.2840 H     1 <1>   0.0800 
 39 H       -2.5690     5.6920    -1.3870 H     1 <1>   0.1500 
 40 H       -6.3140    -3.2280     1.4190 H     1 <1>   0.4500 
 41 H       -5.1100    -4.3210     1.2390 H     1 <1>   0.4500 
 42 H       -5.6010    -2.7580    -1.1410 H     1 <1>   0.0800 
 43 H       -7.4880    -4.0620    -1.7130 H     1 <1>   0.0800 
 44 H       -3.9700    -4.8610    -0.7480 H     1 <1>   0.0800 
 45 H       -5.1180    -5.0100    -2.0740 H     1 <1>   0.0800 
 46 H       -7.4470    -6.2660    -1.2300 H     1 <1>   0.0800 
 47 H       -7.4760    -5.9970     0.5090 H     1 <1>   0.0800 
 48 H       -8.3260    -2.4420    -0.0230 H     1 <1>   0.0800 
 49 H       -8.1330    -3.6470     1.2210 H     1 <1>   0.0800 
 50 H       -9.8130    -5.4190     1.4960 H     1 <1>   0.1500 
 51 H       -9.9740    -2.9210    -1.9560 H     1 <1>   0.1500 
 52 H      -11.9780    -6.2950     0.8490 H     1 <1>   0.1500 
 53 H      -12.1340    -3.9060    -2.4530 H     1 <1>   0.1500 
@<TRIPOS>BOND
  1   1   2  2   
  2   2   3  am  
  3   2   4  1   
  4   3   5  1   
  5   3   6  1   
  6   4   7  ar  
  7   4   8  ar  
  8   5   9  1   
  9   5  28  1   
 10   5  29  1   
 11   6  10  1   
 12   6  30  1   
 13   6  31  1   
 14   7  11  ar  
 15   8  12  ar  
 16   8  32  1   
 17   9  13  1   
 18   9  33  1   
 19   9  34  1   
 20  10  13  1   
 21  10  35  1   
 22  10  36  1   
 23  11  14  ar  
 24  11  37  1   
 25  12  14  ar  
 26  13  15  1   
 27  13  38  1   
 28  14  39  1   
 29  15  16  1   
 30  15  40  1   
 31  15  41  1   
 32  16  17  1   
 33  16  18  1   
 34  16  42  1   
 35  17  19  1   
 36  17  20  1   
 37  17  43  1   
 38  18  21  1   
 39  18  44  1   
 40  18  45  1   
 41  19  21  1   
 42  19  46  1   
 43  19  47  1   
 44  20  22  1   
 45  20  48  1   
 46  20  49  1   
 47  22  23  ar  
 48  22  24  ar  
 49  23  25  ar  
 50  23  50  1   
 51  24  26  ar  
 52  24  51  1   
 53  25  27  ar  
 54  25  52  1   
 55  26  27  ar  
 56  26  53  1   
@<TRIPOS>SUBSTRUCTURE
  1 ****   9 GROUP 4 **** **** 0

# MOE 2024.06 (io_trps.svl 2023.06)
