@<TRIPOS>MOLECULE
NONAME
37 38 1 0 0 
SMALL
USER_CHARGES


@<TRIPOS>ATOM
  1 O        1.0340     0.8650    -1.7410 O.2   1 <1>  -0.5700 
  2 C        1.6600    -0.0850    -1.2950 C.2   1 <1>   0.5650 
  3 N        2.7080     0.0420    -0.3440 N.pl3 1 <1>   0.5610 
  4 C        1.3290    -1.4070    -1.7150 C.2   1 <1>  -0.1360 
  5 N        3.2440     1.1520     0.2590 N.2   1 <1>  -0.7070 
  6 C        3.3500    -1.0830     0.1210 C.2   1 <1>  -0.0680 
  7 C        1.9660    -2.5140    -1.2430 C.2   1 <1>  -0.0380 
  8 C        4.1720     0.7080     1.0420 C.2   1 <1>   0.1080 
  9 N        2.9930    -2.3670    -0.3280 N.pl3 1 <1>  -0.5840 
 10 C        4.2910    -0.6760     1.0020 C.2   1 <1>  -0.1500 
 11 C        1.5710    -3.9230    -1.6720 C.3   1 <1>   0.4810 
 12 C        5.0140     1.6320     1.8920 C.3   1 <1>  -0.0590 
 13 N        0.9300    -4.5920    -0.5040 N.4   1 <1>  -0.9590 
 14 C        0.9610    -6.0830    -0.6680 C.3   1 <1>   0.3430 
 15 C       -0.4560    -4.0690    -0.2730 C.3   1 <1>   0.2630 
 16 C        0.5820    -6.8310     0.6140 C.3   1 <1>   0.1200 
 17 O        0.7920    -8.1770     0.3660 O.3   1 <1>  -0.5600 
 18 C        0.4950    -9.0170     1.4390 C.3   1 <1>   0.0400 
 19 H        0.5310    -1.4620    -2.4330 H     1 <1>   0.1500 
 20 H        3.6130    -3.1380    -0.0360 H     1 <1>   0.4000 
 21 H        4.9920    -1.2640     1.5670 H     1 <1>   0.1500 
 22 H        2.4560    -4.4590    -1.9760 H     1 <1>   0.0800 
 23 H        0.8880    -3.8870    -2.5050 H     1 <1>   0.0800 
 24 H        5.5350     2.3260     1.2580 H     1 <1>   0.0800 
 25 H        5.7290     1.0740     2.4670 H     1 <1>   0.0800 
 26 H        4.3780     2.1840     2.5590 H     1 <1>   0.0800 
 27 H        1.5050    -4.3320     0.3110 H     1 <1>   0.4500 
 28 H        1.9560    -6.3920    -0.9440 H     1 <1>   0.0800 
 29 H        0.2860    -6.3800    -1.4550 H     1 <1>   0.0800 
 30 H       -1.0920    -4.3020    -1.1120 H     1 <1>   0.0800 
 31 H       -0.4360    -2.9990    -0.1420 H     1 <1>   0.0800 
 32 H       -0.8830    -4.5090     0.6140 H     1 <1>   0.0800 
 33 H       -0.4570    -6.6900     0.8580 H     1 <1>   0.0800 
 34 H        1.2130    -6.5370     1.4350 H     1 <1>   0.0800 
 35 H        0.6940   -10.0300     1.1360 H     1 <1>   0.0800 
 36 H       -0.5460    -8.9170     1.6960 H     1 <1>   0.0800 
 37 H        1.1200    -8.7640     2.2790 H     1 <1>   0.0800 
@<TRIPOS>BOND
  1   1   2  2   
  2   2   3  1   
  3   2   4  1   
  4   3   5  1   
  5   3   6  1   
  6   4   7  2   
  7   4  19  1   
  8   5   8  2   
  9   6   9  1   
 10   6  10  2   
 11   7   9  1   
 12   7  11  1   
 13   8  10  1   
 14   8  12  1   
 15   9  20  1   
 16  10  21  1   
 17  11  13  1   
 18  11  22  1   
 19  11  23  1   
 20  12  24  1   
 21  12  25  1   
 22  12  26  1   
 23  13  14  1   
 24  13  15  1   
 25  13  27  1   
 26  14  16  1   
 27  14  28  1   
 28  14  29  1   
 29  15  30  1   
 30  15  31  1   
 31  15  32  1   
 32  16  17  1   
 33  16  33  1   
 34  16  34  1   
 35  17  18  1   
 36  18  35  1   
 37  18  36  1   
 38  18  37  1   
@<TRIPOS>SUBSTRUCTURE
  1 ****   9 GROUP 4 **** **** 0

# MOE 2024.06 (io_trps.svl 2023.06)
