@<TRIPOS>MOLECULE
NONAME
51 53 1 0 0 
SMALL
USER_CHARGES


@<TRIPOS>ATOM
  1 O       -2.3260    -0.1690     1.3880 O.2   1 <1>  -0.5700 
  2 C       -2.1530     0.4090     0.3270 C.2   1 <1>   0.7160 
  3 N       -2.0640    -0.3340    -0.8320 N.am  1 <1>  -0.6600 
  4 C       -2.0240     1.8290     0.3150 C.2   1 <1>  -0.0860 
  5 C       -2.0550    -1.8200    -0.7950 C.3   1 <1>   0.1400 
  6 C       -1.9890     0.2730    -2.1910 C.3   1 <1>   0.0600 
  7 C       -3.0550     2.7410     0.0840 C.2   1 <1>   0.3720 
  8 C       -0.9260     2.6140     0.4590 C.2   1 <1>   0.0870 
  9 C       -3.4880    -2.3440    -0.7740 C.3   1 <1>  -0.0990 
 10 N       -2.6090     3.9490     0.0780 N.2   1 <1>  -0.4100 
 11 N       -4.3950     2.3930    -0.1310 N.pl3 1 <1>  -0.8210 
 12 O       -1.3250     3.8520     0.3090 O.3   1 <1>  -0.0190 
 13 C        0.4620     2.3100     0.7010 C.ar  1 <1>   0.0530 
 14 C       -3.4720    -3.8380    -0.5810 C.2   1 <1>   0.5690 
 15 C       -5.2460     3.3970    -0.8480 C.3   1 <1>   0.2090 
 16 C       -5.1030     1.8380     1.0660 C.3   1 <1>   0.2090 
 17 C        0.8540     1.1920     1.4380 C.ar  1 <1>  -0.1500 
 18 C        1.4700     3.1320     0.1970 C.ar  1 <1>  -0.1500 
 19 O       -3.4380    -4.5500    -1.5530 O.2   1 <1>  -0.5700 
 20 N       -3.4760    -4.3260     0.6860 N.am  1 <1>  -0.7300 
 21 C       -5.8710     4.4220     0.1190 C.3   1 <1>   0.1200 
 22 C       -5.7230     2.9530     1.9290 C.3   1 <1>   0.1200 
 23 C        2.1890     0.9000     1.6500 C.ar  1 <1>  -0.1500 
 24 C        2.8070     2.8470     0.4080 C.ar  1 <1>  -0.1500 
 25 C       -3.4620    -5.7650     1.0490 C.3   1 <1>   0.0600 
 26 O       -6.5520     3.7760     1.1580 O.3   1 <1>  -0.5600 
 27 C        3.1690     1.7270     1.1340 C.ar  1 <1>  -0.1500 
 28 H       -1.5330    -2.1520     0.0880 H     1 <1>   0.0800 
 29 H       -1.5310    -2.2100    -1.6520 H     1 <1>   0.0800 
 30 H       -2.3240     1.2960    -2.1790 H     1 <1>   0.0800 
 31 H       -2.6170    -0.2750    -2.8720 H     1 <1>   0.0800 
 32 H       -0.9730     0.2410    -2.5460 H     1 <1>   0.0800 
 33 H       -3.9760    -2.1170    -1.7030 H     1 <1>   0.0800 
 34 H       -4.0380    -1.8900     0.0290 H     1 <1>   0.0800 
 35 H       -6.0340     2.8810    -1.3670 H     1 <1>   0.0800 
 36 H       -4.6570     3.9150    -1.5850 H     1 <1>   0.0800 
 37 H       -4.4220     1.2690     1.6740 H     1 <1>   0.0800 
 38 H       -5.8820     1.1720     0.7380 H     1 <1>   0.0800 
 39 H        0.1090     0.5410     1.8600 H     1 <1>   0.1500 
 40 H        1.2030     4.0070    -0.3700 H     1 <1>   0.1500 
 41 H       -3.4790    -3.6660     1.4690 H     1 <1>   0.3700 
 42 H       -6.5790     5.0400    -0.4040 H     1 <1>   0.0800 
 43 H       -5.1100     5.0530     0.5430 H     1 <1>   0.0800 
 44 H       -4.9510     3.5570     2.3720 H     1 <1>   0.0800 
 45 H       -6.3220     2.5250     2.7130 H     1 <1>   0.0800 
 46 H        2.4650     0.0300     2.2200 H     1 <1>   0.1500 
 47 H        3.5660     3.4960     0.0070 H     1 <1>   0.1500 
 48 H       -3.4590    -6.3750     0.1610 H     1 <1>   0.0800 
 49 H       -4.3360    -6.0030     1.6300 H     1 <1>   0.0800 
 50 H       -2.5800    -5.9870     1.6250 H     1 <1>   0.0800 
 51 H        4.2090     1.5020     1.2990 H     1 <1>   0.1500 
@<TRIPOS>BOND
  1   1   2  2   
  2   2   3  am  
  3   2   4  1   
  4   3   5  1   
  5   3   6  1   
  6   4   7  1   
  7   4   8  2   
  8   5   9  1   
  9   5  28  1   
 10   5  29  1   
 11   6  30  1   
 12   6  31  1   
 13   6  32  1   
 14   7  10  2   
 15   7  11  1   
 16   8  12  1   
 17   8  13  1   
 18   9  14  1   
 19   9  33  1   
 20   9  34  1   
 21  10  12  1   
 22  11  15  1   
 23  11  16  1   
 24  13  17  ar  
 25  13  18  ar  
 26  14  19  2   
 27  14  20  am  
 28  15  21  1   
 29  15  35  1   
 30  15  36  1   
 31  16  22  1   
 32  16  37  1   
 33  16  38  1   
 34  17  23  ar  
 35  17  39  1   
 36  18  24  ar  
 37  18  40  1   
 38  20  25  1   
 39  20  41  1   
 40  21  26  1   
 41  21  42  1   
 42  21  43  1   
 43  22  26  1   
 44  22  44  1   
 45  22  45  1   
 46  23  27  ar  
 47  23  46  1   
 48  24  27  ar  
 49  24  47  1   
 50  25  48  1   
 51  25  49  1   
 52  25  50  1   
 53  27  51  1   
@<TRIPOS>SUBSTRUCTURE
  1 ****   2 GROUP 4 **** **** 0

# MOE 2024.06 (io_trps.svl 2023.06)
