@<TRIPOS>MOLECULE
NONAME
51 54 1 0 0 
SMALL
USER_CHARGES


@<TRIPOS>ATOM
  1 N        0.2010     0.1760     0.5910 N.ar  1 <1>  -0.6200 
  2 C       -0.9710     0.7360     0.9040 C.ar  1 <1>   0.7200 
  3 C        0.9020     0.8330    -0.2970 C.ar  1 <1>   0.1660 
  4 N       -1.4600     1.8760     0.4040 N.ar  1 <1>  -0.6200 
  5 N       -1.7430     0.0780     1.8380 N.pl3 1 <1>  -0.8380 
  6 C        0.4980     1.9990    -0.8670 C.ar  1 <1>  -0.1430 
  7 C        2.2610     0.4040    -0.7920 C.3   1 <1>   0.1430 
  8 C       -0.7210     2.5000    -0.4830 C.ar  1 <1>   0.1600 
  9 C       -2.8870     0.7500     2.5160 C.3   1 <1>   0.1290 
 10 C       -1.6520    -1.3920     2.0570 C.3   1 <1>   0.1290 
 11 C        1.5200     2.5290    -1.8410 C.3   1 <1>  -0.0160 
 12 C        3.1230     0.0410     0.4290 C.3   1 <1>   0.3430 
 13 C        2.1310    -0.8090    -1.7390 C.3   1 <1>  -0.1600 
 14 C        2.7650     1.6730    -1.5330 C.3   1 <1>  -0.1600 
 15 N        4.4440    -0.5280     0.0180 N.4   1 <1>  -0.9590 
 16 C        3.5020    -1.4250    -2.0780 C.3   1 <1>  -0.1600 
 17 C        4.3210    -1.7460    -0.8250 C.3   1 <1>   0.3430 
 18 C        5.3730    -0.7300     1.1570 C.3   1 <1>   0.5240 
 19 C        6.7800    -0.6020     0.5890 C.2   1 <1>   0.0460 
 20 N        7.0270     0.3300    -0.3600 N.2   1 <1>  -0.5650 
 21 C        7.8990    -1.3100     0.8730 C.2   1 <1>  -0.3320 
 22 C        8.2850     0.1770    -0.6230 C.2   1 <1>   0.0360 
 23 N        8.8740    -0.8030     0.0920 N.pl3 1 <1>   0.0330 
 24 C        8.1500    -2.4520     1.8460 C.3   1 <1>  -0.0600 
 25 H       -1.0930     3.4190    -0.9030 H     1 <1>   0.1500 
 26 H       -2.6860     1.8000     2.6410 H     1 <1>   0.0800 
 27 H       -3.0480     0.3170     3.4870 H     1 <1>   0.0800 
 28 H       -3.7770     0.6340     1.9210 H     1 <1>   0.0800 
 29 H       -1.1000    -1.8650     1.2640 H     1 <1>   0.0800 
 30 H       -2.6390    -1.8200     2.0800 H     1 <1>   0.0800 
 31 H       -1.1600    -1.5860     2.9930 H     1 <1>   0.0800 
 32 H        1.7100     3.5780    -1.6900 H     1 <1>   0.0800 
 33 H        1.1790     2.3610    -2.8480 H     1 <1>   0.0800 
 34 H        2.5850    -0.6820     1.0210 H     1 <1>   0.0800 
 35 H        3.2650     0.9230     1.0320 H     1 <1>   0.0800 
 36 H        1.6210    -0.5190    -2.6420 H     1 <1>   0.0800 
 37 H        1.5250    -1.5590    -1.2580 H     1 <1>   0.0800 
 38 H        3.3100     1.4500    -2.4330 H     1 <1>   0.0800 
 39 H        3.4060     2.2430    -0.8830 H     1 <1>   0.0800 
 40 H        4.9660     0.1670    -0.5470 H     1 <1>   0.4500 
 41 H        4.0680    -0.7590    -2.7060 H     1 <1>   0.0800 
 42 H        3.3520    -2.3320    -2.6370 H     1 <1>   0.0800 
 43 H        3.8320    -2.5290    -0.2670 H     1 <1>   0.0800 
 44 H        5.3010    -2.0930    -1.1150 H     1 <1>   0.0800 
 45 H        5.2270    -1.6910     1.6190 H     1 <1>   0.0800 
 46 H        5.2310     0.0450     1.8910 H     1 <1>   0.0800 
 47 H        8.8330     0.7660    -1.3400 H     1 <1>   0.1500 
 48 H        9.8580    -1.0890     0.0480 H     1 <1>   0.2700 
 49 H        7.2550    -2.7070     2.3830 H     1 <1>   0.0800 
 50 H        8.9040    -2.1700     2.5600 H     1 <1>   0.0800 
 51 H        8.4900    -3.3250     1.3150 H     1 <1>   0.0800 
@<TRIPOS>BOND
  1   1   2  ar  
  2   1   3  ar  
  3   2   4  ar  
  4   2   5  1   
  5   3   6  ar  
  6   3   7  1   
  7   4   8  ar  
  8   5   9  1   
  9   5  10  1   
 10   6   8  ar  
 11   6  11  1   
 12   7  12  1   
 13   7  13  1   
 14   7  14  1   
 15   8  25  1   
 16   9  26  1   
 17   9  27  1   
 18   9  28  1   
 19  10  29  1   
 20  10  30  1   
 21  10  31  1   
 22  11  14  1   
 23  11  32  1   
 24  11  33  1   
 25  12  15  1   
 26  12  34  1   
 27  12  35  1   
 28  13  16  1   
 29  13  36  1   
 30  13  37  1   
 31  14  38  1   
 32  14  39  1   
 33  15  17  1   
 34  15  18  1   
 35  15  40  1   
 36  16  17  1   
 37  16  41  1   
 38  16  42  1   
 39  17  43  1   
 40  17  44  1   
 41  18  19  1   
 42  18  45  1   
 43  18  46  1   
 44  19  20  1   
 45  19  21  2   
 46  20  22  2   
 47  21  23  1   
 48  21  24  1   
 49  22  23  1   
 50  22  47  1   
 51  23  48  1   
 52  24  49  1   
 53  24  50  1   
 54  24  51  1   
@<TRIPOS>SUBSTRUCTURE
  1 ****  12 GROUP 4 **** **** 0

# MOE 2024.06 (io_trps.svl 2023.06)
