@<TRIPOS>MOLECULE
NONAME
57 60 1 0 0 
SMALL
USER_CHARGES


@<TRIPOS>ATOM
  1 O       -1.5360     0.5180    -1.8120 O.2   1 <1>  -0.5700 
  2 C       -2.2220     1.3350    -1.2240 C.2   1 <1>   0.5440 
  3 N       -3.5330     1.0000    -0.9680 N.am  1 <1>  -0.6600 
  4 C       -1.6710     2.5990    -0.7870 C.ar  1 <1>   0.0860 
  5 C       -4.1380    -0.1950    -1.6110 C.3   1 <1>   0.1400 
  6 C       -4.1860     1.3470     0.3210 C.3   1 <1>   0.1400 
  7 C       -0.5550     2.6880     0.0820 C.ar  1 <1>   0.0000 
  8 C       -2.2390     3.7830    -1.1840 C.ar  1 <1>  -0.1500 
  9 C       -3.8940    -1.4110    -0.6930 C.3   1 <1>   0.4230 
 10 C       -3.9490     0.1850     1.2990 C.3   1 <1>  -0.1600 
 11 C       -0.1300     3.9740     0.4840 C.ar  1 <1>   0.3100 
 12 C        0.1510     1.5710     0.5820 C.ar  1 <1>  -0.1500 
 13 C       -1.7370     5.0080    -0.7380 C.ar  1 <1>   0.1660 
 14 N       -4.2710    -2.7510    -1.3020 N.4   1 <1>  -0.9590 
 15 C       -4.4010    -1.2130     0.7710 C.3   1 <1>   0.0000 
 16 N       -0.7300     5.1140     0.0670 N.ar  1 <1>  -0.6200 
 17 C        0.9600     4.0860     1.3620 C.ar  1 <1>  -0.1500 
 18 C        1.2100     1.7150     1.4370 C.ar  1 <1>  -0.1500 
 19 C       -2.3850     6.2970    -1.1990 C.3   1 <1>  -0.0970 
 20 C       -4.2980    -3.8740    -0.3110 C.3   1 <1>   0.3430 
 21 C       -5.5480    -2.7230    -2.0860 C.3   1 <1>   0.2630 
 22 C       -3.7300    -2.3100     1.6490 C.3   1 <1>  -0.1600 
 23 C       -5.9420    -1.3530     0.9520 C.3   1 <1>   0.1200 
 24 C        1.6260     2.9870     1.8390 C.ar  1 <1>  -0.1430 
 25 C       -3.3670    -3.5970     0.8730 C.3   1 <1>  -0.1600 
 26 O       -6.6590    -0.6200     0.0200 O.3   1 <1>  -0.6800 
 27 C        2.8040     3.1190     2.7870 C.3   1 <1>  -0.0970 
 28 H       -5.1830    -0.0110    -1.7750 H     1 <1>   0.0800 
 29 H       -3.6720    -0.3600    -2.5670 H     1 <1>   0.0800 
 30 H       -3.7710     2.2550     0.7260 H     1 <1>   0.0800 
 31 H       -5.2380     1.5080     0.1610 H     1 <1>   0.0800 
 32 H       -3.0830     3.7740    -1.8490 H     1 <1>   0.1500 
 33 H       -2.8200    -1.4340    -0.5970 H     1 <1>   0.0800 
 34 H       -2.8920     0.1760     1.5050 H     1 <1>   0.0800 
 35 H       -4.4400     0.4080     2.2300 H     1 <1>   0.0800 
 36 H       -0.1430     0.5820     0.2810 H     1 <1>   0.1500 
 37 H       -3.5090    -2.9550    -1.9650 H     1 <1>   0.4500 
 38 H        1.2540     5.0790     1.6470 H     1 <1>   0.1500 
 39 H        1.7360     0.8510     1.8050 H     1 <1>   0.1500 
 40 H       -3.1940     6.1080    -1.8790 H     1 <1>   0.0800 
 41 H       -1.6520     6.9080    -1.6920 H     1 <1>   0.0800 
 42 H       -2.7630     6.8320    -0.3470 H     1 <1>   0.0800 
 43 H       -5.3000    -3.9980     0.0660 H     1 <1>   0.0800 
 44 H       -4.0120    -4.7940    -0.7930 H     1 <1>   0.0800 
 45 H       -6.3770    -2.4730    -1.4450 H     1 <1>   0.0800 
 46 H       -5.7360    -3.6870    -2.5310 H     1 <1>   0.0800 
 47 H       -5.4930    -1.9900    -2.8740 H     1 <1>   0.0800 
 48 H       -2.8160    -1.9430     2.0870 H     1 <1>   0.0800 
 49 H       -4.3730    -2.5600     2.4770 H     1 <1>   0.0800 
 50 H       -6.2290    -1.0080     1.9310 H     1 <1>   0.0800 
 51 H       -6.2560    -2.3770     0.8610 H     1 <1>   0.0800 
 52 H       -3.3950    -4.4350     1.5480 H     1 <1>   0.0800 
 53 H       -2.3570    -3.5270     0.5050 H     1 <1>   0.0800 
 54 H       -7.5870    -0.4950     0.3160 H     1 <1>   0.4000 
 55 H        2.5910     2.6100     3.7100 H     1 <1>   0.0800 
 56 H        3.0070     4.1520     3.0040 H     1 <1>   0.0800 
 57 H        3.6810     2.6840     2.3430 H     1 <1>   0.0800 
@<TRIPOS>BOND
  1   1   2  2   
  2   2   3  am  
  3   2   4  1   
  4   3   5  1   
  5   3   6  1   
  6   4   7  ar  
  7   4   8  ar  
  8   5   9  1   
  9   5  28  1   
 10   5  29  1   
 11   6  10  1   
 12   6  30  1   
 13   6  31  1   
 14   7  11  ar  
 15   7  12  ar  
 16   8  13  ar  
 17   8  32  1   
 18   9  14  1   
 19   9  15  1   
 20   9  33  1   
 21  10  15  1   
 22  10  34  1   
 23  10  35  1   
 24  11  16  ar  
 25  11  17  ar  
 26  12  18  ar  
 27  12  36  1   
 28  13  16  ar  
 29  13  19  1   
 30  14  20  1   
 31  14  21  1   
 32  14  37  1   
 33  15  22  1   
 34  15  23  1   
 35  17  24  ar  
 36  17  38  1   
 37  18  24  ar  
 38  18  39  1   
 39  19  40  1   
 40  19  41  1   
 41  19  42  1   
 42  20  25  1   
 43  20  43  1   
 44  20  44  1   
 45  21  45  1   
 46  21  46  1   
 47  21  47  1   
 48  22  25  1   
 49  22  48  1   
 50  22  49  1   
 51  23  26  1   
 52  23  50  1   
 53  23  51  1   
 54  24  27  1   
 55  25  52  1   
 56  25  53  1   
 57  26  54  1   
 58  27  55  1   
 59  27  56  1   
 60  27  57  1   
@<TRIPOS>SUBSTRUCTURE
  1 ****   2 GROUP 4 **** **** 0

# MOE 2024.06 (io_trps.svl 2023.06)
