@<TRIPOS>MOLECULE
NONAME
47 49 1 0 0 
SMALL
USER_CHARGES


@<TRIPOS>ATOM
  1 O        1.0530     0.8350     0.0270 O.2   1 <1>  -0.5700 
  2 C        1.6360    -0.2210     0.1280 C.2   1 <1>   0.5690 
  3 N        2.9410    -0.2410     0.5640 N.am  1 <1>  -0.6600 
  4 C        0.8870    -1.4810    -0.3080 C.3   1 <1>   0.1810 
  5 C        3.4680     0.8750     1.4180 C.3   1 <1>   0.1400 
  6 C        3.9110    -1.3420     0.2880 C.3   1 <1>   0.1400 
  7 O        1.1300    -2.5630     0.5770 O.3   1 <1>  -0.3620 
  8 C        4.6440     1.6860     0.8080 C.3   1 <1>   0.4230 
  9 C        5.0820    -0.8480    -0.5890 C.3   1 <1>  -0.0800 
 10 C        0.6940    -3.8140     0.2900 C.ar  1 <1>   0.0820 
 11 N        4.7050     1.7190    -0.7090 N.4   1 <1>  -0.9590 
 12 C        6.0010     1.2750     1.4200 C.3   1 <1>   0.1200 
 13 C        6.4070    -0.7080     0.1760 C.3   1 <1>   0.1200 
 14 C        4.7180     0.3920    -1.4240 C.3   1 <1>   0.3430 
 15 C       -0.1650    -4.1130    -0.7640 C.ar  1 <1>  -0.1500 
 16 C        1.1510    -4.8360     1.1050 C.ar  1 <1>  -0.1500 
 17 C        3.5710     2.5440    -1.2370 C.3   1 <1>   0.2630 
 18 O        6.2090    -0.1020     1.4100 O.3   1 <1>  -0.5600 
 19 C       -0.5460    -5.4240    -0.9940 C.ar  1 <1>  -0.1500 
 20 C        0.7670    -6.1450     0.8720 C.ar  1 <1>  -0.1500 
 21 C       -0.0810    -6.4460    -0.1820 C.ar  1 <1>  -0.1440 
 22 C       -0.5030    -7.8810    -0.4380 C.3   1 <1>  -0.0970 
 23 H        1.2050    -1.7660    -1.2920 H     1 <1>   0.0800 
 24 H       -0.1710    -1.2860    -0.3080 H     1 <1>   0.0800 
 25 H        2.6710     1.5640     1.6380 H     1 <1>   0.0800 
 26 H        3.7710     0.4650     2.3660 H     1 <1>   0.0800 
 27 H        4.2710    -1.7480     1.2200 H     1 <1>   0.0800 
 28 H        3.4170    -2.1440    -0.2310 H     1 <1>   0.0800 
 29 H        4.4970     2.7020     1.1350 H     1 <1>   0.0800 
 30 H        5.2570    -1.6320    -1.3050 H     1 <1>   0.0800 
 31 H        5.5800     2.1980    -0.9520 H     1 <1>   0.4500 
 32 H        6.0160     1.5720     2.4540 H     1 <1>   0.0800 
 33 H        6.8240     1.7610     0.9260 H     1 <1>   0.0800 
 34 H        7.1490    -0.1600    -0.3810 H     1 <1>   0.0800 
 35 H        6.8030    -1.6890     0.3820 H     1 <1>   0.0800 
 36 H        3.7390     0.2150    -1.8410 H     1 <1>   0.0800 
 37 H        5.4030     0.4580    -2.2530 H     1 <1>   0.0800 
 38 H       -0.5540    -3.3490    -1.4090 H     1 <1>   0.1500 
 39 H        1.8060    -4.6040     1.9250 H     1 <1>   0.1500 
 40 H        2.6280     2.0760    -1.0070 H     1 <1>   0.0800 
 41 H        3.6480     2.6490    -2.3070 H     1 <1>   0.0800 
 42 H        3.5800     3.5270    -0.7950 H     1 <1>   0.0800 
 43 H       -1.2120    -5.6480    -1.8090 H     1 <1>   0.1500 
 44 H        1.1300    -6.9270     1.5150 H     1 <1>   0.1500 
 45 H       -0.6900    -8.0380    -1.4850 H     1 <1>   0.0800 
 46 H       -1.4000    -8.1000     0.1130 H     1 <1>   0.0800 
 47 H        0.2700    -8.5620    -0.1280 H     1 <1>   0.0800 
@<TRIPOS>BOND
  1   1   2  2   
  2   2   3  am  
  3   2   4  1   
  4   3   5  1   
  5   3   6  1   
  6   4   7  1   
  7   4  23  1   
  8   4  24  1   
  9   5   8  1   
 10   5  25  1   
 11   5  26  1   
 12   6   9  1   
 13   6  27  1   
 14   6  28  1   
 15   7  10  1   
 16   8  11  1   
 17   8  12  1   
 18   8  29  1   
 19   9  13  1   
 20   9  14  1   
 21   9  30  1   
 22  10  15  ar  
 23  10  16  ar  
 24  11  14  1   
 25  11  17  1   
 26  11  31  1   
 27  12  18  1   
 28  12  32  1   
 29  12  33  1   
 30  13  18  1   
 31  13  34  1   
 32  13  35  1   
 33  14  36  1   
 34  14  37  1   
 35  15  19  ar  
 36  15  38  1   
 37  16  20  ar  
 38  16  39  1   
 39  17  40  1   
 40  17  41  1   
 41  17  42  1   
 42  19  21  ar  
 43  19  43  1   
 44  20  21  ar  
 45  20  44  1   
 46  21  22  1   
 47  22  45  1   
 48  22  46  1   
 49  22  47  1   
@<TRIPOS>SUBSTRUCTURE
  1 ****   6 GROUP 4 **** **** 0

# MOE 2024.06 (io_trps.svl 2023.06)
