@<TRIPOS>MOLECULE
NONAME
45 48 1 0 0 
SMALL
USER_CHARGES


@<TRIPOS>ATOM
  1 O       -1.9690     0.4310     1.6600 O.2   1 <1>  -0.5700 
  2 C       -2.1620     1.6230     1.4590 C.2   1 <1>   0.7160 
  3 N       -3.4300     2.1100     1.7450 N.am  1 <1>  -0.6600 
  4 C       -1.0690     2.4350     0.9230 C.2   1 <1>   0.2030 
  5 C       -4.4140     1.2860     2.5060 C.3   1 <1>   0.1400 
  6 C       -3.9730     3.3910     1.2170 C.3   1 <1>   0.1400 
  7 N       -0.8070     3.7120     1.1770 N.2   1 <1>  -0.7070 
  8 C       -0.0920     1.9300     0.0510 C.2   1 <1>  -0.1810 
  9 C       -5.1500     0.2690     1.6140 C.3   1 <1>   0.1400 
 10 C       -4.8540     3.1620    -0.0170 C.3   1 <1>  -0.1600 
 11 N        0.3040     4.0060     0.4820 N.pl3 1 <1>   0.3000 
 12 C        0.7530     2.9390    -0.1980 C.2   1 <1>  -0.3320 
 13 C        0.0820     0.5440    -0.5500 C.3   1 <1>   0.3010 
 14 N       -5.5310     0.7930     0.2600 N.am  1 <1>  -0.6600 
 15 C       -6.0260     2.1980     0.2050 C.3   1 <1>   0.1400 
 16 C        1.9570     2.7820    -1.1020 C.3   1 <1>   0.0200 
 17 O        1.0130     0.6010    -1.6070 O.3   1 <1>  -0.5600 
 18 C       -5.4840     0.0160    -0.8870 C.2   1 <1>   0.7150 
 19 C        2.2120     1.2760    -1.3220 C.3   1 <1>   0.1200 
 20 O       -5.9590     0.4690    -1.9160 O.2   1 <1>  -0.5700 
 21 C       -4.8900    -1.3050    -0.9050 C.2   1 <1>   0.0550 
 22 O       -5.5960    -2.3660    -1.2910 O.3   1 <1>  -0.2800 
 23 C       -3.6340    -1.7250    -0.5820 C.2   1 <1>  -0.1500 
 24 C       -4.8330    -3.4330    -1.2240 C.2   1 <1>  -0.0100 
 25 C       -3.5990    -3.1040    -0.7880 C.2   1 <1>  -0.1500 
 26 H       -5.1320     1.9300     2.9800 H     1 <1>   0.0800 
 27 H       -3.9030     0.7540     3.2900 H     1 <1>   0.0800 
 28 H       -3.1830     4.0660     0.9490 H     1 <1>   0.0800 
 29 H       -4.5470     3.8740     1.9890 H     1 <1>   0.0800 
 30 H       -6.0400    -0.0570     2.1220 H     1 <1>   0.0800 
 31 H       -4.5130    -0.5890     1.5180 H     1 <1>   0.0800 
 32 H       -4.2510     2.8140    -0.8370 H     1 <1>   0.0800 
 33 H       -5.2580     4.1140    -0.3090 H     1 <1>   0.0800 
 34 H        0.7340     4.9390     0.4950 H     1 <1>   0.2700 
 35 H       -0.8480     0.1840    -0.9510 H     1 <1>   0.0800 
 36 H        0.4430    -0.1480     0.1910 H     1 <1>   0.0800 
 37 H       -6.7250     2.3040    -0.6080 H     1 <1>   0.0800 
 38 H       -6.5530     2.4430     1.1110 H     1 <1>   0.0800 
 39 H        2.8270     3.2320    -0.6600 H     1 <1>   0.0800 
 40 H        1.7680     3.2560    -2.0490 H     1 <1>   0.0800 
 41 H        2.6430     0.8340    -0.4390 H     1 <1>   0.0800 
 42 H        2.8810     1.1260    -2.1500 H     1 <1>   0.0800 
 43 H       -2.8120    -1.1250    -0.2340 H     1 <1>   0.1500 
 44 H       -5.2450    -4.3870    -1.5050 H     1 <1>   0.1500 
 45 H       -2.7490    -3.7440    -0.6260 H     1 <1>   0.1500 
@<TRIPOS>BOND
  1   1   2  2   
  2   2   3  am  
  3   2   4  1   
  4   3   5  1   
  5   3   6  1   
  6   4   7  2   
  7   4   8  1   
  8   5   9  1   
  9   5  26  1   
 10   5  27  1   
 11   6  10  1   
 12   6  28  1   
 13   6  29  1   
 14   7  11  1   
 15   8  12  2   
 16   8  13  1   
 17   9  14  1   
 18   9  30  1   
 19   9  31  1   
 20  10  15  1   
 21  10  32  1   
 22  10  33  1   
 23  11  12  1   
 24  11  34  1   
 25  12  16  1   
 26  13  17  1   
 27  13  35  1   
 28  13  36  1   
 29  14  15  1   
 30  14  18  am  
 31  15  37  1   
 32  15  38  1   
 33  16  19  1   
 34  16  39  1   
 35  16  40  1   
 36  17  19  1   
 37  18  20  2   
 38  18  21  1   
 39  19  41  1   
 40  19  42  1   
 41  21  22  1   
 42  21  23  2   
 43  22  24  1   
 44  23  25  1   
 45  23  43  1   
 46  24  25  2   
 47  24  44  1   
 48  25  45  1   
@<TRIPOS>SUBSTRUCTURE
  1 ****   2 GROUP 4 **** **** 0

# MOE 2024.06 (io_trps.svl 2023.06)
