@<TRIPOS>MOLECULE
NONAME
55 58 1 0 0 
SMALL
USER_CHARGES


@<TRIPOS>ATOM
  1 F       -0.0490    -0.3710     1.0280 F     1 <1>  -0.1900 
  2 C       -0.7640    -0.5680    -0.0520 C.ar  1 <1>   0.1900 
  3 C       -1.2590     0.4980    -0.8140 C.ar  1 <1>   0.0820 
  4 C       -1.0020    -1.8870    -0.3940 C.ar  1 <1>  -0.1500 
  5 O       -1.0930     1.8300    -0.5750 O.3   1 <1>  -0.3630 
  6 C       -2.0030     0.1860    -1.9430 C.ar  1 <1>  -0.1500 
  7 C       -1.7500    -2.1690    -1.5250 C.ar  1 <1>  -0.1500 
  8 C       -0.4050     2.3300     0.5520 C.3   1 <1>   0.1200 
  9 C       -2.2490    -1.1320    -2.2960 C.ar  1 <1>  -0.1500 
 10 C       -0.4590     3.8630     0.5510 C.3   1 <1>  -0.0800 
 11 C        0.3090     4.4020     1.7670 C.3   1 <1>   0.2090 
 12 C       -1.9080     4.3920     0.5410 C.3   1 <1>  -0.1600 
 13 N        0.2350     5.8900     1.8210 N.pl3 1 <1>  -0.8380 
 14 C       -1.9210     5.9250     0.6210 C.3   1 <1>  -0.1600 
 15 C        1.3100     6.6650     1.4340 C.ar  1 <1>   0.4100 
 16 C       -1.1440     6.4430     1.8350 C.3   1 <1>   0.2090 
 17 N        2.1280     6.1630     0.5140 N.ar  1 <1>  -0.6200 
 18 C        1.5140     7.9220     2.0020 C.ar  1 <1>  -0.1500 
 19 C        3.1440     6.9250     0.1490 C.ar  1 <1>   0.1600 
 20 C        2.5710     8.7040     1.6040 C.ar  1 <1>  -0.1500 
 21 C        3.4240     8.2030     0.6250 C.ar  1 <1>   0.0860 
 22 C        4.5580     8.9400     0.1190 C.2   1 <1>   0.5440 
 23 O        5.6090     8.3570    -0.0700 O.2   1 <1>  -0.5700 
 24 N        4.4870    10.2870    -0.1750 N.am  1 <1>  -0.6600 
 25 C        3.2290    10.9800    -0.5880 C.3   1 <1>   0.1400 
 26 C        5.7120    11.1090    -0.4150 C.3   1 <1>   0.1400 
 27 C        3.3730    11.5710    -2.0020 C.3   1 <1>   0.1200 
 28 C        5.7100    11.6800    -1.8420 C.3   1 <1>   0.1200 
 29 O        4.5170    12.3710    -2.0930 O.3   1 <1>  -0.5600 
 30 H       -0.6070    -2.6790     0.2160 H     1 <1>   0.1500 
 31 H       -2.3920     0.9870    -2.5460 H     1 <1>   0.1500 
 32 H       -1.9440    -3.1910    -1.8040 H     1 <1>   0.1500 
 33 H        0.6150     1.9920     0.5000 H     1 <1>   0.0800 
 34 H       -0.8800     1.9400     1.4360 H     1 <1>   0.0800 
 35 H       -2.8300    -1.3500    -3.1760 H     1 <1>   0.1500 
 36 H        0.0520     4.2110    -0.3300 H     1 <1>   0.0800 
 37 H        1.3380     4.0850     1.7220 H     1 <1>   0.0800 
 38 H       -0.1160     4.0050     2.6730 H     1 <1>   0.0800 
 39 H       -2.4480     3.9840     1.3780 H     1 <1>   0.0800 
 40 H       -2.4060     4.0790    -0.3600 H     1 <1>   0.0800 
 41 H       -2.9350     6.2760     0.6720 H     1 <1>   0.0800 
 42 H       -1.4750     6.3340    -0.2690 H     1 <1>   0.0800 
 43 H       -1.1190     7.5190     1.8080 H     1 <1>   0.0800 
 44 H       -1.6340     6.1390     2.7430 H     1 <1>   0.0800 
 45 H        0.8390     8.2620     2.7620 H     1 <1>   0.1500 
 46 H        3.8130     6.5150    -0.5890 H     1 <1>   0.1500 
 47 H        2.7490     9.6720     2.0370 H     1 <1>   0.1500 
 48 H        3.0170    11.7740     0.1070 H     1 <1>   0.0800 
 49 H        2.3980    10.2980    -0.5830 H     1 <1>   0.0800 
 50 H        6.6020    10.5230    -0.2670 H     1 <1>   0.0800 
 51 H        5.7350    11.9220     0.2890 H     1 <1>   0.0800 
 52 H        2.5230    12.1860    -2.2360 H     1 <1>   0.0800 
 53 H        3.4440    10.7850    -2.7340 H     1 <1>   0.0800 
 54 H        5.8130    10.8890    -2.5640 H     1 <1>   0.0800 
 55 H        6.5240    12.3720    -1.9670 H     1 <1>   0.0800 
@<TRIPOS>BOND
  1   1   2  1   
  2   2   3  ar  
  3   2   4  ar  
  4   3   5  1   
  5   3   6  ar  
  6   4   7  ar  
  7   4  30  1   
  8   5   8  1   
  9   6   9  ar  
 10   6  31  1   
 11   7   9  ar  
 12   7  32  1   
 13   8  10  1   
 14   8  33  1   
 15   8  34  1   
 16   9  35  1   
 17  10  11  1   
 18  10  12  1   
 19  10  36  1   
 20  11  13  1   
 21  11  37  1   
 22  11  38  1   
 23  12  14  1   
 24  12  39  1   
 25  12  40  1   
 26  13  15  1   
 27  13  16  1   
 28  14  16  1   
 29  14  41  1   
 30  14  42  1   
 31  15  17  ar  
 32  15  18  ar  
 33  16  43  1   
 34  16  44  1   
 35  17  19  ar  
 36  18  20  ar  
 37  18  45  1   
 38  19  21  ar  
 39  19  46  1   
 40  20  21  ar  
 41  20  47  1   
 42  21  22  1   
 43  22  23  2   
 44  22  24  am  
 45  24  25  1   
 46  24  26  1   
 47  25  27  1   
 48  25  48  1   
 49  25  49  1   
 50  26  28  1   
 51  26  50  1   
 52  26  51  1   
 53  27  29  1   
 54  27  52  1   
 55  27  53  1   
 56  28  29  1   
 57  28  54  1   
 58  28  55  1   
@<TRIPOS>SUBSTRUCTURE
  1 ****  17 GROUP 4 **** **** 0

# MOE 2024.06 (io_trps.svl 2023.06)
