@<TRIPOS>MOLECULE
NONAME
55 57 1 0 0 
SMALL
USER_CHARGES


@<TRIPOS>ATOM
  1 O        0.6810     0.3360    -1.6180 O.3   1 <1>  -0.5600 
  2 C        1.7800    -0.4690    -1.2600 C.3   1 <1>   0.2000 
  3 C        0.9570     1.6790    -1.8720 C.3   1 <1>   0.1200 
  4 C        2.6280     0.1480    -0.0990 C.3   1 <1>   0.5660 
  5 C        1.1770    -1.8310    -0.8730 C.3   1 <1>   0.1200 
  6 C        1.4820     2.3360    -0.5900 C.3   1 <1>   0.3430 
  7 N        2.7190     1.6440    -0.1140 N.4   1 <1>  -0.9590 
  8 C        4.0720    -0.3480    -0.1250 C.ar  1 <1>  -0.1430 
  9 O        2.0800    -2.6030    -0.1540 O.3   1 <1>  -0.6800 
 10 C        3.2400     2.1870     1.1660 C.3   1 <1>   0.4870 
 11 C        4.9020    -0.1070    -1.2150 C.ar  1 <1>  -0.1500 
 12 C        4.5750    -1.0460     0.9640 C.ar  1 <1>  -0.1500 
 13 C        3.5010     3.6720     0.9920 C.ar  1 <1>  -0.1430 
 14 C        6.2110    -0.5550    -1.2100 C.ar  1 <1>  -0.1500 
 15 C        5.8860    -1.4890     0.9690 C.ar  1 <1>  -0.1500 
 16 C        4.3850     4.1170     0.0140 C.ar  1 <1>   0.0830 
 17 C        2.8480     4.5880     1.7990 C.ar  1 <1>  -0.1500 
 18 C        6.7050    -1.2430    -0.1170 C.ar  1 <1>  -0.1500 
 19 O        5.0090     3.1540    -0.7250 O.3   1 <1>  -0.3630 
 20 C        4.5830     5.4890    -0.1880 C.ar  1 <1>   0.0830 
 21 C        3.0510     5.9430     1.6200 C.ar  1 <1>  -0.1500 
 22 C        6.4140     3.2200    -0.8820 C.3   1 <1>   0.0400 
 23 O        5.4010     5.8790    -1.2120 O.3   1 <1>  -0.3630 
 24 C        3.9040     6.4100     0.6220 C.ar  1 <1>   0.0830 
 25 C        6.3890     6.8630    -0.9820 C.3   1 <1>   0.0400 
 26 O        4.0710     7.7470     0.4040 O.3   1 <1>  -0.3630 
 27 C        3.3530     8.7310     1.1160 C.3   1 <1>   0.0400 
 28 H        2.3860    -0.5920    -2.1390 H     1 <1>   0.0800 
 29 H        1.6690     1.7520    -2.6760 H     1 <1>   0.0800 
 30 H        0.0380     2.1490    -2.1780 H     1 <1>   0.0800 
 31 H        2.1720    -0.1670     0.8240 H     1 <1>   0.0800 
 32 H        0.8730    -2.3820    -1.7470 H     1 <1>   0.0800 
 33 H        0.3210    -1.6800    -0.2370 H     1 <1>   0.0800 
 34 H        0.7140     2.2860     0.1640 H     1 <1>   0.0800 
 35 H        1.6950     3.3750    -0.7840 H     1 <1>   0.0800 
 36 H        3.4760     1.8780    -0.7760 H     1 <1>   0.4500 
 37 H        2.6210    -3.1710    -0.7450 H     1 <1>   0.4000 
 38 H        2.5300     2.0230     1.9600 H     1 <1>   0.0800 
 39 H        4.1670     1.6980     1.4230 H     1 <1>   0.0800 
 40 H        4.5500     0.4280    -2.0800 H     1 <1>   0.1500 
 41 H        3.9520    -1.2640     1.8160 H     1 <1>   0.1500 
 42 H        6.8510    -0.3700    -2.0570 H     1 <1>   0.1500 
 43 H        6.2700    -2.0310     1.8170 H     1 <1>   0.1500 
 44 H        2.1740     4.2620     2.5740 H     1 <1>   0.1500 
 45 H        7.7240    -1.5920    -0.1130 H     1 <1>   0.1500 
 46 H        2.5290     6.6220     2.2680 H     1 <1>   0.1500 
 47 H        6.7910     2.2230    -1.0160 H     1 <1>   0.0800 
 48 H        6.8530     3.6620    -0.0040 H     1 <1>   0.0800 
 49 H        6.6400     3.8110    -1.7520 H     1 <1>   0.0800 
 50 H        7.1960     6.6970    -1.6720 H     1 <1>   0.0800 
 51 H        6.7450     6.7820     0.0300 H     1 <1>   0.0800 
 52 H        5.9610     7.8330    -1.1570 H     1 <1>   0.0800 
 53 H        3.6380     9.6940     0.7330 H     1 <1>   0.0800 
 54 H        3.6080     8.6660     2.1590 H     1 <1>   0.0800 
 55 H        2.2990     8.5770     0.9630 H     1 <1>   0.0800 
@<TRIPOS>BOND
  1   1   2  1   
  2   1   3  1   
  3   2   4  1   
  4   2   5  1   
  5   2  28  1   
  6   3   6  1   
  7   3  29  1   
  8   3  30  1   
  9   4   7  1   
 10   4   8  1   
 11   4  31  1   
 12   5   9  1   
 13   5  32  1   
 14   5  33  1   
 15   6   7  1   
 16   6  34  1   
 17   6  35  1   
 18   7  10  1   
 19   7  36  1   
 20   8  11  ar  
 21   8  12  ar  
 22   9  37  1   
 23  10  13  1   
 24  10  38  1   
 25  10  39  1   
 26  11  14  ar  
 27  11  40  1   
 28  12  15  ar  
 29  12  41  1   
 30  13  16  ar  
 31  13  17  ar  
 32  14  18  ar  
 33  14  42  1   
 34  15  18  ar  
 35  15  43  1   
 36  16  19  1   
 37  16  20  ar  
 38  17  21  ar  
 39  17  44  1   
 40  18  45  1   
 41  19  22  1   
 42  20  23  1   
 43  20  24  ar  
 44  21  24  ar  
 45  21  46  1   
 46  22  47  1   
 47  22  48  1   
 48  22  49  1   
 49  23  25  1   
 50  24  26  1   
 51  25  50  1   
 52  25  51  1   
 53  25  52  1   
 54  26  27  1   
 55  27  53  1   
 56  27  54  1   
 57  27  55  1   
@<TRIPOS>SUBSTRUCTURE
  1 ****   7 GROUP 4 **** **** 0

# MOE 2024.06 (io_trps.svl 2023.06)
