@<TRIPOS>MOLECULE
NONAME
29 30 1 0 0 
SMALL
USER_CHARGES


@<TRIPOS>ATOM
  1 CL      -0.5180    -0.4110    -0.9730 Cl    1 <1>  -0.1770 
  2 C        1.0260    -1.1570    -0.5890 C.ar  1 <1>   0.1770 
  3 C        1.1300    -2.4520    -0.0820 C.ar  1 <1>   0.4100 
  4 C        2.1770    -0.4530    -0.8060 C.ar  1 <1>   0.1600 
  5 N        2.3230    -2.9700     0.1630 N.ar  1 <1>  -0.6200 
  6 N        0.0420    -3.2620     0.1950 N.pl3 1 <1>  -0.8380 
  7 N        3.3710    -0.9620    -0.5520 N.ar  1 <1>  -0.6200 
  8 C        3.3660    -2.1970    -0.0820 C.ar  1 <1>   0.4770 
  9 C        0.1770    -4.7560     0.0610 C.3   1 <1>   0.3900 
 10 C       -1.0540    -2.7900     1.0850 C.3   1 <1>   0.1290 
 11 C        4.7210    -2.7980     0.2050 C.3   1 <1>  -0.0960 
 12 C       -1.1100    -5.4670    -0.3730 C.2   1 <1>   0.3350 
 13 N       -1.3520    -5.8760    -1.5570 N.2   1 <1>  -0.4100 
 14 N       -2.0940    -5.7380     0.4840 N.2   1 <1>  -0.5650 
 15 O       -2.5240    -6.4320    -1.5420 O.3   1 <1>  -0.0190 
 16 C       -2.9130    -6.3170    -0.2970 C.2   1 <1>   0.2980 
 17 C       -4.2630    -6.8670     0.0970 C.3   1 <1>  -0.0600 
 18 H        2.1250     0.5480    -1.1970 H     1 <1>   0.1500 
 19 H        0.4980    -5.1640     1.0020 H     1 <1>   0.0800 
 20 H        0.9360    -4.9780    -0.6690 H     1 <1>   0.0800 
 21 H       -0.8480    -1.7990     1.4490 H     1 <1>   0.0800 
 22 H       -1.1550    -3.4490     1.9300 H     1 <1>   0.0800 
 23 H       -1.9820    -2.7770     0.5390 H     1 <1>   0.0800 
 24 H        4.6290    -3.6250     0.8840 H     1 <1>   0.0800 
 25 H        5.3630    -2.0570     0.6440 H     1 <1>   0.0800 
 26 H        5.1580    -3.1420    -0.7140 H     1 <1>   0.0800 
 27 H       -4.4370    -6.6990     1.1440 H     1 <1>   0.0800 
 28 H       -4.2950    -7.9230    -0.0990 H     1 <1>   0.0800 
 29 H       -5.0330    -6.3770    -0.4700 H     1 <1>   0.0800 
@<TRIPOS>BOND
  1   1   2  1   
  2   2   3  ar  
  3   2   4  ar  
  4   3   5  ar  
  5   3   6  1   
  6   4   7  ar  
  7   4  18  1   
  8   5   8  ar  
  9   6   9  1   
 10   6  10  1   
 11   7   8  ar  
 12   8  11  1   
 13   9  12  1   
 14   9  19  1   
 15   9  20  1   
 16  10  21  1   
 17  10  22  1   
 18  10  23  1   
 19  11  24  1   
 20  11  25  1   
 21  11  26  1   
 22  12  13  2   
 23  12  14  1   
 24  13  15  1   
 25  14  16  2   
 26  15  16  1   
 27  16  17  1   
 28  17  27  1   
 29  17  28  1   
 30  17  29  1   
@<TRIPOS>SUBSTRUCTURE
  1 ****   6 GROUP 4 **** **** 0

# MOE 2024.06 (io_trps.svl 2023.06)
