@<TRIPOS>MOLECULE
NONAME
44 47 1 0 0 
SMALL
USER_CHARGES


@<TRIPOS>ATOM
  1 S        0.2130     0.0360     1.0060 S.o2  1 <1>   1.4470 
  2 O       -0.2170    -1.0540     1.8530 O.2   1 <1>  -0.6500 
  3 O        0.6950     1.2590     1.6130 O.2   1 <1>  -0.6500 
  4 N       -1.0950     0.4550     0.0140 N.am  1 <1>  -0.8490 
  5 C        1.4500    -0.5920    -0.1650 C.ar  1 <1>  -0.0090 
  6 C       -2.3320     0.6090     0.8000 C.3   1 <1>   0.1960 
  7 C       -0.8360     1.6710    -0.7650 C.3   1 <1>   0.1960 
  8 C        2.7850    -0.2070    -0.0640 C.ar  1 <1>  -0.1500 
  9 C        1.0840    -1.4860    -1.1790 C.ar  1 <1>  -0.1500 
 10 C       -3.5710     0.8150    -0.1090 C.3   1 <1>   0.0000 
 11 C       -1.9830     1.9270    -1.7480 C.3   1 <1>  -0.1600 
 12 C        3.7100    -0.7090    -0.9640 C.ar  1 <1>   0.1170 
 13 C        2.0080    -1.9900    -2.0830 C.ar  1 <1>  -0.1500 
 14 C       -4.8730     0.9650     0.7040 C.3   1 <1>   0.2000 
 15 C       -3.3320     2.0360    -1.0200 C.3   1 <1>  -0.1600 
 16 C       -3.8590    -0.4640    -0.9160 C.3   1 <1>  -0.1600 
 17 N        5.0620    -0.5280    -1.1250 N.am  1 <1>  -0.5470 
 18 C        3.3210    -1.5830    -1.9530 C.ar  1 <1>   0.0820 
 19 O       -4.7010     1.6730     1.8820 O.3   1 <1>  -0.6800 
 20 C       -5.3750    -0.4480     1.0060 C.3   1 <1>  -0.1600 
 21 C       -4.6430    -1.3780     0.0300 C.3   1 <1>  -0.1600 
 22 C        5.4420    -1.2850    -2.1830 C.2   1 <1>   0.7800 
 23 O        4.3920    -1.9290    -2.6980 O.3   1 <1>  -0.2330 
 24 O        6.5700    -1.3800    -2.6200 O.2   1 <1>  -0.5700 
 25 H       -2.4880    -0.2670     1.4060 H     1 <1>   0.0800 
 26 H       -2.2190     1.4510     1.4630 H     1 <1>   0.0800 
 27 H       -0.7300     2.5170    -0.1040 H     1 <1>   0.0800 
 28 H        0.0810     1.5610    -1.3190 H     1 <1>   0.0800 
 29 H        3.1010     0.4750     0.7070 H     1 <1>   0.1500 
 30 H        0.0520    -1.7890    -1.2540 H     1 <1>   0.1500 
 31 H       -1.7930     2.8390    -2.2840 H     1 <1>   0.0800 
 32 H       -2.0140     1.1270    -2.4660 H     1 <1>   0.0800 
 33 H        1.7230    -2.6760    -2.8610 H     1 <1>   0.1500 
 34 H       -5.6080     1.4860     0.1140 H     1 <1>   0.0800 
 35 H       -4.1280     2.1350    -1.7370 H     1 <1>   0.0800 
 36 H       -3.3290     2.9250    -0.4120 H     1 <1>   0.0800 
 37 H       -4.4830    -0.2270    -1.7610 H     1 <1>   0.0800 
 38 H       -2.9650    -0.9420    -1.2790 H     1 <1>   0.0800 
 39 H        5.7140     0.0310    -0.5780 H     1 <1>   0.3700 
 40 H       -4.2700     1.1120     2.5530 H     1 <1>   0.4000 
 41 H       -5.1580    -0.7430     2.0190 H     1 <1>   0.0800 
 42 H       -6.4370    -0.4960     0.8430 H     1 <1>   0.0800 
 43 H       -3.9570    -2.0060     0.5740 H     1 <1>   0.0800 
 44 H       -5.3280    -2.0060    -0.5130 H     1 <1>   0.0800 
@<TRIPOS>BOND
  1   1   2  2   
  2   1   3  2   
  3   1   4  am  
  4   1   5  1   
  5   4   6  1   
  6   4   7  1   
  7   5   8  ar  
  8   5   9  ar  
  9   6  10  1   
 10   6  25  1   
 11   6  26  1   
 12   7  11  1   
 13   7  27  1   
 14   7  28  1   
 15   8  12  ar  
 16   8  29  1   
 17   9  13  ar  
 18   9  30  1   
 19  10  14  1   
 20  10  15  1   
 21  10  16  1   
 22  11  15  1   
 23  11  31  1   
 24  11  32  1   
 25  12  17  1   
 26  12  18  ar  
 27  13  18  ar  
 28  13  33  1   
 29  14  19  1   
 30  14  20  1   
 31  14  34  1   
 32  15  35  1   
 33  15  36  1   
 34  16  21  1   
 35  16  37  1   
 36  16  38  1   
 37  17  22  am  
 38  17  39  1   
 39  18  23  1   
 40  19  40  1   
 41  20  21  1   
 42  20  41  1   
 43  20  42  1   
 44  21  43  1   
 45  21  44  1   
 46  22  23  1   
 47  22  24  2   
@<TRIPOS>SUBSTRUCTURE
  1 ****   4 GROUP 4 **** **** 0

# MOE 2024.06 (io_trps.svl 2023.06)
