@<TRIPOS>MOLECULE
NONAME
54 56 1 0 0 
SMALL
USER_CHARGES


@<TRIPOS>ATOM
  1 O       -0.7770    -0.2490    -0.4360 O.2   1 <1>  -0.5700 
  2 C       -1.6740     0.5630    -0.5610 C.2   1 <1>   0.7160 
  3 N       -2.8380     0.1440    -1.1250 N.am  1 <1>  -0.7300 
  4 C       -1.5390     1.9180    -0.1120 C.2   1 <1>  -0.0860 
  5 C       -3.1940    -1.2630    -1.4410 C.3   1 <1>   0.1400 
  6 C       -2.5820     2.8460     0.0240 C.2   1 <1>   0.3720 
  7 C       -0.4480     2.6170     0.3100 C.2   1 <1>   0.0870 
  8 C       -3.6360    -2.0300    -0.1810 C.3   1 <1>   0.2000 
  9 N       -2.1540     3.9660     0.4890 N.2   1 <1>  -0.4100 
 10 N       -3.9310     2.6200    -0.2930 N.pl3 1 <1>  -0.8210 
 11 O       -0.8700     3.8080     0.6570 O.3   1 <1>  -0.0190 
 12 C        0.9560     2.3130     0.4260 C.ar  1 <1>   0.0530 
 13 O       -3.9450    -3.3420    -0.5480 O.3   1 <1>  -0.5600 
 14 C       -4.8860    -1.4190     0.4770 C.3   1 <1>  -0.1600 
 15 C       -4.8610     2.8170     0.8560 C.3   1 <1>   0.2090 
 16 C       -4.4190     3.4420    -1.4370 C.3   1 <1>   0.2090 
 17 C        1.6370     1.5640    -0.5340 C.ar  1 <1>  -0.1500 
 18 C        1.6960     2.7840     1.5110 C.ar  1 <1>  -0.1500 
 19 C       -2.8750    -4.2340    -0.4950 C.3   1 <1>   0.0400 
 20 C       -5.3370    -2.1830     1.7300 C.3   1 <1>  -0.2400 
 21 C       -5.8090     3.9360     0.4490 C.3   1 <1>  -0.1600 
 22 C       -5.8320     3.8680    -1.0700 C.3   1 <1>  -0.1600 
 23 C        2.9860     1.2860    -0.4170 C.ar  1 <1>  -0.1500 
 24 C        3.0460     2.5140     1.6350 C.ar  1 <1>  -0.1500 
 25 C        3.7040     1.7630     0.6760 C.ar  1 <1>   0.0830 
 26 O        5.0250     1.5380     0.8690 O.3   1 <1>  -0.3630 
 27 C        5.7780     0.7560    -0.0300 C.3   1 <1>   0.0400 
 28 H       -3.6140     0.8180    -1.0440 H     1 <1>   0.3700 
 29 H       -2.3350    -1.7480    -1.8700 H     1 <1>   0.0800 
 30 H       -3.9910    -1.2710    -2.1640 H     1 <1>   0.0800 
 31 H       -2.8290    -2.0480     0.5340 H     1 <1>   0.0800 
 32 H       -5.6870    -1.3960    -0.2410 H     1 <1>   0.0800 
 33 H       -4.6700    -0.4060     0.7610 H     1 <1>   0.0800 
 34 H       -4.3340     3.0680     1.7630 H     1 <1>   0.0800 
 35 H       -5.4140     1.9070     1.0150 H     1 <1>   0.0800 
 36 H       -4.4100     2.8680    -2.3480 H     1 <1>   0.0800 
 37 H       -3.7960     4.3130    -1.5630 H     1 <1>   0.0800 
 38 H        1.0990     1.1910    -1.3880 H     1 <1>   0.1500 
 39 H        1.2040     3.3690     2.2680 H     1 <1>   0.1500 
 40 H       -3.2250    -5.1960    -0.8230 H     1 <1>   0.0800 
 41 H       -2.5230    -4.3030     0.5200 H     1 <1>   0.0800 
 42 H       -2.0880    -3.8930    -1.1450 H     1 <1>   0.0800 
 43 H       -5.6100    -3.1930     1.4750 H     1 <1>   0.0800 
 44 H       -6.1920    -1.7010     2.1700 H     1 <1>   0.0800 
 45 H       -4.5440    -2.2130     2.4570 H     1 <1>   0.0800 
 46 H       -5.3930     4.8750     0.7680 H     1 <1>   0.0800 
 47 H       -6.7850     3.8140     0.8840 H     1 <1>   0.0800 
 48 H       -6.5250     3.1130    -1.3970 H     1 <1>   0.0800 
 49 H       -6.0950     4.8090    -1.5190 H     1 <1>   0.0800 
 50 H        3.4590     0.7000    -1.1810 H     1 <1>   0.1500 
 51 H        3.6010     2.8830     2.4780 H     1 <1>   0.1500 
 52 H        6.7890     0.7090     0.3330 H     1 <1>   0.0800 
 53 H        5.7590     1.2220    -0.9990 H     1 <1>   0.0800 
 54 H        5.3570    -0.2330    -0.0680 H     1 <1>   0.0800 
@<TRIPOS>BOND
  1   1   2  2   
  2   2   3  am  
  3   2   4  1   
  4   3   5  1   
  5   3  28  1   
  6   4   6  1   
  7   4   7  2   
  8   5   8  1   
  9   5  29  1   
 10   5  30  1   
 11   6   9  2   
 12   6  10  1   
 13   7  11  1   
 14   7  12  1   
 15   8  13  1   
 16   8  14  1   
 17   8  31  1   
 18   9  11  1   
 19  10  15  1   
 20  10  16  1   
 21  12  17  ar  
 22  12  18  ar  
 23  13  19  1   
 24  14  20  1   
 25  14  32  1   
 26  14  33  1   
 27  15  21  1   
 28  15  34  1   
 29  15  35  1   
 30  16  22  1   
 31  16  36  1   
 32  16  37  1   
 33  17  23  ar  
 34  17  38  1   
 35  18  24  ar  
 36  18  39  1   
 37  19  40  1   
 38  19  41  1   
 39  19  42  1   
 40  20  43  1   
 41  20  44  1   
 42  20  45  1   
 43  21  22  1   
 44  21  46  1   
 45  21  47  1   
 46  22  48  1   
 47  22  49  1   
 48  23  25  ar  
 49  23  50  1   
 50  24  25  ar  
 51  24  51  1   
 52  25  26  1   
 53  26  27  1   
 54  27  52  1   
 55  27  53  1   
 56  27  54  1   
@<TRIPOS>SUBSTRUCTURE
  1 ****   4 GROUP 4 **** **** 0

# MOE 2024.06 (io_trps.svl 2023.06)
