@<TRIPOS>MOLECULE
NONAME
42 45 1 0 0 
SMALL
USER_CHARGES


@<TRIPOS>ATOM
  1 O       -0.5890     0.4230     0.5640 O.2   1 <1>  -0.5700 
  2 C       -1.6110     1.0090     0.2430 C.2   1 <1>   0.7160 
  3 N       -2.7410     0.2310     0.0610 N.am  1 <1>  -0.6600 
  4 C       -1.5820     2.4650     0.0780 C.2   1 <1>   0.2030 
  5 C       -4.1170     0.7160    -0.2210 C.3   1 <1>   0.1400 
  6 C       -2.7070    -1.2540     0.0390 C.3   1 <1>   0.1400 
  7 N       -2.5670     3.2540    -0.3460 N.2   1 <1>  -0.7070 
  8 C       -0.4420     3.2230     0.3580 C.2   1 <1>  -0.1500 
  9 C       -5.0090    -0.5000     0.0280 C.3   1 <1>   0.2000 
 10 C       -4.1210    -1.6820    -0.3690 C.3   1 <1>  -0.0800 
 11 N       -2.0560     4.4950    -0.3350 N.pl3 1 <1>   0.6010 
 12 C       -0.7530     4.5120     0.0940 C.2   1 <1>  -0.0260 
 13 O       -5.2820    -0.5610     1.3870 O.3   1 <1>  -0.6800 
 14 C       -4.5430    -3.0510     0.1940 C.3   1 <1>   0.0210 
 15 C       -2.6670     5.6820    -0.6880 C.2   1 <1>  -0.1810 
 16 N        0.0000     5.6660     0.1960 N.2   1 <1>  -0.5760 
 17 C       -3.5850    -4.1380    -0.2530 C.2   1 <1>   0.1080 
 18 C       -1.9390     6.8260    -0.5930 C.2   1 <1>  -0.1360 
 19 C       -0.5900     6.7660    -0.1390 C.2   1 <1>   0.3760 
 20 N       -3.4240    -4.4680    -1.4970 N.2   1 <1>  -0.7070 
 21 C       -2.7750    -4.8830     0.5970 C.2   1 <1>  -0.1500 
 22 N       -2.4990    -5.4460    -1.4730 N.pl3 1 <1>   0.3000 
 23 C       -2.0890    -5.7140    -0.2150 C.2   1 <1>  -0.3320 
 24 C       -1.0520    -6.7640     0.1380 C.3   1 <1>  -0.0600 
 25 H       -4.3920     1.5430     0.4110 H     1 <1>   0.0800 
 26 H       -4.1770     1.0150    -1.2530 H     1 <1>   0.0800 
 27 H       -1.9730    -1.6130    -0.6630 H     1 <1>   0.0800 
 28 H       -2.4620    -1.6150     1.0230 H     1 <1>   0.0800 
 29 H        0.4980     2.8420     0.7140 H     1 <1>   0.1500 
 30 H       -5.9400    -0.4620    -0.5100 H     1 <1>   0.0800 
 31 H       -4.1310    -1.7500    -1.4440 H     1 <1>   0.0800 
 32 H       -4.4480    -0.4120     1.8770 H     1 <1>   0.4000 
 33 H       -5.5290    -3.2960    -0.1590 H     1 <1>   0.0800 
 34 H       -4.5700    -3.0290     1.2680 H     1 <1>   0.0800 
 35 H       -3.6860     5.6160    -1.0160 H     1 <1>   0.1500 
 36 H       -2.3420     7.7880    -0.8490 H     1 <1>   0.1500 
 37 H       -0.0450     7.6920    -0.0770 H     1 <1>   0.0600 
 38 H       -2.7270    -4.7940     1.6680 H     1 <1>   0.1500 
 39 H       -2.1700    -5.9080    -2.3290 H     1 <1>   0.2700 
 40 H       -0.8970    -6.7870     1.2020 H     1 <1>   0.0800 
 41 H       -0.1150    -6.5370    -0.3390 H     1 <1>   0.0800 
 42 H       -1.3830    -7.7360    -0.1810 H     1 <1>   0.0800 
@<TRIPOS>BOND
  1   1   2  2   
  2   2   3  am  
  3   2   4  1   
  4   3   5  1   
  5   3   6  1   
  6   4   7  2   
  7   4   8  1   
  8   5   9  1   
  9   5  25  1   
 10   5  26  1   
 11   6  10  1   
 12   6  27  1   
 13   6  28  1   
 14   7  11  1   
 15   8  12  2   
 16   8  29  1   
 17   9  10  1   
 18   9  13  1   
 19   9  30  1   
 20  10  14  1   
 21  10  31  1   
 22  11  12  1   
 23  11  15  1   
 24  12  16  1   
 25  13  32  1   
 26  14  17  1   
 27  14  33  1   
 28  14  34  1   
 29  15  18  2   
 30  15  35  1   
 31  16  19  2   
 32  17  20  2   
 33  17  21  1   
 34  18  19  1   
 35  18  36  1   
 36  19  37  1   
 37  20  22  1   
 38  21  23  2   
 39  21  38  1   
 40  22  23  1   
 41  22  39  1   
 42  23  24  1   
 43  24  40  1   
 44  24  41  1   
 45  24  42  1   
@<TRIPOS>SUBSTRUCTURE
  1 ****   3 GROUP 4 **** **** 0

# MOE 2024.06 (io_trps.svl 2023.06)
