@<TRIPOS>MOLECULE
NONAME
55 57 1 0 0 
SMALL
USER_CHARGES


@<TRIPOS>ATOM
  1 O       -1.5860     0.7540     2.5010 O.2   1 <1>  -0.5700 
  2 C       -2.1860     1.0750     1.5020 C.2   1 <1>   0.5690 
  3 N       -3.2880     0.3640     1.0830 N.am  1 <1>  -0.6600 
  4 C       -1.6470     2.3120     0.7690 C.3   1 <1>  -0.0190 
  5 C       -4.0940     0.5810    -0.1630 C.3   1 <1>   0.1400 
  6 C       -3.7890    -0.8090     1.8740 C.3   1 <1>   0.1400 
  7 C       -2.6350     3.5000     0.7790 C.3   1 <1>  -0.1600 
  8 C       -1.0620     1.9940    -0.6310 C.3   1 <1>  -0.1600 
  9 C       -4.1530    -0.6850    -1.0380 C.3   1 <1>   0.2090 
 10 C       -3.8380    -2.0920     1.0270 C.3   1 <1>   0.2090 
 11 C       -2.0290     4.7830     0.1740 C.3   1 <1>   0.2000 
 12 C       -1.1620     3.1720    -1.6160 C.3   1 <1>  -0.1600 
 13 N       -4.5580    -1.8940    -0.2670 N.pl3 1 <1>  -0.8380 
 14 O       -3.0780     5.5130    -0.4150 O.3   1 <1>  -0.5600 
 15 C       -0.9380     4.5030    -0.8940 C.3   1 <1>   0.2000 
 16 C       -5.8800    -2.3280    -0.3640 C.ar  1 <1>   0.1000 
 17 C       -3.8120     6.3080     0.4650 C.3   1 <1>   0.0400 
 18 O       -0.9570     5.5070    -1.8400 O.3   1 <1>  -0.6800 
 19 C       -6.2060    -3.4660    -1.1030 C.ar  1 <1>  -0.1440 
 20 C       -6.8980    -1.6290     0.2750 C.ar  1 <1>  -0.1500 
 21 C       -7.5260    -3.8760    -1.1890 C.ar  1 <1>  -0.1500 
 22 C       -5.1210    -4.2600    -1.8150 C.3   1 <1>  -0.0970 
 23 C       -8.2170    -2.0370     0.1890 C.ar  1 <1>  -0.1440 
 24 C       -8.5270    -3.1680    -0.5480 C.ar  1 <1>  -0.1500 
 25 C       -9.3180    -1.2640     0.8930 C.3   1 <1>  -0.0970 
 26 H       -0.8100     2.6470     1.3580 H     1 <1>   0.0800 
 27 H       -5.0950     0.8580     0.1140 H     1 <1>   0.0800 
 28 H       -3.6940     1.3780    -0.7570 H     1 <1>   0.0800 
 29 H       -3.1670    -0.9880     2.7320 H     1 <1>   0.0800 
 30 H       -4.7770    -0.5910     2.2350 H     1 <1>   0.0800 
 31 H       -2.9300     3.6970     1.7940 H     1 <1>   0.0800 
 32 H       -3.5180     3.2440     0.2260 H     1 <1>   0.0800 
 33 H       -0.0250     1.7340    -0.5030 H     1 <1>   0.0800 
 34 H       -1.5360     1.1340    -1.0670 H     1 <1>   0.0800 
 35 H       -3.1850    -0.8610    -1.4720 H     1 <1>   0.0800 
 36 H       -4.8500    -0.5290    -1.8440 H     1 <1>   0.0800 
 37 H       -4.3230    -2.8720     1.5890 H     1 <1>   0.0800 
 38 H       -2.8330    -2.4140     0.8200 H     1 <1>   0.0800 
 39 H       -1.5790     5.3810     0.9490 H     1 <1>   0.0800 
 40 H       -2.1400     3.1820    -2.0650 H     1 <1>   0.0800 
 41 H       -0.4300     3.0520    -2.3960 H     1 <1>   0.0800 
 42 H        0.0370     4.4980    -0.4380 H     1 <1>   0.0800 
 43 H       -4.5780     6.8110    -0.0980 H     1 <1>   0.0800 
 44 H       -3.1590     7.0360     0.9150 H     1 <1>   0.0800 
 45 H       -4.2660     5.6880     1.2190 H     1 <1>   0.0800 
 46 H       -1.8790     5.8550    -1.8380 H     1 <1>   0.4000 
 47 H       -6.6460    -0.7570     0.8450 H     1 <1>   0.1500 
 48 H       -7.7850    -4.7520    -1.7570 H     1 <1>   0.1500 
 49 H       -5.5310    -5.1120    -2.3250 H     1 <1>   0.0800 
 50 H       -4.3960    -4.6010    -1.0990 H     1 <1>   0.0800 
 51 H       -4.6260    -3.6310    -2.5330 H     1 <1>   0.0800 
 52 H       -9.5470    -3.5010    -0.6240 H     1 <1>   0.1500 
 53 H      -10.1790    -1.1830     0.2550 H     1 <1>   0.0800 
 54 H       -8.9860    -0.2730     1.1450 H     1 <1>   0.0800 
 55 H       -9.5990    -1.7760     1.7950 H     1 <1>   0.0800 
@<TRIPOS>BOND
  1   1   2  2   
  2   2   3  am  
  3   2   4  1   
  4   3   5  1   
  5   3   6  1   
  6   4   7  1   
  7   4   8  1   
  8   4  26  1   
  9   5   9  1   
 10   5  27  1   
 11   5  28  1   
 12   6  10  1   
 13   6  29  1   
 14   6  30  1   
 15   7  11  1   
 16   7  31  1   
 17   7  32  1   
 18   8  12  1   
 19   8  33  1   
 20   8  34  1   
 21   9  13  1   
 22   9  35  1   
 23   9  36  1   
 24  10  13  1   
 25  10  37  1   
 26  10  38  1   
 27  11  14  1   
 28  11  15  1   
 29  11  39  1   
 30  12  15  1   
 31  12  40  1   
 32  12  41  1   
 33  13  16  1   
 34  14  17  1   
 35  15  18  1   
 36  15  42  1   
 37  16  19  ar  
 38  16  20  ar  
 39  17  43  1   
 40  17  44  1   
 41  17  45  1   
 42  18  46  1   
 43  19  21  ar  
 44  19  22  1   
 45  20  23  ar  
 46  20  47  1   
 47  21  24  ar  
 48  21  48  1   
 49  22  49  1   
 50  22  50  1   
 51  22  51  1   
 52  23  24  ar  
 53  23  25  1   
 54  24  52  1   
 55  25  53  1   
 56  25  54  1   
 57  25  55  1   
@<TRIPOS>SUBSTRUCTURE
  1 ****   5 GROUP 4 **** **** 0

# MOE 2024.06 (io_trps.svl 2023.06)
