@<TRIPOS>MOLECULE
NONAME
33 34 1 0 0 
SMALL
USER_CHARGES


@<TRIPOS>ATOM
  1 F        1.2090    -0.9310    -0.5120 F     1 <1>  -0.3400 
  2 C        2.0090    -0.5310     0.4700 C.3   1 <1>   0.6800 
  3 F        1.4570    -1.0220     1.5690 F     1 <1>  -0.3400 
  4 C        1.9890     0.9920     0.5320 C.3   1 <1>  -0.1600 
  5 C        3.3840    -1.1580     0.2710 C.3   1 <1>  -0.1600 
  6 C        2.7160     1.5660    -0.6800 C.3   1 <1>   0.2090 
  7 C        4.0640    -0.5220    -0.9370 C.3   1 <1>   0.2090 
  8 N        4.0750     0.9570    -0.7410 N.pl3 1 <1>  -0.8380 
  9 C        5.2320     1.6790    -0.5640 C.ar  1 <1>   0.7200 
 10 N        5.1370     3.0080    -0.5520 N.ar  1 <1>  -0.6200 
 11 N        6.3660     1.0000    -0.4100 N.ar  1 <1>  -0.6200 
 12 C        6.2330     3.6970    -0.3660 C.ar  1 <1>   0.1670 
 13 C        7.4490     1.7070    -0.2140 C.ar  1 <1>   0.1600 
 14 C        7.4670     3.0890    -0.1460 C.ar  1 <1>   0.0860 
 15 C        6.0580     5.2050    -0.4360 C.3   1 <1>  -0.0970 
 16 C        8.7080     3.7530     0.1370 C.2   1 <1>   0.4230 
 17 O        9.7490     3.4100    -0.3590 O.2   1 <1>  -0.5700 
 18 C        8.7770     4.8850     1.1430 C.3   1 <1>  -0.1790 
 19 H        2.5000     1.3190     1.4190 H     1 <1>   0.0800 
 20 H        0.9760     1.3460     0.5620 H     1 <1>   0.0800 
 21 H        3.2890    -2.2180     0.1300 H     1 <1>   0.0800 
 22 H        3.9910    -0.9730     1.1380 H     1 <1>   0.0800 
 23 H        2.7580     2.6390    -0.5980 H     1 <1>   0.0800 
 24 H        2.1820     1.3290    -1.5850 H     1 <1>   0.0800 
 25 H        3.5180    -0.7530    -1.8360 H     1 <1>   0.0800 
 26 H        5.0570    -0.9210    -1.0500 H     1 <1>   0.0800 
 27 H        8.3780     1.1750    -0.0920 H     1 <1>   0.1500 
 28 H        5.2020     5.4470    -1.0410 H     1 <1>   0.0800 
 29 H        6.9150     5.6720    -0.8840 H     1 <1>   0.0800 
 30 H        5.8980     5.6040     0.5480 H     1 <1>   0.0800 
 31 H        7.9230     4.8730     1.7940 H     1 <1>   0.0800 
 32 H        8.8320     5.8270     0.6300 H     1 <1>   0.0800 
 33 H        9.6620     4.7730     1.7420 H     1 <1>   0.0800 
@<TRIPOS>BOND
  1   1   2  1   
  2   2   3  1   
  3   2   4  1   
  4   2   5  1   
  5   4   6  1   
  6   4  19  1   
  7   4  20  1   
  8   5   7  1   
  9   5  21  1   
 10   5  22  1   
 11   6   8  1   
 12   6  23  1   
 13   6  24  1   
 14   7   8  1   
 15   7  25  1   
 16   7  26  1   
 17   8   9  1   
 18   9  10  ar  
 19   9  11  ar  
 20  10  12  ar  
 21  11  13  ar  
 22  12  14  ar  
 23  12  15  1   
 24  13  14  ar  
 25  13  27  1   
 26  14  16  1   
 27  15  28  1   
 28  15  29  1   
 29  15  30  1   
 30  16  17  2   
 31  16  18  1   
 32  18  31  1   
 33  18  32  1   
 34  18  33  1   
@<TRIPOS>SUBSTRUCTURE
  1 ****   9 GROUP 4 **** **** 0

# MOE 2024.06 (io_trps.svl 2023.06)
