@<TRIPOS>MOLECULE
NONAME
47 49 1 0 0 
SMALL
USER_CHARGES


@<TRIPOS>ATOM
  1 S       -0.6250     0.9870     0.9060 S.o2  1 <1>   1.4470 
  2 O       -0.6200    -0.1220     1.8410 O.2   1 <1>  -0.6500 
  3 O       -1.0660     2.2820     1.3800 O.2   1 <1>  -0.6500 
  4 N       -1.6370     0.5480    -0.3870 N.am  1 <1>  -0.8490 
  5 C        1.0190     1.1340     0.1300 C.ar  1 <1>  -0.0090 
  6 C       -3.0600     0.6910    -0.0830 C.3   1 <1>   0.1960 
  7 C       -1.4720    -0.8400    -0.8150 C.3   1 <1>   0.1960 
  8 C        1.3240     2.0760    -0.8600 C.ar  1 <1>  -0.1440 
  9 C        2.0320     0.2640     0.5260 C.ar  1 <1>  -0.1500 
 10 C       -3.4840    -0.6340     0.5530 C.3   1 <1>  -0.0800 
 11 C       -2.6000    -1.6620    -0.1740 C.3   1 <1>  -0.0800 
 12 C        2.5940     2.1220    -1.4170 C.ar  1 <1>  -0.1500 
 13 C        0.2880     3.0780    -1.3580 C.3   1 <1>  -0.0970 
 14 C        3.2970     0.3120    -0.0300 C.ar  1 <1>  -0.1500 
 15 C       -5.0070    -0.9460     0.5730 C.3   1 <1>   0.2800 
 16 C       -3.3770    -2.4720    -1.2260 C.3   1 <1>  -0.1600 
 17 C        3.5790     1.2450    -1.0060 C.ar  1 <1>  -0.1500 
 18 O       -5.6070    -0.4530    -0.5700 O.3   1 <1>  -0.6800 
 19 C       -5.2170    -2.4720     0.5770 C.3   1 <1>  -0.1600 
 20 C       -5.7460    -0.3260     1.7810 C.3   1 <1>  -0.1600 
 21 C       -4.5840    -3.2070    -0.6230 C.3   1 <1>  -0.1600 
 22 C       -5.6910     1.2070     1.9030 C.3   1 <1>  -0.2400 
 23 H       -3.2530     1.5390     0.5490 H     1 <1>   0.0800 
 24 H       -3.5840     0.8390    -1.0120 H     1 <1>   0.0800 
 25 H       -1.5580    -0.8710    -1.8880 H     1 <1>   0.0800 
 26 H       -0.5030    -1.2280    -0.5470 H     1 <1>   0.0800 
 27 H        1.8300    -0.4690     1.2890 H     1 <1>   0.1500 
 28 H       -3.1570    -0.6160     1.5770 H     1 <1>   0.0800 
 29 H       -2.1780    -2.3430     0.5460 H     1 <1>   0.0800 
 30 H        2.8280     2.8470    -2.1780 H     1 <1>   0.1500 
 31 H        0.7010     3.7180    -2.1170 H     1 <1>   0.0800 
 32 H       -0.0490     3.7010    -0.5490 H     1 <1>   0.0800 
 33 H       -0.5580     2.5670    -1.7820 H     1 <1>   0.0800 
 34 H        4.0590    -0.3740     0.2980 H     1 <1>   0.1500 
 35 H       -3.7360    -1.7950    -1.9840 H     1 <1>   0.0800 
 36 H       -2.7260    -3.1800    -1.7090 H     1 <1>   0.0800 
 37 H        4.5610     1.2900    -1.4450 H     1 <1>   0.1500 
 38 H       -6.5490    -0.7020    -0.5710 H     1 <1>   0.4000 
 39 H       -4.7640    -2.8570     1.4740 H     1 <1>   0.0800 
 40 H       -6.2640    -2.7100     0.6330 H     1 <1>   0.0800 
 41 H       -6.7790    -0.6240     1.7420 H     1 <1>   0.0800 
 42 H       -5.3390    -0.7450     2.6850 H     1 <1>   0.0800 
 43 H       -4.2830    -4.1910    -0.3040 H     1 <1>   0.0800 
 44 H       -5.3240    -3.3320    -1.3950 H     1 <1>   0.0800 
 45 H       -5.9740     1.6780     0.9780 H     1 <1>   0.0800 
 46 H       -4.7030     1.5320     2.1760 H     1 <1>   0.0800 
 47 H       -6.3680     1.5350     2.6710 H     1 <1>   0.0800 
@<TRIPOS>BOND
  1   1   2  2   
  2   1   3  2   
  3   1   4  am  
  4   1   5  1   
  5   4   6  1   
  6   4   7  1   
  7   5   8  ar  
  8   5   9  ar  
  9   6  10  1   
 10   6  23  1   
 11   6  24  1   
 12   7  11  1   
 13   7  25  1   
 14   7  26  1   
 15   8  12  ar  
 16   8  13  1   
 17   9  14  ar  
 18   9  27  1   
 19  10  11  1   
 20  10  15  1   
 21  10  28  1   
 22  11  16  1   
 23  11  29  1   
 24  12  17  ar  
 25  12  30  1   
 26  13  31  1   
 27  13  32  1   
 28  13  33  1   
 29  14  17  ar  
 30  14  34  1   
 31  15  18  1   
 32  15  19  1   
 33  15  20  1   
 34  16  21  1   
 35  16  35  1   
 36  16  36  1   
 37  17  37  1   
 38  18  38  1   
 39  19  21  1   
 40  19  39  1   
 41  19  40  1   
 42  20  22  1   
 43  20  41  1   
 44  20  42  1   
 45  21  43  1   
 46  21  44  1   
 47  22  45  1   
 48  22  46  1   
 49  22  47  1   
@<TRIPOS>SUBSTRUCTURE
  1 ****   4 GROUP 4 **** **** 0

# MOE 2024.06 (io_trps.svl 2023.06)
