@<TRIPOS>MOLECULE
NONAME
45 47 1 0 0 
SMALL
USER_CHARGES


@<TRIPOS>ATOM
  1 O       -0.4120     1.5900    -1.9470 O.2   1 <1>  -0.5700 
  2 C       -1.3810     1.8110    -1.2470 C.2   1 <1>   0.5440 
  3 N       -2.3010     0.8050    -1.0410 N.am  1 <1>  -0.6600 
  4 C       -1.5320     3.1220    -0.6480 C.ar  1 <1>   0.0860 
  5 C       -2.2910    -0.4550    -1.8460 C.3   1 <1>   0.1400 
  6 C       -3.2070     0.7340     0.1450 C.3   1 <1>   0.1400 
  7 C       -0.4920     3.7550     0.0060 C.ar  1 <1>  -0.1500 
  8 C       -2.7190     3.8410    -0.6950 C.ar  1 <1>  -0.1500 
  9 C       -2.0990    -1.6780    -0.9360 C.3   1 <1>   0.1200 
 10 C       -2.9690    -0.5650     0.9350 C.3   1 <1>   0.1200 
 11 C       -0.6630     5.0090     0.5760 C.ar  1 <1>   0.4100 
 12 C       -2.8010     5.0820    -0.0990 C.ar  1 <1>   0.1600 
 13 O       -3.0490    -1.6800     0.0940 O.3   1 <1>  -0.5600 
 14 N       -1.8070     5.6770     0.5360 N.ar  1 <1>  -0.6200 
 15 N        0.3910     5.6010     1.2240 N.pl3 1 <1>  -0.8690 
 16 C        0.4640     7.0610     1.4210 C.3   1 <1>   0.3530 
 17 C        1.9220     7.4680     1.3020 C.ar  1 <1>  -0.1440 
 18 C        2.4840     7.6770     0.0520 C.ar  1 <1>  -0.1500 
 19 C        2.7050     7.6230     2.4350 C.ar  1 <1>  -0.1500 
 20 C        3.8160     8.0430    -0.0740 C.ar  1 <1>  -0.1440 
 21 C        4.0340     7.9900     2.3190 C.ar  1 <1>  -0.1500 
 22 C        4.5870     8.2000     1.0680 C.ar  1 <1>  -0.1500 
 23 C        4.4280     8.2700    -1.4440 C.3   1 <1>   0.2630 
 24 O        4.6910     9.6180    -1.5680 O.3   1 <1>  -0.6800 
 25 H       -1.5070    -0.4340    -2.5820 H     1 <1>   0.0800 
 26 H       -3.2270    -0.5480    -2.3670 H     1 <1>   0.0800 
 27 H       -4.2300     0.7610    -0.1880 H     1 <1>   0.0800 
 28 H       -3.0450     1.5700     0.8010 H     1 <1>   0.0800 
 29 H        0.4630     3.2700     0.0740 H     1 <1>   0.1500 
 30 H       -3.5720     3.4260    -1.2020 H     1 <1>   0.1500 
 31 H       -1.1140    -1.6730    -0.5010 H     1 <1>   0.0800 
 32 H       -2.2230    -2.5850    -1.5010 H     1 <1>   0.0800 
 33 H       -3.7160    -0.6780     1.7000 H     1 <1>   0.0800 
 34 H       -1.9980    -0.5530     1.3990 H     1 <1>   0.0800 
 35 H       -3.7330     5.6200    -0.1460 H     1 <1>   0.1500 
 36 H        1.3170     5.2110     1.0380 H     1 <1>   0.4000 
 37 H        0.0740     7.3100     2.3930 H     1 <1>   0.0800 
 38 H       -0.1210     7.5740     0.6760 H     1 <1>   0.0800 
 39 H        1.8760     7.5500    -0.8280 H     1 <1>   0.1500 
 40 H        2.2830     7.4560     3.4110 H     1 <1>   0.1500 
 41 H        4.6380     8.1120     3.2010 H     1 <1>   0.1500 
 42 H        5.6200     8.4890     0.9820 H     1 <1>   0.1500 
 43 H        3.7480     7.9860    -2.2290 H     1 <1>   0.0800 
 44 H        5.3530     7.7310    -1.5570 H     1 <1>   0.0800 
 45 H        4.0160    10.1110    -1.0610 H     1 <1>   0.4000 
@<TRIPOS>BOND
  1   1   2  2   
  2   2   3  am  
  3   2   4  1   
  4   3   5  1   
  5   3   6  1   
  6   4   7  ar  
  7   4   8  ar  
  8   5   9  1   
  9   5  25  1   
 10   5  26  1   
 11   6  10  1   
 12   6  27  1   
 13   6  28  1   
 14   7  11  ar  
 15   7  29  1   
 16   8  12  ar  
 17   8  30  1   
 18   9  13  1   
 19   9  31  1   
 20   9  32  1   
 21  10  13  1   
 22  10  33  1   
 23  10  34  1   
 24  11  14  ar  
 25  11  15  1   
 26  12  14  ar  
 27  12  35  1   
 28  15  16  1   
 29  15  36  1   
 30  16  17  1   
 31  16  37  1   
 32  16  38  1   
 33  17  18  ar  
 34  17  19  ar  
 35  18  20  ar  
 36  18  39  1   
 37  19  21  ar  
 38  19  40  1   
 39  20  22  ar  
 40  20  23  1   
 41  21  22  ar  
 42  21  41  1   
 43  22  42  1   
 44  23  24  1   
 45  23  43  1   
 46  23  44  1   
 47  24  45  1   
@<TRIPOS>SUBSTRUCTURE
  1 ****   7 GROUP 4 **** **** 0

# MOE 2024.06 (io_trps.svl 2023.06)
