@<TRIPOS>MOLECULE
NONAME
39 41 1 0 0 
SMALL
USER_CHARGES


@<TRIPOS>ATOM
  1 F        0.6430    -0.3890    -1.5080 F     1 <1>  -0.1900 
  2 C        1.3910    -0.8390    -0.5260 C.ar  1 <1>   0.1900 
  3 C        1.1590    -2.1020     0.0250 C.ar  1 <1>   0.1000 
  4 C        2.4120    -0.0230    -0.0770 C.ar  1 <1>   0.1600 
  5 N        0.1430    -2.9840    -0.3830 N.pl3 1 <1>  -0.8380 
  6 C        2.0580    -2.4310     1.0330 C.ar  1 <1>  -0.1500 
  7 N        3.2570    -0.3470     0.8950 N.ar  1 <1>  -0.6200 
  8 C       -1.2000    -2.4670    -0.7830 C.3   1 <1>   0.2090 
  9 C       -0.0400    -4.3340     0.2060 C.3   1 <1>   0.2090 
 10 C        3.0530    -1.5480     1.4190 C.ar  1 <1>   0.1600 
 11 C       -2.2220    -3.5550    -0.4120 C.3   1 <1>   0.2000 
 12 C       -1.3770    -4.8280    -0.3420 C.3   1 <1>  -0.0800 
 13 O       -2.7690    -3.3090     0.8550 O.3   1 <1>  -0.5600 
 14 C       -1.9890    -5.9700     0.4890 C.3   1 <1>   0.0200 
 15 C       -3.8370    -2.4150     0.8790 C.3   1 <1>   0.0400 
 16 C       -1.1680    -7.2480     0.4260 C.2   1 <1>  -0.0400 
 17 O       -1.4320    -8.2090     1.2700 O.3   1 <1>  -0.0190 
 18 C       -0.1560    -7.6580    -0.3560 C.2   1 <1>  -0.1500 
 19 N       -0.6500    -9.2360     1.0990 N.2   1 <1>  -0.4100 
 20 C        0.1290    -8.9330     0.1250 C.2   1 <1>   0.1080 
 21 C        1.2060    -9.8450    -0.4180 C.3   1 <1>  -0.0590 
 22 H        2.5390     0.9390    -0.5400 H     1 <1>   0.1500 
 23 H        1.9950    -3.3770     1.5300 H     1 <1>   0.1500 
 24 H       -1.4180    -1.5360    -0.2900 H     1 <1>   0.0800 
 25 H       -1.2030    -2.3180    -1.8480 H     1 <1>   0.0800 
 26 H        0.7720    -4.9830    -0.0710 H     1 <1>   0.0800 
 27 H       -0.0940    -4.2500     1.2790 H     1 <1>   0.0800 
 28 H        3.7230    -1.8470     2.2070 H     1 <1>   0.1500 
 29 H       -3.0170    -3.6390    -1.1320 H     1 <1>   0.0800 
 30 H       -1.2150    -5.1710    -1.3480 H     1 <1>   0.0800 
 31 H       -2.9820    -6.1830     0.1360 H     1 <1>   0.0800 
 32 H       -2.0680    -5.6670     1.5190 H     1 <1>   0.0800 
 33 H       -4.1640    -2.3140     1.8990 H     1 <1>   0.0800 
 34 H       -4.6420    -2.8050     0.2800 H     1 <1>   0.0800 
 35 H       -3.5180    -1.4570     0.5080 H     1 <1>   0.0800 
 36 H        0.3440    -7.1630    -1.1670 H     1 <1>   0.1500 
 37 H        2.1630    -9.3610    -0.3510 H     1 <1>   0.0800 
 38 H        0.9980   -10.0830    -1.4440 H     1 <1>   0.0800 
 39 H        1.2360   -10.7560     0.1520 H     1 <1>   0.0800 
@<TRIPOS>BOND
  1   1   2  1   
  2   2   3  ar  
  3   2   4  ar  
  4   3   5  1   
  5   3   6  ar  
  6   4   7  ar  
  7   4  22  1   
  8   5   8  1   
  9   5   9  1   
 10   6  10  ar  
 11   6  23  1   
 12   7  10  ar  
 13   8  11  1   
 14   8  24  1   
 15   8  25  1   
 16   9  12  1   
 17   9  26  1   
 18   9  27  1   
 19  10  28  1   
 20  11  12  1   
 21  11  13  1   
 22  11  29  1   
 23  12  14  1   
 24  12  30  1   
 25  13  15  1   
 26  14  16  1   
 27  14  31  1   
 28  14  32  1   
 29  15  33  1   
 30  15  34  1   
 31  15  35  1   
 32  16  17  1   
 33  16  18  2   
 34  17  19  1   
 35  18  20  1   
 36  18  36  1   
 37  19  20  2   
 38  20  21  1   
 39  21  37  1   
 40  21  38  1   
 41  21  39  1   
@<TRIPOS>SUBSTRUCTURE
  1 ****   9 GROUP 4 **** **** 0

# MOE 2024.06 (io_trps.svl 2023.06)
