@<TRIPOS>MOLECULE
NONAME
38 39 1 0 0 
SMALL
USER_CHARGES


@<TRIPOS>ATOM
  1 CL       0.0860     0.3170    -0.5170 Cl    1 <1>  -0.1770 
  2 C        1.5640    -0.5980    -0.3580 C.ar  1 <1>   0.1770 
  3 C        1.5740    -1.9270    -0.7400 C.ar  1 <1>  -0.1500 
  4 C        2.6940     0.0190     0.1440 C.ar  1 <1>  -0.1500 
  5 C        2.7370    -2.6750    -0.6070 C.ar  1 <1>  -0.1440 
  6 C        3.8630    -0.7130     0.2560 C.ar  1 <1>  -0.1500 
  7 C        3.8850    -2.0480    -0.1230 C.ar  1 <1>   0.0830 
  8 C        2.7780    -4.1480    -0.9860 C.3   1 <1>   0.4870 
  9 O        5.0580    -2.7140    -0.0610 O.3   1 <1>  -0.3630 
 10 N        2.1150    -4.9770     0.0560 N.4   1 <1>  -0.9590 
 11 C        5.4630    -3.2280     1.2100 C.3   1 <1>   0.0140 
 12 C        2.4390    -6.4390     0.0550 C.3   1 <1>   0.4230 
 13 C        0.6680    -4.7910     0.2420 C.3   1 <1>   0.3430 
 14 C        4.7060    -4.4970     1.5560 C.2   1 <1>   0.9060 
 15 C        1.0950    -7.1400     0.2640 C.3   1 <1>  -0.1600 
 16 C        3.2320    -6.9860    -1.1610 C.3   1 <1>   0.1200 
 17 C        0.2020    -6.0790     0.8940 C.3   1 <1>  -0.1600 
 18 O        3.6580    -4.4250     2.2130 O.co2 1 <1>  -0.9000 
 19 O        5.0270    -5.5690     1.0330 O.co2 1 <1>  -0.9000 
 20 O        2.5980    -6.7210    -2.3830 O.3   1 <1>  -0.6800 
 21 H        0.6720    -2.3560    -1.1360 H     1 <1>   0.1500 
 22 H        2.6580     1.0530     0.4360 H     1 <1>   0.1500 
 23 H        4.7610    -0.2540     0.6280 H     1 <1>   0.1500 
 24 H        3.8090    -4.4500    -1.0740 H     1 <1>   0.0800 
 25 H        2.3010    -4.3040    -1.9380 H     1 <1>   0.0800 
 26 H        2.5780    -4.6720     0.9490 H     1 <1>   0.4500 
 27 H        6.5090    -3.4540     1.1560 H     1 <1>   0.0800 
 28 H        5.2890    -2.4850     1.9640 H     1 <1>   0.0800 
 29 H        3.0390    -6.6280     0.9320 H     1 <1>   0.0800 
 30 H        0.4610    -3.9300     0.8580 H     1 <1>   0.0800 
 31 H        0.1930    -4.6810    -0.7180 H     1 <1>   0.0800 
 32 H        0.6880    -7.4440    -0.6840 H     1 <1>   0.0800 
 33 H        1.2040    -8.0070     0.8910 H     1 <1>   0.0800 
 34 H        3.3380    -8.0520    -1.0640 H     1 <1>   0.0800 
 35 H        4.2170    -6.5540    -1.1790 H     1 <1>   0.0800 
 36 H        0.3820    -6.0200     1.9550 H     1 <1>   0.0800 
 37 H       -0.8440    -6.2610     0.7200 H     1 <1>   0.0800 
 38 H        3.1040    -7.1220    -3.1200 H     1 <1>   0.4000 
@<TRIPOS>BOND
  1   1   2  1   
  2   2   3  ar  
  3   2   4  ar  
  4   3   5  ar  
  5   3  21  1   
  6   4   6  ar  
  7   4  22  1   
  8   5   7  ar  
  9   5   8  1   
 10   6   7  ar  
 11   6  23  1   
 12   7   9  1   
 13   8  10  1   
 14   8  24  1   
 15   8  25  1   
 16   9  11  1   
 17  10  12  1   
 18  10  13  1   
 19  10  26  1   
 20  11  14  1   
 21  11  27  1   
 22  11  28  1   
 23  12  15  1   
 24  12  16  1   
 25  12  29  1   
 26  13  17  1   
 27  13  30  1   
 28  13  31  1   
 29  14  18  ar  
 30  14  19  ar  
 31  15  17  1   
 32  15  32  1   
 33  15  33  1   
 34  16  20  1   
 35  16  34  1   
 36  16  35  1   
 37  17  36  1   
 38  17  37  1   
 39  20  38  1   
@<TRIPOS>SUBSTRUCTURE
  1 ****   8 GROUP 4 **** **** 0

# MOE 2024.06 (io_trps.svl 2023.06)
