@<TRIPOS>MOLECULE
NONAME
56 57 1 0 0 
SMALL
USER_CHARGES


@<TRIPOS>ATOM
  1 O       -1.3230     0.2770     1.1340 O.2   1 <1>  -0.5700 
  2 C       -2.3490     0.7250     0.6750 C.2   1 <1>   0.5690 
  3 N       -3.3230    -0.1140     0.1840 N.am  1 <1>  -0.6600 
  4 C       -2.5150     2.2540     0.6440 C.3   1 <1>  -0.0190 
  5 C       -4.5670     0.3180    -0.5160 C.3   1 <1>   0.2840 
  6 C       -3.1910    -1.5900     0.3430 C.3   1 <1>   0.1400 
  7 C       -1.9610     2.8430    -0.6670 C.3   1 <1>  -0.1600 
  8 C       -1.8770     2.9690     1.8640 C.3   1 <1>  -0.1600 
  9 C       -5.7930     0.1530     0.3750 C.ar  1 <1>  -0.1440 
 10 C       -2.5920    -2.2010    -0.9250 C.3   1 <1>  -0.1600 
 11 C       -2.2930     4.3430    -0.8180 C.3   1 <1>   0.2000 
 12 C       -1.6380     4.4780     1.6470 C.3   1 <1>  -0.1600 
 13 C       -6.9620    -0.3670    -0.1600 C.ar  1 <1>  -0.1500 
 14 C       -5.7730     0.5170     1.7140 C.ar  1 <1>  -0.1500 
 15 C       -2.3530    -3.6970    -0.7410 C.3   1 <1>   0.1200 
 16 O       -1.2230     4.9700    -1.4820 O.3   1 <1>  -0.5600 
 17 C       -2.5320     5.0490     0.5430 C.3   1 <1>   0.2000 
 18 C       -8.0900    -0.5190     0.6280 C.ar  1 <1>  -0.1500 
 19 C       -6.9010     0.3650     2.5010 C.ar  1 <1>  -0.1500 
 20 O       -1.9140    -4.2070    -1.9550 O.3   1 <1>  -0.5600 
 21 C       -1.1880     4.7860    -2.8630 C.3   1 <1>   0.0400 
 22 O       -2.2470     6.3930     0.4130 O.3   1 <1>  -0.6800 
 23 C       -8.0660    -0.1520     1.9620 C.ar  1 <1>  -0.1430 
 24 C       -1.6070    -5.5620    -1.9210 C.3   1 <1>   0.0400 
 25 C       -9.3030    -0.3190     2.8270 C.3   1 <1>  -0.0970 
 26 H       -3.5650     2.4720     0.6930 H     1 <1>   0.0800 
 27 H       -4.4980     1.3390    -0.8400 H     1 <1>   0.0800 
 28 H       -4.6880    -0.2790    -1.4030 H     1 <1>   0.0800 
 29 H       -2.5540    -1.8080     1.1840 H     1 <1>   0.0800 
 30 H       -4.1560    -2.0220     0.5470 H     1 <1>   0.0800 
 31 H       -2.3600     2.3060    -1.5070 H     1 <1>   0.0800 
 32 H       -0.8920     2.7090    -0.6630 H     1 <1>   0.0800 
 33 H       -2.5160     2.8240     2.7170 H     1 <1>   0.0800 
 34 H       -0.9260     2.5220     2.1030 H     1 <1>   0.0800 
 35 H       -1.6500    -1.7250    -1.1360 H     1 <1>   0.0800 
 36 H       -3.2610    -2.0560    -1.7520 H     1 <1>   0.0800 
 37 H       -3.1850     4.4680    -1.4090 H     1 <1>   0.0800 
 38 H       -0.6110     4.6250     1.3590 H     1 <1>   0.0800 
 39 H       -1.8090     5.0080     2.5680 H     1 <1>   0.0800 
 40 H       -7.0060    -0.6590    -1.1950 H     1 <1>   0.1500 
 41 H       -4.8780     0.9150     2.1580 H     1 <1>   0.1500 
 42 H       -3.2650    -4.2000    -0.4680 H     1 <1>   0.0800 
 43 H       -1.5960    -3.8700     0.0060 H     1 <1>   0.0800 
 44 H       -3.5630     4.9580     0.8370 H     1 <1>   0.0800 
 45 H       -8.9880    -0.9260     0.1970 H     1 <1>   0.1500 
 46 H       -6.8650     0.6500     3.5380 H     1 <1>   0.1500 
 47 H       -0.3420     5.3270    -3.2500 H     1 <1>   0.0800 
 48 H       -2.0930     5.1720    -3.2980 H     1 <1>   0.0800 
 49 H       -1.0750     3.7390    -3.0850 H     1 <1>   0.0800 
 50 H       -1.5200     6.4490    -0.2480 H     1 <1>   0.4000 
 51 H       -1.2840    -5.8560    -2.9040 H     1 <1>   0.0800 
 52 H       -2.4850    -6.1190    -1.6450 H     1 <1>   0.0800 
 53 H       -0.8120    -5.7280    -1.2140 H     1 <1>   0.0800 
 54 H      -10.1940    -0.2240     2.2330 H     1 <1>   0.0800 
 55 H       -9.3270     0.4300     3.5970 H     1 <1>   0.0800 
 56 H       -9.2940    -1.2910     3.2880 H     1 <1>   0.0800 
@<TRIPOS>BOND
  1   1   2  2   
  2   2   3  am  
  3   2   4  1   
  4   3   5  1   
  5   3   6  1   
  6   4   7  1   
  7   4   8  1   
  8   4  26  1   
  9   5   9  1   
 10   5  27  1   
 11   5  28  1   
 12   6  10  1   
 13   6  29  1   
 14   6  30  1   
 15   7  11  1   
 16   7  31  1   
 17   7  32  1   
 18   8  12  1   
 19   8  33  1   
 20   8  34  1   
 21   9  13  ar  
 22   9  14  ar  
 23  10  15  1   
 24  10  35  1   
 25  10  36  1   
 26  11  16  1   
 27  11  17  1   
 28  11  37  1   
 29  12  17  1   
 30  12  38  1   
 31  12  39  1   
 32  13  18  ar  
 33  13  40  1   
 34  14  19  ar  
 35  14  41  1   
 36  15  20  1   
 37  15  42  1   
 38  15  43  1   
 39  16  21  1   
 40  17  22  1   
 41  17  44  1   
 42  18  23  ar  
 43  18  45  1   
 44  19  23  ar  
 45  19  46  1   
 46  20  24  1   
 47  21  47  1   
 48  21  48  1   
 49  21  49  1   
 50  22  50  1   
 51  23  25  1   
 52  24  51  1   
 53  24  52  1   
 54  24  53  1   
 55  25  54  1   
 56  25  55  1   
 57  25  56  1   
@<TRIPOS>SUBSTRUCTURE
  1 ****   3 GROUP 4 **** **** 0

# MOE 2024.06 (io_trps.svl 2023.06)
