@<TRIPOS>MOLECULE
NONAME
42 44 1 0 0 
SMALL
USER_CHARGES


@<TRIPOS>ATOM
  1 S       -2.1430    -0.9130     1.1670 S.3   1 <1>  -0.4600 
  2 C       -2.7800    -0.9110    -0.5510 C.3   1 <1>   0.1310 
  3 C       -0.3480    -1.0720     0.9540 C.3   1 <1>  -0.0100 
  4 C       -2.7100    -2.2900    -1.1960 C.2   1 <1>   0.5690 
  5 O       -2.8370    -2.3800    -2.3930 O.2   1 <1>  -0.5700 
  6 N       -2.5220    -3.3860    -0.4200 N.am  1 <1>  -0.7300 
  7 C       -2.4100    -4.7840    -0.8960 C.3   1 <1>   0.2200 
  8 C       -3.6030    -5.6190    -0.4500 C.3   1 <1>  -0.0800 
  9 C       -1.2850    -5.4740    -0.1380 C.3   1 <1>   0.1200 
 10 C       -3.2180    -6.0050     0.9840 C.3   1 <1>   0.1200 
 11 C       -4.9750    -4.9230    -0.5790 C.3   1 <1>  -0.0160 
 12 O       -1.8340    -5.8330     1.0940 O.3   1 <1>  -0.5600 
 13 C       -6.2100    -5.7750    -0.2620 C.ar  1 <1>  -0.1440 
 14 C       -7.4850    -5.1580    -0.1880 C.ar  1 <1>   0.0000 
 15 C       -6.1650    -7.1250    -0.0500 C.ar  1 <1>  -0.1500 
 16 C       -8.6010    -5.9720     0.1270 C.ar  1 <1>   0.3100 
 17 C       -7.7190    -3.7810    -0.4150 C.ar  1 <1>  -0.1500 
 18 C       -7.3330    -7.8380     0.2480 C.ar  1 <1>   0.1600 
 19 N       -8.5080    -7.3070     0.3430 N.ar  1 <1>  -0.6200 
 20 C       -9.8720    -5.3810     0.2180 C.ar  1 <1>  -0.1500 
 21 C       -8.9710    -3.2370    -0.3210 C.ar  1 <1>  -0.1500 
 22 C      -10.0640    -4.0440     0.0020 C.ar  1 <1>  -0.1500 
 23 H       -3.8010    -0.5810    -0.5080 H     1 <1>   0.0800 
 24 H       -2.1960    -0.2050    -1.1120 H     1 <1>   0.0800 
 25 H        0.0970    -1.0870     1.9330 H     1 <1>   0.0800 
 26 H       -0.0020    -0.2230     0.3920 H     1 <1>   0.0800 
 27 H       -0.1480    -1.9890     0.4300 H     1 <1>   0.0800 
 28 H       -2.4090    -3.2600     0.5930 H     1 <1>   0.3700 
 29 H       -2.2600    -4.8110    -1.9630 H     1 <1>   0.0800 
 30 H       -3.6070    -6.5100    -1.0520 H     1 <1>   0.0800 
 31 H       -0.4320    -4.8380     0.0150 H     1 <1>   0.0800 
 32 H       -0.9850    -6.3780    -0.6400 H     1 <1>   0.0800 
 33 H       -3.4580    -7.0290     1.2110 H     1 <1>   0.0800 
 34 H       -3.6840    -5.3560     1.7060 H     1 <1>   0.0800 
 35 H       -5.0720    -4.5520    -1.5850 H     1 <1>   0.0800 
 36 H       -4.9830    -4.0750     0.0830 H     1 <1>   0.0800 
 37 H       -5.2580    -7.6940    -0.1010 H     1 <1>   0.1500 
 38 H       -6.8980    -3.1380    -0.6710 H     1 <1>   0.1500 
 39 H       -7.2450    -8.8990     0.4100 H     1 <1>   0.1500 
 40 H      -10.6970    -6.0240     0.4650 H     1 <1>   0.1500 
 41 H       -9.1310    -2.1870    -0.4940 H     1 <1>   0.1500 
 42 H      -11.0440    -3.6060     0.0740 H     1 <1>   0.1500 
@<TRIPOS>BOND
  1   1   2  1   
  2   1   3  1   
  3   2   4  1   
  4   2  23  1   
  5   2  24  1   
  6   3  25  1   
  7   3  26  1   
  8   3  27  1   
  9   4   5  2   
 10   4   6  am  
 11   6   7  1   
 12   6  28  1   
 13   7   8  1   
 14   7   9  1   
 15   7  29  1   
 16   8  10  1   
 17   8  11  1   
 18   8  30  1   
 19   9  12  1   
 20   9  31  1   
 21   9  32  1   
 22  10  12  1   
 23  10  33  1   
 24  10  34  1   
 25  11  13  1   
 26  11  35  1   
 27  11  36  1   
 28  13  14  ar  
 29  13  15  ar  
 30  14  16  ar  
 31  14  17  ar  
 32  15  18  ar  
 33  15  37  1   
 34  16  19  ar  
 35  16  20  ar  
 36  17  21  ar  
 37  17  38  1   
 38  18  19  ar  
 39  18  39  1   
 40  20  22  ar  
 41  20  40  1   
 42  21  22  ar  
 43  21  41  1   
 44  22  42  1   
@<TRIPOS>SUBSTRUCTURE
  1 ****  11 GROUP 4 **** **** 0

# MOE 2024.06 (io_trps.svl 2023.06)
