@<TRIPOS>MOLECULE
NONAME
61 65 1 0 0 
SMALL
USER_CHARGES


@<TRIPOS>ATOM
  1 O       -0.8970    -0.4360     1.4290 O.2   1 <1>  -0.5700 
  2 C       -0.4830    -1.5720     1.2960 C.2   1 <1>   0.5440 
  3 N        0.8720    -1.7740     1.1370 N.am  1 <1>  -0.6600 
  4 C       -1.4280    -2.6710     1.3000 C.ar  1 <1>   0.0860 
  5 C        1.8710    -0.6960     1.4110 C.3   1 <1>   0.1400 
  6 C        1.4590    -2.9470     0.4210 C.3   1 <1>   0.1400 
  7 C       -2.6210    -2.6120     0.6060 C.ar  1 <1>  -0.1500 
  8 C       -1.2190    -3.8510     2.0030 C.ar  1 <1>  -0.1500 
  9 C        2.6770    -0.3670     0.1450 C.3   1 <1>   0.1200 
 10 C        2.2980    -2.4860    -0.7830 C.3   1 <1>   0.1200 
 11 C       -3.5160    -3.6730     0.6160 C.ar  1 <1>   0.4100 
 12 C       -2.1570    -4.8610     1.9520 C.ar  1 <1>   0.1600 
 13 O        3.2420    -1.5290    -0.3940 O.3   1 <1>  -0.5600 
 14 N       -3.2870    -4.8050     1.2720 N.ar  1 <1>  -0.6200 
 15 N       -4.7050    -3.5650    -0.0800 N.pl3 1 <1>  -0.8380 
 16 C       -5.6610    -2.4870     0.3260 C.3   1 <1>   0.2090 
 17 C       -5.3880    -4.7960    -0.5630 C.3   1 <1>   0.2090 
 18 C       -6.5510    -2.0740    -0.8620 C.3   1 <1>   0.1430 
 19 C       -6.2940    -4.4500    -1.7520 C.3   1 <1>  -0.1600 
 20 C       -7.5090    -0.9920    -0.3990 C.ar  1 <1>   0.1670 
 21 C       -7.2830    -3.3180    -1.4150 C.3   1 <1>  -0.1600 
 22 C       -5.7300    -1.3440    -1.9600 C.3   1 <1>  -0.1600 
 23 N       -8.5530    -1.1790     0.3710 N.ar  1 <1>  -0.6200 
 24 C       -7.1470     0.2320    -0.8730 C.ar  1 <1>  -0.1430 
 25 C       -5.8980     0.1650    -1.7150 C.3   1 <1>  -0.0170 
 26 C       -9.2580    -0.0800     0.6520 C.ar  1 <1>   0.7200 
 27 C       -7.9290     1.3050    -0.5290 C.ar  1 <1>   0.1600 
 28 N       -8.9880     1.1610     0.2320 N.ar  1 <1>  -0.6200 
 29 N      -10.3730    -0.2410     1.4540 N.pl3 1 <1>  -0.8380 
 30 C      -10.9460    -1.5820     1.7500 C.3   1 <1>   0.1290 
 31 C      -11.0890     0.9180     2.0560 C.3   1 <1>   0.1290 
 32 H        2.5450    -1.0280     2.1810 H     1 <1>   0.0800 
 33 H        1.3840     0.1960     1.7650 H     1 <1>   0.0800 
 34 H        0.6850    -3.6060     0.0690 H     1 <1>   0.0800 
 35 H        2.0880    -3.4980     1.0990 H     1 <1>   0.0800 
 36 H       -2.8630    -1.7310     0.0440 H     1 <1>   0.1500 
 37 H       -0.3270    -3.9700     2.5890 H     1 <1>   0.1500 
 38 H        3.4780     0.3110     0.3810 H     1 <1>   0.0800 
 39 H        2.0440     0.0890    -0.5970 H     1 <1>   0.0800 
 40 H        1.6670    -2.0570    -1.5420 H     1 <1>   0.0800 
 41 H        2.8310    -3.3180    -1.2070 H     1 <1>   0.0800 
 42 H       -1.9720    -5.7690     2.5010 H     1 <1>   0.1500 
 43 H       -5.1280    -1.6290     0.6960 H     1 <1>   0.0800 
 44 H       -6.2840    -2.8540     1.1250 H     1 <1>   0.0800 
 45 H       -5.9690    -5.2150     0.2400 H     1 <1>   0.0800 
 46 H       -4.6530    -5.5240    -0.8650 H     1 <1>   0.0800 
 47 H       -6.8400    -5.3300    -2.0430 H     1 <1>   0.0800 
 48 H       -5.6740    -4.1630    -2.5820 H     1 <1>   0.0800 
 49 H       -7.8600    -3.0540    -2.2830 H     1 <1>   0.0800 
 50 H       -7.9710    -3.6740    -0.6670 H     1 <1>   0.0800 
 51 H       -6.1440    -1.5730    -2.9260 H     1 <1>   0.0800 
 52 H       -4.6950    -1.6350    -1.9620 H     1 <1>   0.0800 
 53 H       -6.0080     0.7070    -2.6380 H     1 <1>   0.0800 
 54 H       -5.0640     0.5550    -1.1570 H     1 <1>   0.0800 
 55 H       -7.6840     2.2920    -0.8800 H     1 <1>   0.1500 
 56 H      -10.7560    -2.2620     0.9370 H     1 <1>   0.0800 
 57 H      -12.0110    -1.5090     1.8850 H     1 <1>   0.0800 
 58 H      -10.4980    -1.9740     2.6460 H     1 <1>   0.0800 
 59 H      -10.4070     1.7310     2.2360 H     1 <1>   0.0800 
 60 H      -11.5310     0.6340     2.9940 H     1 <1>   0.0800 
 61 H      -11.8600     1.2510     1.3840 H     1 <1>   0.0800 
@<TRIPOS>BOND
  1   1   2  2   
  2   2   3  am  
  3   2   4  1   
  4   3   5  1   
  5   3   6  1   
  6   4   7  ar  
  7   4   8  ar  
  8   5   9  1   
  9   5  32  1   
 10   5  33  1   
 11   6  10  1   
 12   6  34  1   
 13   6  35  1   
 14   7  11  ar  
 15   7  36  1   
 16   8  12  ar  
 17   8  37  1   
 18   9  13  1   
 19   9  38  1   
 20   9  39  1   
 21  10  13  1   
 22  10  40  1   
 23  10  41  1   
 24  11  14  ar  
 25  11  15  1   
 26  12  14  ar  
 27  12  42  1   
 28  15  16  1   
 29  15  17  1   
 30  16  18  1   
 31  16  43  1   
 32  16  44  1   
 33  17  19  1   
 34  17  45  1   
 35  17  46  1   
 36  18  20  1   
 37  18  21  1   
 38  18  22  1   
 39  19  21  1   
 40  19  47  1   
 41  19  48  1   
 42  20  23  ar  
 43  20  24  ar  
 44  21  49  1   
 45  21  50  1   
 46  22  25  1   
 47  22  51  1   
 48  22  52  1   
 49  23  26  ar  
 50  24  25  1   
 51  24  27  ar  
 52  25  53  1   
 53  25  54  1   
 54  26  28  ar  
 55  26  29  1   
 56  27  28  ar  
 57  27  55  1   
 58  29  30  1   
 59  29  31  1   
 60  30  56  1   
 61  30  57  1   
 62  30  58  1   
 63  31  59  1   
 64  31  60  1   
 65  31  61  1   
@<TRIPOS>SUBSTRUCTURE
  1 ****  16 GROUP 4 **** **** 0

# MOE 2024.06 (io_trps.svl 2023.06)
