@<TRIPOS>MOLECULE
NONAME
56 59 1 0 0 
SMALL
USER_CHARGES


@<TRIPOS>ATOM
  1 O       -3.0660     0.7500     1.3230 O.2   1 <1>  -0.5700 
  2 C       -2.6400     1.1880     0.2790 C.2   1 <1>   0.5690 
  3 N       -2.6950     0.4230    -0.8480 N.am  1 <1>  -0.6600 
  4 C       -2.1350     2.6100     0.2060 C.3   1 <1>  -0.0990 
  5 C       -3.8430     0.6710    -1.7720 C.3   1 <1>   0.1400 
  6 C       -2.3960    -1.0430    -0.7160 C.3   1 <1>   0.1400 
  7 C       -0.8000     2.7640     0.9380 C.3   1 <1>   0.0210 
  8 C       -5.1380    -0.0030    -1.2320 C.3   1 <1>   0.4230 
  9 C       -3.6760    -1.8800    -0.4760 C.3   1 <1>   0.3430 
 10 C       -0.3130     4.1940     0.8070 C.2   1 <1>  -0.1810 
 11 N       -4.8430    -0.9970    -0.1260 N.4   1 <1>  -0.9590 
 12 C       -5.9430    -0.6640    -2.3740 C.3   1 <1>   0.1200 
 13 C       -0.5820     5.2480     1.6770 C.2   1 <1>   0.1080 
 14 C        0.4580     4.7370    -0.1610 C.2   1 <1>  -0.3320 
 15 C       -6.0870    -1.7030     0.3120 C.3   1 <1>   0.5180 
 16 O       -7.0840    -1.2960    -1.8690 O.3   1 <1>  -0.5600 
 17 N       -0.0310     6.3530     1.2920 N.2   1 <1>  -0.7070 
 18 C       -1.4070     5.1730     2.9420 C.3   1 <1>  -0.0590 
 19 N        0.6150     6.0420     0.1580 N.pl3 1 <1>   0.3140 
 20 C        1.0710     4.0920    -1.3950 C.3   1 <1>  -0.0600 
 21 C       -5.7370    -2.7320     1.4060 C.3   1 <1>  -0.1950 
 22 C       -6.8420    -2.2890    -0.9060 C.3   1 <1>   0.1200 
 23 C        1.3740     7.0570    -0.5800 C.3   1 <1>   0.0160 
 24 C       -5.3260    -4.1530     1.1500 C.3   1 <1>  -0.2000 
 25 C       -6.6530    -3.8550     1.7900 C.3   1 <1>  -0.2000 
 26 H       -2.0070     2.9000    -0.8210 H     1 <1>   0.0800 
 27 H       -2.8630     3.2640     0.6500 H     1 <1>   0.0800 
 28 H       -4.0100     1.7290    -1.8810 H     1 <1>   0.0800 
 29 H       -3.5950     0.2850    -2.7460 H     1 <1>   0.0800 
 30 H       -1.8910    -1.3920    -1.6000 H     1 <1>   0.0800 
 31 H       -1.7230    -1.1930     0.1130 H     1 <1>   0.0800 
 32 H       -0.0710     2.0960     0.5160 H     1 <1>   0.0800 
 33 H       -0.9130     2.5100     1.9770 H     1 <1>   0.0800 
 34 H       -5.7590     0.7790    -0.8260 H     1 <1>   0.0800 
 35 H       -3.4810    -2.5760     0.3230 H     1 <1>   0.0800 
 36 H       -3.9020    -2.4510    -1.3600 H     1 <1>   0.0800 
 37 H       -4.4910    -0.4270     0.6700 H     1 <1>   0.4500 
 38 H       -5.3520    -1.3930    -2.9010 H     1 <1>   0.0800 
 39 H       -6.2720     0.0810    -3.0770 H     1 <1>   0.0800 
 40 H       -6.7470    -0.9780     0.7610 H     1 <1>   0.0800 
 41 H       -2.2580     4.5360     2.8000 H     1 <1>   0.0800 
 42 H       -1.7490     6.1560     3.2080 H     1 <1>   0.0800 
 43 H       -0.8010     4.7890     3.7420 H     1 <1>   0.0800 
 44 H        0.7920     3.0570    -1.4640 H     1 <1>   0.0800 
 45 H        2.1430     4.1520    -1.3480 H     1 <1>   0.0800 
 46 H        0.7310     4.5940    -2.2830 H     1 <1>   0.0800 
 47 H       -5.2770    -2.2360     2.2450 H     1 <1>   0.1000 
 48 H       -7.7980    -2.6720    -0.5970 H     1 <1>   0.0800 
 49 H       -6.2870    -3.0870    -1.3670 H     1 <1>   0.0800 
 50 H        2.3990     6.7460    -0.6520 H     1 <1>   0.0800 
 51 H        1.3160     7.9910    -0.0530 H     1 <1>   0.0800 
 52 H        0.9510     7.1690    -1.5600 H     1 <1>   0.0800 
 53 H       -5.3460    -4.5830     0.1630 H     1 <1>   0.1000 
 54 H       -4.5650    -4.6000     1.7680 H     1 <1>   0.1000 
 55 H       -6.7780    -4.0880     2.8350 H     1 <1>   0.1000 
 56 H       -7.5430    -4.0750     1.2250 H     1 <1>   0.1000 
@<TRIPOS>BOND
  1   1   2  2   
  2   2   3  am  
  3   2   4  1   
  4   3   5  1   
  5   3   6  1   
  6   4   7  1   
  7   4  26  1   
  8   4  27  1   
  9   5   8  1   
 10   5  28  1   
 11   5  29  1   
 12   6   9  1   
 13   6  30  1   
 14   6  31  1   
 15   7  10  1   
 16   7  32  1   
 17   7  33  1   
 18   8  11  1   
 19   8  12  1   
 20   8  34  1   
 21   9  11  1   
 22   9  35  1   
 23   9  36  1   
 24  10  13  1   
 25  10  14  2   
 26  11  15  1   
 27  11  37  1   
 28  12  16  1   
 29  12  38  1   
 30  12  39  1   
 31  13  17  2   
 32  13  18  1   
 33  14  19  1   
 34  14  20  1   
 35  15  21  1   
 36  15  22  1   
 37  15  40  1   
 38  16  22  1   
 39  17  19  1   
 40  18  41  1   
 41  18  42  1   
 42  18  43  1   
 43  19  23  1   
 44  20  44  1   
 45  20  45  1   
 46  20  46  1   
 47  21  24  1   
 48  21  25  1   
 49  21  47  1   
 50  22  48  1   
 51  22  49  1   
 52  23  50  1   
 53  23  51  1   
 54  23  52  1   
 55  24  25  1   
 56  24  53  1   
 57  24  54  1   
 58  25  55  1   
 59  25  56  1   
@<TRIPOS>SUBSTRUCTURE
  1 ****   2 GROUP 4 **** **** 0

# MOE 2024.06 (io_trps.svl 2023.06)
