@<TRIPOS>MOLECULE
NONAME
57 59 1 0 0 
SMALL
USER_CHARGES


@<TRIPOS>ATOM
  1 O       -1.8140     0.3990    -1.9150 O.2   1 <1>  -0.5700 
  2 C       -1.6840     0.5310    -0.7210 C.2   1 <1>   0.5690 
  3 N       -1.6650    -0.5430     0.1060 N.am  1 <1>  -0.7300 
  4 C       -1.5670     1.9260    -0.1100 C.3   1 <1>  -0.0190 
  5 C       -1.7690    -1.9530    -0.3340 C.3   1 <1>   0.2200 
  6 C       -2.9060     2.6780    -0.1920 C.3   1 <1>  -0.1600 
  7 C       -0.4580     2.7540    -0.7790 C.3   1 <1>  -0.1600 
  8 C       -3.1630    -2.5100    -0.0770 C.3   1 <1>  -0.0800 
  9 C       -0.9450    -2.8210     0.6060 C.3   1 <1>   0.1200 
 10 C       -2.8040     4.0820     0.4220 C.3   1 <1>  -0.1600 
 11 C       -0.3510     4.1570    -0.1650 C.3   1 <1>  -0.1600 
 12 C       -3.0930    -2.9590     1.3870 C.3   1 <1>   0.1200 
 13 C       -4.3370    -1.5650    -0.3960 C.3   1 <1>  -0.0170 
 14 O       -1.7400    -2.9740     1.7420 O.3   1 <1>  -0.5600 
 15 C       -1.6910     4.9300    -0.2390 C.3   1 <1>  -0.0800 
 16 C       -5.6700    -2.2690    -0.1990 C.ar  1 <1>  -0.1430 
 17 C       -1.6070     6.3990     0.3010 C.3   1 <1>   0.0000 
 18 C       -6.4140    -2.1250     0.9550 C.ar  1 <1>  -0.1500 
 19 C       -6.2040    -3.0920    -1.1700 C.ar  1 <1>  -0.1500 
 20 C       -2.9480     7.1290     0.1000 C.3   1 <1>  -0.2400 
 21 C       -0.5460     7.2020    -0.4750 C.3   1 <1>  -0.2400 
 22 C       -1.2510     6.4670     1.7970 C.3   1 <1>  -0.2400 
 23 C       -7.6190    -2.7980     1.0800 C.ar  1 <1>   0.1600 
 24 C       -7.4180    -3.7190    -0.9450 C.ar  1 <1>   0.1600 
 25 N       -8.1380    -3.5930     0.1590 N.ar  1 <1>  -0.6200 
 26 H       -1.5910    -0.4290     1.1190 H     1 <1>   0.3700 
 27 H       -1.3110     1.8140     0.9280 H     1 <1>   0.0800 
 28 H       -1.4620    -2.0550    -1.3620 H     1 <1>   0.0800 
 29 H       -3.2020     2.7620    -1.2240 H     1 <1>   0.0800 
 30 H       -3.6660     2.1160     0.3220 H     1 <1>   0.0800 
 31 H        0.4840     2.2430    -0.6750 H     1 <1>   0.0800 
 32 H       -0.6650     2.8440    -1.8330 H     1 <1>   0.0800 
 33 H       -3.2760    -3.3950    -0.6780 H     1 <1>   0.0800 
 34 H       -0.0050    -2.3720     0.8750 H     1 <1>   0.0800 
 35 H       -0.7810    -3.7960     0.1820 H     1 <1>   0.0800 
 36 H       -2.6130     3.9840     1.4760 H     1 <1>   0.0800 
 37 H       -3.7600     4.5570     0.3020 H     1 <1>   0.0800 
 38 H        0.4180     4.6850    -0.6970 H     1 <1>   0.0800 
 39 H       -0.0390     4.0620     0.8600 H     1 <1>   0.0800 
 40 H       -3.5020    -3.9470     1.5210 H     1 <1>   0.0800 
 41 H       -3.5930    -2.2680     2.0430 H     1 <1>   0.0800 
 42 H       -4.2570    -1.2290    -1.4160 H     1 <1>   0.0800 
 43 H       -4.3000    -0.6920     0.2320 H     1 <1>   0.0800 
 44 H       -1.9430     5.0030    -1.2840 H     1 <1>   0.0800 
 45 H       -6.0720    -1.4980     1.7570 H     1 <1>   0.1500 
 46 H       -5.6870    -3.2510    -2.0990 H     1 <1>   0.1500 
 47 H       -2.8540     8.1720     0.3440 H     1 <1>   0.0800 
 48 H       -3.7150     6.7220     0.7330 H     1 <1>   0.0800 
 49 H       -3.2700     7.0520    -0.9240 H     1 <1>   0.0800 
 50 H       -0.5790     8.2420    -0.2000 H     1 <1>   0.0800 
 51 H       -0.7180     7.1300    -1.5340 H     1 <1>   0.0800 
 52 H        0.4460     6.8490    -0.2620 H     1 <1>   0.0800 
 53 H       -1.2040     7.4910     2.1220 H     1 <1>   0.0800 
 54 H       -0.2940     6.0190     1.9890 H     1 <1>   0.0800 
 55 H       -1.9900     5.9680     2.3950 H     1 <1>   0.0800 
 56 H       -8.1860    -2.6750     1.9870 H     1 <1>   0.1500 
 57 H       -7.8190    -4.3570    -1.7130 H     1 <1>   0.1500 
@<TRIPOS>BOND
  1   1   2  2   
  2   2   3  am  
  3   2   4  1   
  4   3   5  1   
  5   3  26  1   
  6   4   6  1   
  7   4   7  1   
  8   4  27  1   
  9   5   8  1   
 10   5   9  1   
 11   5  28  1   
 12   6  10  1   
 13   6  29  1   
 14   6  30  1   
 15   7  11  1   
 16   7  31  1   
 17   7  32  1   
 18   8  12  1   
 19   8  13  1   
 20   8  33  1   
 21   9  14  1   
 22   9  34  1   
 23   9  35  1   
 24  10  15  1   
 25  10  36  1   
 26  10  37  1   
 27  11  15  1   
 28  11  38  1   
 29  11  39  1   
 30  12  14  1   
 31  12  40  1   
 32  12  41  1   
 33  13  16  1   
 34  13  42  1   
 35  13  43  1   
 36  15  17  1   
 37  15  44  1   
 38  16  18  ar  
 39  16  19  ar  
 40  17  20  1   
 41  17  21  1   
 42  17  22  1   
 43  18  23  ar  
 44  18  45  1   
 45  19  24  ar  
 46  19  46  1   
 47  20  47  1   
 48  20  48  1   
 49  20  49  1   
 50  21  50  1   
 51  21  51  1   
 52  21  52  1   
 53  22  53  1   
 54  22  54  1   
 55  22  55  1   
 56  23  25  ar  
 57  23  56  1   
 58  24  25  ar  
 59  24  57  1   
@<TRIPOS>SUBSTRUCTURE
  1 ****   2 GROUP 4 **** **** 0

# MOE 2024.06 (io_trps.svl 2023.06)
