@<TRIPOS>MOLECULE
NONAME
48 50 1 0 0 
SMALL
USER_CHARGES


@<TRIPOS>ATOM
  1 CL      -0.9560    -2.5210    -1.9530 Cl    1 <1>  -0.1770 
  2 C       -1.9390    -2.3380    -0.5150 C.ar  1 <1>   0.1770 
  3 C       -2.3780    -1.1000    -0.0370 C.ar  1 <1>   0.0820 
  4 C       -2.2940    -3.5100     0.1280 C.ar  1 <1>  -0.1500 
  5 O       -2.0950     0.1140    -0.5760 O.3   1 <1>  -0.3630 
  6 C       -3.1900    -1.0790     1.0870 C.ar  1 <1>  -0.1500 
  7 C       -3.1050    -3.4770     1.2540 C.ar  1 <1>  -0.1430 
  8 C       -0.8370     0.3990    -1.1470 C.3   1 <1>   0.2580 
  9 C       -3.5490    -2.2510     1.7300 C.ar  1 <1>  -0.1500 
 10 C       -3.5070    -4.7680     1.9400 C.3   1 <1>   0.4870 
 11 C       -0.6030     1.8930    -1.0320 C.2   1 <1>  -0.2880 
 12 N       -4.4850    -5.4580     1.0660 N.4   1 <1>  -0.9590 
 13 C       -0.3720     2.7220    -2.0550 C.2   1 <1>  -0.3000 
 14 C       -5.7940    -4.7480     0.8890 C.3   1 <1>   0.3430 
 15 C       -4.7930    -6.8630     1.4200 C.3   1 <1>   0.3430 
 16 C       -6.8710    -5.8480     0.8820 C.3   1 <1>   0.2000 
 17 C       -6.0930    -7.1490     0.6650 C.3   1 <1>  -0.0800 
 18 O       -7.4980    -5.9000     2.1210 O.3   1 <1>  -0.6800 
 19 C       -5.9030    -7.4150    -0.8560 C.3   1 <1>  -0.0170 
 20 C       -4.4860    -7.7800    -1.2860 C.ar  1 <1>   0.1670 
 21 N       -3.6180    -6.7780    -1.3710 N.ar  1 <1>  -0.6200 
 22 C       -4.1670    -9.1050    -1.5780 C.ar  1 <1>   0.1600 
 23 C       -2.4320    -7.1890    -1.8050 C.ar  1 <1>   0.1600 
 24 N       -2.9740    -9.5130    -1.9710 N.ar  1 <1>  -0.6200 
 25 C       -2.1210    -8.5120    -2.0910 C.ar  1 <1>   0.1600 
 26 H       -1.9310    -4.4410    -0.2700 H     1 <1>   0.1500 
 27 H       -3.5360    -0.1290     1.4560 H     1 <1>   0.1500 
 28 H       -0.0770    -0.1410    -0.6100 H     1 <1>   0.0800 
 29 H       -0.8540     0.0980    -2.1790 H     1 <1>   0.0800 
 30 H       -4.1760    -2.1890     2.6050 H     1 <1>   0.1500 
 31 H       -3.9420    -4.5610     2.9030 H     1 <1>   0.0800 
 32 H       -2.6340    -5.3850     2.0790 H     1 <1>   0.0800 
 33 H       -0.6460     2.2300    -0.0110 H     1 <1>   0.1500 
 34 H       -4.0540    -5.5230     0.1210 H     1 <1>   0.4500 
 35 H       -0.2120     3.7810    -1.9430 H     1 <1>   0.1500 
 36 H       -0.3270     2.4180    -3.0870 H     1 <1>   0.1500 
 37 H       -5.9830    -4.0490     1.6860 H     1 <1>   0.0800 
 38 H       -5.7920    -4.2220    -0.0520 H     1 <1>   0.0800 
 39 H       -3.9970    -7.5310     1.1300 H     1 <1>   0.0800 
 40 H       -4.9620    -6.9490     2.4810 H     1 <1>   0.0800 
 41 H       -7.6330    -5.6680     0.1420 H     1 <1>   0.0800 
 42 H       -6.6030    -7.9910     1.1010 H     1 <1>   0.0800 
 43 H       -6.8980    -6.1150     2.8600 H     1 <1>   0.4000 
 44 H       -6.1860    -6.5500    -1.4310 H     1 <1>   0.0800 
 45 H       -6.5780    -8.1980    -1.1540 H     1 <1>   0.0800 
 46 H       -4.9260    -9.8630    -1.4860 H     1 <1>   0.1500 
 47 H       -1.6650    -6.4470    -1.9460 H     1 <1>   0.1500 
 48 H       -1.1290    -8.7520    -2.4340 H     1 <1>   0.1500 
@<TRIPOS>BOND
  1   1   2  1   
  2   2   3  ar  
  3   2   4  ar  
  4   3   5  1   
  5   3   6  ar  
  6   4   7  ar  
  7   4  26  1   
  8   5   8  1   
  9   6   9  ar  
 10   6  27  1   
 11   7   9  ar  
 12   7  10  1   
 13   8  11  1   
 14   8  28  1   
 15   8  29  1   
 16   9  30  1   
 17  10  12  1   
 18  10  31  1   
 19  10  32  1   
 20  11  13  2   
 21  11  33  1   
 22  12  14  1   
 23  12  15  1   
 24  12  34  1   
 25  13  35  1   
 26  13  36  1   
 27  14  16  1   
 28  14  37  1   
 29  14  38  1   
 30  15  17  1   
 31  15  39  1   
 32  15  40  1   
 33  16  17  1   
 34  16  18  1   
 35  16  41  1   
 36  17  19  1   
 37  17  42  1   
 38  18  43  1   
 39  19  20  1   
 40  19  44  1   
 41  19  45  1   
 42  20  21  ar  
 43  20  22  ar  
 44  21  23  ar  
 45  22  24  ar  
 46  22  46  1   
 47  23  25  ar  
 48  23  47  1   
 49  24  25  ar  
 50  25  48  1   
@<TRIPOS>SUBSTRUCTURE
  1 ****   4 GROUP 4 **** **** 0

# MOE 2024.06 (io_trps.svl 2023.06)
