@<TRIPOS>MOLECULE
NONAME
39 41 1 0 0 
SMALL
USER_CHARGES


@<TRIPOS>ATOM
  1 O       -0.5620    -0.9190    -0.6160 O.2   1 <1>  -0.5700 
  2 C       -1.0960    -1.9800    -0.4300 C.2   1 <1>   0.4230 
  3 C       -2.3620    -2.4300    -0.9170 C.ar  1 <1>   0.0860 
  4 C       -0.4670    -3.0730     0.4070 C.3   1 <1>  -0.0990 
  5 C       -2.6290    -3.7110    -0.4770 C.ar  1 <1>  -0.1440 
  6 C       -3.2830    -1.7740    -1.7240 C.ar  1 <1>  -0.1500 
  7 C       -1.4870    -4.2310     0.3810 C.3   1 <1>  -0.0160 
  8 C       -3.8010    -4.3840    -0.8130 C.ar  1 <1>   0.0860 
  9 C       -4.4530    -2.4180    -2.0830 C.ar  1 <1>  -0.1500 
 10 C       -4.0610    -5.7310    -0.3390 C.2   1 <1>   0.5440 
 11 C       -4.7040    -3.7070    -1.6360 C.ar  1 <1>  -0.1500 
 12 O       -3.3700    -6.6450    -0.7510 O.2   1 <1>  -0.5700 
 13 N       -5.0630    -6.0200     0.5620 N.am  1 <1>  -0.6600 
 14 C       -5.2430    -7.4140     1.0740 C.3   1 <1>   0.3200 
 15 C       -6.0690    -5.0290     1.0510 C.3   1 <1>   0.1400 
 16 C       -6.0320    -8.2450     0.0780 C.2   1 <1>   0.0060 
 17 C       -7.4240    -5.2340     0.3610 C.3   1 <1>   0.1200 
 18 N       -7.2000    -8.7640     0.2950 N.2   1 <1>  -0.5650 
 19 N       -5.5440    -8.5040    -1.1530 N.pl3 1 <1>   0.0330 
 20 O       -8.2780    -4.2010     0.7190 O.3   1 <1>  -0.6800 
 21 C       -7.4870    -9.3950    -0.8610 C.2   1 <1>   0.0770 
 22 C       -6.4870    -9.2460    -1.7580 C.2   1 <1>  -0.3020 
 23 H       -0.3050    -2.7170     1.4080 H     1 <1>   0.0800 
 24 H        0.4700    -3.3700    -0.0290 H     1 <1>   0.0800 
 25 H       -3.0700    -0.7740    -2.0620 H     1 <1>   0.1500 
 26 H       -1.8340    -4.4620     1.3740 H     1 <1>   0.0800 
 27 H       -1.0560    -5.1120    -0.0630 H     1 <1>   0.0800 
 28 H       -5.1700    -1.9180    -2.7120 H     1 <1>   0.1500 
 29 H       -5.6140    -4.1980    -1.9310 H     1 <1>   0.1500 
 30 H       -5.7610    -7.3990     2.0160 H     1 <1>   0.0800 
 31 H       -4.2810    -7.8700     1.2350 H     1 <1>   0.0800 
 32 H       -5.7260    -4.0280     0.8590 H     1 <1>   0.0800 
 33 H       -6.1870    -5.1400     2.1140 H     1 <1>   0.0800 
 34 H       -7.8800    -6.1660     0.6490 H     1 <1>   0.0800 
 35 H       -7.3110    -5.2080    -0.7080 H     1 <1>   0.0800 
 36 H       -4.6410    -8.1580    -1.5090 H     1 <1>   0.2700 
 37 H       -8.6930    -4.3780     1.5860 H     1 <1>   0.4000 
 38 H       -8.4130    -9.9320    -0.9890 H     1 <1>   0.1500 
 39 H       -6.3970    -9.6150    -2.7630 H     1 <1>   0.1500 
@<TRIPOS>BOND
  1   1   2  2   
  2   2   3  1   
  3   2   4  1   
  4   3   5  ar  
  5   3   6  ar  
  6   4   7  1   
  7   4  23  1   
  8   4  24  1   
  9   5   7  1   
 10   5   8  ar  
 11   6   9  ar  
 12   6  25  1   
 13   7  26  1   
 14   7  27  1   
 15   8  10  1   
 16   8  11  ar  
 17   9  11  ar  
 18   9  28  1   
 19  10  12  2   
 20  10  13  am  
 21  11  29  1   
 22  13  14  1   
 23  13  15  1   
 24  14  16  1   
 25  14  30  1   
 26  14  31  1   
 27  15  17  1   
 28  15  32  1   
 29  15  33  1   
 30  16  18  2   
 31  16  19  1   
 32  17  20  1   
 33  17  34  1   
 34  17  35  1   
 35  18  21  1   
 36  19  22  1   
 37  19  36  1   
 38  20  37  1   
 39  21  22  2   
 40  21  38  1   
 41  22  39  1   
@<TRIPOS>SUBSTRUCTURE
  1 ****  10 GROUP 4 **** **** 0

# MOE 2024.06 (io_trps.svl 2023.06)
