@<TRIPOS>MOLECULE
NONAME
45 47 1 0 0 
SMALL
USER_CHARGES


@<TRIPOS>ATOM
  1 F       -3.7770     0.6920    -0.7150 F     1 <1>  -0.3400 
  2 C       -2.4680     0.8680    -0.5780 C.3   1 <1>   1.3000 
  3 F       -2.2390     2.1700    -0.4920 F     1 <1>  -0.3400 
  4 F       -1.8730     0.4220    -1.6780 F     1 <1>  -0.3400 
  5 O       -1.9780     0.2100     0.5730 O.3   1 <1>  -0.3630 
  6 C       -2.1730    -1.1220     0.6590 C.ar  1 <1>   0.0830 
  7 C       -1.2420    -1.9960     0.1220 C.ar  1 <1>  -0.1500 
  8 C       -3.2960    -1.6110     1.3060 C.ar  1 <1>  -0.1500 
  9 C       -1.4450    -3.3620     0.2170 C.ar  1 <1>  -0.1500 
 10 C       -3.4970    -2.9760     1.4000 C.ar  1 <1>  -0.1500 
 11 C       -2.5770    -3.8590     0.8500 C.ar  1 <1>  -0.1430 
 12 C       -2.8120    -5.3550     0.9490 C.3   1 <1>   0.4870 
 13 N       -3.2270    -5.8700    -0.3860 N.4   1 <1>  -0.9590 
 14 C       -4.5710    -5.3250    -0.7730 C.3   1 <1>   0.3430 
 15 C       -3.3600    -7.3600    -0.3580 C.3   1 <1>   0.3430 
 16 C       -5.5820    -6.4070    -0.3840 C.3   1 <1>   0.2000 
 17 C       -4.8160    -7.6860    -0.7130 C.3   1 <1>  -0.0800 
 18 O       -5.8050    -6.3270     0.9890 O.3   1 <1>  -0.6800 
 19 C       -5.3230    -8.9860    -0.0570 C.3   1 <1>   0.0200 
 20 C       -4.3440   -10.1170    -0.3100 C.2   1 <1>  -0.0400 
 21 O       -3.8760   -10.3130    -1.5130 O.3   1 <1>  -0.0190 
 22 C       -3.7880   -11.0270     0.5030 C.2   1 <1>  -0.1500 
 23 N       -3.0230   -11.2920    -1.5460 N.2   1 <1>  -0.4100 
 24 C       -2.9570   -11.7510    -0.3480 C.2   1 <1>   0.1080 
 25 C       -2.0900   -12.9200     0.0690 C.3   1 <1>  -0.0590 
 26 H       -0.3620    -1.6070    -0.3620 H     1 <1>   0.1500 
 27 H       -4.0060    -0.9240     1.7370 H     1 <1>   0.1500 
 28 H       -0.7060    -4.0250    -0.2020 H     1 <1>   0.1500 
 29 H       -4.3750    -3.3400     1.9090 H     1 <1>   0.1500 
 30 H       -3.5790    -5.5590     1.6790 H     1 <1>   0.0800 
 31 H       -1.9020    -5.8370     1.2660 H     1 <1>   0.0800 
 32 H       -2.5230    -5.5670    -1.0700 H     1 <1>   0.4500 
 33 H       -4.7940    -4.3880    -0.2910 H     1 <1>   0.0800 
 34 H       -4.6040    -5.1850    -1.8410 H     1 <1>   0.0800 
 35 H       -2.6880    -7.8310    -1.0590 H     1 <1>   0.0800 
 36 H       -3.1430    -7.7320     0.6300 H     1 <1>   0.0800 
 37 H       -6.5210    -6.3050    -0.9050 H     1 <1>   0.0800 
 38 H       -4.8530    -7.8240    -1.7800 H     1 <1>   0.0800 
 39 H       -6.6520    -6.7570     1.2350 H     1 <1>   0.4000 
 40 H       -6.2800    -9.2530    -0.4720 H     1 <1>   0.0800 
 41 H       -5.4380    -8.8700     1.0060 H     1 <1>   0.0800 
 42 H       -3.9190   -11.1950     1.5570 H     1 <1>   0.1500 
 43 H       -1.4300   -12.6250     0.8630 H     1 <1>   0.0800 
 44 H       -1.5020   -13.2570    -0.7660 H     1 <1>   0.0800 
 45 H       -2.7100   -13.7310     0.4040 H     1 <1>   0.0800 
@<TRIPOS>BOND
  1   1   2  1   
  2   2   3  1   
  3   2   4  1   
  4   2   5  1   
  5   5   6  1   
  6   6   7  ar  
  7   6   8  ar  
  8   7   9  ar  
  9   7  26  1   
 10   8  10  ar  
 11   8  27  1   
 12   9  11  ar  
 13   9  28  1   
 14  10  11  ar  
 15  10  29  1   
 16  11  12  1   
 17  12  13  1   
 18  12  30  1   
 19  12  31  1   
 20  13  14  1   
 21  13  15  1   
 22  13  32  1   
 23  14  16  1   
 24  14  33  1   
 25  14  34  1   
 26  15  17  1   
 27  15  35  1   
 28  15  36  1   
 29  16  17  1   
 30  16  18  1   
 31  16  37  1   
 32  17  19  1   
 33  17  38  1   
 34  18  39  1   
 35  19  20  1   
 36  19  40  1   
 37  19  41  1   
 38  20  21  1   
 39  20  22  2   
 40  21  23  1   
 41  22  24  1   
 42  22  42  1   
 43  23  24  2   
 44  24  25  1   
 45  25  43  1   
 46  25  44  1   
 47  25  45  1   
@<TRIPOS>SUBSTRUCTURE
  1 ****  13 GROUP 4 **** **** 0

# MOE 2024.06 (io_trps.svl 2023.06)
