@<TRIPOS>MOLECULE
NONAME
60 64 1 0 0 
SMALL
USER_CHARGES


@<TRIPOS>ATOM
  1 O       -0.2530     0.6350     0.6780 O.2   1 <1>  -0.5700 
  2 C       -1.2290     1.0630     0.1020 C.2   1 <1>   0.5690 
  3 N       -2.3200     0.2370    -0.0800 N.am  1 <1>  -0.6600 
  4 C       -1.1710     2.5180    -0.4250 C.3   1 <1>   0.0610 
  5 C       -3.4390     0.4060    -1.0570 C.3   1 <1>   0.1400 
  6 C       -2.3940    -1.0850     0.6160 C.3   1 <1>   0.1400 
  7 C       -0.1480     3.3910     0.3580 C.3   1 <1>   0.2200 
  8 C       -2.4700     3.3530    -0.1820 C.3   1 <1>  -0.1600 
  9 C       -0.8270     2.5140    -1.9480 C.3   1 <1>  -0.1600 
 10 C       -4.7900     0.1120    -0.3860 C.3   1 <1>   0.1200 
 11 C       -3.8000    -1.3160     1.1940 C.3   1 <1>   0.1200 
 12 N       -0.6400     4.7260     0.0380 N.am  1 <1>  -0.6600 
 13 C       -0.4030     3.4150     1.8810 C.3   1 <1>  -0.1600 
 14 C       -1.9900     4.6120     0.5550 C.3   1 <1>   0.2200 
 15 C        0.5010     1.8290    -2.3110 C.3   1 <1>  -0.2400 
 16 O       -4.7790    -1.1550     0.2050 O.3   1 <1>  -0.5600 
 17 C        0.0380     5.7310    -0.5820 C.2   1 <1>   0.5690 
 18 C       -1.6910     4.2470     2.0100 C.3   1 <1>  -0.1600 
 19 O        1.1750     5.5910    -0.9630 O.2   1 <1>  -0.5700 
 20 C       -0.6310     7.0710    -0.8020 C.3   1 <1>  -0.0990 
 21 C       -0.5330     7.9450     0.4530 C.3   1 <1>  -0.0160 
 22 C       -1.3060     9.2390     0.2630 C.ar  1 <1>  -0.1440 
 23 C       -0.7010    10.3190    -0.3720 C.ar  1 <1>  -0.1500 
 24 C       -2.6190     9.3440     0.7200 C.ar  1 <1>  -0.1500 
 25 C       -1.4350    11.4780    -0.5290 C.ar  1 <1>   0.0820 
 26 C       -3.3430    10.5190     0.5530 C.ar  1 <1>  -0.1500 
 27 O       -1.0600    12.6270    -1.1030 O.3   1 <1>  -0.3620 
 28 C       -2.7200    11.5760    -0.0800 C.ar  1 <1>   0.0820 
 29 C       -2.1750    13.5120    -1.0100 C.3   1 <1>   0.4000 
 30 O       -3.2120    12.7900    -0.3490 O.3   1 <1>  -0.3620 
 31 H       -3.4600     1.3910    -1.4750 H     1 <1>   0.0800 
 32 H       -3.2980    -0.2870    -1.8690 H     1 <1>   0.0800 
 33 H       -2.1630    -1.8680    -0.0840 H     1 <1>   0.0800 
 34 H       -1.6770    -1.1350     1.4170 H     1 <1>   0.0800 
 35 H        0.8840     3.2320     0.0980 H     1 <1>   0.0800 
 36 H       -3.1910     2.8260     0.4160 H     1 <1>   0.0800 
 37 H       -2.9360     3.6400    -1.1080 H     1 <1>   0.0800 
 38 H       -1.6080     2.0170    -2.4920 H     1 <1>   0.0800 
 39 H       -0.7870     3.5250    -2.3170 H     1 <1>   0.0800 
 40 H       -5.5790     0.1230    -1.1170 H     1 <1>   0.0800 
 41 H       -5.0080     0.8440     0.3710 H     1 <1>   0.0800 
 42 H       -3.9980    -0.6220     1.9920 H     1 <1>   0.0800 
 43 H       -3.8830    -2.3170     1.5780 H     1 <1>   0.0800 
 44 H       -0.5040     2.4400     2.3190 H     1 <1>   0.0800 
 45 H        0.4160     3.9170     2.3650 H     1 <1>   0.0800 
 46 H       -2.6090     5.4840     0.4250 H     1 <1>   0.0800 
 47 H        0.5140     0.8050    -1.9820 H     1 <1>   0.0800 
 48 H        1.3340     2.3450    -1.8680 H     1 <1>   0.0800 
 49 H        0.6360     1.8410    -3.3780 H     1 <1>   0.0800 
 50 H       -1.5100     5.1370     2.5860 H     1 <1>   0.0800 
 51 H       -2.4930     3.6910     2.4610 H     1 <1>   0.0800 
 52 H       -0.1460     7.5690    -1.6210 H     1 <1>   0.0800 
 53 H       -1.6580     6.9220    -1.0740 H     1 <1>   0.0800 
 54 H        0.5020     8.1630     0.6560 H     1 <1>   0.0800 
 55 H       -0.9220     7.4120     1.3020 H     1 <1>   0.0800 
 56 H        0.3090    10.2710    -0.7360 H     1 <1>   0.1500 
 57 H       -3.0870     8.5090     1.2120 H     1 <1>   0.1500 
 58 H       -4.3550    10.6160     0.9000 H     1 <1>   0.1500 
 59 H       -1.9050    14.3720    -0.4240 H     1 <1>   0.0800 
 60 H       -2.5000    13.7880    -1.9970 H     1 <1>   0.0800 
@<TRIPOS>BOND
  1   1   2  2   
  2   2   3  am  
  3   2   4  1   
  4   3   5  1   
  5   3   6  1   
  6   4   7  1   
  7   4   8  1   
  8   4   9  1   
  9   5  10  1   
 10   5  31  1   
 11   5  32  1   
 12   6  11  1   
 13   6  33  1   
 14   6  34  1   
 15   7  12  1   
 16   7  13  1   
 17   7  35  1   
 18   8  14  1   
 19   8  36  1   
 20   8  37  1   
 21   9  15  1   
 22   9  38  1   
 23   9  39  1   
 24  10  16  1   
 25  10  40  1   
 26  10  41  1   
 27  11  16  1   
 28  11  42  1   
 29  11  43  1   
 30  12  14  1   
 31  12  17  am  
 32  13  18  1   
 33  13  44  1   
 34  13  45  1   
 35  14  18  1   
 36  14  46  1   
 37  15  47  1   
 38  15  48  1   
 39  15  49  1   
 40  17  19  2   
 41  17  20  1   
 42  18  50  1   
 43  18  51  1   
 44  20  21  1   
 45  20  52  1   
 46  20  53  1   
 47  21  22  1   
 48  21  54  1   
 49  21  55  1   
 50  22  23  ar  
 51  22  24  ar  
 52  23  25  ar  
 53  23  56  1   
 54  24  26  ar  
 55  24  57  1   
 56  25  27  1   
 57  25  28  ar  
 58  26  28  ar  
 59  26  58  1   
 60  27  29  1   
 61  28  30  1   
 62  29  30  1   
 63  29  59  1   
 64  29  60  1   
@<TRIPOS>SUBSTRUCTURE
  1 ****  14 GROUP 4 **** **** 0

# MOE 2024.06 (io_trps.svl 2023.06)
