@<TRIPOS>MOLECULE
NONAME
47 49 1 0 0 
SMALL
USER_CHARGES


@<TRIPOS>ATOM
  1 S        0.9810    -0.0980    -1.2520 S.o2  1 <1>   1.3330 
  2 O        0.4050    -0.0260    -2.5750 O.2   1 <1>  -0.6500 
  3 O        2.2990    -0.6690    -1.0810 O.2   1 <1>  -0.6500 
  4 N       -0.1050    -0.9850    -0.2910 N.am  1 <1>  -0.8490 
  5 C        0.9550     1.5470    -0.5170 C.3   1 <1>  -0.0550 
  6 C       -1.5080    -0.8160    -0.6860 C.3   1 <1>   0.1160 
  7 C        0.2280    -2.4130    -0.2510 C.3   1 <1>   0.1160 
  8 C        1.7750     1.7840     0.7740 C.3   1 <1>  -0.0800 
  9 C        3.2880     1.6510     0.5740 C.3   1 <1>   0.2200 
 10 C        1.4770     0.8640     1.9650 C.3   1 <1>   0.1200 
 11 N        3.9470     2.9240     0.9460 N.am  1 <1>  -0.7300 
 12 C        3.6690     0.5540     1.5650 C.3   1 <1>   0.1200 
 13 O        2.7090     0.6340     2.5670 O.3   1 <1>  -0.5600 
 14 C        4.0920     3.9940     0.1160 C.2   1 <1>   0.6160 
 15 O        3.5930     3.9400    -0.9900 O.2   1 <1>  -0.5700 
 16 C        4.7980     5.1690     0.5740 C.2   1 <1>  -0.0140 
 17 C        5.8750     5.7460    -0.2070 C.ar  1 <1>   0.0280 
 18 C        4.4620     5.7590     1.7580 C.2   1 <1>  -0.1360 
 19 C        6.5190     6.9030     0.2850 C.ar  1 <1>   0.1170 
 20 C        6.3270     5.2120    -1.4250 C.ar  1 <1>  -0.1500 
 21 C        5.1200     6.9140     2.2500 C.2   1 <1>   0.6160 
 22 N        6.1140     7.4450     1.4970 N.am  1 <1>  -0.5470 
 23 C        7.5560     7.4970    -0.4290 C.ar  1 <1>  -0.1500 
 24 C        7.3560     5.7980    -2.1320 C.ar  1 <1>  -0.1500 
 25 O        4.8390     7.4410     3.3090 O.2   1 <1>  -0.5700 
 26 C        7.9530     6.9360    -1.6180 C.ar  1 <1>   0.1900 
 27 F        8.9260     7.4890    -2.2870 F     1 <1>  -0.1900 
 28 H        1.3240     2.2380    -1.2510 H     1 <1>   0.0800 
 29 H       -0.0640     1.8210    -0.3270 H     1 <1>   0.0800 
 30 H       -2.1520    -1.3200     0.0140 H     1 <1>   0.0800 
 31 H       -1.6740    -1.2220    -1.6700 H     1 <1>   0.0800 
 32 H       -1.7690     0.2280    -0.6960 H     1 <1>   0.0800 
 33 H       -0.4720    -2.9430     0.3720 H     1 <1>   0.0800 
 34 H        1.2140    -2.5510     0.1620 H     1 <1>   0.0800 
 35 H        0.2080    -2.8300    -1.2440 H     1 <1>   0.0800 
 36 H        1.5520     2.7870     1.0930 H     1 <1>   0.0800 
 37 H        3.5680     1.3810    -0.4310 H     1 <1>   0.0800 
 38 H        1.0860    -0.0920     1.6730 H     1 <1>   0.0800 
 39 H        0.8190     1.3210     2.6830 H     1 <1>   0.0800 
 40 H        4.2540     2.9750     1.9190 H     1 <1>   0.3700 
 41 H        4.6500     0.6850     1.9860 H     1 <1>   0.0800 
 42 H        3.5940    -0.4180     1.1090 H     1 <1>   0.0800 
 43 H        3.6710     5.3830     2.3790 H     1 <1>   0.1500 
 44 H        5.8700     4.3280    -1.8330 H     1 <1>   0.1500 
 45 H        6.5530     8.2800     1.8840 H     1 <1>   0.3700 
 46 H        8.0450     8.3790    -0.0610 H     1 <1>   0.1500 
 47 H        7.6990     5.3900    -3.0670 H     1 <1>   0.1500 
@<TRIPOS>BOND
  1   1   2  2   
  2   1   3  2   
  3   1   4  am  
  4   1   5  1   
  5   4   6  1   
  6   4   7  1   
  7   5   8  1   
  8   5  28  1   
  9   5  29  1   
 10   6  30  1   
 11   6  31  1   
 12   6  32  1   
 13   7  33  1   
 14   7  34  1   
 15   7  35  1   
 16   8   9  1   
 17   8  10  1   
 18   8  36  1   
 19   9  11  1   
 20   9  12  1   
 21   9  37  1   
 22  10  13  1   
 23  10  38  1   
 24  10  39  1   
 25  11  14  am  
 26  11  40  1   
 27  12  13  1   
 28  12  41  1   
 29  12  42  1   
 30  14  15  2   
 31  14  16  1   
 32  16  17  1   
 33  16  18  2   
 34  17  19  ar  
 35  17  20  ar  
 36  18  21  1   
 37  18  43  1   
 38  19  22  1   
 39  19  23  ar  
 40  20  24  ar  
 41  20  44  1   
 42  21  22  am  
 43  21  25  2   
 44  22  45  1   
 45  23  26  ar  
 46  23  46  1   
 47  24  26  ar  
 48  24  47  1   
 49  26  27  1   
@<TRIPOS>SUBSTRUCTURE
  1 ****  14 GROUP 4 **** **** 0

# MOE 2024.06 (io_trps.svl 2023.06)
