@<TRIPOS>MOLECULE
NONAME
51 53 1 0 0 
SMALL
USER_CHARGES


@<TRIPOS>ATOM
  1 S       -0.0230    -1.3560    -0.3440 S.3   1 <1>  -0.0800 
  2 C       -1.6110    -1.6060     0.3590 C.2   1 <1>  -0.1400 
  3 C       -0.1470     0.3830    -0.1400 C.2   1 <1>  -0.1400 
  4 C       -2.1580    -0.4230     0.7090 C.2   1 <1>  -0.1500 
  5 C       -2.0540    -3.0520     0.4390 C.3   1 <1>   0.5230 
  6 C       -1.3250     0.7050     0.4220 C.2   1 <1>  -0.1500 
  7 C        1.0200     1.2360    -0.6030 C.3   1 <1>   0.0200 
  8 N       -3.5230    -3.1180     0.6950 N.4   1 <1>  -0.9590 
  9 C        2.2460     1.0330     0.2960 C.3   1 <1>  -0.1600 
 10 C       -4.3090    -2.6160    -0.4840 C.3   1 <1>   0.3430 
 11 C       -3.9430    -4.5290     0.9380 C.3   1 <1>   0.3430 
 12 C        3.4180     1.9210    -0.1420 C.3   1 <1>  -0.1600 
 13 C       -5.2790    -3.7400    -0.8750 C.3   1 <1>   0.2000 
 14 C       -4.6110    -5.0090    -0.3550 C.3   1 <1>  -0.0800 
 15 C        4.6350     1.7080     0.7620 C.3   1 <1>  -0.2400 
 16 O       -6.4920    -3.5640    -0.2200 O.3   1 <1>  -0.6800 
 17 C       -3.6070    -5.5590    -1.3930 C.3   1 <1>   0.0210 
 18 C       -2.5550    -6.4560    -0.7730 C.2   1 <1>   0.1080 
 19 N       -1.5000    -5.9860    -0.1780 N.2   1 <1>  -0.7070 
 20 C       -2.5890    -7.8450    -0.7740 C.2   1 <1>  -0.1500 
 21 N       -0.8110    -7.0870     0.2010 N.pl3 1 <1>   0.3000 
 22 C       -1.4580    -8.2190    -0.1410 C.2   1 <1>  -0.3320 
 23 C       -0.9430    -9.6170     0.1530 C.3   1 <1>  -0.0600 
 24 H       -3.1180    -0.2640     1.1670 H     1 <1>   0.1500 
 25 H       -1.5120    -3.5490     1.2270 H     1 <1>   0.0800 
 26 H       -1.8180    -3.5510    -0.4870 H     1 <1>   0.0800 
 27 H       -1.6480     1.7060     0.6540 H     1 <1>   0.1500 
 28 H        1.2630     0.9840    -1.6210 H     1 <1>   0.0800 
 29 H        0.7280     2.2710    -0.5770 H     1 <1>   0.0800 
 30 H       -3.7050    -2.5410     1.5240 H     1 <1>   0.4500 
 31 H        1.9790     1.2640     1.3120 H     1 <1>   0.0800 
 32 H        2.5490     0.0010     0.2590 H     1 <1>   0.0800 
 33 H       -4.8480    -1.7110    -0.2530 H     1 <1>   0.0800 
 34 H       -3.6420    -2.4220    -1.3080 H     1 <1>   0.0800 
 35 H       -3.1180    -5.1550     1.2350 H     1 <1>   0.0800 
 36 H       -4.6740    -4.5480     1.7290 H     1 <1>   0.0800 
 37 H        3.6890     1.6900    -1.1580 H     1 <1>   0.0800 
 38 H        3.1250     2.9570    -0.1000 H     1 <1>   0.0800 
 39 H       -5.4790    -3.7590    -1.9340 H     1 <1>   0.0800 
 40 H       -5.3300    -5.7820    -0.1390 H     1 <1>   0.0800 
 41 H        4.9600     0.6830     0.7210 H     1 <1>   0.0800 
 42 H        4.3960     1.9550     1.7820 H     1 <1>   0.0800 
 43 H        5.4470     2.3370     0.4410 H     1 <1>   0.0800 
 44 H       -6.4260    -3.6330     0.7510 H     1 <1>   0.4000 
 45 H       -3.0920    -4.7600    -1.8950 H     1 <1>   0.0800 
 46 H       -4.1400    -6.1120    -2.1480 H     1 <1>   0.0800 
 47 H       -3.3570    -8.4690    -1.1990 H     1 <1>   0.1500 
 48 H        0.0990    -7.0410     0.6790 H     1 <1>   0.2700 
 49 H       -1.6330   -10.3530    -0.2210 H     1 <1>   0.0800 
 50 H       -0.8330    -9.7610     1.2140 H     1 <1>   0.0800 
 51 H        0.0100    -9.7720    -0.3220 H     1 <1>   0.0800 
@<TRIPOS>BOND
  1   1   2  1   
  2   1   3  1   
  3   2   4  2   
  4   2   5  1   
  5   3   6  2   
  6   3   7  1   
  7   4   6  1   
  8   4  24  1   
  9   5   8  1   
 10   5  25  1   
 11   5  26  1   
 12   6  27  1   
 13   7   9  1   
 14   7  28  1   
 15   7  29  1   
 16   8  10  1   
 17   8  11  1   
 18   8  30  1   
 19   9  12  1   
 20   9  31  1   
 21   9  32  1   
 22  10  13  1   
 23  10  33  1   
 24  10  34  1   
 25  11  14  1   
 26  11  35  1   
 27  11  36  1   
 28  12  15  1   
 29  12  37  1   
 30  12  38  1   
 31  13  14  1   
 32  13  16  1   
 33  13  39  1   
 34  14  17  1   
 35  14  40  1   
 36  15  41  1   
 37  15  42  1   
 38  15  43  1   
 39  16  44  1   
 40  17  18  1   
 41  17  45  1   
 42  17  46  1   
 43  18  19  2   
 44  18  20  1   
 45  19  21  1   
 46  20  22  2   
 47  20  47  1   
 48  21  22  1   
 49  21  48  1   
 50  22  23  1   
 51  23  49  1   
 52  23  50  1   
 53  23  51  1   
@<TRIPOS>SUBSTRUCTURE
  1 ****   5 GROUP 4 **** **** 0

# MOE 2024.06 (io_trps.svl 2023.06)
