@<TRIPOS>MOLECULE
NONAME
46 47 1 0 0 
SMALL
USER_CHARGES


@<TRIPOS>ATOM
  1 O        0.8330     6.7330     2.8340 O.co2 1 <1>  -0.9000 
  2 C       -0.2710     6.1370     2.7410 C.2   1 <1>   0.9790 
  3 O       -1.0130     6.1400     3.7400 O.co2 1 <1>  -0.9000 
  4 C       -0.7310     5.6000     1.4530 C.ar  1 <1>   0.1310 
  5 N        0.1190     5.0510     0.5880 N.ar  1 <1>  -0.6200 
  6 C       -2.0480     5.7600     1.0550 C.ar  1 <1>  -0.1500 
  7 C       -0.2430     5.0570    -0.6820 C.ar  1 <1>   0.7200 
  8 C       -2.3760     5.5220    -0.2590 C.ar  1 <1>   0.1660 
  9 N       -1.4700     5.2130    -1.1560 N.ar  1 <1>  -0.6200 
 10 N        0.7900     5.0060    -1.5890 N.pl3 1 <1>  -0.8380 
 11 C       -3.8030     5.6550    -0.7440 C.3   1 <1>  -0.0970 
 12 C        1.5920     6.2490    -1.8460 C.3   1 <1>   0.2090 
 13 C        1.4740     3.7050    -1.7740 C.3   1 <1>   0.1290 
 14 C        2.0850     6.9060    -0.5370 C.3   1 <1>  -0.0800 
 15 C        2.7470     8.2650    -0.5810 C.3   1 <1>   0.3430 
 16 C        3.1000     6.0870     0.2620 C.3   1 <1>  -0.1600 
 17 N        3.2700     8.4170     0.8100 N.4   1 <1>  -0.9590 
 18 C        3.5950     7.0530     1.3260 C.3   1 <1>   0.3430 
 19 C        2.2520     9.0100     1.7390 C.3   1 <1>   0.3430 
 20 C        2.2000    10.5360     1.5790 C.3   1 <1>   0.1200 
 21 O        3.4840    11.0200     1.2850 O.3   1 <1>  -0.5600 
 22 C        3.5610    12.4100     1.2330 C.3   1 <1>   0.0400 
 23 H       -2.7760     6.0900     1.7740 H     1 <1>   0.1500 
 24 H       -4.4620     5.9050     0.0660 H     1 <1>   0.0800 
 25 H       -4.1200     4.7240    -1.1780 H     1 <1>   0.0800 
 26 H       -3.8580     6.4240    -1.4920 H     1 <1>   0.0800 
 27 H        0.9600     6.9420    -2.3730 H     1 <1>   0.0800 
 28 H        2.4280     6.0130    -2.4810 H     1 <1>   0.0800 
 29 H        0.8230     2.9040    -1.4670 H     1 <1>   0.0800 
 30 H        2.3690     3.6680    -1.1790 H     1 <1>   0.0800 
 31 H        1.7230     3.5690    -2.8120 H     1 <1>   0.0800 
 32 H        1.2170     7.1020     0.0590 H     1 <1>   0.0800 
 33 H        2.0500     9.0470    -0.8340 H     1 <1>   0.0800 
 34 H        3.5630     8.2560    -1.2840 H     1 <1>   0.0800 
 35 H        3.9200     5.7790    -0.3590 H     1 <1>   0.0800 
 36 H        2.6680     5.2180     0.7250 H     1 <1>   0.0800 
 37 H        4.0650     9.0740     0.8470 H     1 <1>   0.4500 
 38 H        4.6530     6.9360     1.4910 H     1 <1>   0.0800 
 39 H        3.0670     6.8670     2.2500 H     1 <1>   0.0800 
 40 H        2.5220     8.7840     2.7580 H     1 <1>   0.0800 
 41 H        1.2780     8.5790     1.5760 H     1 <1>   0.0800 
 42 H        1.8450    10.9850     2.4920 H     1 <1>   0.0800 
 43 H        1.5390    10.8000     0.7730 H     1 <1>   0.0800 
 44 H        4.5730    12.6840     0.9910 H     1 <1>   0.0800 
 45 H        3.2970    12.8190     2.1940 H     1 <1>   0.0800 
 46 H        2.8950    12.7780     0.4700 H     1 <1>   0.0800 
@<TRIPOS>BOND
  1   1   2  ar  
  2   2   3  ar  
  3   2   4  1   
  4   4   5  ar  
  5   4   6  ar  
  6   5   7  ar  
  7   6   8  ar  
  8   6  23  1   
  9   7   9  ar  
 10   7  10  1   
 11   8   9  ar  
 12   8  11  1   
 13  10  12  1   
 14  10  13  1   
 15  11  24  1   
 16  11  25  1   
 17  11  26  1   
 18  12  14  1   
 19  12  27  1   
 20  12  28  1   
 21  13  29  1   
 22  13  30  1   
 23  13  31  1   
 24  14  15  1   
 25  14  16  1   
 26  14  32  1   
 27  15  17  1   
 28  15  33  1   
 29  15  34  1   
 30  16  18  1   
 31  16  35  1   
 32  16  36  1   
 33  17  18  1   
 34  17  19  1   
 35  17  37  1   
 36  18  38  1   
 37  18  39  1   
 38  19  20  1   
 39  19  40  1   
 40  19  41  1   
 41  20  21  1   
 42  20  42  1   
 43  20  43  1   
 44  21  22  1   
 45  22  44  1   
 46  22  45  1   
 47  22  46  1   
@<TRIPOS>SUBSTRUCTURE
  1 ****  14 GROUP 4 **** **** 0

# MOE 2024.06 (io_trps.svl 2023.06)
