@<TRIPOS>MOLECULE
NONAME
43 44 1 0 0 
SMALL
USER_CHARGES


@<TRIPOS>ATOM
  1 O        0.0730    -0.0090    -0.4030 O.2   1 <1>  -0.5700 
  2 C        1.2070    -0.3870    -0.1850 C.2   1 <1>   0.5440 
  3 N        2.2000     0.5160     0.1180 N.am  1 <1>  -0.4940 
  4 C        1.5230    -1.8010    -0.2150 C.ar  1 <1>   0.0860 
  5 C        2.1820     1.9330     0.0790 C.2   1 <1>  -0.0880 
  6 C        2.7470    -2.2980    -0.6420 C.ar  1 <1>  -0.1500 
  7 C        0.6110    -2.7640     0.1880 C.ar  1 <1>  -0.1500 
  8 N        3.1940     2.7380     0.5040 N.pl3 1 <1>   0.3140 
  9 C        1.2160     2.7640    -0.3760 C.2   1 <1>  -0.1500 
 10 C        2.9960    -3.6580    -0.6250 C.ar  1 <1>   0.1670 
 11 C        0.9490    -4.1040     0.1700 C.ar  1 <1>   0.1660 
 12 N        2.9000     4.0450     0.3310 N.2   1 <1>  -0.7070 
 13 C        4.4710     2.3220     1.1170 C.3   1 <1>   0.0960 
 14 C        1.7170     4.0460    -0.1940 C.2   1 <1>   0.1080 
 15 N        2.1240    -4.5620    -0.2210 N.ar  1 <1>  -0.6200 
 16 C        4.3310    -4.2000    -1.0910 C.3   1 <1>  -0.0970 
 17 C       -0.0500    -5.1500     0.6150 C.3   1 <1>  -0.0970 
 18 C        5.4480     1.7930     0.0550 C.3   1 <1>  -0.1600 
 19 C        0.9930     5.3220    -0.5550 C.3   1 <1>  -0.0590 
 20 C        6.7410     1.2780     0.6980 C.3   1 <1>  -0.1600 
 21 C        7.7010     0.7340    -0.3630 C.3   1 <1>  -0.2400 
 22 H        3.0690     0.0920     0.4350 H     1 <1>   0.3700 
 23 H        3.5030    -1.6240    -1.0000 H     1 <1>   0.1500 
 24 H       -0.3650    -2.4530     0.5150 H     1 <1>   0.1500 
 25 H        0.2590     2.5040    -0.7910 H     1 <1>   0.1500 
 26 H        4.2630     1.5680     1.8530 H     1 <1>   0.0800 
 27 H        4.8970     3.1750     1.6150 H     1 <1>   0.0800 
 28 H        4.9850    -3.4110    -1.4110 H     1 <1>   0.0800 
 29 H        4.1740    -4.8770    -1.9110 H     1 <1>   0.0800 
 30 H        4.7990    -4.7380    -0.2870 H     1 <1>   0.0800 
 31 H       -0.9790    -4.7010     0.9150 H     1 <1>   0.0800 
 32 H        0.3530    -5.7030     1.4430 H     1 <1>   0.0800 
 33 H       -0.2390    -5.8310    -0.1950 H     1 <1>   0.0800 
 34 H        5.6810     2.5930    -0.6280 H     1 <1>   0.0800 
 35 H        4.9860     0.9980    -0.5020 H     1 <1>   0.0800 
 36 H        0.0270     5.1010    -0.9670 H     1 <1>   0.0800 
 37 H        1.5700     5.8680    -1.2780 H     1 <1>   0.0800 
 38 H        0.8730     5.9260     0.3250 H     1 <1>   0.0800 
 39 H        6.5160     0.4950     1.4030 H     1 <1>   0.0800 
 40 H        7.2240     2.0790     1.2320 H     1 <1>   0.0800 
 41 H        7.2530    -0.0850    -0.8980 H     1 <1>   0.0800 
 42 H        8.6050     0.3840     0.1030 H     1 <1>   0.0800 
 43 H        7.9600     1.5070    -1.0670 H     1 <1>   0.0800 
@<TRIPOS>BOND
  1   1   2  2   
  2   2   3  am  
  3   2   4  1   
  4   3   5  1   
  5   3  22  1   
  6   4   6  ar  
  7   4   7  ar  
  8   5   8  1   
  9   5   9  2   
 10   6  10  ar  
 11   6  23  1   
 12   7  11  ar  
 13   7  24  1   
 14   8  12  1   
 15   8  13  1   
 16   9  14  1   
 17   9  25  1   
 18  10  15  ar  
 19  10  16  1   
 20  11  15  ar  
 21  11  17  1   
 22  12  14  2   
 23  13  18  1   
 24  13  26  1   
 25  13  27  1   
 26  14  19  1   
 27  16  28  1   
 28  16  29  1   
 29  16  30  1   
 30  17  31  1   
 31  17  32  1   
 32  17  33  1   
 33  18  20  1   
 34  18  34  1   
 35  18  35  1   
 36  19  36  1   
 37  19  37  1   
 38  19  38  1   
 39  20  21  1   
 40  20  39  1   
 41  20  40  1   
 42  21  41  1   
 43  21  42  1   
 44  21  43  1   
@<TRIPOS>SUBSTRUCTURE
  1 ****   3 GROUP 4 **** **** 0

# MOE 2024.06 (io_trps.svl 2023.06)
