@<TRIPOS>MOLECULE
NONAME
22 22 1 0 0 
SMALL
USER_CHARGES


@<TRIPOS>ATOM
  1 S        0.1090     0.4810     0.1750 S.o2  1 <1>   1.5620 
  2 F       -0.8710    -0.5080    -0.4380 F     1 <1>  -0.1990 
  3 O       -0.1730     0.6470     1.6110 O.2   1 <1>  -0.6500 
  4 O        0.1470     1.7180    -0.6280 O.2   1 <1>  -0.6500 
  5 C        1.6990    -0.3790     0.0030 C.2   1 <1>  -0.0630 
  6 C        2.9210     0.2030    -0.3310 C.2   1 <1>   0.3520 
  7 C        1.9990    -1.6980     0.1310 C.2   1 <1>  -0.3020 
  8 N        3.8710    -0.6670    -0.4570 N.2   1 <1>  -0.7070 
  9 N        3.2260     1.5400    -0.5530 N.am  1 <1>  -0.4930 
 10 N        3.3050    -1.8450    -0.1460 N.pl3 1 <1>   0.3140 
 11 C        2.9800     2.5780     0.2830 C.2   1 <1>   0.5690 
 12 C        4.0850    -3.0880    -0.1330 C.3   1 <1>   0.0160 
 13 O        2.4140     2.4450     1.3380 O.2   1 <1>  -0.5700 
 14 C        3.4570     3.9480    -0.1240 C.3   1 <1>  -0.1790 
 15 H        1.3590    -2.5210     0.3950 H     1 <1>   0.1500 
 16 H        3.9280     1.6730    -1.2740 H     1 <1>   0.3700 
 17 H        3.4570    -3.9090     0.1570 H     1 <1>   0.0800 
 18 H        4.8940    -2.9840     0.5660 H     1 <1>   0.0800 
 19 H        4.4830    -3.2610    -1.1160 H     1 <1>   0.0800 
 20 H        3.0420     4.2090    -1.0790 H     1 <1>   0.0800 
 21 H        4.5290     3.9610    -0.1760 H     1 <1>   0.0800 
 22 H        3.1350     4.6720     0.6020 H     1 <1>   0.0800 
@<TRIPOS>BOND
  1   1   2  1   
  2   1   3  2   
  3   1   4  2   
  4   1   5  1   
  5   5   6  1   
  6   5   7  2   
  7   6   8  2   
  8   6   9  1   
  9   7  10  1   
 10   7  15  1   
 11   8  10  1   
 12   9  11  am  
 13   9  16  1   
 14  10  12  1   
 15  11  13  2   
 16  11  14  1   
 17  12  17  1   
 18  12  18  1   
 19  12  19  1   
 20  14  20  1   
 21  14  21  1   
 22  14  22  1   
@<TRIPOS>SUBSTRUCTURE
  1 ****   5 GROUP 4 **** **** 0

# MOE 2024.06 (io_trps.svl 2023.06)
