@<TRIPOS>MOLECULE
NONAME
54 56 1 0 0 
SMALL
USER_CHARGES


@<TRIPOS>ATOM
  1 O       -0.8970     1.0050     1.3210 O.2   1 <1>  -0.5700 
  2 C       -0.7040     2.1580     1.0320 C.2   1 <1>   0.5690 
  3 N       -1.7060     3.0610     1.0830 N.am  1 <1>  -0.7300 
  4 C        0.6770     2.6140     0.5640 C.3   1 <1>   0.1810 
  5 C       -1.5710     4.4760     0.6610 C.3   1 <1>   0.3640 
  6 O        0.8620     4.0060     0.7130 O.3   1 <1>  -0.5600 
  7 C       -2.6470     4.7540    -0.3860 C.ar  1 <1>  -0.1440 
  8 C       -0.1520     4.8100     0.1170 C.3   1 <1>   0.2610 
  9 C       -2.8310     3.9040    -1.4700 C.ar  1 <1>  -0.1500 
 10 C       -3.4610     5.8720    -0.2670 C.ar  1 <1>  -0.1500 
 11 C        0.1770     6.2930     0.3470 C.2   1 <1>   0.5690 
 12 C       -3.8080     4.1660    -2.4140 C.ar  1 <1>  -0.1500 
 13 C       -4.4390     6.1360    -1.2100 C.ar  1 <1>  -0.1500 
 14 O       -0.6120     7.1580     0.0500 O.2   1 <1>  -0.5700 
 15 N        1.3800     6.6270     0.8940 N.am  1 <1>  -0.7300 
 16 C       -4.6130     5.2830    -2.2850 C.ar  1 <1>  -0.1500 
 17 C        1.8070     7.9910     1.2930 C.3   1 <1>   0.1400 
 18 C        1.7090     8.9740     0.1080 C.3   1 <1>   0.3430 
 19 N        1.9780    10.3960     0.4980 N.4   1 <1>  -0.9590 
 20 C        1.5610    11.3010    -0.6130 C.3   1 <1>   0.3430 
 21 C        3.3990    10.6320     0.8890 C.3   1 <1>   0.3430 
 22 C        1.7000    12.7570    -0.1720 C.3   1 <1>  -0.1600 
 23 C        3.5720    12.0760     1.3630 C.3   1 <1>  -0.1600 
 24 C        3.1310    13.0890     0.2930 C.3   1 <1>  -0.0800 
 25 C        3.2340    14.5230     0.8380 C.3   1 <1>   0.1200 
 26 O        2.8550    15.4180    -0.1460 O.3   1 <1>  -0.6800 
 27 H       -2.6430     2.7400     1.3330 H     1 <1>   0.3700 
 28 H        0.8100     2.3580    -0.4710 H     1 <1>   0.0800 
 29 H        1.4310     2.1170     1.1460 H     1 <1>   0.0800 
 30 H       -1.7580     5.0920     1.5250 H     1 <1>   0.0800 
 31 H       -0.1270     4.6270    -0.9420 H     1 <1>   0.0800 
 32 H       -2.2180     3.0260    -1.5870 H     1 <1>   0.1500 
 33 H       -3.3370     6.5510     0.5590 H     1 <1>   0.1500 
 34 H       -3.9440     3.5010    -3.2490 H     1 <1>   0.1500 
 35 H       -5.0640     7.0060    -1.1080 H     1 <1>   0.1500 
 36 H        1.9610     5.8320     1.2020 H     1 <1>   0.3700 
 37 H       -5.3740     5.4880    -3.0180 H     1 <1>   0.1500 
 38 H        1.1660     8.3230     2.0920 H     1 <1>   0.0800 
 39 H        2.8200     7.9430     1.6510 H     1 <1>   0.0800 
 40 H        0.7120     8.9140    -0.2970 H     1 <1>   0.0800 
 41 H        2.3990     8.6690    -0.6610 H     1 <1>   0.0800 
 42 H        1.3790    10.6310     1.3010 H     1 <1>   0.4500 
 43 H        2.1780    11.1270    -1.4790 H     1 <1>   0.0800 
 44 H        0.5350    11.1060    -0.8840 H     1 <1>   0.0800 
 45 H        3.6840     9.9610     1.6830 H     1 <1>   0.0800 
 46 H        4.0450    10.4520     0.0430 H     1 <1>   0.0800 
 47 H        1.4360    13.3890    -1.0030 H     1 <1>   0.0800 
 48 H        0.9960    12.9620     0.6160 H     1 <1>   0.0800 
 49 H        3.0070    12.2210     2.2680 H     1 <1>   0.0800 
 50 H        4.6090    12.2390     1.6030 H     1 <1>   0.0800 
 51 H        3.8010    13.0020    -0.5470 H     1 <1>   0.0800 
 52 H        4.2400    14.7620     1.1430 H     1 <1>   0.0800 
 53 H        2.5710    14.6620     1.6760 H     1 <1>   0.0800 
 54 H        3.5840    15.5860    -0.7760 H     1 <1>   0.4000 
@<TRIPOS>BOND
  1   1   2  2   
  2   2   3  am  
  3   2   4  1   
  4   3   5  1   
  5   3  27  1   
  6   4   6  1   
  7   4  28  1   
  8   4  29  1   
  9   5   7  1   
 10   5   8  1   
 11   5  30  1   
 12   6   8  1   
 13   7   9  ar  
 14   7  10  ar  
 15   8  11  1   
 16   8  31  1   
 17   9  12  ar  
 18   9  32  1   
 19  10  13  ar  
 20  10  33  1   
 21  11  14  2   
 22  11  15  am  
 23  12  16  ar  
 24  12  34  1   
 25  13  16  ar  
 26  13  35  1   
 27  15  17  1   
 28  15  36  1   
 29  16  37  1   
 30  17  18  1   
 31  17  38  1   
 32  17  39  1   
 33  18  19  1   
 34  18  40  1   
 35  18  41  1   
 36  19  20  1   
 37  19  21  1   
 38  19  42  1   
 39  20  22  1   
 40  20  43  1   
 41  20  44  1   
 42  21  23  1   
 43  21  45  1   
 44  21  46  1   
 45  22  24  1   
 46  22  47  1   
 47  22  48  1   
 48  23  24  1   
 49  23  49  1   
 50  23  50  1   
 51  24  25  1   
 52  24  51  1   
 53  25  26  1   
 54  25  52  1   
 55  25  53  1   
 56  26  54  1   
@<TRIPOS>SUBSTRUCTURE
  1 ****  14 GROUP 4 **** **** 0

# MOE 2024.06 (io_trps.svl 2023.06)
