@<TRIPOS>MOLECULE
NONAME
51 54 1 0 0 
SMALL
USER_CHARGES


@<TRIPOS>ATOM
  1 O        3.2670     2.3400    -0.6050 O.3   1 <1>  -0.0190 
  2 N        4.2660     1.6340    -0.1700 N.2   1 <1>  -0.4100 
  3 C        2.2400     2.2810     0.2010 C.2   1 <1>  -0.0400 
  4 C        3.8700     1.0880     0.9240 C.2   1 <1>   0.1080 
  5 C        2.5650     1.4730     1.2220 C.2   1 <1>  -0.1500 
  6 C        0.9890     3.0820    -0.1110 C.3   1 <1>   0.0200 
  7 C        4.7140     0.1560     1.7650 C.3   1 <1>  -0.0590 
  8 C        1.3790     4.5180    -0.5090 C.3   1 <1>  -0.0800 
  9 C        0.2490     5.5320    -0.6800 C.3   1 <1>   0.2000 
 10 C        2.3170     5.1990     0.4810 C.3   1 <1>   0.3430 
 11 O       -0.6640     5.4080     0.3630 O.3   1 <1>  -0.6800 
 12 C        0.9560     6.8920    -0.5790 C.3   1 <1>   0.3430 
 13 N        2.2690     6.6280     0.0930 N.4   1 <1>  -0.9590 
 14 C        2.6880     7.5990     1.1290 C.3   1 <1>   0.4860 
 15 C        2.9470     8.9250     0.4350 C.ar  1 <1>  -0.1440 
 16 C        4.1760     9.2510    -0.1480 C.ar  1 <1>  -0.1440 
 17 C        1.8960     9.8320     0.3750 C.ar  1 <1>  -0.1500 
 18 C        4.2990    10.4650    -0.8110 C.ar  1 <1>  -0.1500 
 19 C        5.4410     8.3780    -0.0770 C.3   1 <1>   0.2390 
 20 C        2.0390    11.0380    -0.2820 C.ar  1 <1>  -0.1500 
 21 C        3.2410    11.3520    -0.8820 C.ar  1 <1>  -0.1500 
 22 N        5.3030     7.0000    -0.6190 N.pl3 1 <1>   0.3140 
 23 N        4.5180     6.6610    -1.6690 N.2   1 <1>  -0.7070 
 24 C        5.9630     5.9200    -0.1520 C.2   1 <1>  -0.3020 
 25 C        4.7490     5.3960    -1.8700 C.2   1 <1>   0.1390 
 26 C        5.6320     4.8730    -0.9360 C.2   1 <1>  -0.1500 
 27 H        1.9920     1.1690     2.0790 H     1 <1>   0.1500 
 28 H        0.4620     2.6140    -0.9240 H     1 <1>   0.0800 
 29 H        0.3460     3.0710     0.7510 H     1 <1>   0.0800 
 30 H        4.8470     0.5670     2.7490 H     1 <1>   0.0800 
 31 H        5.6790     0.0230     1.3110 H     1 <1>   0.0800 
 32 H        4.2330    -0.8010     1.8420 H     1 <1>   0.0800 
 33 H        1.9040     4.4590    -1.4470 H     1 <1>   0.0800 
 34 H       -0.2860     5.4160    -1.6080 H     1 <1>   0.0800 
 35 H        3.3190     4.8010     0.4130 H     1 <1>   0.0800 
 36 H        1.9460     5.0690     1.4840 H     1 <1>   0.0800 
 37 H       -0.2600     5.5260     1.2430 H     1 <1>   0.4000 
 38 H        0.3500     7.5880    -0.0240 H     1 <1>   0.0800 
 39 H        1.1370     7.2880    -1.5650 H     1 <1>   0.0800 
 40 H        2.9850     6.7350    -0.6630 H     1 <1>   0.4500 
 41 H        1.9190     7.7100     1.8750 H     1 <1>   0.0800 
 42 H        3.5910     7.2600     1.6100 H     1 <1>   0.0800 
 43 H        0.9480     9.6140     0.8370 H     1 <1>   0.1500 
 44 H        5.2270    10.7430    -1.2820 H     1 <1>   0.1500 
 45 H        5.7580     8.3070     0.9470 H     1 <1>   0.0800 
 46 H        6.2360     8.8490    -0.6250 H     1 <1>   0.0800 
 47 H        1.2190    11.7360    -0.3280 H     1 <1>   0.1500 
 48 H        3.3560    12.2890    -1.4010 H     1 <1>   0.1500 
 49 H        6.6390     5.9480     0.6840 H     1 <1>   0.1500 
 50 H        4.3060     4.8190    -2.6670 H     1 <1>   0.1500 
 51 H        5.9650     3.8490    -0.8860 H     1 <1>   0.1500 
@<TRIPOS>BOND
  1   1   2  1   
  2   1   3  1   
  3   2   4  2   
  4   3   5  2   
  5   3   6  1   
  6   4   5  1   
  7   4   7  1   
  8   5  27  1   
  9   6   8  1   
 10   6  28  1   
 11   6  29  1   
 12   7  30  1   
 13   7  31  1   
 14   7  32  1   
 15   8   9  1   
 16   8  10  1   
 17   8  33  1   
 18   9  11  1   
 19   9  12  1   
 20   9  34  1   
 21  10  13  1   
 22  10  35  1   
 23  10  36  1   
 24  11  37  1   
 25  12  13  1   
 26  12  38  1   
 27  12  39  1   
 28  13  14  1   
 29  13  40  1   
 30  14  15  1   
 31  14  41  1   
 32  14  42  1   
 33  15  16  ar  
 34  15  17  ar  
 35  16  18  ar  
 36  16  19  1   
 37  17  20  ar  
 38  17  43  1   
 39  18  21  ar  
 40  18  44  1   
 41  19  22  1   
 42  19  45  1   
 43  19  46  1   
 44  20  21  ar  
 45  20  47  1   
 46  21  48  1   
 47  22  23  1   
 48  22  24  1   
 49  23  25  2   
 50  24  26  2   
 51  24  49  1   
 52  25  26  1   
 53  25  50  1   
 54  26  51  1   
@<TRIPOS>SUBSTRUCTURE
  1 ****  13 GROUP 4 **** **** 0

# MOE 2024.06 (io_trps.svl 2023.06)
