@<TRIPOS>MOLECULE
NONAME
23 23 1 0 0 
SMALL
USER_CHARGES


@<TRIPOS>ATOM
  1 F       -1.0360     0.5940    -1.3330 F     1 <1>  -0.3400 
  2 C       -1.3690     0.2050    -0.1100 C.3   1 <1>   1.1150 
  3 F       -1.8830     1.2770     0.4840 F     1 <1>  -0.3400 
  4 F       -0.2330    -0.0480     0.5290 F     1 <1>  -0.3400 
  5 C       -2.3310    -0.9900    -0.0850 C.3   1 <1>  -0.0950 
  6 C       -1.6390    -2.1540    -0.7470 C.2   1 <1>   0.6300 
  7 C       -3.8190    -0.8260    -0.2680 C.3   1 <1>  -0.2000 
  8 C       -3.2750    -1.2510     1.0650 C.3   1 <1>  -0.2000 
  9 O       -1.6980    -2.2760    -1.9450 O.2   1 <1>  -0.5700 
 10 N       -0.9910    -3.0530     0.0220 N.am  1 <1>  -0.7300 
 11 C       -0.3480    -4.2430    -0.4870 C.3   1 <1>   0.4200 
 12 O       -0.0670    -4.9750     0.6480 O.3   1 <1>  -0.5600 
 13 C        0.5580    -6.1890     0.3850 C.3   1 <1>   0.0400 
 14 H       -4.3390    -1.5470    -0.8770 H     1 <1>   0.1000 
 15 H       -4.2320     0.1640    -0.3660 H     1 <1>   0.1000 
 16 H       -3.3250    -0.5510     1.8820 H     1 <1>   0.1000 
 17 H       -3.4560    -2.2640     1.3830 H     1 <1>   0.1000 
 18 H       -0.9590    -2.9980     1.0390 H     1 <1>   0.3700 
 19 H        0.5690    -3.9970    -0.9970 H     1 <1>   0.0800 
 20 H       -1.0130    -4.7990    -1.1270 H     1 <1>   0.0800 
 21 H        0.7360    -6.6850     1.3230 H     1 <1>   0.0800 
 22 H        1.4960    -6.0080    -0.1110 H     1 <1>   0.0800 
 23 H       -0.0860    -6.7970    -0.2280 H     1 <1>   0.0800 
@<TRIPOS>BOND
  1   1   2  1   
  2   2   3  1   
  3   2   4  1   
  4   2   5  1   
  5   5   6  1   
  6   5   7  1   
  7   5   8  1   
  8   6   9  2   
  9   6  10  am  
 10   7   8  1   
 11   7  14  1   
 12   7  15  1   
 13   8  16  1   
 14   8  17  1   
 15  10  11  1   
 16  10  18  1   
 17  11  12  1   
 18  11  19  1   
 19  11  20  1   
 20  12  13  1   
 21  13  21  1   
 22  13  22  1   
 23  13  23  1   
@<TRIPOS>SUBSTRUCTURE
  1 ****   6 GROUP 4 **** **** 0

# MOE 2024.06 (io_trps.svl 2023.06)
