@<TRIPOS>MOLECULE
NONAME
52 55 1 0 0 
SMALL
USER_CHARGES


@<TRIPOS>ATOM
  1 O       -2.1110    -0.2030     0.6330 O.2   1 <1>  -0.5700 
  2 C       -2.5820    -1.0780    -0.0590 C.2   1 <1>   0.6340 
  3 O       -3.0830    -0.7110    -1.2360 O.3   1 <1>  -0.4300 
  4 C       -2.6030    -2.4710     0.3260 C.ar  1 <1>   0.0860 
  5 C       -4.0930    -1.4480    -1.8850 C.3   1 <1>   0.2640 
  6 C       -3.2430    -3.4040    -0.5270 C.ar  1 <1>   0.0000 
  7 C       -1.9960    -2.9240     1.4770 C.ar  1 <1>  -0.1500 
  8 C       -3.9440    -2.9470    -1.6600 C.ar  1 <1>  -0.1440 
  9 C       -3.1830    -4.7920    -0.2520 C.ar  1 <1>   0.0000 
 10 C       -1.9660    -4.2820     1.7880 C.ar  1 <1>  -0.1500 
 11 C       -4.5110    -3.8330    -2.5310 C.ar  1 <1>  -0.1500 
 12 C       -3.7780    -5.6870    -1.1810 C.ar  1 <1>  -0.1430 
 13 C       -2.5370    -5.1900     0.9410 C.ar  1 <1>  -0.1500 
 14 C       -4.4190    -5.2050    -2.2910 C.ar  1 <1>  -0.1500 
 15 C       -3.7440    -7.2020    -0.9960 C.3   1 <1>   0.2530 
 16 N       -5.0490    -7.6930    -0.5090 N.3   1 <1>  -0.8100 
 17 C       -5.1070    -9.1750    -0.4870 C.3   1 <1>   0.1100 
 18 C       -5.4210    -7.1450     0.8180 C.3   1 <1>   0.1100 
 19 C       -6.4570    -9.7230     0.0600 C.3   1 <1>   0.4230 
 20 C       -6.8420    -7.5810     1.2450 C.3   1 <1>   0.3430 
 21 N       -7.4240    -8.5960     0.2950 N.4   1 <1>  -0.9590 
 22 C       -6.2590   -10.5460     1.3380 C.3   1 <1>  -0.2400 
 23 C       -8.8310    -8.9830     0.5780 C.3   1 <1>   0.4230 
 24 C       -9.3500    -9.9050    -0.5260 C.3   1 <1>  -0.2400 
 25 C       -9.7130    -7.7350     0.6410 C.3   1 <1>  -0.2400 
 26 H       -4.0420    -1.2130    -2.9340 H     1 <1>   0.0800 
 27 H       -5.0380    -1.1100    -1.4970 H     1 <1>   0.0800 
 28 H       -1.5220    -2.2250     2.1460 H     1 <1>   0.1500 
 29 H       -1.4790    -4.5980     2.6950 H     1 <1>   0.1500 
 30 H       -5.0420    -3.4980    -3.4070 H     1 <1>   0.1500 
 31 H       -2.4850    -6.2270     1.2050 H     1 <1>   0.1500 
 32 H       -4.8750    -5.8770    -2.9980 H     1 <1>   0.1500 
 33 H       -2.9510    -7.5110    -0.3390 H     1 <1>   0.0800 
 34 H       -3.5440    -7.6480    -1.9560 H     1 <1>   0.0800 
 35 H       -4.2910    -9.5630     0.1010 H     1 <1>   0.0800 
 36 H       -4.9750    -9.5440    -1.4900 H     1 <1>   0.0800 
 37 H       -5.3980    -6.0690     0.7950 H     1 <1>   0.0800 
 38 H       -4.7100    -7.4680     1.5600 H     1 <1>   0.0800 
 39 H       -6.8580   -10.3800    -0.6940 H     1 <1>   0.0800 
 40 H       -7.4630    -6.7020     1.2660 H     1 <1>   0.0800 
 41 H       -6.8090    -7.9810     2.2450 H     1 <1>   0.0800 
 42 H       -7.4080    -8.0960    -0.6050 H     1 <1>   0.4500 
 43 H       -5.7980    -9.9670     2.1170 H     1 <1>   0.0800 
 44 H       -5.6150   -11.3810     1.1250 H     1 <1>   0.0800 
 45 H       -7.1930   -10.9440     1.6910 H     1 <1>   0.0800 
 46 H       -8.8850    -9.4990     1.5240 H     1 <1>   0.0800 
 47 H       -9.2290    -9.4550    -1.4960 H     1 <1>   0.0800 
 48 H      -10.3980   -10.0950    -0.3770 H     1 <1>   0.0800 
 49 H       -8.8580   -10.8600    -0.5040 H     1 <1>   0.0800 
 50 H       -9.6100    -7.1430    -0.2510 H     1 <1>   0.0800 
 51 H       -9.4850    -7.1370     1.5040 H     1 <1>   0.0800 
 52 H      -10.7450    -8.0240     0.7300 H     1 <1>   0.0800 
@<TRIPOS>BOND
  1   1   2  2   
  2   2   3  1   
  3   2   4  1   
  4   3   5  1   
  5   4   6  ar  
  6   4   7  ar  
  7   5   8  1   
  8   5  26  1   
  9   5  27  1   
 10   6   8  ar  
 11   6   9  ar  
 12   7  10  ar  
 13   7  28  1   
 14   8  11  ar  
 15   9  12  ar  
 16   9  13  ar  
 17  10  13  ar  
 18  10  29  1   
 19  11  14  ar  
 20  11  30  1   
 21  12  14  ar  
 22  12  15  1   
 23  13  31  1   
 24  14  32  1   
 25  15  16  1   
 26  15  33  1   
 27  15  34  1   
 28  16  17  1   
 29  16  18  1   
 30  17  19  1   
 31  17  35  1   
 32  17  36  1   
 33  18  20  1   
 34  18  37  1   
 35  18  38  1   
 36  19  21  1   
 37  19  22  1   
 38  19  39  1   
 39  20  21  1   
 40  20  40  1   
 41  20  41  1   
 42  21  23  1   
 43  21  42  1   
 44  22  43  1   
 45  22  44  1   
 46  22  45  1   
 47  23  24  1   
 48  23  25  1   
 49  23  46  1   
 50  24  47  1   
 51  24  48  1   
 52  24  49  1   
 53  25  50  1   
 54  25  51  1   
 55  25  52  1   
@<TRIPOS>SUBSTRUCTURE
  1 ****  12 GROUP 4 **** **** 0

# MOE 2024.06 (io_trps.svl 2023.06)
