@<TRIPOS>MOLECULE
NONAME
25 24 1 0 0 
SMALL
USER_CHARGES


@<TRIPOS>ATOM
  1 O        0.2250    -0.8930     1.3850 O.3   1 <1>  -0.6800 
  2 C        0.1830    -1.5090     0.1220 C.3   1 <1>   0.2000 
  3 C       -1.1300    -2.3080    -0.0260 C.3   1 <1>   0.2000 
  4 C        1.4300    -2.4080    -0.0480 C.3   1 <1>   0.2000 
  5 O       -1.2020    -2.8140    -1.3210 O.3   1 <1>  -0.6800 
  6 C       -2.3910    -1.4420     0.2150 C.3   1 <1>   0.2000 
  7 O        1.6020    -3.1780     1.1060 O.3   1 <1>  -0.6800 
  8 C        2.7070    -1.5860    -0.2920 C.3   1 <1>   0.1200 
  9 O       -2.5430    -0.5420    -0.8360 O.3   1 <1>  -0.6800 
 10 C       -3.6780    -2.2660     0.2820 C.3   1 <1>  -0.2400 
 11 O        3.8120    -2.4140    -0.1960 O.3   1 <1>  -0.6800 
 12 H        0.8680    -0.1560     1.3870 H     1 <1>   0.4000 
 13 H        0.1830    -0.7290    -0.6200 H     1 <1>   0.0800 
 14 H       -1.1120    -3.1450     0.6500 H     1 <1>   0.0800 
 15 H        1.2950    -3.0810    -0.8780 H     1 <1>   0.0800 
 16 H       -1.6900    -2.1430    -1.8510 H     1 <1>   0.4000 
 17 H       -2.2830    -0.8790     1.1270 H     1 <1>   0.0800 
 18 H        1.2340    -2.6650     1.8590 H     1 <1>   0.4000 
 19 H        2.8110    -0.8120     0.4470 H     1 <1>   0.0800 
 20 H        2.7020    -1.1410    -1.2720 H     1 <1>   0.0800 
 21 H       -3.3430     0.0010    -0.6910 H     1 <1>   0.4000 
 22 H       -3.8370    -2.8010    -0.6370 H     1 <1>   0.0800 
 23 H       -4.5230    -1.6320     0.4800 H     1 <1>   0.0800 
 24 H       -3.6050    -2.9840     1.0790 H     1 <1>   0.0800 
 25 H        3.5900    -3.1190     0.4540 H     1 <1>   0.4000 
@<TRIPOS>BOND
  1   1   2  1   
  2   1  12  1   
  3   2   3  1   
  4   2   4  1   
  5   2  13  1   
  6   3   5  1   
  7   3   6  1   
  8   3  14  1   
  9   4   7  1   
 10   4   8  1   
 11   4  15  1   
 12   5  16  1   
 13   6   9  1   
 14   6  10  1   
 15   6  17  1   
 16   7  18  1   
 17   8  11  1   
 18   8  19  1   
 19   8  20  1   
 20   9  21  1   
 21  10  22  1   
 22  10  23  1   
 23  10  24  1   
 24  11  25  1   
@<TRIPOS>SUBSTRUCTURE
  1 ****   2 GROUP 4 **** **** 0

# MOE 2024.06 (io_trps.svl 2023.06)
