@<TRIPOS>MOLECULE
NONAME
51 53 1 0 0 
SMALL
USER_CHARGES


@<TRIPOS>ATOM
  1 S        0.4020     0.0000     0.7730 S.o2  1 <1>   1.3330 
  2 O       -0.1930     0.1550     2.0820 O.2   1 <1>  -0.6500 
  3 O        1.8400    -0.0240     0.6360 O.2   1 <1>  -0.6500 
  4 N       -0.2140    -1.4160     0.0670 N.am  1 <1>  -0.8490 
  5 C       -0.2600     1.2910    -0.2770 C.3   1 <1>  -0.0550 
  6 C       -0.4070    -2.4870     1.0490 C.3   1 <1>   0.1160 
  7 C        0.5950    -1.9070    -1.0540 C.3   1 <1>   0.1160 
  8 C        0.0650     2.7080     0.2250 C.3   1 <1>  -0.0800 
  9 C       -0.5910     3.7900    -0.6280 C.3   1 <1>   0.2000 
 10 C        1.5540     3.0660     0.1940 C.3   1 <1>   0.1400 
 11 O       -1.9030     3.9800    -0.2300 O.3   1 <1>  -0.6800 
 12 C        0.2550     5.0450    -0.4180 C.3   1 <1>   0.1400 
 13 N        1.5890     4.5330    -0.0180 N.am  1 <1>  -0.6600 
 14 C        2.7290     5.2710     0.1370 C.2   1 <1>   0.5690 
 15 O        3.7770     4.7490     0.4330 O.2   1 <1>  -0.5700 
 16 C        2.6760     6.7770    -0.0720 C.3   1 <1>  -0.0990 
 17 C        3.9930     7.4920     0.2640 C.3   1 <1>   0.0210 
 18 C        3.9060     8.9980     0.0660 C.2   1 <1>  -0.1810 
 19 C        4.9900     9.8680     0.3270 C.ar  1 <1>   0.0000 
 20 C        2.8700     9.7600    -0.3640 C.2   1 <1>  -0.3020 
 21 C        4.5470    11.1530     0.0350 C.ar  1 <1>  -0.1520 
 22 C        6.3000     9.6790     0.7820 C.ar  1 <1>  -0.1500 
 23 N        3.2460    11.0730    -0.3870 N.pl3 1 <1>   0.0330 
 24 C        5.3890    12.2580     0.1890 C.ar  1 <1>  -0.1500 
 25 C        7.1290    10.7660     0.9340 C.ar  1 <1>  -0.1500 
 26 C        6.6740    12.0570     0.6380 C.ar  1 <1>  -0.1500 
 27 H        0.1150     1.1690    -1.2740 H     1 <1>   0.0800 
 28 H       -1.3280     1.1820    -0.3150 H     1 <1>   0.0800 
 29 H       -0.8130    -3.3630     0.5720 H     1 <1>   0.0800 
 30 H       -1.1000    -2.1690     1.8100 H     1 <1>   0.0800 
 31 H        0.5300    -2.7390     1.5180 H     1 <1>   0.0800 
 32 H        0.1110    -2.7500    -1.5170 H     1 <1>   0.0800 
 33 H        1.5720    -2.2080    -0.7110 H     1 <1>   0.0800 
 34 H        0.7130    -1.1350    -1.7940 H     1 <1>   0.0800 
 35 H       -0.2650     2.8100     1.2460 H     1 <1>   0.0800 
 36 H       -0.5880     3.5230    -1.6720 H     1 <1>   0.0800 
 37 H        2.0560     2.5830    -0.6280 H     1 <1>   0.0800 
 38 H        2.0480     2.8000     1.1140 H     1 <1>   0.0800 
 39 H       -1.9530     4.1330     0.7350 H     1 <1>   0.4000 
 40 H       -0.1460     5.6490     0.3770 H     1 <1>   0.0800 
 41 H        0.3230     5.6150    -1.3280 H     1 <1>   0.0800 
 42 H        2.4310     6.9670    -1.1000 H     1 <1>   0.0800 
 43 H        1.8990     7.1800     0.5500 H     1 <1>   0.0800 
 44 H        4.7800     7.1050    -0.3600 H     1 <1>   0.0800 
 45 H        4.2550     7.2920     1.2890 H     1 <1>   0.0800 
 46 H        1.8810     9.4550    -0.6570 H     1 <1>   0.1500 
 47 H        6.6380     8.6840     1.0050 H     1 <1>   0.1500 
 48 H        2.6680    11.8700    -0.6690 H     1 <1>   0.2700 
 49 H        5.0300    13.2450    -0.0410 H     1 <1>   0.1500 
 50 H        8.1380    10.6340     1.2830 H     1 <1>   0.1500 
 51 H        7.3420    12.8900     0.7650 H     1 <1>   0.1500 
@<TRIPOS>BOND
  1   1   2  2   
  2   1   3  2   
  3   1   4  am  
  4   1   5  1   
  5   4   6  1   
  6   4   7  1   
  7   5   8  1   
  8   5  27  1   
  9   5  28  1   
 10   6  29  1   
 11   6  30  1   
 12   6  31  1   
 13   7  32  1   
 14   7  33  1   
 15   7  34  1   
 16   8   9  1   
 17   8  10  1   
 18   8  35  1   
 19   9  11  1   
 20   9  12  1   
 21   9  36  1   
 22  10  13  1   
 23  10  37  1   
 24  10  38  1   
 25  11  39  1   
 26  12  13  1   
 27  12  40  1   
 28  12  41  1   
 29  13  14  am  
 30  14  15  2   
 31  14  16  1   
 32  16  17  1   
 33  16  42  1   
 34  16  43  1   
 35  17  18  1   
 36  17  44  1   
 37  17  45  1   
 38  18  19  1   
 39  18  20  2   
 40  19  21  ar  
 41  19  22  ar  
 42  20  23  1   
 43  20  46  1   
 44  21  23  1   
 45  21  24  ar  
 46  22  25  ar  
 47  22  47  1   
 48  23  48  1   
 49  24  26  ar  
 50  24  49  1   
 51  25  26  ar  
 52  25  50  1   
 53  26  51  1   
@<TRIPOS>SUBSTRUCTURE
  1 ****  14 GROUP 4 **** **** 0

# MOE 2024.06 (io_trps.svl 2023.06)
