@<TRIPOS>MOLECULE
NONAME
42 44 1 0 0 
SMALL
USER_CHARGES


@<TRIPOS>ATOM
  1 O        0.1190     0.5800    -2.3580 O.2   1 <1>  -0.5700 
  2 C        0.4580     0.4560    -1.1980 C.2   1 <1>   0.5440 
  3 N       -0.5340     0.5500    -0.2680 N.am  1 <1>  -0.7300 
  4 C        1.8430     0.2860    -0.8430 C.ar  1 <1>   0.0860 
  5 C       -0.4060     0.5190     1.2090 C.3   1 <1>   0.0600 
  6 C        2.4060    -0.9830    -0.5930 C.ar  1 <1>   0.4100 
  7 C        2.6570     1.4010    -0.7140 C.ar  1 <1>  -0.1500 
  8 N        3.6660    -1.1530    -0.1880 N.ar  1 <1>  -0.6200 
  9 N        1.6810    -2.1540    -0.7610 N.pl3 1 <1>  -0.8380 
 10 C        3.9620     1.2140    -0.3220 C.ar  1 <1>  -0.1500 
 11 C        4.4070    -0.0700    -0.0700 C.ar  1 <1>   0.1600 
 12 C        1.9560    -3.3610     0.0890 C.3   1 <1>   0.2090 
 13 C        1.0760    -2.4480    -2.0940 C.3   1 <1>   0.1290 
 14 C        0.6830    -4.0490     0.6130 C.3   1 <1>   0.2000 
 15 O        0.0320    -4.7500    -0.4380 O.3   1 <1>  -0.3630 
 16 C       -0.2910    -3.0470     1.2520 C.3   1 <1>   0.1200 
 17 C       -1.2480    -5.1440    -0.2150 C.ar  1 <1>   0.0830 
 18 O       -1.4580    -3.7120     1.7000 O.3   1 <1>  -0.3630 
 19 C       -1.9850    -4.6380     0.8600 C.ar  1 <1>   0.0830 
 20 C       -1.8220    -6.0680    -1.0700 C.ar  1 <1>  -0.1500 
 21 C       -3.2790    -5.0790     1.0780 C.ar  1 <1>  -0.1500 
 22 C       -3.1200    -6.5010    -0.8520 C.ar  1 <1>  -0.1500 
 23 C       -3.8460    -6.0090     0.2220 C.ar  1 <1>  -0.1500 
 24 H       -1.4720     0.6880    -0.6520 H     1 <1>   0.3700 
 25 H        0.5750     0.1840     1.4980 H     1 <1>   0.0800 
 26 H       -1.1390    -0.1530     1.6210 H     1 <1>   0.0800 
 27 H       -0.5720     1.5050     1.6070 H     1 <1>   0.0800 
 28 H        2.2670     2.3830    -0.9170 H     1 <1>   0.1500 
 29 H        4.6300     2.0500    -0.2100 H     1 <1>   0.1500 
 30 H        5.4280    -0.2100     0.2430 H     1 <1>   0.1500 
 31 H        2.5350    -3.0620     0.9450 H     1 <1>   0.0800 
 32 H        2.5480    -4.0680    -0.4650 H     1 <1>   0.0800 
 33 H        1.3720    -1.7070    -2.8170 H     1 <1>   0.0800 
 34 H        0.0020    -2.4460    -2.0150 H     1 <1>   0.0800 
 35 H        1.3980    -3.4130    -2.4470 H     1 <1>   0.0800 
 36 H        0.9660    -4.7810     1.3470 H     1 <1>   0.0800 
 37 H       -0.5890    -2.3060     0.5320 H     1 <1>   0.0800 
 38 H        0.1610    -2.5600     2.0960 H     1 <1>   0.0800 
 39 H       -1.2500    -6.4460    -1.8980 H     1 <1>   0.1500 
 40 H       -3.8350    -4.6890     1.9110 H     1 <1>   0.1500 
 41 H       -3.5650    -7.2210    -1.5170 H     1 <1>   0.1500 
 42 H       -4.8530    -6.3500     0.3910 H     1 <1>   0.1500 
@<TRIPOS>BOND
  1   1   2  2   
  2   2   3  am  
  3   2   4  1   
  4   3   5  1   
  5   3  24  1   
  6   4   6  ar  
  7   4   7  ar  
  8   5  25  1   
  9   5  26  1   
 10   5  27  1   
 11   6   8  ar  
 12   6   9  1   
 13   7  10  ar  
 14   7  28  1   
 15   8  11  ar  
 16   9  12  1   
 17   9  13  1   
 18  10  11  ar  
 19  10  29  1   
 20  11  30  1   
 21  12  14  1   
 22  12  31  1   
 23  12  32  1   
 24  13  33  1   
 25  13  34  1   
 26  13  35  1   
 27  14  15  1   
 28  14  16  1   
 29  14  36  1   
 30  15  17  1   
 31  16  18  1   
 32  16  37  1   
 33  16  38  1   
 34  17  19  ar  
 35  17  20  ar  
 36  18  19  1   
 37  19  21  ar  
 38  20  22  ar  
 39  20  39  1   
 40  21  23  ar  
 41  21  40  1   
 42  22  23  ar  
 43  22  41  1   
 44  23  42  1   
@<TRIPOS>SUBSTRUCTURE
  1 ****   9 GROUP 4 **** **** 0

# MOE 2024.06 (io_trps.svl 2023.06)
