@<TRIPOS>MOLECULE
NONAME
58 61 1 0 0 
SMALL
USER_CHARGES


@<TRIPOS>ATOM
  1 O       -1.2490    -0.7010    -1.7160 O.2   1 <1>  -0.5700 
  2 C       -1.7270    -1.0160    -0.6540 C.2   1 <1>   0.5690 
  3 N       -1.6630    -2.3180    -0.2080 N.am  1 <1>  -0.6600 
  4 C       -2.4180     0.0660     0.1680 C.3   1 <1>  -0.0990 
  5 C       -2.3550    -2.8060     1.0350 C.3   1 <1>   0.2200 
  6 C       -0.8450    -3.2980    -0.9840 C.3   1 <1>   0.1400 
  7 C       -2.4040     1.4570    -0.4840 C.3   1 <1>  -0.0160 
  8 C       -1.5020    -3.8070     1.8580 C.3   1 <1>   0.1200 
  9 C       -3.7660    -3.3370     0.6690 C.3   1 <1>   0.3430 
 10 C       -1.4170    -4.7180    -0.9760 C.3   1 <1>  -0.0800 
 11 C       -3.1380     2.4490     0.4030 C.ar  1 <1>  -0.1440 
 12 O       -1.6510    -5.1370     1.4320 O.3   1 <1>  -0.5600 
 13 N       -3.7760    -4.6510    -0.0560 N.4   1 <1>  -0.9590 
 14 C       -0.9670    -5.5100     0.2710 C.3   1 <1>   0.1200 
 15 C       -2.9280    -4.7320    -1.2870 C.3   1 <1>   0.3430 
 16 C       -4.4730     2.7450     0.2190 C.ar  1 <1>  -0.1500 
 17 C       -2.5060     3.1030     1.4410 C.ar  1 <1>  -0.1500 
 18 C       -5.1300    -5.2150    -0.2530 C.3   1 <1>   0.5240 
 19 C       -5.0970     3.6470     1.0640 C.ar  1 <1>   0.1600 
 20 C       -3.2220     3.9890     2.2290 C.ar  1 <1>   0.1600 
 21 C       -4.9550    -6.6920    -0.5100 C.2   1 <1>  -0.1810 
 22 N       -4.5050     4.2720     2.0690 N.ar  1 <1>  -0.6200 
 23 C       -5.3590    -7.3720    -1.6510 C.2   1 <1>   0.1390 
 24 C       -4.3760    -7.6370     0.2660 C.2   1 <1>  -0.3020 
 25 N       -5.0480    -8.6270    -1.6010 N.2   1 <1>  -0.7070 
 26 N       -4.4500    -8.8020    -0.4090 N.pl3 1 <1>   0.3140 
 27 C       -3.9680   -10.1270     0.0380 C.3   1 <1>   0.0960 
 28 C       -4.8970   -10.7260     1.1000 C.3   1 <1>  -0.2400 
 29 H       -3.4400    -0.2190     0.3300 H     1 <1>   0.0800 
 30 H       -1.9240     0.1380     1.1190 H     1 <1>   0.0800 
 31 H       -2.4980    -1.9620     1.6830 H     1 <1>   0.0800 
 32 H       -0.7790    -2.9780    -2.0110 H     1 <1>   0.0800 
 33 H        0.1610    -3.3000    -0.5960 H     1 <1>   0.0800 
 34 H       -2.8740     1.4160    -1.4510 H     1 <1>   0.0800 
 35 H       -1.3880     1.7840    -0.6300 H     1 <1>   0.0800 
 36 H       -1.8360    -3.7840     2.8810 H     1 <1>   0.0800 
 37 H       -0.4590    -3.5380     1.8490 H     1 <1>   0.0800 
 38 H       -4.2670    -2.5920     0.0750 H     1 <1>   0.0800 
 39 H       -4.3200    -3.4500     1.5870 H     1 <1>   0.0800 
 40 H       -0.9410    -5.2050    -1.8080 H     1 <1>   0.0800 
 41 H       -3.2950    -5.3000     0.5960 H     1 <1>   0.4500 
 42 H        0.0900    -5.3890     0.4470 H     1 <1>   0.0800 
 43 H       -1.1570    -6.5600     0.1200 H     1 <1>   0.0800 
 44 H       -3.1430    -5.6590    -1.7960 H     1 <1>   0.0800 
 45 H       -3.1690    -3.9250    -1.9600 H     1 <1>   0.0800 
 46 H       -5.0350     2.2860    -0.5740 H     1 <1>   0.1500 
 47 H       -1.4640     2.9350     1.6450 H     1 <1>   0.1500 
 48 H       -5.7270    -5.0790     0.6340 H     1 <1>   0.0800 
 49 H       -5.6220    -4.7400    -1.0860 H     1 <1>   0.0800 
 50 H       -6.1390     3.8670     0.9060 H     1 <1>   0.1500 
 51 H       -2.7140     4.4910     3.0340 H     1 <1>   0.1500 
 52 H       -5.8690    -6.9360    -2.4960 H     1 <1>   0.1500 
 53 H       -3.9250    -7.5680     1.2410 H     1 <1>   0.1500 
 54 H       -3.9270   -10.7760    -0.8190 H     1 <1>   0.0800 
 55 H       -2.9740   -10.0160     0.4300 H     1 <1>   0.0800 
 56 H       -5.8900   -10.8400     0.7000 H     1 <1>   0.0800 
 57 H       -4.9330   -10.0980     1.9720 H     1 <1>   0.0800 
 58 H       -4.5370   -11.6960     1.3930 H     1 <1>   0.0800 
@<TRIPOS>BOND
  1   1   2  2   
  2   2   3  am  
  3   2   4  1   
  4   3   5  1   
  5   3   6  1   
  6   4   7  1   
  7   4  29  1   
  8   4  30  1   
  9   5   8  1   
 10   5   9  1   
 11   5  31  1   
 12   6  10  1   
 13   6  32  1   
 14   6  33  1   
 15   7  11  1   
 16   7  34  1   
 17   7  35  1   
 18   8  12  1   
 19   8  36  1   
 20   8  37  1   
 21   9  13  1   
 22   9  38  1   
 23   9  39  1   
 24  10  14  1   
 25  10  15  1   
 26  10  40  1   
 27  11  16  ar  
 28  11  17  ar  
 29  12  14  1   
 30  13  15  1   
 31  13  18  1   
 32  13  41  1   
 33  14  42  1   
 34  14  43  1   
 35  15  44  1   
 36  15  45  1   
 37  16  19  ar  
 38  16  46  1   
 39  17  20  ar  
 40  17  47  1   
 41  18  21  1   
 42  18  48  1   
 43  18  49  1   
 44  19  22  ar  
 45  19  50  1   
 46  20  22  ar  
 47  20  51  1   
 48  21  23  1   
 49  21  24  2   
 50  23  25  2   
 51  23  52  1   
 52  24  26  1   
 53  24  53  1   
 54  25  26  1   
 55  26  27  1   
 56  27  28  1   
 57  27  54  1   
 58  27  55  1   
 59  28  56  1   
 60  28  57  1   
 61  28  58  1   
@<TRIPOS>SUBSTRUCTURE
  1 ****   9 GROUP 4 **** **** 0

# MOE 2024.06 (io_trps.svl 2023.06)
