@<TRIPOS>MOLECULE
NONAME
59 62 1 0 0 
SMALL
USER_CHARGES


@<TRIPOS>ATOM
  1 O       -0.5250     0.5950     1.5690 O.2   1 <1>  -0.5700 
  2 C       -1.5230     1.0020     1.0180 C.2   1 <1>   0.5690 
  3 N       -2.6150     0.1730     0.8630 N.am  1 <1>  -0.6600 
  4 C       -1.4530     2.4600     0.5290 C.3   1 <1>  -0.0190 
  5 C       -3.8480     0.4940     0.0820 C.3   1 <1>   0.1400 
  6 C       -2.5650    -1.1950     1.4730 C.3   1 <1>   0.1400 
  7 C       -2.6160     3.3690     0.9840 C.3   1 <1>  -0.1600 
  8 C       -1.1780     2.5810    -0.9860 C.3   1 <1>  -0.1600 
  9 C       -4.4510    -0.7800    -0.5070 C.3   1 <1>  -0.1600 
 10 C       -3.9640    -1.7170     1.8130 C.3   1 <1>  -0.1600 
 11 C       -2.3800     4.8270     0.5590 C.3   1 <1>  -0.1600 
 12 C       -0.9710     4.0460    -1.4040 C.3   1 <1>  -0.1600 
 13 C       -4.9370    -1.7150     0.6150 C.3   1 <1>   0.4240 
 14 C       -2.1430     4.9210    -0.9510 C.3   1 <1>   0.2000 
 15 O       -6.1270    -1.1600     1.1260 O.3   1 <1>  -0.5600 
 16 C       -5.1520    -3.1520     0.0890 C.ar  1 <1>  -0.1440 
 17 O       -1.8510     6.2290    -1.2630 O.3   1 <1>  -0.6800 
 18 C       -7.3270    -1.4750     0.4880 C.3   1 <1>   0.1200 
 19 C       -6.4060    -3.7480     0.0990 C.ar  1 <1>  -0.1440 
 20 C       -4.0820    -3.8860    -0.4060 C.ar  1 <1>  -0.1500 
 21 C       -7.5910    -2.9690     0.6340 C.3   1 <1>  -0.0170 
 22 C       -6.5800    -5.0380    -0.3750 C.ar  1 <1>  -0.1500 
 23 C       -4.2340    -5.1790    -0.8780 C.ar  1 <1>   0.0820 
 24 C       -5.5070    -5.7700    -0.8770 C.ar  1 <1>   0.0820 
 25 O       -3.0810    -5.7620    -1.3150 O.3   1 <1>  -0.3630 
 26 O       -5.6780    -7.0300    -1.3770 O.3   1 <1>  -0.3620 
 27 C       -2.8810    -7.1550    -1.2210 C.3   1 <1>   0.0400 
 28 C       -6.9550    -7.5990    -1.5600 C.3   1 <1>   0.0400 
 29 H       -0.5780     2.8640     1.0100 H     1 <1>   0.0800 
 30 H       -3.6240     1.1700    -0.7180 H     1 <1>   0.0800 
 31 H       -4.5660     0.9610     0.7350 H     1 <1>   0.0800 
 32 H       -1.9780    -1.1700     2.3760 H     1 <1>   0.0800 
 33 H       -2.0750    -1.8620     0.7860 H     1 <1>   0.0800 
 34 H       -2.7100     3.3180     2.0560 H     1 <1>   0.0800 
 35 H       -3.5460     3.0460     0.5580 H     1 <1>   0.0800 
 36 H       -1.9910     2.1690    -1.5540 H     1 <1>   0.0800 
 37 H       -0.2960     2.0140    -1.2300 H     1 <1>   0.0800 
 38 H       -3.6990    -1.2630    -1.1030 H     1 <1>   0.0800 
 39 H       -5.2600    -0.5350    -1.1660 H     1 <1>   0.0800 
 40 H       -4.3520    -1.0980     2.6030 H     1 <1>   0.0800 
 41 H       -3.8780    -2.7130     2.2080 H     1 <1>   0.0800 
 42 H       -1.5240     5.2110     1.0870 H     1 <1>   0.0800 
 43 H       -3.2390     5.4190     0.8230 H     1 <1>   0.0800 
 44 H       -0.8770     4.1000    -2.4750 H     1 <1>   0.0800 
 45 H       -0.0590     4.4060    -0.9620 H     1 <1>   0.0800 
 46 H       -3.0380     4.6500    -1.4860 H     1 <1>   0.0800 
 47 H       -1.0400     6.5080    -0.7990 H     1 <1>   0.4000 
 48 H       -7.2640    -1.1940    -0.5480 H     1 <1>   0.0800 
 49 H       -8.1090    -0.9070     0.9600 H     1 <1>   0.0800 
 50 H       -3.0950    -3.4640    -0.4310 H     1 <1>   0.1500 
 51 H       -8.4830    -3.2250     0.0910 H     1 <1>   0.0800 
 52 H       -7.7430    -3.2070     1.6710 H     1 <1>   0.0800 
 53 H       -7.5660    -5.4580    -0.3450 H     1 <1>   0.1500 
 54 H       -1.8250    -7.3470    -1.2820 H     1 <1>   0.0800 
 55 H       -3.3850    -7.6340    -2.0420 H     1 <1>   0.0800 
 56 H       -3.2670    -7.5040    -0.2800 H     1 <1>   0.0800 
 57 H       -6.8290    -8.5570    -2.0320 H     1 <1>   0.0800 
 58 H       -7.5370    -6.9540    -2.1940 H     1 <1>   0.0800 
 59 H       -7.4230    -7.7260    -0.6000 H     1 <1>   0.0800 
@<TRIPOS>BOND
  1   1   2  2   
  2   2   3  am  
  3   2   4  1   
  4   3   5  1   
  5   3   6  1   
  6   4   7  1   
  7   4   8  1   
  8   4  29  1   
  9   5   9  1   
 10   5  30  1   
 11   5  31  1   
 12   6  10  1   
 13   6  32  1   
 14   6  33  1   
 15   7  11  1   
 16   7  34  1   
 17   7  35  1   
 18   8  12  1   
 19   8  36  1   
 20   8  37  1   
 21   9  13  1   
 22   9  38  1   
 23   9  39  1   
 24  10  13  1   
 25  10  40  1   
 26  10  41  1   
 27  11  14  1   
 28  11  42  1   
 29  11  43  1   
 30  12  14  1   
 31  12  44  1   
 32  12  45  1   
 33  13  15  1   
 34  13  16  1   
 35  14  17  1   
 36  14  46  1   
 37  15  18  1   
 38  16  19  ar  
 39  16  20  ar  
 40  17  47  1   
 41  18  21  1   
 42  18  48  1   
 43  18  49  1   
 44  19  21  1   
 45  19  22  ar  
 46  20  23  ar  
 47  20  50  1   
 48  21  51  1   
 49  21  52  1   
 50  22  24  ar  
 51  22  53  1   
 52  23  24  ar  
 53  23  25  1   
 54  24  26  1   
 55  25  27  1   
 56  26  28  1   
 57  27  54  1   
 58  27  55  1   
 59  27  56  1   
 60  28  57  1   
 61  28  58  1   
 62  28  59  1   
@<TRIPOS>SUBSTRUCTURE
  1 ****   9 GROUP 4 **** **** 0

# MOE 2024.06 (io_trps.svl 2023.06)
