@<TRIPOS>MOLECULE
NONAME
51 54 1 0 0 
SMALL
USER_CHARGES


@<TRIPOS>ATOM
  1 CL      -3.5480    -2.6980    -1.0790 Cl    1 <1>  -0.1770 
  2 C       -3.2570    -1.0850    -0.4890 C.ar  1 <1>   0.1770 
  3 C       -4.1960    -0.1090    -0.6690 C.ar  1 <1>  -0.1500 
  4 C       -2.0530    -0.8210     0.1660 C.ar  1 <1>  -0.1500 
  5 C       -3.9800     1.1990    -0.1830 C.ar  1 <1>   0.0000 
  6 C       -1.8160     0.4460     0.6290 C.ar  1 <1>  -0.1500 
  7 C       -2.7530     1.4810     0.4630 C.ar  1 <1>   0.3100 
  8 C       -4.9190     2.2530    -0.3130 C.ar  1 <1>   0.0860 
  9 N       -2.4310     2.7090     0.9280 N.ar  1 <1>  -0.6200 
 10 C       -6.2260     2.0550    -0.8970 C.2   1 <1>   0.5440 
 11 C       -4.5320     3.4840     0.1490 C.ar  1 <1>  -0.1500 
 12 C       -3.2890     3.6650     0.7590 C.ar  1 <1>   0.1660 
 13 O       -6.5130     2.6660    -1.9090 O.2   1 <1>  -0.5700 
 14 N       -7.1610     1.2090    -0.3280 N.am  1 <1>  -0.6600 
 15 C       -2.8960     5.0370     1.2650 C.3   1 <1>  -0.0970 
 16 C       -8.3990     0.8500    -1.0870 C.3   1 <1>   0.2200 
 17 C       -7.0160     0.7070     1.0740 C.3   1 <1>   0.0600 
 18 C       -8.7950    -0.6220    -0.9920 C.3   1 <1>  -0.1600 
 19 C       -9.6280     1.6080    -0.5990 C.3   1 <1>  -0.1600 
 20 C      -10.2750    -0.6410    -1.4000 C.3   1 <1>  -0.0800 
 21 C      -10.8170     0.7770    -1.1000 C.3   1 <1>  -0.0800 
 22 C      -11.0600    -1.7950    -0.7490 C.3   1 <1>   0.1400 
 23 C      -12.0160     0.7880    -0.1340 C.3   1 <1>  -0.0990 
 24 N      -12.5190    -1.5290    -0.8160 N.am  1 <1>  -0.6600 
 25 C      -13.0120    -0.2900    -0.5110 C.2   1 <1>   0.5690 
 26 C      -13.3960    -2.6760    -1.1710 C.3   1 <1>   0.0600 
 27 O      -14.1900    -0.0220    -0.5230 O.2   1 <1>  -0.5700 
 28 H       -5.1060    -0.3470    -1.1900 H     1 <1>   0.1500 
 29 H       -1.3380    -1.6150     0.2910 H     1 <1>   0.1500 
 30 H       -0.8970     0.6870     1.1320 H     1 <1>   0.1500 
 31 H       -5.1970     4.3220     0.0430 H     1 <1>   0.1500 
 32 H       -3.6580     5.7640     1.0550 H     1 <1>   0.0800 
 33 H       -1.9830     5.3450     0.7900 H     1 <1>   0.0800 
 34 H       -2.7360     4.9950     2.3270 H     1 <1>   0.0800 
 35 H       -8.2630     1.0780    -2.1320 H     1 <1>   0.0800 
 36 H       -7.9680     0.7040     1.5740 H     1 <1>   0.0800 
 37 H       -6.3480     1.3340     1.6380 H     1 <1>   0.0800 
 38 H       -6.6250    -0.2960     1.0620 H     1 <1>   0.0800 
 39 H       -8.1960    -1.2310    -1.6450 H     1 <1>   0.0800 
 40 H       -8.7040    -0.9760     0.0180 H     1 <1>   0.0800 
 41 H       -9.6340     1.6560     0.4740 H     1 <1>   0.0800 
 42 H       -9.6460     2.6060    -1.0010 H     1 <1>   0.0800 
 43 H      -10.3190    -0.7820    -2.4680 H     1 <1>   0.0800 
 44 H      -11.1510     1.1940    -2.0370 H     1 <1>   0.0800 
 45 H      -10.7870    -1.8940     0.2880 H     1 <1>   0.0800 
 46 H      -10.8270    -2.7190    -1.2500 H     1 <1>   0.0800 
 47 H      -12.4990     1.7480    -0.1570 H     1 <1>   0.0800 
 48 H      -11.6940     0.5960     0.8720 H     1 <1>   0.0800 
 49 H      -13.2630    -3.4710    -0.4580 H     1 <1>   0.0800 
 50 H      -13.1490    -3.0320    -2.1550 H     1 <1>   0.0800 
 51 H      -14.4310    -2.3770    -1.1630 H     1 <1>   0.0800 
@<TRIPOS>BOND
  1   1   2  1   
  2   2   3  ar  
  3   2   4  ar  
  4   3   5  ar  
  5   3  28  1   
  6   4   6  ar  
  7   4  29  1   
  8   5   7  ar  
  9   5   8  ar  
 10   6   7  ar  
 11   6  30  1   
 12   7   9  ar  
 13   8  10  1   
 14   8  11  ar  
 15   9  12  ar  
 16  10  13  2   
 17  10  14  am  
 18  11  12  ar  
 19  11  31  1   
 20  12  15  1   
 21  14  16  1   
 22  14  17  1   
 23  15  32  1   
 24  15  33  1   
 25  15  34  1   
 26  16  18  1   
 27  16  19  1   
 28  16  35  1   
 29  17  36  1   
 30  17  37  1   
 31  17  38  1   
 32  18  20  1   
 33  18  39  1   
 34  18  40  1   
 35  19  21  1   
 36  19  41  1   
 37  19  42  1   
 38  20  21  1   
 39  20  22  1   
 40  20  43  1   
 41  21  23  1   
 42  21  44  1   
 43  22  24  1   
 44  22  45  1   
 45  22  46  1   
 46  23  25  1   
 47  23  47  1   
 48  23  48  1   
 49  24  25  am  
 50  24  26  1   
 51  25  27  2   
 52  26  49  1   
 53  26  50  1   
 54  26  51  1   
@<TRIPOS>SUBSTRUCTURE
  1 ****  14 GROUP 4 **** **** 0

# MOE 2024.06 (io_trps.svl 2023.06)
