@<TRIPOS>MOLECULE
NONAME
56 59 1 0 0 
SMALL
USER_CHARGES


@<TRIPOS>ATOM
  1 S       -0.7770     0.5140     1.5630 S.o2  1 <1>   1.4470 
  2 O       -0.6530    -0.8690     1.9740 O.2   1 <1>  -0.6500 
  3 O       -1.3490     1.4740     2.4810 O.2   1 <1>  -0.6500 
  4 N       -1.6880     0.5600     0.1300 N.am  1 <1>  -0.8490 
  5 C        0.8480     1.1220     1.0280 C.ar  1 <1>  -0.0090 
  6 C       -3.1300     0.5020     0.3630 C.3   1 <1>   0.1960 
  7 C       -1.4080    -0.5520    -0.7780 C.3   1 <1>   0.1960 
  8 C        0.9760     2.2560     0.2420 C.ar  1 <1>  -0.1500 
  9 C        2.0180     0.4720     1.4040 C.ar  1 <1>  -0.1500 
 10 C       -3.4730    -0.9870     0.4490 C.3   1 <1>  -0.0800 
 11 C       -2.4830    -1.6240    -0.5420 C.3   1 <1>  -0.0800 
 12 C        2.2150     2.7470    -0.1790 C.ar  1 <1>   0.0860 
 13 C        3.2550     0.9350     1.0050 C.ar  1 <1>  -0.1500 
 14 C       -4.9660    -1.3770     0.2560 C.3   1 <1>   0.2800 
 15 C       -3.1510    -2.0520    -1.8590 C.3   1 <1>  -0.1600 
 16 C        2.3300     3.9250    -1.0050 C.2   1 <1>   0.5440 
 17 C        3.3810     2.0760     0.2110 C.ar  1 <1>   0.1170 
 18 O       -5.5560    -0.5440    -0.6740 O.3   1 <1>  -0.6800 
 19 C       -5.0520    -2.8130    -0.2940 C.3   1 <1>  -0.1600 
 20 C       -5.8000    -1.2760     1.5540 C.3   1 <1>  -0.1600 
 21 C       -4.3140    -3.0310    -1.6320 C.3   1 <1>  -0.1600 
 22 O        1.3390     4.5460    -1.3430 O.2   1 <1>  -0.5700 
 23 N        3.5740     4.3560    -1.4190 N.am  1 <1>  -0.4200 
 24 N        4.6280     2.5760    -0.2100 N.am  1 <1>  -0.4770 
 25 C       -5.8740     0.1100     2.2150 C.3   1 <1>  -0.2400 
 26 C        4.7230     3.7100    -1.0080 C.2   1 <1>   0.6900 
 27 C        3.6860     5.5700    -2.2850 C.3   1 <1>   0.0600 
 28 C        5.8850     1.8870     0.2200 C.3   1 <1>   0.0600 
 29 O        5.8120     4.1400    -1.3460 O.2   1 <1>  -0.5700 
 30 H       -3.4190     1.0500     1.2410 H     1 <1>   0.0800 
 31 H       -3.6230     0.9450    -0.4860 H     1 <1>   0.0800 
 32 H       -1.4750    -0.1830    -1.7880 H     1 <1>   0.0800 
 33 H       -0.4180    -0.9500    -0.6320 H     1 <1>   0.0800 
 34 H        0.0810     2.7790    -0.0570 H     1 <1>   0.1500 
 35 H        1.9510    -0.4110     2.0190 H     1 <1>   0.1500 
 36 H       -3.1880    -1.3240     1.4290 H     1 <1>   0.0800 
 37 H       -2.0280    -2.4880    -0.0860 H     1 <1>   0.0800 
 38 H        4.1220     0.3900     1.3270 H     1 <1>   0.1500 
 39 H       -3.5390    -1.1740    -2.3490 H     1 <1>   0.0800 
 40 H       -2.4270    -2.4980    -2.5190 H     1 <1>   0.0800 
 41 H       -6.4740    -0.8320    -0.8260 H     1 <1>   0.4000 
 42 H       -4.6070    -3.4660     0.4370 H     1 <1>   0.0800 
 43 H       -6.0780    -3.1180    -0.3960 H     1 <1>   0.0800 
 44 H       -6.8040    -1.6030     1.3430 H     1 <1>   0.0800 
 45 H       -5.3990    -1.9660     2.2760 H     1 <1>   0.0800 
 46 H       -3.9440    -4.0420    -1.6590 H     1 <1>   0.0800 
 47 H       -5.0110    -2.9220    -2.4450 H     1 <1>   0.0800 
 48 H       -6.1530     0.8650     1.5000 H     1 <1>   0.0800 
 49 H       -4.9300     0.3740     2.6550 H     1 <1>   0.0800 
 50 H       -6.6100     0.1000     3.0000 H     1 <1>   0.0800 
 51 H        2.8130     5.6760    -2.9030 H     1 <1>   0.0800 
 52 H        4.5450     5.4960    -2.9290 H     1 <1>   0.0800 
 53 H        3.7860     6.4420    -1.6640 H     1 <1>   0.0800 
 54 H        5.8850     0.8750    -0.1460 H     1 <1>   0.0800 
 55 H        5.9440     1.8810     1.2940 H     1 <1>   0.0800 
 56 H        6.7630     2.3790    -0.1590 H     1 <1>   0.0800 
@<TRIPOS>BOND
  1   1   2  2   
  2   1   3  2   
  3   1   4  am  
  4   1   5  1   
  5   4   6  1   
  6   4   7  1   
  7   5   8  ar  
  8   5   9  ar  
  9   6  10  1   
 10   6  30  1   
 11   6  31  1   
 12   7  11  1   
 13   7  32  1   
 14   7  33  1   
 15   8  12  ar  
 16   8  34  1   
 17   9  13  ar  
 18   9  35  1   
 19  10  11  1   
 20  10  14  1   
 21  10  36  1   
 22  11  15  1   
 23  11  37  1   
 24  12  16  1   
 25  12  17  ar  
 26  13  17  ar  
 27  13  38  1   
 28  14  18  1   
 29  14  19  1   
 30  14  20  1   
 31  15  21  1   
 32  15  39  1   
 33  15  40  1   
 34  16  22  2   
 35  16  23  am  
 36  17  24  1   
 37  18  41  1   
 38  19  21  1   
 39  19  42  1   
 40  19  43  1   
 41  20  25  1   
 42  20  44  1   
 43  20  45  1   
 44  21  46  1   
 45  21  47  1   
 46  23  26  am  
 47  23  27  1   
 48  24  26  am  
 49  24  28  1   
 50  25  48  1   
 51  25  49  1   
 52  25  50  1   
 53  26  29  2   
 54  27  51  1   
 55  27  52  1   
 56  27  53  1   
 57  28  54  1   
 58  28  55  1   
 59  28  56  1   
@<TRIPOS>SUBSTRUCTURE
  1 ****   5 GROUP 4 **** **** 0

# MOE 2024.06 (io_trps.svl 2023.06)
