@<TRIPOS>MOLECULE
NONAME
54 56 1 0 0 
SMALL
USER_CHARGES


@<TRIPOS>ATOM
  1 O        2.6800     0.5640    -0.7910 O.2   1 <1>  -0.5700 
  2 C        2.6900    -0.6160    -0.5490 C.2   1 <1>   0.5690 
  3 N        1.7820    -1.1480     0.2930 N.am  1 <1>  -0.7300 
  4 C        3.7450    -1.5010    -1.1680 C.3   1 <1>  -0.0990 
  5 C        1.4900    -2.5830     0.4860 C.3   1 <1>   0.1400 
  6 C        3.2940    -2.9620    -1.3720 C.3   1 <1>  -0.0800 
  7 C        2.5410    -3.5130    -0.1510 C.3   1 <1>  -0.0800 
  8 C        4.5190    -3.8890    -1.5110 C.3   1 <1>  -0.1600 
  9 C        3.6600    -3.9720     0.7840 C.3   1 <1>  -0.1600 
 10 C        4.6430    -4.6420    -0.1740 C.3   1 <1>   0.2200 
 11 N        6.0170    -4.7840     0.3970 N.am  1 <1>  -0.6600 
 12 C        7.0740    -3.9240     0.1720 C.2   1 <1>   0.5440 
 13 C        6.3110    -6.1560     0.8970 C.3   1 <1>   0.0600 
 14 O        8.1450    -4.3980    -0.1570 O.2   1 <1>  -0.5700 
 15 C        6.9580    -2.4910     0.3380 C.ar  1 <1>   0.0860 
 16 C        7.3350    -1.6180    -0.6820 C.ar  1 <1>  -0.1500 
 17 C        6.4810    -1.9340     1.5250 C.ar  1 <1>  -0.1500 
 18 C        7.2040    -0.2490    -0.5460 C.ar  1 <1>   0.0830 
 19 C        6.3400    -0.5660     1.6740 C.ar  1 <1>  -0.1500 
 20 O        7.5810     0.5270    -1.5930 O.3   1 <1>  -0.3630 
 21 C        6.6770     0.2840     0.6350 C.ar  1 <1>   0.0830 
 22 C        8.6720     1.4020    -1.4000 C.3   1 <1>   0.1200 
 23 O        6.4770     1.6070     0.8050 O.3   1 <1>  -0.3630 
 24 C        9.9750     0.6140    -1.5390 C.3   1 <1>  -0.2400 
 25 C        5.3900     2.1670     0.1040 C.3   1 <1>   0.1200 
 26 C        5.4730     3.6840     0.2320 C.3   1 <1>  -0.2400 
 27 H        1.1130    -0.4850     0.6910 H     1 <1>   0.3700 
 28 H        4.0560    -1.0780    -2.1050 H     1 <1>   0.0800 
 29 H        4.5800    -1.4650    -0.5030 H     1 <1>   0.0800 
 30 H        1.4050    -2.7940     1.5390 H     1 <1>   0.0800 
 31 H        0.5340    -2.7850     0.0320 H     1 <1>   0.0800 
 32 H        2.6660    -3.0130    -2.2460 H     1 <1>   0.0800 
 33 H        2.0180    -4.4020    -0.4610 H     1 <1>   0.0800 
 34 H        5.4030    -3.3410    -1.7780 H     1 <1>   0.0800 
 35 H        4.3340    -4.6070    -2.2900 H     1 <1>   0.0800 
 36 H        3.3030    -4.6620     1.5270 H     1 <1>   0.0800 
 37 H        4.1050    -3.1200     1.2620 H     1 <1>   0.0800 
 38 H        4.2640    -5.6330    -0.3610 H     1 <1>   0.0800 
 39 H        5.5520    -6.4670     1.5930 H     1 <1>   0.0800 
 40 H        7.2640    -6.1740     1.3980 H     1 <1>   0.0800 
 41 H        6.3460    -6.8440     0.0700 H     1 <1>   0.0800 
 42 H        7.7370    -2.0200    -1.5950 H     1 <1>   0.1500 
 43 H        6.2190    -2.5900     2.3370 H     1 <1>   0.1500 
 44 H        5.9620    -0.1480     2.5900 H     1 <1>   0.1500 
 45 H        8.6110     2.1630    -2.1570 H     1 <1>   0.0800 
 46 H        8.5990     1.8640    -0.4310 H     1 <1>   0.0800 
 47 H       10.0180     0.1380    -2.5020 H     1 <1>   0.0800 
 48 H       10.0470    -0.1300    -0.7660 H     1 <1>   0.0800 
 49 H       10.8130     1.2810    -1.4470 H     1 <1>   0.0800 
 50 H        5.4410     1.8660    -0.9280 H     1 <1>   0.0800 
 51 H        4.4810     1.7940     0.5430 H     1 <1>   0.0800 
 52 H        6.3880     4.0410    -0.2030 H     1 <1>   0.0800 
 53 H        5.4270     3.9710     1.2680 H     1 <1>   0.0800 
 54 H        4.6450     4.1340    -0.2860 H     1 <1>   0.0800 
@<TRIPOS>BOND
  1   1   2  2   
  2   2   3  am  
  3   2   4  1   
  4   3   5  1   
  5   3  27  1   
  6   4   6  1   
  7   4  28  1   
  8   4  29  1   
  9   5   7  1   
 10   5  30  1   
 11   5  31  1   
 12   6   7  1   
 13   6   8  1   
 14   6  32  1   
 15   7   9  1   
 16   7  33  1   
 17   8  10  1   
 18   8  34  1   
 19   8  35  1   
 20   9  10  1   
 21   9  36  1   
 22   9  37  1   
 23  10  11  1   
 24  10  38  1   
 25  11  12  am  
 26  11  13  1   
 27  12  14  2   
 28  12  15  1   
 29  13  39  1   
 30  13  40  1   
 31  13  41  1   
 32  15  16  ar  
 33  15  17  ar  
 34  16  18  ar  
 35  16  42  1   
 36  17  19  ar  
 37  17  43  1   
 38  18  20  1   
 39  18  21  ar  
 40  19  21  ar  
 41  19  44  1   
 42  20  22  1   
 43  21  23  1   
 44  22  24  1   
 45  22  45  1   
 46  22  46  1   
 47  23  25  1   
 48  24  47  1   
 49  24  48  1   
 50  24  49  1   
 51  25  26  1   
 52  25  50  1   
 53  25  51  1   
 54  26  52  1   
 55  26  53  1   
 56  26  54  1   
@<TRIPOS>SUBSTRUCTURE
  1 ****  15 GROUP 4 **** **** 0

# MOE 2024.06 (io_trps.svl 2023.06)
