@<TRIPOS>MOLECULE
NONAME
39 39 1 0 0 
SMALL
USER_CHARGES


@<TRIPOS>ATOM
  1 O       -2.3960     0.7240    -1.2070 O.2   1 <1>  -0.5700 
  2 C       -2.3330     1.0470    -0.0380 C.2   1 <1>   0.5690 
  3 N       -2.6700     0.1230     0.9190 N.am  1 <1>  -0.6600 
  4 C       -1.9120     2.5000     0.3120 C.3   1 <1>   0.0610 
  5 C       -2.3180    -1.3100     0.6930 C.3   1 <1>   0.3200 
  6 C       -3.7080     0.3560     1.9690 C.3   1 <1>   0.1400 
  7 C       -0.9480     3.0200    -0.7820 C.3   1 <1>   0.1200 
  8 C       -1.1830     2.6240     1.6750 C.3   1 <1>  -0.2400 
  9 C       -3.1480     3.4230     0.3290 C.3   1 <1>  -0.2400 
 10 C       -3.4480    -2.0520     0.0000 C.2   1 <1>   0.0060 
 11 C       -5.1170     0.3940     1.3640 C.3   1 <1>   0.1200 
 12 O        0.2590     2.3170    -0.7470 O.3   1 <1>  -0.5600 
 13 N       -4.1140    -3.0450     0.5010 N.2   1 <1>  -0.5650 
 14 N       -3.8560    -1.6950    -1.2350 N.pl3 1 <1>   0.0330 
 15 O       -6.0250     0.7490     2.3510 O.3   1 <1>  -0.6800 
 16 C        1.1100     2.6030    -1.8080 C.3   1 <1>   0.0400 
 17 C       -5.0010    -3.3540    -0.4660 C.2   1 <1>   0.0770 
 18 C       -4.8600    -2.5380    -1.5340 C.2   1 <1>  -0.3020 
 19 H       -2.1020    -1.7820     1.6350 H     1 <1>   0.0800 
 20 H       -1.4320    -1.3690     0.0840 H     1 <1>   0.0800 
 21 H       -3.5290     1.2880     2.4660 H     1 <1>   0.0800 
 22 H       -3.6560    -0.4300     2.7030 H     1 <1>   0.0800 
 23 H       -0.7260     4.0610    -0.6210 H     1 <1>   0.0800 
 24 H       -1.3900     2.9060    -1.7580 H     1 <1>   0.0800 
 25 H       -0.3950     1.8940     1.7390 H     1 <1>   0.0800 
 26 H       -1.8430     2.4820     2.5070 H     1 <1>   0.0800 
 27 H       -0.7420     3.6000     1.7750 H     1 <1>   0.0800 
 28 H       -3.6640     3.3680    -0.6130 H     1 <1>   0.0800 
 29 H       -2.8570     4.4440     0.5020 H     1 <1>   0.0800 
 30 H       -3.8330     3.1360     1.1050 H     1 <1>   0.0800 
 31 H       -5.4080    -0.5650     0.9730 H     1 <1>   0.0800 
 32 H       -5.1750     1.1340     0.5870 H     1 <1>   0.0800 
 33 H       -3.4660    -0.9040    -1.7690 H     1 <1>   0.2700 
 34 H       -6.2070    -0.0130     2.9360 H     1 <1>   0.4000 
 35 H        2.0100     2.0300    -1.6780 H     1 <1>   0.0800 
 36 H        1.3420     3.6540    -1.8040 H     1 <1>   0.0800 
 37 H        0.6310     2.3210    -2.7300 H     1 <1>   0.0800 
 38 H       -5.7050    -4.1600    -0.3410 H     1 <1>   0.1500 
 39 H       -5.4020    -2.5090    -2.4610 H     1 <1>   0.1500 
@<TRIPOS>BOND
  1   1   2  2   
  2   2   3  am  
  3   2   4  1   
  4   3   5  1   
  5   3   6  1   
  6   4   7  1   
  7   4   8  1   
  8   4   9  1   
  9   5  10  1   
 10   5  19  1   
 11   5  20  1   
 12   6  11  1   
 13   6  21  1   
 14   6  22  1   
 15   7  12  1   
 16   7  23  1   
 17   7  24  1   
 18   8  25  1   
 19   8  26  1   
 20   8  27  1   
 21   9  28  1   
 22   9  29  1   
 23   9  30  1   
 24  10  13  2   
 25  10  14  1   
 26  11  15  1   
 27  11  31  1   
 28  11  32  1   
 29  12  16  1   
 30  13  17  1   
 31  14  18  1   
 32  14  33  1   
 33  15  34  1   
 34  16  35  1   
 35  16  36  1   
 36  16  37  1   
 37  17  18  2   
 38  17  38  1   
 39  18  39  1   
@<TRIPOS>SUBSTRUCTURE
  1 ****   3 GROUP 4 **** **** 0

# MOE 2024.06 (io_trps.svl 2023.06)
