@<TRIPOS>MOLECULE
NONAME
44 45 1 0 0 
SMALL
USER_CHARGES


@<TRIPOS>ATOM
  1 O        0.3040     0.8940    -1.2740 O.2   1 <1>  -0.5700 
  2 C        0.0290     1.8010    -0.5120 C.2   1 <1>   0.7800 
  3 O       -1.1000     1.7960     0.2020 O.3   1 <1>  -0.4300 
  4 N        0.8570     2.8710    -0.3380 N.am  1 <1>  -0.6600 
  5 C       -2.1090     0.8110     0.1960 C.3   1 <1>   0.2800 
  6 C        2.1990     2.9650    -0.9450 C.3   1 <1>   0.1400 
  7 C        0.6570     3.9240     0.6740 C.3   1 <1>   0.1400 
  8 C       -2.7400     0.7050    -1.1970 C.3   1 <1>  -0.2400 
  9 C       -1.5480    -0.5280     0.6890 C.3   1 <1>  -0.2400 
 10 C       -3.1600     1.3120     1.1880 C.3   1 <1>  -0.2400 
 11 C        3.0040     3.8660     0.0080 C.3   1 <1>   0.0000 
 12 C        1.9160     4.7850     0.5850 C.3   1 <1>  -0.1600 
 13 C        3.6510     3.0380     1.1440 C.3   1 <1>  -0.1600 
 14 C        4.0850     4.6800    -0.7300 C.3   1 <1>  -0.1600 
 15 C        4.8260     2.1680     0.6630 C.3   1 <1>  -0.1600 
 16 C        5.2350     3.7950    -1.2390 C.3   1 <1>  -0.1600 
 17 C        5.8790     3.0000    -0.0900 C.3   1 <1>  -0.0190 
 18 C        7.0020     2.1120    -0.6060 C.2   1 <1>   0.4490 
 19 O        8.1410     2.2470    -0.2750 O.2   1 <1>  -0.5700 
 20 H        2.1020     3.4270    -1.9120 H     1 <1>   0.0800 
 21 H        2.6360     1.9900    -1.0660 H     1 <1>   0.0800 
 22 H        0.5730     3.4690     1.6460 H     1 <1>   0.0800 
 23 H       -0.2320     4.4940     0.4610 H     1 <1>   0.0800 
 24 H       -2.0480     0.2890    -1.9060 H     1 <1>   0.0800 
 25 H       -3.0550     1.6750    -1.5390 H     1 <1>   0.0800 
 26 H       -3.5980     0.0590    -1.1640 H     1 <1>   0.0800 
 27 H       -0.8570    -0.9440    -0.0210 H     1 <1>   0.0800 
 28 H       -2.3470    -1.2360     0.8150 H     1 <1>   0.0800 
 29 H       -1.0520    -0.4010     1.6330 H     1 <1>   0.0800 
 30 H       -3.5470     2.2640     0.8720 H     1 <1>   0.0800 
 31 H       -2.7280     1.4160     2.1670 H     1 <1>   0.0800 
 32 H       -3.9780     0.6170     1.2500 H     1 <1>   0.0800 
 33 H        2.1790     5.2020     1.5400 H     1 <1>   0.0800 
 34 H        1.7180     5.5950    -0.0950 H     1 <1>   0.0800 
 35 H        2.9140     2.4050     1.6080 H     1 <1>   0.0800 
 36 H        4.0190     3.7100     1.9010 H     1 <1>   0.0800 
 37 H        4.4880     5.4180    -0.0580 H     1 <1>   0.0800 
 38 H        3.6480     5.2060    -1.5610 H     1 <1>   0.0800 
 39 H        4.4580     1.3830     0.0260 H     1 <1>   0.0800 
 40 H        5.2870     1.6990     1.5160 H     1 <1>   0.0800 
 41 H        5.9810     4.4180    -1.7020 H     1 <1>   0.0800 
 42 H        4.8630     3.1170    -1.9880 H     1 <1>   0.0800 
 43 H        6.3140     3.7000     0.6030 H     1 <1>   0.0800 
 44 H        6.7080     1.3430    -1.2980 H     1 <1>   0.0600 
@<TRIPOS>BOND
  1   1   2  2   
  2   2   3  1   
  3   2   4  am  
  4   3   5  1   
  5   4   6  1   
  6   4   7  1   
  7   5   8  1   
  8   5   9  1   
  9   5  10  1   
 10   6  11  1   
 11   6  20  1   
 12   6  21  1   
 13   7  12  1   
 14   7  22  1   
 15   7  23  1   
 16   8  24  1   
 17   8  25  1   
 18   8  26  1   
 19   9  27  1   
 20   9  28  1   
 21   9  29  1   
 22  10  30  1   
 23  10  31  1   
 24  10  32  1   
 25  11  12  1   
 26  11  13  1   
 27  11  14  1   
 28  12  33  1   
 29  12  34  1   
 30  13  15  1   
 31  13  35  1   
 32  13  36  1   
 33  14  16  1   
 34  14  37  1   
 35  14  38  1   
 36  15  17  1   
 37  15  39  1   
 38  15  40  1   
 39  16  17  1   
 40  16  41  1   
 41  16  42  1   
 42  17  18  1   
 43  17  43  1   
 44  18  19  2   
 45  18  44  1   
@<TRIPOS>SUBSTRUCTURE
  1 ****   6 GROUP 4 **** **** 0

# MOE 2024.06 (io_trps.svl 2023.06)
