@<TRIPOS>MOLECULE
NONAME
48 49 1 0 0 
SMALL
USER_CHARGES


@<TRIPOS>ATOM
  1 S        0.6160    -0.1980     0.0710 S.o2  1 <1>   1.3330 
  2 O        0.5670    -0.0500    -1.3620 O.2   1 <1>  -0.6500 
  3 O        1.2790    -1.3260     0.6750 O.2   1 <1>  -0.6500 
  4 N        1.4510     1.1470     0.7400 N.am  1 <1>  -0.7570 
  5 C       -1.0350    -0.0800     0.7820 C.3   1 <1>  -0.0550 
  6 C        1.4760     2.4860     0.3860 C.ar  1 <1>   0.1990 
  7 C       -1.8560     1.1600     0.3800 C.3   1 <1>  -0.2400 
  8 C        2.1560     3.3770     1.2080 C.ar  1 <1>  -0.1500 
  9 C        0.8570     3.0020    -0.7490 C.ar  1 <1>  -0.1500 
 10 C        2.2030     4.7280     0.9210 C.ar  1 <1>  -0.1500 
 11 C        0.9040     4.3530    -1.0340 C.ar  1 <1>  -0.1500 
 12 C        1.5680     5.2580    -0.2050 C.ar  1 <1>   0.0860 
 13 C        1.5890     6.6760    -0.5130 C.2   1 <1>   0.5440 
 14 O        1.4700     7.0660    -1.6590 O.2   1 <1>  -0.5700 
 15 N        1.7350     7.6090     0.4790 N.am  1 <1>  -0.7300 
 16 C        1.7740     9.0710     0.2700 C.3   1 <1>   0.1400 
 17 C        3.2250     9.5430     0.3530 C.3   1 <1>  -0.1600 
 18 C        3.3450    11.0350     0.0270 C.3   1 <1>   0.0210 
 19 C        4.7950    11.4820     0.0980 C.2   1 <1>  -0.1810 
 20 C        5.4390    12.1650     1.0590 C.2   1 <1>  -0.0400 
 21 C        5.7910    11.2650    -0.8570 C.2   1 <1>   0.1080 
 22 O        6.6800    12.3190     0.6830 O.3   1 <1>  -0.0190 
 23 C        5.0000    12.7340     2.3920 C.3   1 <1>  -0.0600 
 24 N        6.9060    11.7770    -0.4770 N.2   1 <1>  -0.4100 
 25 C        5.6220    10.5320    -2.1720 C.3   1 <1>  -0.0590 
 26 H        2.1310     0.8110     1.4150 H     1 <1>   0.4200 
 27 H       -0.9530    -0.1040     1.8510 H     1 <1>   0.0800 
 28 H       -1.5870    -0.9530     0.4890 H     1 <1>   0.0800 
 29 H       -1.3870     2.0560     0.7450 H     1 <1>   0.0800 
 30 H       -2.8450     1.0980     0.7990 H     1 <1>   0.0800 
 31 H       -1.9390     1.2200    -0.6910 H     1 <1>   0.0800 
 32 H        2.6540     3.0040     2.0840 H     1 <1>   0.1500 
 33 H        0.3370     2.3530    -1.4280 H     1 <1>   0.1500 
 34 H        2.7500     5.3810     1.5770 H     1 <1>   0.1500 
 35 H        0.4180     4.7240    -1.9210 H     1 <1>   0.1500 
 36 H        1.7840     7.2990     1.4500 H     1 <1>   0.3700 
 37 H        1.1740     9.5570     1.0190 H     1 <1>   0.0800 
 38 H        1.3650     9.3110    -0.6980 H     1 <1>   0.0800 
 39 H        3.8120     8.9810    -0.3520 H     1 <1>   0.0800 
 40 H        3.6100     9.3630     1.3410 H     1 <1>   0.0800 
 41 H        2.7590    11.6060     0.7260 H     1 <1>   0.0800 
 42 H        2.9610    11.2310    -0.9590 H     1 <1>   0.0800 
 43 H        3.9650    12.5170     2.5770 H     1 <1>   0.0800 
 44 H        5.1400    13.8000     2.3940 H     1 <1>   0.0800 
 45 H        5.5920    12.3040     3.1800 H     1 <1>   0.0800 
 46 H        4.7290    10.8600    -2.6680 H     1 <1>   0.0800 
 47 H        5.5650     9.4750    -1.9950 H     1 <1>   0.0800 
 48 H        6.4640    10.7300    -2.8100 H     1 <1>   0.0800 
@<TRIPOS>BOND
  1   1   2  2   
  2   1   3  2   
  3   1   4  am  
  4   1   5  1   
  5   4   6  1   
  6   4  26  1   
  7   5   7  1   
  8   5  27  1   
  9   5  28  1   
 10   6   8  ar  
 11   6   9  ar  
 12   7  29  1   
 13   7  30  1   
 14   7  31  1   
 15   8  10  ar  
 16   8  32  1   
 17   9  11  ar  
 18   9  33  1   
 19  10  12  ar  
 20  10  34  1   
 21  11  12  ar  
 22  11  35  1   
 23  12  13  1   
 24  13  14  2   
 25  13  15  am  
 26  15  16  1   
 27  15  36  1   
 28  16  17  1   
 29  16  37  1   
 30  16  38  1   
 31  17  18  1   
 32  17  39  1   
 33  17  40  1   
 34  18  19  1   
 35  18  41  1   
 36  18  42  1   
 37  19  20  2   
 38  19  21  1   
 39  20  22  1   
 40  20  23  1   
 41  21  24  2   
 42  21  25  1   
 43  22  24  1   
 44  23  43  1   
 45  23  44  1   
 46  23  45  1   
 47  25  46  1   
 48  25  47  1   
 49  25  48  1   
@<TRIPOS>SUBSTRUCTURE
  1 ****  13 GROUP 4 **** **** 0

# MOE 2024.06 (io_trps.svl 2023.06)
