@<TRIPOS>MOLECULE
NONAME
45 46 1 0 0 
SMALL
USER_CHARGES


@<TRIPOS>ATOM
  1 S       -0.6350     0.4420    -1.7720 S.o2  1 <1>   1.4470 
  2 O       -1.3850     1.5880    -2.2420 O.2   1 <1>  -0.6500 
  3 O       -0.5120    -0.7150    -2.6350 O.2   1 <1>  -0.6500 
  4 N       -1.3220    -0.0570    -0.3030 N.am  1 <1>  -0.8490 
  5 C        1.0220     1.0050    -1.2850 C.ar  1 <1>  -0.0090 
  6 C       -0.7890    -1.3230     0.2480 C.3   1 <1>   0.1960 
  7 C       -2.7830     0.0270    -0.2370 C.3   1 <1>   0.1960 
  8 C        1.2340     1.6910    -0.0970 C.ar  1 <1>  -0.1500 
  9 C        2.1240     0.7840    -2.0980 C.ar  1 <1>  -0.1500 
 10 C       -1.7780    -2.5040     0.2250 C.3   1 <1>  -0.1860 
 11 C       -3.4410    -1.0620    -1.0930 C.3   1 <1>  -0.1600 
 12 C        2.4930     2.1340     0.2690 C.ar  1 <1>  -0.1500 
 13 C        3.3850     1.2260    -1.7370 C.ar  1 <1>  -0.1500 
 14 C       -2.4810    -2.6140     1.5670 C.2   1 <1>   0.9060 
 15 C       -2.7150    -2.4120    -0.9890 C.3   1 <1>   0.2000 
 16 C        3.5980     1.9100    -0.5470 C.ar  1 <1>  -0.1440 
 17 O       -1.7830    -2.6800     2.5820 O.co2 1 <1>  -0.9000 
 18 O       -3.7190    -2.6560     1.6230 O.co2 1 <1>  -0.9000 
 19 O       -3.6640    -3.4050    -0.8930 O.3   1 <1>  -0.6800 
 20 C        5.0230     2.3860    -0.1860 C.3   1 <1>   0.1430 
 21 C        5.5300     3.3510    -1.2690 C.3   1 <1>  -0.2400 
 22 C        5.0920     3.1240     1.1620 C.3   1 <1>  -0.2400 
 23 C        5.9650     1.1750    -0.1000 C.3   1 <1>  -0.2400 
 24 H        0.0920    -1.6100    -0.3010 H     1 <1>   0.0800 
 25 H       -0.4670    -1.1420     1.2610 H     1 <1>   0.0800 
 26 H       -3.0900    -0.1000     0.7890 H     1 <1>   0.0800 
 27 H       -3.1190     1.0000    -0.5520 H     1 <1>   0.0800 
 28 H        0.3960     1.8810     0.5540 H     1 <1>   0.1500 
 29 H        1.9930     0.2570    -3.0280 H     1 <1>   0.1500 
 30 H       -1.2030    -3.4030     0.1340 H     1 <1>   0.0800 
 31 H       -3.4500    -0.7490    -2.1200 H     1 <1>   0.0800 
 32 H       -4.4620    -1.1580    -0.7680 H     1 <1>   0.0800 
 33 H        2.5800     2.6550     1.2030 H     1 <1>   0.1500 
 34 H        4.2050     1.0280    -2.4040 H     1 <1>   0.1500 
 35 H       -2.1530    -2.5860    -1.8910 H     1 <1>   0.0800 
 36 H       -4.0090    -3.3370     0.0450 H     1 <1>   0.4000 
 37 H        6.5070     3.7230    -1.0190 H     1 <1>   0.0800 
 38 H        4.8580     4.1860    -1.3600 H     1 <1>   0.0800 
 39 H        5.5940     2.8640    -2.2240 H     1 <1>   0.0800 
 40 H        6.1000     3.4360     1.3710 H     1 <1>   0.0800 
 41 H        4.7700     2.4810     1.9610 H     1 <1>   0.0800 
 42 H        4.4700     4.0010     1.1440 H     1 <1>   0.0800 
 43 H        6.9550     1.4840     0.1830 H     1 <1>   0.0800 
 44 H        6.0310     0.6670    -1.0440 H     1 <1>   0.0800 
 45 H        5.6000     0.4780     0.6330 H     1 <1>   0.0800 
@<TRIPOS>BOND
  1   1   2  2   
  2   1   3  2   
  3   1   4  am  
  4   1   5  1   
  5   4   6  1   
  6   4   7  1   
  7   5   8  ar  
  8   5   9  ar  
  9   6  10  1   
 10   6  24  1   
 11   6  25  1   
 12   7  11  1   
 13   7  26  1   
 14   7  27  1   
 15   8  12  ar  
 16   8  28  1   
 17   9  13  ar  
 18   9  29  1   
 19  10  14  1   
 20  10  15  1   
 21  10  30  1   
 22  11  15  1   
 23  11  31  1   
 24  11  32  1   
 25  12  16  ar  
 26  12  33  1   
 27  13  16  ar  
 28  13  34  1   
 29  14  17  ar  
 30  14  18  ar  
 31  15  19  1   
 32  15  35  1   
 33  16  20  1   
 34  19  36  1   
 35  20  21  1   
 36  20  22  1   
 37  20  23  1   
 38  21  37  1   
 39  21  38  1   
 40  21  39  1   
 41  22  40  1   
 42  22  41  1   
 43  22  42  1   
 44  23  43  1   
 45  23  44  1   
 46  23  45  1   
@<TRIPOS>SUBSTRUCTURE
  1 ****   5 GROUP 4 **** **** 0

# MOE 2024.06 (io_trps.svl 2023.06)
