@<TRIPOS>MOLECULE
NONAME
53 57 1 0 0 
SMALL
USER_CHARGES


@<TRIPOS>ATOM
  1 O       -2.2660     0.3450     1.1850 O.2   1 <1>  -0.5700 
  2 C       -2.1580     1.2110     0.3500 C.2   1 <1>   0.5690 
  3 N       -2.6430     1.0090    -0.9060 N.am  1 <1>  -0.6600 
  4 C       -1.5600     2.5470     0.7270 C.3   1 <1>  -0.0990 
  5 C       -3.9830     1.5960    -1.2190 C.3   1 <1>   0.1400 
  6 C       -2.4810    -0.3560    -1.5130 C.3   1 <1>   0.1400 
  7 C       -0.1520     2.3650     1.3020 C.3   1 <1>   0.0960 
  8 C       -5.1230     0.7090    -0.6380 C.3   1 <1>   0.4230 
  9 C       -3.7160    -1.2570    -1.2650 C.3   1 <1>   0.3430 
 10 N        0.4390     3.6800     1.6060 N.pl3 1 <1>   0.0480 
 11 N       -4.6200    -0.6590    -0.2230 N.4   1 <1>  -0.9590 
 12 C       -6.3040     0.5870    -1.6290 C.3   1 <1>   0.1200 
 13 C        0.9690     4.5610     0.7170 C.ar  1 <1>  -0.1520 
 14 C        0.4820     4.3110     2.8090 C.2   1 <1>   0.0360 
 15 C       -5.7470    -1.5250     0.2400 C.3   1 <1>   0.5180 
 16 O       -7.3050    -0.2390    -1.1060 O.3   1 <1>  -0.5600 
 17 C        1.2960     5.6820     1.4580 C.ar  1 <1>   0.2270 
 18 C        1.2050     4.5140    -0.6610 C.ar  1 <1>  -0.1500 
 19 N        0.9800     5.4970     2.7690 N.2   1 <1>  -0.5650 
 20 C       -5.2280    -2.9300     0.5650 C.3   1 <1>  -0.1950 
 21 C       -6.9010    -1.5450    -0.7860 C.3   1 <1>   0.1200 
 22 C        1.8630     6.7900     0.8330 C.ar  1 <1>  -0.1500 
 23 C        1.7660     5.6150    -1.2700 C.ar  1 <1>  -0.1500 
 24 C       -5.7190    -3.6470     1.7850 C.3   1 <1>  -0.2000 
 25 C       -4.2970    -3.1720     1.7150 C.3   1 <1>  -0.2000 
 26 C        2.0950     6.7540    -0.5240 C.ar  1 <1>  -0.1500 
 27 H       -1.5160     3.1750    -0.1450 H     1 <1>   0.0800 
 28 H       -2.1920     3.0130     1.4600 H     1 <1>   0.0800 
 29 H       -4.0600     2.5890    -0.8080 H     1 <1>   0.0800 
 30 H       -4.0840     1.6850    -2.2870 H     1 <1>   0.0800 
 31 H       -2.3040    -0.2640    -2.5710 H     1 <1>   0.0800 
 32 H       -1.6130    -0.8330    -1.0870 H     1 <1>   0.0800 
 33 H        0.4810     1.8590     0.5940 H     1 <1>   0.0800 
 34 H       -0.1900     1.7810     2.2050 H     1 <1>   0.0800 
 35 H       -5.5020     1.2090     0.2380 H     1 <1>   0.0800 
 36 H       -3.3710    -2.2290    -0.9500 H     1 <1>   0.0800 
 37 H       -4.2560    -1.3850    -2.1880 H     1 <1>   0.0800 
 38 H       -3.9900    -0.4990     0.5890 H     1 <1>   0.4500 
 39 H       -5.9860     0.1830    -2.5740 H     1 <1>   0.0800 
 40 H       -6.7440     1.5540    -1.8020 H     1 <1>   0.0800 
 41 H        0.1210     3.8410     3.7060 H     1 <1>   0.1500 
 42 H       -6.1400    -1.1060     1.1520 H     1 <1>   0.0800 
 43 H        0.9560     3.6370    -1.2300 H     1 <1>   0.1500 
 44 H       -5.1120    -3.5460    -0.3110 H     1 <1>   0.1000 
 45 H       -7.7510    -2.0570    -0.3690 H     1 <1>   0.0800 
 46 H       -6.6110    -2.0490    -1.6910 H     1 <1>   0.0800 
 47 H        2.1050     7.6480     1.4310 H     1 <1>   0.1500 
 48 H        1.9610     5.6100    -2.3290 H     1 <1>   0.1500 
 49 H       -6.3810    -3.1550     2.4780 H     1 <1>   0.1000 
 50 H       -5.9030    -4.7080     1.7340 H     1 <1>   0.1000 
 51 H       -3.5210    -3.9140     1.6220 H     1 <1>   0.1000 
 52 H       -4.0060    -2.3610     2.3630 H     1 <1>   0.1000 
 53 H        2.5330     7.6010    -1.0230 H     1 <1>   0.1500 
@<TRIPOS>BOND
  1   1   2  2   
  2   2   3  am  
  3   2   4  1   
  4   3   5  1   
  5   3   6  1   
  6   4   7  1   
  7   4  27  1   
  8   4  28  1   
  9   5   8  1   
 10   5  29  1   
 11   5  30  1   
 12   6   9  1   
 13   6  31  1   
 14   6  32  1   
 15   7  10  1   
 16   7  33  1   
 17   7  34  1   
 18   8  11  1   
 19   8  12  1   
 20   8  35  1   
 21   9  11  1   
 22   9  36  1   
 23   9  37  1   
 24  10  13  1   
 25  10  14  1   
 26  11  15  1   
 27  11  38  1   
 28  12  16  1   
 29  12  39  1   
 30  12  40  1   
 31  13  17  ar  
 32  13  18  ar  
 33  14  19  2   
 34  14  41  1   
 35  15  20  1   
 36  15  21  1   
 37  15  42  1   
 38  16  21  1   
 39  17  19  1   
 40  17  22  ar  
 41  18  23  ar  
 42  18  43  1   
 43  20  24  1   
 44  20  25  1   
 45  20  44  1   
 46  21  45  1   
 47  21  46  1   
 48  22  26  ar  
 49  22  47  1   
 50  23  26  ar  
 51  23  48  1   
 52  24  25  1   
 53  24  49  1   
 54  24  50  1   
 55  25  51  1   
 56  25  52  1   
 57  26  53  1   
@<TRIPOS>SUBSTRUCTURE
  1 ****   2 GROUP 4 **** **** 0

# MOE 2024.06 (io_trps.svl 2023.06)
