@<TRIPOS>MOLECULE
NONAME
53 54 1 0 0 
SMALL
USER_CHARGES


@<TRIPOS>ATOM
  1 O       -1.7980     0.8590     2.2460 O.2   1 <1>  -0.5700 
  2 C       -2.2440     1.0320     1.1390 C.2   1 <1>   0.5690 
  3 N       -3.0330     0.0760     0.5580 N.am  1 <1>  -0.6600 
  4 C       -1.9420     2.3400     0.4220 C.3   1 <1>  -0.0990 
  5 C       -2.8830    -1.3350     1.0720 C.3   1 <1>   0.3210 
  6 C       -3.9610     0.3330    -0.6030 C.3   1 <1>   0.1400 
  7 C       -0.7950     3.1470     1.0480 C.3   1 <1>  -0.0170 
  8 C       -3.7770    -2.3710     0.3920 C.2   1 <1>   0.0460 
  9 C       -5.4480     0.3310    -0.1810 C.3   1 <1>   0.3430 
 10 C       -0.6040     4.4420     0.2770 C.ar  1 <1>  -0.1440 
 11 N       -5.0580    -2.5530     0.7820 N.2   1 <1>  -0.5650 
 12 C       -3.4540    -3.2260    -0.6080 C.2   1 <1>  -0.3320 
 13 N       -5.6130     0.7500     1.2490 N.4   1 <1>  -0.9590 
 14 C        0.1730     4.4660    -0.8700 C.ar  1 <1>  -0.1500 
 15 C       -1.2120     5.6110     0.7070 C.ar  1 <1>  -0.1500 
 16 C       -5.4750    -3.5230     0.0330 C.2   1 <1>   0.0360 
 17 N       -4.5490    -3.9750    -0.8360 N.pl3 1 <1>   0.0330 
 18 C       -2.1590    -3.4210    -1.3790 C.3   1 <1>  -0.0600 
 19 C       -6.7470     0.0240     1.8950 C.3   1 <1>   0.2630 
 20 C       -5.7160     2.2260     1.4290 C.3   1 <1>   0.2630 
 21 C        0.3350     5.6420    -1.5810 C.ar  1 <1>  -0.1500 
 22 C       -1.0500     6.7870    -0.0050 C.ar  1 <1>  -0.1500 
 23 C       -0.2780     6.8090    -1.1550 C.ar  1 <1>  -0.1430 
 24 C       -0.0960     8.0980    -1.9340 C.3   1 <1>  -0.0970 
 25 H       -2.8240     2.9500     0.4190 H     1 <1>   0.0800 
 26 H       -1.6770     2.1210    -0.5960 H     1 <1>   0.0800 
 27 H       -3.0880    -1.3530     2.1290 H     1 <1>   0.0800 
 28 H       -1.8560    -1.6320     0.9490 H     1 <1>   0.0800 
 29 H       -3.8050    -0.4090    -1.3680 H     1 <1>   0.0800 
 30 H       -3.7460     1.2840    -1.0530 H     1 <1>   0.0800 
 31 H        0.1140     2.5710     1.0260 H     1 <1>   0.0800 
 32 H       -1.0150     3.3670     2.0780 H     1 <1>   0.0800 
 33 H       -5.8240    -0.6700    -0.3030 H     1 <1>   0.0800 
 34 H       -6.0220     0.9670    -0.8340 H     1 <1>   0.0800 
 35 H       -4.7370     0.4170     1.7000 H     1 <1>   0.4500 
 36 H        0.6580     3.5700    -1.2160 H     1 <1>   0.1500 
 37 H       -1.8110     5.6150     1.6000 H     1 <1>   0.1500 
 38 H       -6.4620    -3.9530     0.0830 H     1 <1>   0.1500 
 39 H       -4.6540    -4.7410    -1.5090 H     1 <1>   0.2700 
 40 H       -1.4180    -2.7040    -1.0740 H     1 <1>   0.0800 
 41 H       -2.3310    -3.3010    -2.4340 H     1 <1>   0.0800 
 42 H       -1.7680    -4.4080    -1.2020 H     1 <1>   0.0800 
 43 H       -7.6800     0.2930     1.4280 H     1 <1>   0.0800 
 44 H       -6.7980     0.2690     2.9430 H     1 <1>   0.0800 
 45 H       -6.6090    -1.0410     1.8030 H     1 <1>   0.0800 
 46 H       -6.6160     2.5970     0.9660 H     1 <1>   0.0800 
 47 H       -4.8680     2.7180     0.9840 H     1 <1>   0.0800 
 48 H       -5.7410     2.4700     2.4790 H     1 <1>   0.0800 
 49 H        0.9440     5.6470    -2.4690 H     1 <1>   0.1500 
 50 H       -1.5250     7.6870     0.3430 H     1 <1>   0.1500 
 51 H        0.0070     7.8910    -2.9840 H     1 <1>   0.0800 
 52 H        0.7860     8.6080    -1.5920 H     1 <1>   0.0800 
 53 H       -0.9450     8.7440    -1.7990 H     1 <1>   0.0800 
@<TRIPOS>BOND
  1   1   2  2   
  2   2   3  am  
  3   2   4  1   
  4   3   5  1   
  5   3   6  1   
  6   4   7  1   
  7   4  25  1   
  8   4  26  1   
  9   5   8  1   
 10   5  27  1   
 11   5  28  1   
 12   6   9  1   
 13   6  29  1   
 14   6  30  1   
 15   7  10  1   
 16   7  31  1   
 17   7  32  1   
 18   8  11  1   
 19   8  12  2   
 20   9  13  1   
 21   9  33  1   
 22   9  34  1   
 23  10  14  ar  
 24  10  15  ar  
 25  11  16  2   
 26  12  17  1   
 27  12  18  1   
 28  13  19  1   
 29  13  20  1   
 30  13  35  1   
 31  14  21  ar  
 32  14  36  1   
 33  15  22  ar  
 34  15  37  1   
 35  16  17  1   
 36  16  38  1   
 37  17  39  1   
 38  18  40  1   
 39  18  41  1   
 40  18  42  1   
 41  19  43  1   
 42  19  44  1   
 43  19  45  1   
 44  20  46  1   
 45  20  47  1   
 46  20  48  1   
 47  21  23  ar  
 48  21  49  1   
 49  22  23  ar  
 50  22  50  1   
 51  23  24  1   
 52  24  51  1   
 53  24  52  1   
 54  24  53  1   
@<TRIPOS>SUBSTRUCTURE
  1 ****   2 GROUP 4 **** **** 0

# MOE 2024.06 (io_trps.svl 2023.06)
