@<TRIPOS>MOLECULE
NONAME
36 38 1 0 0 
SMALL
USER_CHARGES


@<TRIPOS>ATOM
  1 O       -0.4700     0.3340    -0.4170 O.2   1 <1>  -0.5700 
  2 C       -1.4850     0.9230    -0.0980 C.2   1 <1>   0.7160 
  3 N       -2.6200     0.1850     0.1580 N.am  1 <1>  -0.6600 
  4 C       -1.4740     2.3660    -0.0210 C.2   1 <1>  -0.0860 
  5 C       -4.0040     0.6920    -0.0180 C.3   1 <1>   0.1400 
  6 C       -2.6060    -1.3000     0.1260 C.3   1 <1>   0.1400 
  7 C       -0.6850     3.2240    -0.7210 C.2   1 <1>  -0.0100 
  8 C       -2.2500     3.2140     0.8000 C.2   1 <1>  -0.1500 
  9 C       -4.8150    -0.5300    -0.4450 C.3   1 <1>   0.2000 
 10 C       -4.0750    -1.7260     0.1460 C.3   1 <1>  -0.0800 
 11 O       -0.9330     4.4730    -0.4080 O.3   1 <1>  -0.2800 
 12 C       -1.8740     4.4760     0.5120 C.2   1 <1>  -0.0100 
 13 O       -6.1120    -0.4790     0.0400 O.3   1 <1>  -0.6800 
 14 C       -4.3460    -3.0350    -0.6100 C.3   1 <1>   0.0200 
 15 C       -3.5230    -4.1720    -0.0370 C.2   1 <1>  -0.0400 
 16 O       -3.6950    -4.5410     1.2050 O.3   1 <1>  -0.0190 
 17 C       -2.5660    -4.9460    -0.5690 C.2   1 <1>  -0.1500 
 18 N       -2.9000    -5.5180     1.5330 N.2   1 <1>  -0.4100 
 19 C       -2.2090    -5.7840     0.4840 C.2   1 <1>   0.1080 
 20 C       -1.1520    -6.8630     0.4130 C.3   1 <1>  -0.0590 
 21 H       -4.3620     1.0710     0.9230 H     1 <1>   0.0800 
 22 H       -4.0420     1.4590    -0.7720 H     1 <1>   0.0800 
 23 H       -2.1220    -1.6300    -0.7790 H     1 <1>   0.0800 
 24 H       -2.0710    -1.6940     0.9750 H     1 <1>   0.0800 
 25 H        0.0720     3.0050    -1.4550 H     1 <1>   0.1500 
 26 H       -2.9820     2.8880     1.5160 H     1 <1>   0.1500 
 27 H       -4.8550    -0.5810    -1.5200 H     1 <1>   0.0800 
 28 H       -4.3550    -1.8470     1.1780 H     1 <1>   0.0800 
 29 H       -2.2100     5.4200     0.9070 H     1 <1>   0.1500 
 30 H       -6.1190    -0.5420     1.0150 H     1 <1>   0.4000 
 31 H       -4.1060    -2.9160    -1.6520 H     1 <1>   0.0800 
 32 H       -5.3900    -3.2860    -0.5350 H     1 <1>   0.0800 
 33 H       -2.1470    -4.9490    -1.5580 H     1 <1>   0.1500 
 34 H       -1.4080    -7.5760    -0.3490 H     1 <1>   0.0800 
 35 H       -1.0840    -7.3730     1.3580 H     1 <1>   0.0800 
 36 H       -0.1980    -6.4250     0.1850 H     1 <1>   0.0800 
@<TRIPOS>BOND
  1   1   2  2   
  2   2   3  am  
  3   2   4  1   
  4   3   5  1   
  5   3   6  1   
  6   4   7  2   
  7   4   8  1   
  8   5   9  1   
  9   5  21  1   
 10   5  22  1   
 11   6  10  1   
 12   6  23  1   
 13   6  24  1   
 14   7  11  1   
 15   7  25  1   
 16   8  12  2   
 17   8  26  1   
 18   9  10  1   
 19   9  13  1   
 20   9  27  1   
 21  10  14  1   
 22  10  28  1   
 23  11  12  1   
 24  12  29  1   
 25  13  30  1   
 26  14  15  1   
 27  14  31  1   
 28  14  32  1   
 29  15  16  1   
 30  15  17  2   
 31  16  18  1   
 32  17  19  1   
 33  17  33  1   
 34  18  19  2   
 35  19  20  1   
 36  20  34  1   
 37  20  35  1   
 38  20  36  1   
@<TRIPOS>SUBSTRUCTURE
  1 ****   6 GROUP 4 **** **** 0

# MOE 2024.06 (io_trps.svl 2023.06)
