@<TRIPOS>MOLECULE
NONAME
52 54 1 0 0 
SMALL
USER_CHARGES


@<TRIPOS>ATOM
  1 F        0.3590     0.1920    -1.1270 F     1 <1>  -0.1900 
  2 C        1.2850     1.0320    -0.7110 C.ar  1 <1>   0.1900 
  3 C        2.5360     0.5900    -0.2840 C.ar  1 <1>   0.4100 
  4 C        1.0060     2.3700    -0.6900 C.ar  1 <1>   0.1600 
  5 N        3.4240     1.4690     0.1440 N.ar  1 <1>  -0.6200 
  6 N        2.9240    -0.7450    -0.2780 N.pl3 1 <1>  -0.8380 
  7 N        1.8940     3.2530    -0.2740 N.ar  1 <1>  -0.6200 
  8 C        3.0520     2.7360     0.1290 C.ar  1 <1>   0.7200 
  9 C        2.9150    -1.5250    -1.5510 C.3   1 <1>   0.2090 
 10 C        4.0030    -1.2000     0.6520 C.3   1 <1>   0.2090 
 11 N        4.0000     3.5810     0.5830 N.pl3 1 <1>  -0.8690 
 12 C        2.9400    -3.0380    -1.2640 C.3   1 <1>   0.1200 
 13 C        3.9800    -2.7310     0.8150 C.3   1 <1>   0.1200 
 14 C        4.1950     4.9100    -0.0060 C.3   1 <1>   0.4330 
 15 O        4.0160    -3.3730    -0.4300 O.3   1 <1>  -0.5600 
 16 C        5.6870     5.0540    -0.2670 C.ar  1 <1>  -0.1430 
 17 C        3.5990     5.9590     0.9530 C.3   1 <1>  -0.1600 
 18 C        6.5980     5.0880     0.7810 C.ar  1 <1>   0.1600 
 19 C        6.1660     5.1440    -1.5600 C.ar  1 <1>  -0.1500 
 20 C        3.5110     7.4260     0.4600 C.3   1 <1>   0.0000 
 21 N        7.9090     5.2070     0.6460 N.ar  1 <1>  -0.6200 
 22 C        7.5300     5.2700    -1.7190 C.ar  1 <1>  -0.1500 
 23 C        2.7890     7.5200    -0.8930 C.3   1 <1>  -0.2400 
 24 C        2.7000     8.2210     1.4940 C.3   1 <1>  -0.2400 
 25 C        4.8920     8.0880     0.3410 C.3   1 <1>  -0.2400 
 26 C        8.3430     5.2970    -0.6000 C.ar  1 <1>   0.1600 
 27 H        0.0450     2.7240    -1.0160 H     1 <1>   0.1500 
 28 H        3.7820    -1.2640    -2.1320 H     1 <1>   0.0800 
 29 H        2.0420    -1.2900    -2.1310 H     1 <1>   0.0800 
 30 H        3.8710    -0.7360     1.6140 H     1 <1>   0.0800 
 31 H        4.9610    -0.8980     0.2640 H     1 <1>   0.0800 
 32 H        4.8790     3.0790     0.6950 H     1 <1>   0.4000 
 33 H        3.0520    -3.5870    -2.1810 H     1 <1>   0.0800 
 34 H        2.0260    -3.3420    -0.7860 H     1 <1>   0.0800 
 35 H        3.0880    -3.0360     1.3340 H     1 <1>   0.0800 
 36 H        4.8360    -3.0550     1.3780 H     1 <1>   0.0800 
 37 H        3.6700     4.9540    -0.9450 H     1 <1>   0.0800 
 38 H        4.1370     5.9330     1.8820 H     1 <1>   0.0800 
 39 H        2.5960     5.6340     1.1690 H     1 <1>   0.0800 
 40 H        6.2290     5.0090     1.7890 H     1 <1>   0.1500 
 41 H        5.5090     5.1160    -2.4130 H     1 <1>   0.1500 
 42 H        7.9610     5.3460    -2.7000 H     1 <1>   0.1500 
 43 H        1.8340     7.0260    -0.8450 H     1 <1>   0.0800 
 44 H        3.3710     7.0680    -1.6760 H     1 <1>   0.0800 
 45 H        2.6240     8.5490    -1.1590 H     1 <1>   0.0800 
 46 H        1.7090     7.8140     1.5950 H     1 <1>   0.0800 
 47 H        2.6090     9.2520     1.1990 H     1 <1>   0.0800 
 48 H        3.1790     8.1880     2.4570 H     1 <1>   0.0800 
 49 H        5.4630     7.6670    -0.4650 H     1 <1>   0.0800 
 50 H        5.4510     7.9690     1.2530 H     1 <1>   0.0800 
 51 H        4.7890     9.1400     0.1460 H     1 <1>   0.0800 
 52 H        9.4070     5.3960    -0.7370 H     1 <1>   0.1500 
@<TRIPOS>BOND
  1   1   2  1   
  2   2   3  ar  
  3   2   4  ar  
  4   3   5  ar  
  5   3   6  1   
  6   4   7  ar  
  7   4  27  1   
  8   5   8  ar  
  9   6   9  1   
 10   6  10  1   
 11   7   8  ar  
 12   8  11  1   
 13   9  12  1   
 14   9  28  1   
 15   9  29  1   
 16  10  13  1   
 17  10  30  1   
 18  10  31  1   
 19  11  14  1   
 20  11  32  1   
 21  12  15  1   
 22  12  33  1   
 23  12  34  1   
 24  13  15  1   
 25  13  35  1   
 26  13  36  1   
 27  14  16  1   
 28  14  17  1   
 29  14  37  1   
 30  16  18  ar  
 31  16  19  ar  
 32  17  20  1   
 33  17  38  1   
 34  17  39  1   
 35  18  21  ar  
 36  18  40  1   
 37  19  22  ar  
 38  19  41  1   
 39  20  23  1   
 40  20  24  1   
 41  20  25  1   
 42  21  26  ar  
 43  22  26  ar  
 44  22  42  1   
 45  23  43  1   
 46  23  44  1   
 47  23  45  1   
 48  24  46  1   
 49  24  47  1   
 50  24  48  1   
 51  25  49  1   
 52  25  50  1   
 53  25  51  1   
 54  26  52  1   
@<TRIPOS>SUBSTRUCTURE
  1 ****   8 GROUP 4 **** **** 0

# MOE 2024.06 (io_trps.svl 2023.06)
