@<TRIPOS>MOLECULE
NONAME
54 58 1 0 0 
SMALL
USER_CHARGES


@<TRIPOS>ATOM
  1 O        2.4790    -0.5980    -1.9740 O.2   1 <1>  -0.5700 
  2 C        1.7090    -1.2220    -1.2620 C.2   1 <1>   0.5440 
  3 N        0.9690    -0.5000    -0.3310 N.am  1 <1>  -0.6600 
  4 C        1.6400    -2.6780    -1.4160 C.ar  1 <1>   0.3960 
  5 C        0.9060     0.9890    -0.3580 C.3   1 <1>   0.0600 
  6 C        0.1960    -1.1270     0.7760 C.3   1 <1>   0.0600 
  7 N        0.4930    -3.3460    -1.2080 N.ar  1 <1>  -0.6200 
  8 C        2.8080    -3.3470    -1.7930 C.ar  1 <1>   0.1600 
  9 C        0.5860    -4.6550    -1.3750 C.ar  1 <1>   0.4100 
 10 N        2.9290    -4.6550    -1.9730 N.ar  1 <1>  -0.6200 
 11 N       -0.5690    -5.3950    -1.1450 N.pl3 1 <1>  -0.8380 
 12 C        1.7870    -5.2740    -1.7590 C.ar  1 <1>   0.1600 
 13 C       -1.8990    -4.7190    -1.2490 C.3   1 <1>   0.2090 
 14 C       -0.4950    -6.6340    -0.3140 C.3   1 <1>   0.2090 
 15 C       -3.0020    -5.7670    -1.2290 C.3   1 <1>  -0.1600 
 16 C       -1.6090    -6.6530     0.7290 C.3   1 <1>  -0.1600 
 17 C       -3.0110    -6.5210     0.1090 C.3   1 <1>   0.4600 
 18 O       -3.7500    -5.7640     1.0440 O.3   1 <1>  -0.5600 
 19 C       -3.6530    -7.8990    -0.0490 C.2   1 <1>  -0.3320 
 20 C       -5.1520    -5.8970     1.0670 C.3   1 <1>   0.1200 
 21 N       -3.1790    -8.9380    -0.8030 N.pl3 1 <1>   0.0330 
 22 C       -4.7980    -8.2770     0.5530 C.2   1 <1>  -0.1810 
 23 C       -5.5680    -7.3300     1.4360 C.3   1 <1>   0.0210 
 24 C       -4.0440    -9.9960    -0.6610 C.ar  1 <1>  -0.1520 
 25 C       -5.0750    -9.6120     0.1920 C.ar  1 <1>   0.0000 
 26 C       -4.0130   -11.2780    -1.2150 C.ar  1 <1>  -0.1500 
 27 C       -6.0910   -10.5200     0.5020 C.ar  1 <1>  -0.1500 
 28 C       -5.0210   -12.1620    -0.9030 C.ar  1 <1>  -0.1500 
 29 C       -6.0600   -11.7830    -0.0430 C.ar  1 <1>  -0.1500 
 30 H        1.2990     1.3750    -1.2820 H     1 <1>   0.0800 
 31 H        1.4830     1.3900     0.4570 H     1 <1>   0.0800 
 32 H       -0.1160     1.3130    -0.2640 H     1 <1>   0.0800 
 33 H        0.6550    -2.0510     1.0810 H     1 <1>   0.0800 
 34 H       -0.8090    -1.3270     0.4460 H     1 <1>   0.0800 
 35 H        0.1640    -0.4690     1.6270 H     1 <1>   0.0800 
 36 H        3.6940    -2.7570    -1.9540 H     1 <1>   0.1500 
 37 H        1.7730    -6.3390    -1.8940 H     1 <1>   0.1500 
 38 H       -1.9420    -4.1560    -2.1670 H     1 <1>   0.0800 
 39 H       -2.0240    -4.0350    -0.4250 H     1 <1>   0.0800 
 40 H        0.4560    -6.6820     0.1890 H     1 <1>   0.0800 
 41 H       -0.5810    -7.4920    -0.9580 H     1 <1>   0.0800 
 42 H       -2.8220    -6.4500    -2.0380 H     1 <1>   0.0800 
 43 H       -3.9530    -5.3060    -1.4090 H     1 <1>   0.0800 
 44 H       -1.4330    -5.8330     1.4020 H     1 <1>   0.0800 
 45 H       -1.5520    -7.5590     1.3030 H     1 <1>   0.0800 
 46 H       -5.5390    -5.6370     0.0980 H     1 <1>   0.0800 
 47 H       -5.5360    -5.2010     1.7920 H     1 <1>   0.0800 
 48 H       -2.3420    -8.9430    -1.3920 H     1 <1>   0.2700 
 49 H       -6.6240    -7.4520     1.2810 H     1 <1>   0.0800 
 50 H       -5.3430    -7.5260     2.4690 H     1 <1>   0.0800 
 51 H       -3.2130   -11.5620    -1.8740 H     1 <1>   0.1500 
 52 H       -6.8810   -10.2160     1.1630 H     1 <1>   0.1500 
 53 H       -5.0200   -13.1550    -1.3160 H     1 <1>   0.1500 
 54 H       -6.8350   -12.4930     0.1860 H     1 <1>   0.1500 
@<TRIPOS>BOND
  1   1   2  2   
  2   2   3  am  
  3   2   4  1   
  4   3   5  1   
  5   3   6  1   
  6   4   7  ar  
  7   4   8  ar  
  8   5  30  1   
  9   5  31  1   
 10   5  32  1   
 11   6  33  1   
 12   6  34  1   
 13   6  35  1   
 14   7   9  ar  
 15   8  10  ar  
 16   8  36  1   
 17   9  11  1   
 18   9  12  ar  
 19  10  12  ar  
 20  11  13  1   
 21  11  14  1   
 22  12  37  1   
 23  13  15  1   
 24  13  38  1   
 25  13  39  1   
 26  14  16  1   
 27  14  40  1   
 28  14  41  1   
 29  15  17  1   
 30  15  42  1   
 31  15  43  1   
 32  16  17  1   
 33  16  44  1   
 34  16  45  1   
 35  17  18  1   
 36  17  19  1   
 37  18  20  1   
 38  19  21  1   
 39  19  22  2   
 40  20  23  1   
 41  20  46  1   
 42  20  47  1   
 43  21  24  1   
 44  21  48  1   
 45  22  23  1   
 46  22  25  1   
 47  23  49  1   
 48  23  50  1   
 49  24  25  ar  
 50  24  26  ar  
 51  25  27  ar  
 52  26  28  ar  
 53  26  51  1   
 54  27  29  ar  
 55  27  52  1   
 56  28  29  ar  
 57  28  53  1   
 58  29  54  1   
@<TRIPOS>SUBSTRUCTURE
  1 ****  13 GROUP 4 **** **** 0

# MOE 2024.06 (io_trps.svl 2023.06)
