@<TRIPOS>MOLECULE
NONAME
39 40 1 0 0 
SMALL
USER_CHARGES


@<TRIPOS>ATOM
  1 O       -0.3890    -0.4430     0.1770 O.2   1 <1>  -0.5700 
  2 C       -1.4990    -0.1840     0.6010 C.2   1 <1>   0.7800 
  3 O       -2.0800     0.9930     0.3770 O.3   1 <1>  -0.4300 
  4 N       -2.2180    -1.1250     1.2870 N.am  1 <1>  -0.6600 
  5 C       -1.5530     2.0860    -0.3420 C.3   1 <1>   0.2800 
  6 C       -3.7030    -1.1070     1.2920 C.3   1 <1>   0.2350 
  7 C       -1.6270    -2.4590     1.5530 C.3   1 <1>   0.1400 
  8 C       -0.2830     2.6080     0.3410 C.3   1 <1>  -0.2400 
  9 C       -2.6370     3.1620    -0.2830 C.3   1 <1>  -0.2400 
 10 C       -1.3120     1.6910    -1.8040 C.3   1 <1>  -0.2400 
 11 C       -4.1870    -2.0850     0.2010 C.3   1 <1>  -0.1900 
 12 C       -2.0320    -3.3950     0.3990 C.3   1 <1>   0.4230 
 13 C       -3.5650    -3.4910     0.3240 C.3   1 <1>  -0.0650 
 14 C       -4.3970    -1.5350    -1.1740 C.3   1 <1>  -0.2000 
 15 C       -5.5760    -1.9490    -0.3300 C.3   1 <1>  -0.2000 
 16 N       -1.4330    -4.7450     0.5490 N.4   1 <1>  -0.8530 
 17 H       -4.0800    -0.1150     1.1040 H     1 <1>   0.0800 
 18 H       -4.0630    -1.4150     2.2590 H     1 <1>   0.0800 
 19 H       -2.0010    -2.8230     2.4940 H     1 <1>   0.0800 
 20 H       -0.5550    -2.3770     1.6150 H     1 <1>   0.0800 
 21 H       -0.4730     2.8100     1.3800 H     1 <1>   0.0800 
 22 H        0.0370     3.5190    -0.1290 H     1 <1>   0.0800 
 23 H        0.5220     1.9020     0.2590 H     1 <1>   0.0800 
 24 H       -2.8390     3.4340     0.7380 H     1 <1>   0.0800 
 25 H       -3.5440     2.8060    -0.7370 H     1 <1>   0.0800 
 26 H       -2.3190     4.0430    -0.8100 H     1 <1>   0.0800 
 27 H       -0.5050     0.9880    -1.8890 H     1 <1>   0.0800 
 28 H       -1.0430     2.5610    -2.3760 H     1 <1>   0.0800 
 29 H       -2.2020     1.2670    -2.2300 H     1 <1>   0.0800 
 30 H       -1.6710    -2.9520    -0.5170 H     1 <1>   0.0800 
 31 H       -3.8560    -4.0860    -0.5250 H     1 <1>   0.0800 
 32 H       -3.9520    -3.9540     1.2150 H     1 <1>   0.0800 
 33 H       -4.1730    -2.1270    -2.0450 H     1 <1>   0.1000 
 34 H       -4.2430    -0.4830    -1.3510 H     1 <1>   0.1000 
 35 H       -6.2200    -1.1740     0.0520 H     1 <1>   0.1000 
 36 H       -6.1280    -2.8260    -0.6220 H     1 <1>   0.1000 
 37 H       -1.7430    -5.2010     1.4130 H     1 <1>   0.4500 
 38 H       -0.4080    -4.6770     0.5620 H     1 <1>   0.4500 
 39 H       -1.6950    -5.3390    -0.2450 H     1 <1>   0.4500 
@<TRIPOS>BOND
  1   1   2  2   
  2   2   3  1   
  3   2   4  am  
  4   3   5  1   
  5   4   6  1   
  6   4   7  1   
  7   5   8  1   
  8   5   9  1   
  9   5  10  1   
 10   6  11  1   
 11   6  17  1   
 12   6  18  1   
 13   7  12  1   
 14   7  19  1   
 15   7  20  1   
 16   8  21  1   
 17   8  22  1   
 18   8  23  1   
 19   9  24  1   
 20   9  25  1   
 21   9  26  1   
 22  10  27  1   
 23  10  28  1   
 24  10  29  1   
 25  11  13  1   
 26  11  14  1   
 27  11  15  1   
 28  12  13  1   
 29  12  16  1   
 30  12  30  1   
 31  13  31  1   
 32  13  32  1   
 33  14  15  1   
 34  14  33  1   
 35  14  34  1   
 36  15  35  1   
 37  15  36  1   
 38  16  37  1   
 39  16  38  1   
 40  16  39  1   
@<TRIPOS>SUBSTRUCTURE
  1 ****   2 GROUP 4 **** **** 0

# MOE 2024.06 (io_trps.svl 2023.06)
