@<TRIPOS>MOLECULE
NONAME
44 46 1 0 0 
SMALL
USER_CHARGES


@<TRIPOS>ATOM
  1 CL      -0.1340     0.0480     0.3810 Cl    1 <1>  -0.1400 
  2 C       -0.9440    -1.4990     0.4160 C.2   1 <1>   0.1400 
  3 C       -0.2380    -2.6550     0.4700 C.2   1 <1>  -0.1810 
  4 C       -2.3630    -1.4990     0.3870 C.2   1 <1>  -0.1500 
  5 N       -0.9260    -3.8620     0.4960 N.pl3 1 <1>   0.3340 
  6 C       -3.0270    -2.6890     0.4130 C.2   1 <1>  -0.1050 
  7 C       -0.5850    -5.1490     0.5440 C.2   1 <1>  -0.0150 
  8 C       -2.3040    -3.9120     0.4680 C.2   1 <1>   0.1410 
  9 F        0.6750    -5.5040     0.5700 F     1 <1>  -0.1370 
 10 C       -1.6880    -5.9520     0.5510 C.2   1 <1>   0.1410 
 11 N       -2.7830    -5.1350     0.4980 N.2   1 <1>  -0.5650 
 12 C       -1.7080    -7.4100     0.6150 C.2   1 <1>   0.7160 
 13 O       -0.7040    -8.0130     0.9570 O.2   1 <1>  -0.5700 
 14 N       -2.8170    -8.1750     0.3010 N.am  1 <1>  -0.6600 
 15 C       -4.0900    -7.6780    -0.2790 C.3   1 <1>   0.1400 
 16 C       -2.8340    -9.6530     0.4230 C.3   1 <1>   0.1400 
 17 C       -4.8380    -8.9390    -0.7070 C.3   1 <1>   0.2000 
 18 C       -4.2910   -10.0540     0.1790 C.3   1 <1>  -0.0800 
 19 O       -6.2050    -8.8190    -0.5280 O.3   1 <1>  -0.6800 
 20 C       -4.4700   -11.4420    -0.4570 C.3   1 <1>  -0.0550 
 21 S       -3.9250   -12.7810     0.6010 S.o2  1 <1>   1.3330 
 22 O       -4.7340   -12.7530     1.7980 O.2   1 <1>  -0.6500 
 23 O       -2.4840   -12.7410     0.7070 O.2   1 <1>  -0.6500 
 24 N       -4.3420   -14.1610    -0.2960 N.am  1 <1>  -0.8490 
 25 C       -3.3320   -14.5390    -1.2900 C.3   1 <1>   0.1160 
 26 C       -4.6520   -15.3090     0.5620 C.3   1 <1>   0.1160 
 27 H        0.8350    -2.7000     0.4940 H     1 <1>   0.1500 
 28 H       -2.8750    -0.5530     0.3450 H     1 <1>   0.1500 
 29 H       -4.1010    -2.7500     0.3930 H     1 <1>   0.1500 
 30 H       -4.6370    -7.1420     0.4770 H     1 <1>   0.0800 
 31 H       -3.8980    -7.0390    -1.1240 H     1 <1>   0.0800 
 32 H       -2.1820   -10.0720    -0.3250 H     1 <1>   0.0800 
 33 H       -2.4950    -9.9610     1.3990 H     1 <1>   0.0800 
 34 H       -4.6480    -9.1360    -1.7490 H     1 <1>   0.0800 
 35 H       -4.7920   -10.0300     1.1320 H     1 <1>   0.0800 
 36 H       -6.4130    -8.6370     0.4100 H     1 <1>   0.4000 
 37 H       -3.9360   -11.4810    -1.3860 H     1 <1>   0.0800 
 38 H       -5.5120   -11.5840    -0.6740 H     1 <1>   0.0800 
 39 H       -3.6910   -15.3590    -1.8880 H     1 <1>   0.0800 
 40 H       -2.4160   -14.8340    -0.8040 H     1 <1>   0.0800 
 41 H       -3.1240   -13.7090    -1.9430 H     1 <1>   0.0800 
 42 H       -4.9270   -16.1600    -0.0380 H     1 <1>   0.0800 
 43 H       -5.4800   -15.0740     1.2100 H     1 <1>   0.0800 
 44 H       -3.7990   -15.5630     1.1700 H     1 <1>   0.0800 
@<TRIPOS>BOND
  1   1   2  1   
  2   2   3  2   
  3   2   4  1   
  4   3   5  1   
  5   3  27  1   
  6   4   6  2   
  7   4  28  1   
  8   5   7  1   
  9   5   8  1   
 10   6   8  1   
 11   6  29  1   
 12   7   9  1   
 13   7  10  2   
 14   8  11  2   
 15  10  11  1   
 16  10  12  1   
 17  12  13  2   
 18  12  14  am  
 19  14  15  1   
 20  14  16  1   
 21  15  17  1   
 22  15  30  1   
 23  15  31  1   
 24  16  18  1   
 25  16  32  1   
 26  16  33  1   
 27  17  18  1   
 28  17  19  1   
 29  17  34  1   
 30  18  20  1   
 31  18  35  1   
 32  19  36  1   
 33  20  21  1   
 34  20  37  1   
 35  20  38  1   
 36  21  22  2   
 37  21  23  2   
 38  21  24  am  
 39  24  25  1   
 40  24  26  1   
 41  25  39  1   
 42  25  40  1   
 43  25  41  1   
 44  26  42  1   
 45  26  43  1   
 46  26  44  1   
@<TRIPOS>SUBSTRUCTURE
  1 ****  14 GROUP 4 **** **** 0

# MOE 2024.06 (io_trps.svl 2023.06)
