@<TRIPOS>MOLECULE
NONAME
52 55 1 0 0 
SMALL
USER_CHARGES


@<TRIPOS>ATOM
  1 S       -0.3780    -4.6580     2.2390 S.3   1 <1>  -0.1570 
  2 C       -1.9220    -3.9350     1.7420 C.2   1 <1>   0.2420 
  3 C        0.3390    -4.2480     0.6570 C.2   1 <1>  -0.0490 
  4 N       -3.0650    -3.8230     2.3340 N.2   1 <1>  -0.5650 
  5 N       -1.8180    -3.4290     0.4990 N.pl3 1 <1>   0.3340 
  6 C       -0.5600    -3.6130    -0.1120 C.2   1 <1>  -0.1810 
  7 C       -3.7870    -3.1720     1.3900 C.2   1 <1>   0.0460 
  8 C       -3.0460    -2.9160     0.2810 C.2   1 <1>  -0.3020 
  9 C       -5.2420    -2.8290     1.6510 C.3   1 <1>   0.0820 
 10 C       -6.0320    -2.5320     0.3820 C.2   1 <1>   0.5690 
 11 O       -6.2300    -1.3660     0.1250 O.2   1 <1>  -0.5700 
 12 N       -6.5330    -3.5170    -0.4370 N.am  1 <1>  -0.6600 
 13 C       -6.2530    -4.9870    -0.2550 C.3   1 <1>   0.3640 
 14 C       -7.4450    -3.1150    -1.5550 C.3   1 <1>   0.1400 
 15 C       -4.8780    -5.3410    -0.8260 C.ar  1 <1>  -0.1430 
 16 C       -7.3280    -5.9530    -0.8460 C.3   1 <1>   0.2000 
 17 C       -8.0090    -4.2970    -2.3520 C.3   1 <1>   0.1200 
 18 C       -4.0490    -6.1820    -0.0980 C.ar  1 <1>  -0.1500 
 19 C       -4.4260    -4.8460    -2.0400 C.ar  1 <1>  -0.1500 
 20 O       -8.3990    -5.3010    -1.4740 O.3   1 <1>  -0.5600 
 21 C       -7.9340    -6.8650     0.2300 C.3   1 <1>   0.1200 
 22 C       -2.7760    -6.5260    -0.5490 C.ar  1 <1>   0.0830 
 23 C       -3.1710    -5.1840    -2.5070 C.ar  1 <1>  -0.1500 
 24 O       -6.9480    -7.6540     0.8150 O.3   1 <1>  -0.6800 
 25 O       -1.9620    -7.3230     0.2030 O.3   1 <1>  -0.3630 
 26 C       -2.3340    -6.0170    -1.7830 C.ar  1 <1>   0.0830 
 27 C       -2.2660    -7.6560     1.5420 C.3   1 <1>   0.0400 
 28 O       -1.1230    -6.2400    -2.3720 O.3   1 <1>  -0.3630 
 29 C       -0.2870    -7.3150    -2.0080 C.3   1 <1>   0.0400 
 30 H        1.3610    -4.5430     0.4970 H     1 <1>   0.1500 
 31 H       -0.4330    -3.2500    -1.1150 H     1 <1>   0.1500 
 32 H       -3.3130    -2.4230    -0.6360 H     1 <1>   0.1500 
 33 H       -5.2710    -1.9630     2.2850 H     1 <1>   0.0800 
 34 H       -5.7100    -3.6270     2.1920 H     1 <1>   0.0800 
 35 H       -6.2130    -5.1800     0.8010 H     1 <1>   0.0800 
 36 H       -8.2690    -2.5610    -1.1380 H     1 <1>   0.0800 
 37 H       -6.9190    -2.4520    -2.2210 H     1 <1>   0.0800 
 38 H       -6.8700    -6.5780    -1.5930 H     1 <1>   0.0800 
 39 H       -7.2830    -4.6910    -3.0400 H     1 <1>   0.0800 
 40 H       -8.8760    -3.9850    -2.9080 H     1 <1>   0.0800 
 41 H       -4.4120    -6.5570     0.8400 H     1 <1>   0.1500 
 42 H       -5.0390    -4.1860    -2.6260 H     1 <1>   0.1500 
 43 H       -8.6760    -7.5150    -0.2000 H     1 <1>   0.0800 
 44 H       -8.3850    -6.2700     1.0060 H     1 <1>   0.0800 
 45 H       -2.8260    -4.7960    -3.4490 H     1 <1>   0.1500 
 46 H       -6.6720    -8.3720     0.2080 H     1 <1>   0.4000 
 47 H       -1.4170    -8.1630     1.9620 H     1 <1>   0.0800 
 48 H       -3.1230    -8.3050     1.5560 H     1 <1>   0.0800 
 49 H       -2.4600    -6.7540     2.0960 H     1 <1>   0.0800 
 50 H        0.4860    -7.4060    -2.7490 H     1 <1>   0.0800 
 51 H       -0.8710    -8.2170    -1.9730 H     1 <1>   0.0800 
 52 H        0.1510    -7.1050    -1.0480 H     1 <1>   0.0800 
@<TRIPOS>BOND
  1   1   2  1   
  2   1   3  1   
  3   2   4  2   
  4   2   5  1   
  5   3   6  2   
  6   3  30  1   
  7   4   7  1   
  8   5   6  1   
  9   5   8  1   
 10   6  31  1   
 11   7   8  2   
 12   7   9  1   
 13   8  32  1   
 14   9  10  1   
 15   9  33  1   
 16   9  34  1   
 17  10  11  2   
 18  10  12  am  
 19  12  13  1   
 20  12  14  1   
 21  13  15  1   
 22  13  16  1   
 23  13  35  1   
 24  14  17  1   
 25  14  36  1   
 26  14  37  1   
 27  15  18  ar  
 28  15  19  ar  
 29  16  20  1   
 30  16  21  1   
 31  16  38  1   
 32  17  20  1   
 33  17  39  1   
 34  17  40  1   
 35  18  22  ar  
 36  18  41  1   
 37  19  23  ar  
 38  19  42  1   
 39  21  24  1   
 40  21  43  1   
 41  21  44  1   
 42  22  25  1   
 43  22  26  ar  
 44  23  26  ar  
 45  23  45  1   
 46  24  46  1   
 47  25  27  1   
 48  26  28  1   
 49  27  47  1   
 50  27  48  1   
 51  27  49  1   
 52  28  29  1   
 53  29  50  1   
 54  29  51  1   
 55  29  52  1   
@<TRIPOS>SUBSTRUCTURE
  1 ****  15 GROUP 4 **** **** 0

# MOE 2024.06 (io_trps.svl 2023.06)
