@<TRIPOS>MOLECULE
NONAME
44 47 1 0 0 
SMALL
USER_CHARGES


@<TRIPOS>ATOM
  1 O       -2.0570     0.3170    -2.4330 O.2   1 <1>  -0.5700 
  2 C       -2.2490     1.4760    -2.0880 C.2   1 <1>   0.7160 
  3 N       -3.4520     2.0640    -2.4440 N.am  1 <1>  -0.6600 
  4 C       -1.2550     2.1660    -1.2740 C.2   1 <1>   0.2030 
  5 C       -4.5400     1.2630    -3.0750 C.3   1 <1>   0.1400 
  6 C       -3.8850     3.3730    -1.8920 C.3   1 <1>   0.1400 
  7 N       -0.6300     3.3060    -1.5500 N.2   1 <1>  -0.7070 
  8 C       -0.8270     1.6990    -0.0250 C.2   1 <1>  -0.1810 
  9 C       -5.2150     0.3020    -2.0760 C.3   1 <1>   0.1400 
 10 C       -4.5410     3.1980    -0.5170 C.3   1 <1>  -0.1600 
 11 N        0.1840     3.5390    -0.5010 N.pl3 1 <1>   0.3000 
 12 C        0.0610     2.5730     0.4240 C.2   1 <1>  -0.3320 
 13 C       -1.0540     0.5670     0.9360 C.3   1 <1>   0.0210 
 14 N       -5.2740     0.8220    -0.6680 N.am  1 <1>  -0.6600 
 15 C       -5.7320     2.2310    -0.5000 C.3   1 <1>   0.1400 
 16 C        0.6350     2.2350     1.7690 C.3   1 <1>   0.0200 
 17 C       -0.1620     0.9600     2.1420 C.3   1 <1>  -0.1600 
 18 C       -4.9240     0.0580     0.4340 C.2   1 <1>   0.7150 
 19 O       -4.9300     0.5870     1.5330 O.2   1 <1>  -0.5700 
 20 C       -4.5510    -1.3360     0.3270 C.2   1 <1>   0.0550 
 21 O       -5.3170    -2.2830     0.8650 O.3   1 <1>  -0.2800 
 22 C       -3.4770    -1.9400    -0.2580 C.2   1 <1>  -0.1500 
 23 C       -4.7670    -3.4550     0.6420 C.2   1 <1>  -0.0100 
 24 C       -3.6200    -3.3130    -0.0540 C.2   1 <1>  -0.1500 
 25 H       -4.1340     0.6930    -3.8930 H     1 <1>   0.0800 
 26 H       -5.2800     1.9250    -3.4870 H     1 <1>   0.0800 
 27 H       -4.5810     3.8320    -2.5720 H     1 <1>   0.0800 
 28 H       -3.0430     4.0380    -1.8090 H     1 <1>   0.0800 
 29 H       -4.6720    -0.6230    -2.1090 H     1 <1>   0.0800 
 30 H       -6.2140     0.0900    -2.4140 H     1 <1>   0.0800 
 31 H       -4.8880     4.1630    -0.1950 H     1 <1>   0.0800 
 32 H       -3.8060     2.8770     0.2000 H     1 <1>   0.0800 
 33 H        0.8030     4.3560    -0.4470 H     1 <1>   0.2700 
 34 H       -0.7350    -0.3620     0.4980 H     1 <1>   0.0800 
 35 H       -2.0900     0.5080     1.2200 H     1 <1>   0.0800 
 36 H       -6.4340     2.4850    -1.2750 H     1 <1>   0.0800 
 37 H       -6.2460     2.3260     0.4420 H     1 <1>   0.0800 
 38 H        0.4620     3.0260     2.4780 H     1 <1>   0.0800 
 39 H        1.6880     2.0260     1.6900 H     1 <1>   0.0800 
 40 H        0.5060     0.1550     2.3930 H     1 <1>   0.0800 
 41 H       -0.7880     1.1650     2.9930 H     1 <1>   0.0800 
 42 H       -2.6630    -1.4740    -0.7830 H     1 <1>   0.1500 
 43 H       -5.2560    -4.3390     1.0120 H     1 <1>   0.1500 
 44 H       -2.9380    -4.0730    -0.3930 H     1 <1>   0.1500 
@<TRIPOS>BOND
  1   1   2  2   
  2   2   3  am  
  3   2   4  1   
  4   3   5  1   
  5   3   6  1   
  6   4   7  2   
  7   4   8  1   
  8   5   9  1   
  9   5  25  1   
 10   5  26  1   
 11   6  10  1   
 12   6  27  1   
 13   6  28  1   
 14   7  11  1   
 15   8  12  2   
 16   8  13  1   
 17   9  14  1   
 18   9  29  1   
 19   9  30  1   
 20  10  15  1   
 21  10  31  1   
 22  10  32  1   
 23  11  12  1   
 24  11  33  1   
 25  12  16  1   
 26  13  17  1   
 27  13  34  1   
 28  13  35  1   
 29  14  15  1   
 30  14  18  am  
 31  15  36  1   
 32  15  37  1   
 33  16  17  1   
 34  16  38  1   
 35  16  39  1   
 36  17  40  1   
 37  17  41  1   
 38  18  19  2   
 39  18  20  1   
 40  20  21  1   
 41  20  22  2   
 42  21  23  1   
 43  22  24  1   
 44  22  42  1   
 45  23  24  2   
 46  23  43  1   
 47  24  44  1   
@<TRIPOS>SUBSTRUCTURE
  1 ****   2 GROUP 4 **** **** 0

# MOE 2024.06 (io_trps.svl 2023.06)
