@<TRIPOS>MOLECULE
NONAME
55 58 1 0 0 
SMALL
USER_CHARGES


@<TRIPOS>ATOM
  1 O        2.1740    -0.4510     2.4220 O.2   1 <1>  -0.5700 
  2 C        2.3320    -0.9170     1.3100 C.2   1 <1>   0.5440 
  3 N        2.8560    -0.0850     0.3350 N.am  1 <1>  -0.6600 
  4 C        2.0120    -2.3050     1.0530 C.ar  1 <1>   0.0860 
  5 C        2.7790     1.4020     0.5060 C.3   1 <1>   0.1400 
  6 C        3.6030    -0.6110    -0.8390 C.3   1 <1>   0.1400 
  7 C        1.2600    -2.6910    -0.0580 C.ar  1 <1>  -0.1500 
  8 C        2.4540    -3.3160     1.9080 C.ar  1 <1>  -0.1500 
  9 C        4.1300     2.0650     0.8650 C.3   1 <1>   0.4230 
 10 C        5.0330    -0.0550    -0.9450 C.3   1 <1>  -0.0800 
 11 C        0.9950    -4.0200    -0.3190 C.ar  1 <1>  -0.1500 
 12 C        2.1870    -4.6460     1.6480 C.ar  1 <1>  -0.1500 
 13 N        4.9640     2.4290    -0.3360 N.4   1 <1>  -0.9590 
 14 C        5.0190     1.2160     1.8110 C.3   1 <1>   0.1200 
 15 C        5.9140    -0.3810     0.2900 C.3   1 <1>   0.1200 
 16 C        5.0260     1.4080    -1.4270 C.3   1 <1>   0.3430 
 17 C        1.4590    -5.0220     0.5240 C.ar  1 <1>   0.1000 
 18 C        4.7090     3.8070    -0.8470 C.3   1 <1>   0.2630 
 19 O        6.1440     0.7210     1.1230 O.3   1 <1>  -0.5600 
 20 N        1.1870    -6.3510     0.2370 N.pl3 1 <1>  -0.8380 
 21 C       -0.2210    -6.8220     0.2110 C.3   1 <1>   0.2090 
 22 C        2.1960    -7.4150     0.4760 C.3   1 <1>   0.2090 
 23 C       -0.3770    -7.8920    -0.8730 C.3   1 <1>  -0.1600 
 24 C        2.0580    -8.4930    -0.6040 C.3   1 <1>  -0.1600 
 25 C        0.6250    -9.0410    -0.6840 C.3   1 <1>  -0.1600 
 26 H        2.3740     1.8480    -0.3840 H     1 <1>   0.0800 
 27 H        2.0860     1.6260     1.2990 H     1 <1>   0.0800 
 28 H        3.6710    -1.6840    -0.7740 H     1 <1>   0.0800 
 29 H        3.0480    -0.3830    -1.7340 H     1 <1>   0.0800 
 30 H        0.8790    -1.9370    -0.7230 H     1 <1>   0.1500 
 31 H        3.0110    -3.0450     2.7880 H     1 <1>   0.1500 
 32 H        3.8900     2.9710     1.3950 H     1 <1>   0.0800 
 33 H        5.4610    -0.6160    -1.7560 H     1 <1>   0.0800 
 34 H        0.4260    -4.3040    -1.1860 H     1 <1>   0.1500 
 35 H        2.5340    -5.4030     2.3250 H     1 <1>   0.1500 
 36 H        5.9170     2.3790     0.0750 H     1 <1>   0.4500 
 37 H        4.4930     0.4050     2.2800 H     1 <1>   0.0800 
 38 H        5.3880     1.8490     2.5980 H     1 <1>   0.0800 
 39 H        6.8840    -0.7110    -0.0440 H     1 <1>   0.0800 
 40 H        5.4870    -1.1750     0.8800 H     1 <1>   0.0800 
 41 H        4.1900     1.5440    -2.0940 H     1 <1>   0.0800 
 42 H        5.9240     1.5790    -1.9980 H     1 <1>   0.0800 
 43 H        3.7170     3.8750    -1.2630 H     1 <1>   0.0800 
 44 H        5.4240     4.0590    -1.6140 H     1 <1>   0.0800 
 45 H        4.8000     4.5250    -0.0480 H     1 <1>   0.0800 
 46 H       -0.4710    -7.2340     1.1740 H     1 <1>   0.0800 
 47 H       -0.8850    -5.9970     0.0150 H     1 <1>   0.0800 
 48 H        3.1860    -6.9920     0.4430 H     1 <1>   0.0800 
 49 H        2.0360    -7.8440     1.4500 H     1 <1>   0.0800 
 50 H       -1.3800    -8.2780    -0.8510 H     1 <1>   0.0800 
 51 H       -0.2220    -7.4310    -1.8330 H     1 <1>   0.0800 
 52 H        2.3340    -8.0630    -1.5500 H     1 <1>   0.0800 
 53 H        2.7430    -9.2960    -0.3940 H     1 <1>   0.0800 
 54 H        0.5450    -9.7330    -1.5050 H     1 <1>   0.0800 
 55 H        0.3940    -9.5710     0.2240 H     1 <1>   0.0800 
@<TRIPOS>BOND
  1   1   2  2   
  2   2   3  am  
  3   2   4  1   
  4   3   5  1   
  5   3   6  1   
  6   4   7  ar  
  7   4   8  ar  
  8   5   9  1   
  9   5  26  1   
 10   5  27  1   
 11   6  10  1   
 12   6  28  1   
 13   6  29  1   
 14   7  11  ar  
 15   7  30  1   
 16   8  12  ar  
 17   8  31  1   
 18   9  13  1   
 19   9  14  1   
 20   9  32  1   
 21  10  15  1   
 22  10  16  1   
 23  10  33  1   
 24  11  17  ar  
 25  11  34  1   
 26  12  17  ar  
 27  12  35  1   
 28  13  16  1   
 29  13  18  1   
 30  13  36  1   
 31  14  19  1   
 32  14  37  1   
 33  14  38  1   
 34  15  19  1   
 35  15  39  1   
 36  15  40  1   
 37  16  41  1   
 38  16  42  1   
 39  17  20  1   
 40  18  43  1   
 41  18  44  1   
 42  18  45  1   
 43  20  21  1   
 44  20  22  1   
 45  21  23  1   
 46  21  46  1   
 47  21  47  1   
 48  22  24  1   
 49  22  48  1   
 50  22  49  1   
 51  23  25  1   
 52  23  50  1   
 53  23  51  1   
 54  24  25  1   
 55  24  52  1   
 56  24  53  1   
 57  25  54  1   
 58  25  55  1   
@<TRIPOS>SUBSTRUCTURE
  1 ****   4 GROUP 4 **** **** 0

# MOE 2024.06 (io_trps.svl 2023.06)
