@<TRIPOS>MOLECULE
NONAME
44 46 1 0 0 
SMALL
USER_CHARGES


@<TRIPOS>ATOM
  1 S       -0.1110    -0.2090    -1.0420 S.3   1 <1>  -0.0800 
  2 C       -1.6090     0.6820    -0.7780 C.2   1 <1>   0.4620 
  3 C        0.7880     1.1350    -0.3990 C.2   1 <1>  -0.1100 
  4 N       -1.4200     1.8420    -0.2620 N.2   1 <1>  -0.5650 
  5 N       -2.8250     0.1120    -1.1060 N.pl3 1 <1>  -0.8220 
  6 C       -0.0770     2.1010    -0.0490 C.2   1 <1>   0.0460 
  7 C       -3.0300    -1.3440    -1.3120 C.3   1 <1>   0.2090 
  8 C       -4.0770     0.9090    -0.9810 C.3   1 <1>   0.2090 
  9 C        0.2750     3.4540     0.5550 C.3   1 <1>   0.3010 
 10 C       -3.8620    -1.9210    -0.1380 C.3   1 <1>   0.4230 
 11 C       -4.8790     0.3590     0.2010 C.3   1 <1>  -0.1600 
 12 O        1.5560     3.4260     1.0910 O.3   1 <1>  -0.6800 
 13 N       -4.0130    -3.4410    -0.1670 N.4   1 <1>  -0.9590 
 14 C       -5.2040    -1.1570     0.0770 C.3   1 <1>   0.0000 
 15 C       -5.1190    -3.9610     0.7020 C.3   1 <1>   0.3430 
 16 C       -4.1150    -4.0520    -1.5340 C.3   1 <1>   0.2630 
 17 C       -5.8590    -1.6320     1.4070 C.3   1 <1>  -0.1600 
 18 C       -6.1620    -1.4080    -1.1230 C.3   1 <1>   0.1200 
 19 C       -5.3840    -3.0200     1.8750 C.3   1 <1>  -0.1600 
 20 O       -7.2710    -0.5810    -1.0760 O.3   1 <1>  -0.6800 
 21 H        1.8590     1.0610    -0.3580 H     1 <1>   0.1500 
 22 H       -3.5350    -1.4820    -2.2510 H     1 <1>   0.0800 
 23 H       -2.0890    -1.8570    -1.3600 H     1 <1>   0.0800 
 24 H       -3.8530     1.9510    -0.8160 H     1 <1>   0.0800 
 25 H       -4.6440     0.8430    -1.8940 H     1 <1>   0.0800 
 26 H       -0.4120     3.6960     1.3470 H     1 <1>   0.0800 
 27 H        0.2350     4.2220    -0.1960 H     1 <1>   0.0800 
 28 H       -3.2780    -1.6970     0.7390 H     1 <1>   0.0800 
 29 H       -4.2970     0.5430     1.0880 H     1 <1>   0.0800 
 30 H       -5.7810     0.9370     0.3020 H     1 <1>   0.0800 
 31 H        1.6070     2.7190     1.7620 H     1 <1>   0.4000 
 32 H       -3.1410    -3.7950     0.2520 H     1 <1>   0.4500 
 33 H       -6.0260    -4.0490     0.1260 H     1 <1>   0.0800 
 34 H       -4.8650    -4.9430     1.0710 H     1 <1>   0.0800 
 35 H       -4.9910    -3.6910    -2.0470 H     1 <1>   0.0800 
 36 H       -4.1810    -5.1260    -1.4580 H     1 <1>   0.0800 
 37 H       -3.2450    -3.8110    -2.1240 H     1 <1>   0.0800 
 38 H       -5.6470    -0.9370     2.2030 H     1 <1>   0.0800 
 39 H       -6.9310    -1.6460     1.3060 H     1 <1>   0.0800 
 40 H       -6.5200    -2.4220    -1.1370 H     1 <1>   0.0800 
 41 H       -5.6770    -1.2070    -2.0610 H     1 <1>   0.0800 
 42 H       -6.1350    -3.4520     2.5140 H     1 <1>   0.0800 
 43 H       -4.4870    -2.9280     2.4640 H     1 <1>   0.0800 
 44 H       -7.8000    -0.7140    -0.2640 H     1 <1>   0.4000 
@<TRIPOS>BOND
  1   1   2  1   
  2   1   3  1   
  3   2   4  2   
  4   2   5  1   
  5   3   6  2   
  6   3  21  1   
  7   4   6  1   
  8   5   7  1   
  9   5   8  1   
 10   6   9  1   
 11   7  10  1   
 12   7  22  1   
 13   7  23  1   
 14   8  11  1   
 15   8  24  1   
 16   8  25  1   
 17   9  12  1   
 18   9  26  1   
 19   9  27  1   
 20  10  13  1   
 21  10  14  1   
 22  10  28  1   
 23  11  14  1   
 24  11  29  1   
 25  11  30  1   
 26  12  31  1   
 27  13  15  1   
 28  13  16  1   
 29  13  32  1   
 30  14  17  1   
 31  14  18  1   
 32  15  19  1   
 33  15  33  1   
 34  15  34  1   
 35  16  35  1   
 36  16  36  1   
 37  16  37  1   
 38  17  19  1   
 39  17  38  1   
 40  17  39  1   
 41  18  20  1   
 42  18  40  1   
 43  18  41  1   
 44  19  42  1   
 45  19  43  1   
 46  20  44  1   
@<TRIPOS>SUBSTRUCTURE
  1 ****   5 GROUP 4 **** **** 0

# MOE 2024.06 (io_trps.svl 2023.06)
