@<TRIPOS>MOLECULE
NONAME
43 45 1 0 0 
SMALL
USER_CHARGES


@<TRIPOS>ATOM
  1 O       -0.3310     0.2010     0.5900 O.2   1 <1>  -0.5700 
  2 C       -1.3550     0.8320     0.4160 C.2   1 <1>   0.5440 
  3 N       -2.5330     0.1440     0.2350 N.am  1 <1>  -0.6600 
  4 C       -1.3040     2.2750     0.3930 C.ar  1 <1>   0.0860 
  5 C       -3.7960     0.7110    -0.3140 C.3   1 <1>   0.1400 
  6 C       -2.5820    -1.3420     0.1740 C.3   1 <1>   0.1400 
  7 C       -2.1190     3.0390     1.2230 C.ar  1 <1>   0.1600 
  8 C       -0.4400     2.9640    -0.4480 C.ar  1 <1>  -0.1500 
  9 C       -4.7940    -0.4430    -0.2400 C.3   1 <1>   0.2000 
 10 C       -3.9240    -1.6780    -0.4850 C.3   1 <1>  -0.0800 
 11 N       -2.1700     4.3590     1.2590 N.ar  1 <1>  -0.6200 
 12 C       -0.4660     4.3400    -0.4210 C.ar  1 <1>  -0.1500 
 13 O       -5.3040    -0.4830     1.0490 O.3   1 <1>  -0.6800 
 14 C       -4.5250    -3.0180    -0.0250 C.3   1 <1>   0.0210 
 15 C       -1.3450     4.9960     0.4400 C.ar  1 <1>   0.3930 
 16 C       -3.5690    -4.1600    -0.3070 C.2   1 <1>   0.1080 
 17 O       -1.4240     6.3370     0.5080 O.3   1 <1>  -0.3630 
 18 N       -3.1750    -4.4690    -1.5040 N.2   1 <1>  -0.7070 
 19 C       -3.0030    -4.9820     0.6610 C.2   1 <1>  -0.1500 
 20 C       -0.5900     7.2030    -0.2300 C.3   1 <1>   0.0400 
 21 N       -2.3390    -5.5090    -1.3290 N.pl3 1 <1>   0.3000 
 22 C       -2.2160    -5.8370    -0.0250 C.2   1 <1>  -0.3320 
 23 C       -1.3410    -6.9640     0.4910 C.3   1 <1>  -0.0600 
 24 H       -4.1450     1.5630     0.2420 H     1 <1>   0.0800 
 25 H       -3.6360     0.9910    -1.3410 H     1 <1>   0.0800 
 26 H       -1.7590    -1.7340    -0.4020 H     1 <1>   0.0800 
 27 H       -2.5310    -1.7370     1.1740 H     1 <1>   0.0800 
 28 H       -2.7710     2.5160     1.9010 H     1 <1>   0.1500 
 29 H        0.2280     2.4210    -1.0950 H     1 <1>   0.1500 
 30 H       -5.6110    -0.3470    -0.9340 H     1 <1>   0.0800 
 31 H       -3.7460    -1.7450    -1.5450 H     1 <1>   0.0800 
 32 H        0.1940     4.8880    -1.0640 H     1 <1>   0.1500 
 33 H       -4.5560    -0.4500     1.6790 H     1 <1>   0.4000 
 34 H       -5.4440    -3.2010    -0.5530 H     1 <1>   0.0800 
 35 H       -4.7440    -2.9970     1.0270 H     1 <1>   0.0800 
 36 H       -3.1720    -4.9260     1.7210 H     1 <1>   0.1500 
 37 H       -0.8470     8.2140     0.0320 H     1 <1>   0.0800 
 38 H       -0.7610     7.0440    -1.2800 H     1 <1>   0.0800 
 39 H        0.4350     7.0080     0.0310 H     1 <1>   0.0800 
 40 H       -1.8680    -5.9690    -2.1170 H     1 <1>   0.2700 
 41 H       -1.4130    -7.0260     1.5620 H     1 <1>   0.0800 
 42 H       -0.3140    -6.7890     0.2260 H     1 <1>   0.0800 
 43 H       -1.6570    -7.9030     0.0720 H     1 <1>   0.0800 
@<TRIPOS>BOND
  1   1   2  2   
  2   2   3  am  
  3   2   4  1   
  4   3   5  1   
  5   3   6  1   
  6   4   7  ar  
  7   4   8  ar  
  8   5   9  1   
  9   5  24  1   
 10   5  25  1   
 11   6  10  1   
 12   6  26  1   
 13   6  27  1   
 14   7  11  ar  
 15   7  28  1   
 16   8  12  ar  
 17   8  29  1   
 18   9  10  1   
 19   9  13  1   
 20   9  30  1   
 21  10  14  1   
 22  10  31  1   
 23  11  15  ar  
 24  12  15  ar  
 25  12  32  1   
 26  13  33  1   
 27  14  16  1   
 28  14  34  1   
 29  14  35  1   
 30  15  17  1   
 31  16  18  2   
 32  16  19  1   
 33  17  20  1   
 34  18  21  1   
 35  19  22  2   
 36  19  36  1   
 37  20  37  1   
 38  20  38  1   
 39  20  39  1   
 40  21  22  1   
 41  21  40  1   
 42  22  23  1   
 43  23  41  1   
 44  23  42  1   
 45  23  43  1   
@<TRIPOS>SUBSTRUCTURE
  1 ****   3 GROUP 4 **** **** 0

# MOE 2024.06 (io_trps.svl 2023.06)
