@<TRIPOS>MOLECULE
NONAME
50 52 1 0 0 
SMALL
USER_CHARGES


@<TRIPOS>ATOM
  1 O        0.5120     0.0860     1.6440 O.2   1 <1>  -0.5700 
  2 C        1.2540    -0.4230     0.8300 C.2   1 <1>   0.5690 
  3 N        2.1820     0.3410     0.1620 N.am  1 <1>  -0.6600 
  4 C        1.1350    -1.9460     0.5670 C.3   1 <1>   0.2810 
  5 C        3.2390    -0.1780    -0.7710 C.3   1 <1>   0.1400 
  6 C        2.3300     1.8120     0.4300 C.3   1 <1>   0.1400 
  7 N        2.2880    -2.6990     1.1510 N.am  1 <1>  -0.7300 
  8 C       -0.1730    -2.5720     1.0860 C.3   1 <1>   0.0200 
  9 C        4.6500     0.1840    -0.2760 C.3   1 <1>   0.2090 
 10 C        3.7520     2.1560     0.9040 C.3   1 <1>   0.2090 
 11 C        2.9990    -3.7110     0.6110 C.2   1 <1>   0.5690 
 12 C       -1.3890    -2.0820     0.3120 C.2   1 <1>  -0.3320 
 13 N        4.7740     1.6530    -0.0570 N.pl3 1 <1>  -0.8380 
 14 O        3.9780    -4.1200     1.1730 O.2   1 <1>  -0.5700 
 15 C        2.5910    -4.3380    -0.6990 C.3   1 <1>  -0.1790 
 16 N       -1.8770    -0.8320     0.4200 N.pl3 1 <1>   0.0330 
 17 C       -2.1880    -2.7240    -0.5700 C.2   1 <1>   0.0770 
 18 C        6.0570     2.1130     0.1600 C.ar  1 <1>   0.4100 
 19 C       -2.9370    -0.7920    -0.4130 C.2   1 <1>   0.0360 
 20 N       -3.1560    -1.9080    -1.0280 N.2   1 <1>  -0.5650 
 21 N        6.6600     1.6450     1.2460 N.ar  1 <1>  -0.6200 
 22 C        6.6480     3.0190    -0.7300 C.ar  1 <1>  -0.1440 
 23 C        7.8880     2.0850     1.4580 C.ar  1 <1>   0.1600 
 24 C        7.9280     3.4620    -0.4850 C.ar  1 <1>  -0.1500 
 25 C        5.8940     3.5150    -1.9570 C.3   1 <1>  -0.0970 
 26 C        8.5590     2.9760     0.6420 C.ar  1 <1>  -0.1500 
 27 H        1.1400    -2.0790    -0.5000 H     1 <1>   0.0800 
 28 H        3.1780    -1.2420    -0.8830 H     1 <1>   0.0800 
 29 H        3.0950     0.2630    -1.7420 H     1 <1>   0.0800 
 30 H        2.1250     2.3560    -0.4740 H     1 <1>   0.0800 
 31 H        1.6280     2.1390     1.1760 H     1 <1>   0.0800 
 32 H        2.6290    -2.3480     2.0500 H     1 <1>   0.3700 
 33 H       -0.2980    -2.3550     2.1330 H     1 <1>   0.0800 
 34 H       -0.1170    -3.6400     0.9770 H     1 <1>   0.0800 
 35 H        5.3810    -0.1290    -1.0010 H     1 <1>   0.0800 
 36 H        4.8540    -0.3370     0.6450 H     1 <1>   0.0800 
 37 H        3.9240     1.7170     1.8730 H     1 <1>   0.0800 
 38 H        3.8510     3.2240     1.0020 H     1 <1>   0.0800 
 39 H        1.5590    -4.6320    -0.6640 H     1 <1>   0.0800 
 40 H        3.1900    -5.2110    -0.8800 H     1 <1>   0.0800 
 41 H        2.7440    -3.6430    -1.5030 H     1 <1>   0.0800 
 42 H       -1.4920    -0.0770     1.0050 H     1 <1>   0.2700 
 43 H       -2.1200    -3.7450    -0.9090 H     1 <1>   0.1500 
 44 H       -3.5300     0.0970    -0.5390 H     1 <1>   0.1500 
 45 H        8.3880     1.7120     2.3350 H     1 <1>   0.1500 
 46 H        8.4260     4.1570    -1.1380 H     1 <1>   0.1500 
 47 H        6.4900     4.2000    -2.5300 H     1 <1>   0.0800 
 48 H        4.9920     4.0130    -1.6510 H     1 <1>   0.0800 
 49 H        5.6310     2.6800    -2.5800 H     1 <1>   0.0800 
 50 H        9.5590     3.2860     0.8850 H     1 <1>   0.1500 
@<TRIPOS>BOND
  1   1   2  2   
  2   2   3  am  
  3   2   4  1   
  4   3   5  1   
  5   3   6  1   
  6   4   7  1   
  7   4   8  1   
  8   4  27  1   
  9   5   9  1   
 10   5  28  1   
 11   5  29  1   
 12   6  10  1   
 13   6  30  1   
 14   6  31  1   
 15   7  11  am  
 16   7  32  1   
 17   8  12  1   
 18   8  33  1   
 19   8  34  1   
 20   9  13  1   
 21   9  35  1   
 22   9  36  1   
 23  10  13  1   
 24  10  37  1   
 25  10  38  1   
 26  11  14  2   
 27  11  15  1   
 28  12  16  1   
 29  12  17  2   
 30  13  18  1   
 31  15  39  1   
 32  15  40  1   
 33  15  41  1   
 34  16  19  1   
 35  16  42  1   
 36  17  20  1   
 37  17  43  1   
 38  18  21  ar  
 39  18  22  ar  
 40  19  20  2   
 41  19  44  1   
 42  21  23  ar  
 43  22  24  ar  
 44  22  25  1   
 45  23  26  ar  
 46  23  45  1   
 47  24  26  ar  
 48  24  46  1   
 49  25  47  1   
 50  25  48  1   
 51  25  49  1   
 52  26  50  1   
@<TRIPOS>SUBSTRUCTURE
  1 ****   3 GROUP 4 **** **** 0

# MOE 2024.06 (io_trps.svl 2023.06)
