@<TRIPOS>MOLECULE
NONAME
54 56 1 0 0 
SMALL
USER_CHARGES


@<TRIPOS>ATOM
  1 F       -1.3850    -1.0530     0.8020 F     1 <1>  -0.1900 
  2 C       -2.5300    -0.4260     0.7050 C.ar  1 <1>   0.1900 
  3 C       -2.6430     0.9520     0.9150 C.ar  1 <1>   0.0830 
  4 C       -3.6280    -1.2000     0.3840 C.ar  1 <1>  -0.1500 
  5 O       -1.6390     1.8190     1.2340 O.3   1 <1>  -0.3630 
  6 C       -3.9000     1.5190     0.7910 C.ar  1 <1>  -0.1500 
  7 C       -4.8690    -0.6020     0.2700 C.ar  1 <1>  -0.1500 
  8 C       -0.2890     1.4260     1.3480 C.3   1 <1>   0.0400 
  9 C       -5.0360     0.7720     0.4680 C.ar  1 <1>   0.0530 
 10 C       -6.3270     1.4090     0.3520 C.2   1 <1>   0.0870 
 11 O       -6.5580     2.5470     0.9570 O.3   1 <1>  -0.0190 
 12 C       -7.4770     1.0700    -0.2900 C.2   1 <1>  -0.0860 
 13 N       -7.7720     2.9920     0.7670 N.2   1 <1>  -0.4100 
 14 C       -8.3460     2.1240     0.0090 C.2   1 <1>   0.3720 
 15 C       -7.7780    -0.0660    -1.1010 C.2   1 <1>   0.7160 
 16 N       -9.6700     2.2340    -0.4450 N.pl3 1 <1>  -0.8210 
 17 O       -7.1550    -0.2250    -2.1360 O.2   1 <1>  -0.5700 
 18 N       -8.7190    -1.0110    -0.7360 N.am  1 <1>  -0.6600 
 19 C       -9.7900     2.4800    -1.9080 C.3   1 <1>   0.1290 
 20 C      -10.5460     3.1450     0.3450 C.3   1 <1>   0.1290 
 21 C       -9.0800    -2.1520    -1.6210 C.3   1 <1>   0.1400 
 22 C       -9.5300    -0.9230     0.5090 C.3   1 <1>   0.1400 
 23 C       -8.9570    -3.4680    -0.8480 C.3   1 <1>  -0.1600 
 24 C       -9.4120    -2.2310     1.2950 C.3   1 <1>  -0.1600 
 25 C       -9.7960    -3.4540     0.4440 C.3   1 <1>  -0.0800 
 26 C       -9.6200    -4.7430     1.2690 C.3   1 <1>  -0.1600 
 27 C      -10.1360    -5.9870     0.5430 C.3   1 <1>   0.1200 
 28 O      -10.0560    -7.0590     1.4100 O.3   1 <1>  -0.6800 
 29 H       -3.5100    -2.2570     0.2270 H     1 <1>   0.1500 
 30 H       -3.9940     2.5790     0.9490 H     1 <1>   0.1500 
 31 H       -5.7150    -1.2170     0.0240 H     1 <1>   0.1500 
 32 H        0.2950     2.2990     1.5760 H     1 <1>   0.0800 
 33 H        0.0340     1.0070     0.4110 H     1 <1>   0.0800 
 34 H       -0.1990     0.7090     2.1440 H     1 <1>   0.0800 
 35 H       -9.1720     1.7930    -2.4600 H     1 <1>   0.0800 
 36 H       -9.4800     3.4850    -2.1380 H     1 <1>   0.0800 
 37 H      -10.8110     2.3440    -2.2200 H     1 <1>   0.0800 
 38 H      -10.4470     2.9270     1.3940 H     1 <1>   0.0800 
 39 H      -11.5740     3.0050     0.0590 H     1 <1>   0.0800 
 40 H      -10.2640     4.1700     0.1740 H     1 <1>   0.0800 
 41 H       -8.4410    -2.1850    -2.4870 H     1 <1>   0.0800 
 42 H      -10.0920    -2.0200    -1.9620 H     1 <1>   0.0800 
 43 H      -10.5580    -0.7420     0.2430 H     1 <1>   0.0800 
 44 H       -9.2050    -0.1100     1.1330 H     1 <1>   0.0800 
 45 H       -7.9200    -3.6330    -0.6140 H     1 <1>   0.0800 
 46 H       -9.2800    -4.2650    -1.4930 H     1 <1>   0.0800 
 47 H      -10.0520    -2.1730     2.1580 H     1 <1>   0.0800 
 48 H       -8.3990    -2.3290     1.6470 H     1 <1>   0.0800 
 49 H      -10.8360    -3.3590     0.1760 H     1 <1>   0.0800 
 50 H      -10.1720    -4.6390     2.1880 H     1 <1>   0.0800 
 51 H       -8.5800    -4.8730     1.5110 H     1 <1>   0.0800 
 52 H       -9.5480    -6.2150    -0.3290 H     1 <1>   0.0800 
 53 H      -11.1690    -5.8690     0.2610 H     1 <1>   0.0800 
 54 H       -9.1340    -7.2030     1.6950 H     1 <1>   0.4000 
@<TRIPOS>BOND
  1   1   2  1   
  2   2   3  ar  
  3   2   4  ar  
  4   3   5  1   
  5   3   6  ar  
  6   4   7  ar  
  7   4  29  1   
  8   5   8  1   
  9   6   9  ar  
 10   6  30  1   
 11   7   9  ar  
 12   7  31  1   
 13   8  32  1   
 14   8  33  1   
 15   8  34  1   
 16   9  10  1   
 17  10  11  1   
 18  10  12  2   
 19  11  13  1   
 20  12  14  1   
 21  12  15  1   
 22  13  14  2   
 23  14  16  1   
 24  15  17  2   
 25  15  18  am  
 26  16  19  1   
 27  16  20  1   
 28  18  21  1   
 29  18  22  1   
 30  19  35  1   
 31  19  36  1   
 32  19  37  1   
 33  20  38  1   
 34  20  39  1   
 35  20  40  1   
 36  21  23  1   
 37  21  41  1   
 38  21  42  1   
 39  22  24  1   
 40  22  43  1   
 41  22  44  1   
 42  23  25  1   
 43  23  45  1   
 44  23  46  1   
 45  24  25  1   
 46  24  47  1   
 47  24  48  1   
 48  25  26  1   
 49  25  49  1   
 50  26  27  1   
 51  26  50  1   
 52  26  51  1   
 53  27  28  1   
 54  27  52  1   
 55  27  53  1   
 56  28  54  1   
@<TRIPOS>SUBSTRUCTURE
  1 ****  15 GROUP 4 **** **** 0

# MOE 2024.06 (io_trps.svl 2023.06)
