@<TRIPOS>MOLECULE
NONAME
54 57 1 0 0 
SMALL
USER_CHARGES


@<TRIPOS>ATOM
  1 O       -1.2550     1.5320    -2.0880 O.2   1 <1>  -0.5700 
  2 C       -1.8130     1.4610    -1.0100 C.2   1 <1>   0.7160 
  3 N       -2.6280     0.3700    -0.7660 N.am  1 <1>  -0.6600 
  4 C       -1.6110     2.4840    -0.0360 C.2   1 <1>  -0.0860 
  5 C       -2.8760    -0.6730    -1.8110 C.3   1 <1>   0.1400 
  6 C       -3.4240     0.2130     0.4940 C.3   1 <1>   0.1400 
  7 C       -2.5900     3.3620     0.4390 C.2   1 <1>   0.3720 
  8 C       -0.5140     2.7980     0.7000 C.2   1 <1>   0.0870 
  9 C       -2.7840    -2.0910    -1.2180 C.3   1 <1>   0.3430 
 10 C       -3.3390    -1.2250     1.0400 C.3   1 <1>   0.3430 
 11 N       -2.1240     4.0970     1.3870 N.2   1 <1>  -0.4100 
 12 N       -3.9160     3.4010    -0.0250 N.pl3 1 <1>  -0.8210 
 13 O       -0.8700     3.7510     1.5220 O.3   1 <1>  -0.0190 
 14 C        0.8200     2.2590     0.7400 C.ar  1 <1>   0.0530 
 15 N       -3.6670    -2.2570    -0.0080 N.4   1 <1>  -0.9590 
 16 C       -4.0690     3.6620    -1.4860 C.3   1 <1>   0.2090 
 17 C       -4.8690     4.2780     0.7120 C.3   1 <1>   0.2090 
 18 C        1.4650     2.0530     1.9590 C.ar  1 <1>  -0.1500 
 19 C        1.5160     1.9180    -0.4210 C.ar  1 <1>  -0.1500 
 20 C       -3.5600    -3.6400     0.5480 C.3   1 <1>   0.2630 
 21 C       -5.1350     4.7420    -1.6180 C.3   1 <1>  -0.1600 
 22 C       -5.9170     4.6740    -0.3150 C.3   1 <1>  -0.1600 
 23 C        2.7350     1.5120     2.0180 C.ar  1 <1>  -0.1500 
 24 C        2.7870     1.3770    -0.3700 C.ar  1 <1>  -0.1500 
 25 C        3.4070     1.1660     0.8580 C.ar  1 <1>   0.0830 
 26 O        4.6460     0.6390     0.9990 O.3   1 <1>  -0.3620 
 27 C        5.4330     0.2930    -0.1190 C.3   1 <1>   0.0400 
 28 H       -2.1580    -0.5900    -2.6090 H     1 <1>   0.0800 
 29 H       -3.8520    -0.5180    -2.2380 H     1 <1>   0.0800 
 30 H       -4.4500     0.4720     0.2960 H     1 <1>   0.0800 
 31 H       -3.0690     0.8810     1.2590 H     1 <1>   0.0800 
 32 H       -1.7580    -2.2780    -0.9480 H     1 <1>   0.0800 
 33 H       -3.0610    -2.8050    -1.9760 H     1 <1>   0.0800 
 34 H       -4.0140    -1.3220     1.8740 H     1 <1>   0.0800 
 35 H       -2.3390    -1.3890     1.4060 H     1 <1>   0.0800 
 36 H       -4.6390    -2.0940    -0.3090 H     1 <1>   0.4500 
 37 H       -4.3970     2.7580    -1.9690 H     1 <1>   0.0800 
 38 H       -3.1420     3.9850    -1.9310 H     1 <1>   0.0800 
 39 H       -4.3680     5.1630     1.0690 H     1 <1>   0.0800 
 40 H       -5.3060     3.7550     1.5450 H     1 <1>   0.0800 
 41 H        0.9630     2.3190     2.8730 H     1 <1>   0.1500 
 42 H        1.0610     2.0880    -1.3800 H     1 <1>   0.1500 
 43 H       -2.5500    -3.8370     0.8710 H     1 <1>   0.0800 
 44 H       -3.8300    -4.3670    -0.2000 H     1 <1>   0.0800 
 45 H       -4.2200    -3.7570     1.3920 H     1 <1>   0.0800 
 46 H       -5.7580     4.5870    -2.4810 H     1 <1>   0.0800 
 47 H       -4.6510     5.6990    -1.7040 H     1 <1>   0.0800 
 48 H       -6.3870     5.6080    -0.0660 H     1 <1>   0.0800 
 49 H       -6.6650     3.9030    -0.3700 H     1 <1>   0.0800 
 50 H        3.2190     1.3560     2.9660 H     1 <1>   0.1500 
 51 H        3.2800     1.1310    -1.2910 H     1 <1>   0.1500 
 52 H        6.3730    -0.0870     0.2400 H     1 <1>   0.0800 
 53 H        5.5990     1.1730    -0.7150 H     1 <1>   0.0800 
 54 H        4.9230    -0.4660    -0.6840 H     1 <1>   0.0800 
@<TRIPOS>BOND
  1   1   2  2   
  2   2   3  am  
  3   2   4  1   
  4   3   5  1   
  5   3   6  1   
  6   4   7  1   
  7   4   8  2   
  8   5   9  1   
  9   5  28  1   
 10   5  29  1   
 11   6  10  1   
 12   6  30  1   
 13   6  31  1   
 14   7  11  2   
 15   7  12  1   
 16   8  13  1   
 17   8  14  1   
 18   9  15  1   
 19   9  32  1   
 20   9  33  1   
 21  10  15  1   
 22  10  34  1   
 23  10  35  1   
 24  11  13  1   
 25  12  16  1   
 26  12  17  1   
 27  14  18  ar  
 28  14  19  ar  
 29  15  20  1   
 30  15  36  1   
 31  16  21  1   
 32  16  37  1   
 33  16  38  1   
 34  17  22  1   
 35  17  39  1   
 36  17  40  1   
 37  18  23  ar  
 38  18  41  1   
 39  19  24  ar  
 40  19  42  1   
 41  20  43  1   
 42  20  44  1   
 43  20  45  1   
 44  21  22  1   
 45  21  46  1   
 46  21  47  1   
 47  22  48  1   
 48  22  49  1   
 49  23  25  ar  
 50  23  50  1   
 51  24  25  ar  
 52  24  51  1   
 53  25  26  1   
 54  26  27  1   
 55  27  52  1   
 56  27  53  1   
 57  27  54  1   
@<TRIPOS>SUBSTRUCTURE
  1 ****   4 GROUP 4 **** **** 0

# MOE 2024.06 (io_trps.svl 2023.06)
