@<TRIPOS>MOLECULE
NONAME
57 59 1 0 0 
SMALL
USER_CHARGES


@<TRIPOS>ATOM
  1 O        1.2780    -0.7370    -1.6180 O.2   1 <1>  -0.5700 
  2 C        1.7250    -0.7840    -0.4940 C.2   1 <1>   0.5690 
  3 N        2.3420     0.3160     0.0740 N.am  1 <1>  -0.6600 
  4 C        1.5300    -2.1390     0.2410 C.3   1 <1>   0.4840 
  5 C        3.1030     0.3040     1.3660 C.3   1 <1>   0.1400 
  6 C        2.1100     1.6670    -0.5350 C.3   1 <1>   0.1400 
  7 N        0.4240    -2.9560    -0.3740 N.4   1 <1>  -0.9590 
  8 C        2.7710    -3.0390     0.1620 C.3   1 <1>  -0.1600 
  9 C        4.6300     0.1980     1.1410 C.3   1 <1>   0.3430 
 10 C        3.3550     2.5580    -0.5450 C.3   1 <1>  -0.1600 
 11 C        0.8360    -4.3770    -0.3980 C.3   1 <1>   0.3430 
 12 C       -0.9230    -2.7230     0.2240 C.3   1 <1>   0.2630 
 13 C        2.3420    -4.3100    -0.5730 C.3   1 <1>  -0.1600 
 14 N        5.2740     1.3920     0.4910 N.4   1 <1>  -0.9590 
 15 C        4.6510     1.7960    -0.8080 C.3   1 <1>   0.3430 
 16 C        6.7430     1.1250     0.3250 C.3   1 <1>   0.3430 
 17 C        7.5560     2.3970     0.0370 C.3   1 <1>   0.1100 
 18 N        8.9870     2.1030     0.1460 N.3   1 <1>  -0.8100 
 19 C        9.5230     1.3980    -1.0450 C.3   1 <1>   0.1100 
 20 C        9.7720     3.3410     0.3640 C.3   1 <1>   0.1100 
 21 C       11.0400     1.1650    -0.9250 C.3   1 <1>   0.1200 
 22 C       11.2820     3.0480     0.4340 C.3   1 <1>   0.1200 
 23 O       11.6990     2.3800    -0.7210 O.3   1 <1>  -0.5600 
 24 H        1.2970    -1.9460     1.2740 H     1 <1>   0.0800 
 25 H        2.8770     1.1920     1.9340 H     1 <1>   0.0800 
 26 H        2.7910    -0.5330     1.9650 H     1 <1>   0.0800 
 27 H        1.7770     1.5560    -1.5540 H     1 <1>   0.0800 
 28 H        1.3170     2.1650    -0.0010 H     1 <1>   0.0800 
 29 H        0.4000    -2.6100    -1.3540 H     1 <1>   0.4500 
 30 H        3.5870    -2.5600    -0.3500 H     1 <1>   0.0800 
 31 H        3.0890    -3.2820     1.1610 H     1 <1>   0.0800 
 32 H        4.8240    -0.6780     0.5450 H     1 <1>   0.0800 
 33 H        5.0970     0.0410     2.1010 H     1 <1>   0.0800 
 34 H        3.4170     3.1280     0.3650 H     1 <1>   0.0800 
 35 H        3.2200     3.2720    -1.3390 H     1 <1>   0.0800 
 36 H        0.5990    -4.8470     0.5440 H     1 <1>   0.0800 
 37 H        0.3620    -4.9200    -1.2010 H     1 <1>   0.0800 
 38 H       -0.9360    -3.0280     1.2580 H     1 <1>   0.0800 
 39 H       -1.6700    -3.2880    -0.3110 H     1 <1>   0.0800 
 40 H       -1.1830    -1.6780     0.1650 H     1 <1>   0.0800 
 41 H        2.8230    -5.1930    -0.1860 H     1 <1>   0.0800 
 42 H        2.5680    -4.2290    -1.6230 H     1 <1>   0.0800 
 43 H        5.1890     2.1910     1.1340 H     1 <1>   0.4500 
 44 H        5.3210     2.4520    -1.3390 H     1 <1>   0.0800 
 45 H        4.4620     0.9350    -1.4300 H     1 <1>   0.0800 
 46 H        7.1320     0.6990     1.2360 H     1 <1>   0.0800 
 47 H        6.9010     0.4160    -0.4700 H     1 <1>   0.0800 
 48 H        7.3010     3.1390     0.7740 H     1 <1>   0.0800 
 49 H        7.3390     2.7890    -0.9420 H     1 <1>   0.0800 
 50 H        9.0400     0.4430    -1.1570 H     1 <1>   0.0800 
 51 H        9.3380     1.9770    -1.9340 H     1 <1>   0.0800 
 52 H        9.5950     4.0400    -0.4360 H     1 <1>   0.0800 
 53 H        9.4700     3.8040     1.2880 H     1 <1>   0.0800 
 54 H       11.4270     0.7320    -1.8300 H     1 <1>   0.0800 
 55 H       11.2630     0.5090    -0.1020 H     1 <1>   0.0800 
 56 H       11.5130     2.4380     1.2900 H     1 <1>   0.0800 
 57 H       11.8390     3.9660     0.5000 H     1 <1>   0.0800 
@<TRIPOS>BOND
  1   1   2  2   
  2   2   3  am  
  3   2   4  1   
  4   3   5  1   
  5   3   6  1   
  6   4   7  1   
  7   4   8  1   
  8   4  24  1   
  9   5   9  1   
 10   5  25  1   
 11   5  26  1   
 12   6  10  1   
 13   6  27  1   
 14   6  28  1   
 15   7  11  1   
 16   7  12  1   
 17   7  29  1   
 18   8  13  1   
 19   8  30  1   
 20   8  31  1   
 21   9  14  1   
 22   9  32  1   
 23   9  33  1   
 24  10  15  1   
 25  10  34  1   
 26  10  35  1   
 27  11  13  1   
 28  11  36  1   
 29  11  37  1   
 30  12  38  1   
 31  12  39  1   
 32  12  40  1   
 33  13  41  1   
 34  13  42  1   
 35  14  15  1   
 36  14  16  1   
 37  14  43  1   
 38  15  44  1   
 39  15  45  1   
 40  16  17  1   
 41  16  46  1   
 42  16  47  1   
 43  17  18  1   
 44  17  48  1   
 45  17  49  1   
 46  18  19  1   
 47  18  20  1   
 48  19  21  1   
 49  19  50  1   
 50  19  51  1   
 51  20  22  1   
 52  20  52  1   
 53  20  53  1   
 54  21  23  1   
 55  21  54  1   
 56  21  55  1   
 57  22  23  1   
 58  22  56  1   
 59  22  57  1   
@<TRIPOS>SUBSTRUCTURE
  1 ****   9 GROUP 4 **** **** 0

# MOE 2024.06 (io_trps.svl 2023.06)
