@<TRIPOS>MOLECULE
NONAME
43 46 1 0 0 
SMALL
USER_CHARGES


@<TRIPOS>ATOM
  1 O        0.3930     0.2300    -0.8090 O.3   1 <1>  -0.3630 
  2 C        1.2780    -0.7070    -0.3860 C.ar  1 <1>   0.0820 
  3 C        0.3960     1.4720    -0.1270 C.3   1 <1>   0.1200 
  4 C        2.3250    -0.3810     0.4730 C.ar  1 <1>   0.0820 
  5 C        1.1250    -2.0100    -0.8190 C.ar  1 <1>  -0.1500 
  6 C        1.8340     1.9110     0.1850 C.3   1 <1>   0.1200 
  7 O        2.5140     0.8940     0.8960 O.3   1 <1>  -0.3630 
  8 C        3.1960    -1.3660     0.9000 C.ar  1 <1>  -0.1500 
  9 C        1.9950    -3.0030    -0.3860 C.ar  1 <1>  -0.1440 
 10 C        3.0430    -2.6790     0.4750 C.ar  1 <1>  -0.1440 
 11 C        1.7660    -4.4220    -0.8660 C.3   1 <1>   0.4870 
 12 C        4.0470    -3.7170     0.9640 C.3   1 <1>  -0.0960 
 13 N        1.0020    -5.1400     0.1810 N.4   1 <1>  -0.8970 
 14 C        0.6050    -6.5510    -0.1420 C.3   1 <1>   0.4720 
 15 C       -0.4510    -4.7630     0.2830 C.3   1 <1>   0.4720 
 16 C       -0.8050    -6.0400    -0.5060 C.3   1 <1>   0.1080 
 17 C       -1.9080    -6.8440     0.1480 C.ar  1 <1>   0.2020 
 18 N       -1.7550    -7.1050     1.4370 N.ar  1 <1>  -0.6200 
 19 C       -2.9960    -7.2610    -0.6060 C.ar  1 <1>  -0.1500 
 20 C       -2.7270    -7.8100     2.0010 C.ar  1 <1>   0.1600 
 21 C       -3.9980    -7.9930    -0.0060 C.ar  1 <1>  -0.1500 
 22 C       -3.8490    -8.2700     1.3350 C.ar  1 <1>  -0.1500 
 23 H       -0.1630     1.3540     0.7840 H     1 <1>   0.0800 
 24 H       -0.0970     2.1950    -0.7520 H     1 <1>   0.0800 
 25 H        0.3140    -2.2210    -1.4930 H     1 <1>   0.1500 
 26 H        1.8400     2.7990     0.7900 H     1 <1>   0.0800 
 27 H        2.3740     2.1010    -0.7260 H     1 <1>   0.0800 
 28 H        3.9940    -1.0840     1.5630 H     1 <1>   0.1500 
 29 H        2.7150    -4.9050    -1.0300 H     1 <1>   0.0800 
 30 H        1.2210    -4.4130    -1.7950 H     1 <1>   0.0800 
 31 H        4.8230    -3.2500     1.5450 H     1 <1>   0.0800 
 32 H        4.5170    -4.2080     0.1310 H     1 <1>   0.0800 
 33 H        3.5660    -4.4480     1.5870 H     1 <1>   0.0800 
 34 H        1.4430    -5.0510     1.1030 H     1 <1>   0.4500 
 35 H        0.6300    -7.1670     0.7390 H     1 <1>   0.0000 
 36 H        1.1570    -6.9480    -0.9750 H     1 <1>   0.0000 
 37 H       -0.6780    -3.8510    -0.2370 H     1 <1>   0.0000 
 38 H       -0.7810    -4.7830     1.3060 H     1 <1>   0.0000 
 39 H       -0.9310    -5.8620    -1.5600 H     1 <1>   0.0000 
 40 H       -3.0710    -7.0210    -1.6520 H     1 <1>   0.1500 
 41 H       -2.6260    -8.0350     3.0500 H     1 <1>   0.1500 
 42 H       -4.8590    -8.3340    -0.5580 H     1 <1>   0.1500 
 43 H       -4.5960    -8.8370     1.8620 H     1 <1>   0.1500 
@<TRIPOS>BOND
  1   1   2  1   
  2   1   3  1   
  3   2   4  ar  
  4   2   5  ar  
  5   3   6  1   
  6   3  23  1   
  7   3  24  1   
  8   4   7  1   
  9   4   8  ar  
 10   5   9  ar  
 11   5  25  1   
 12   6   7  1   
 13   6  26  1   
 14   6  27  1   
 15   8  10  ar  
 16   8  28  1   
 17   9  10  ar  
 18   9  11  1   
 19  10  12  1   
 20  11  13  1   
 21  11  29  1   
 22  11  30  1   
 23  12  31  1   
 24  12  32  1   
 25  12  33  1   
 26  13  14  1   
 27  13  15  1   
 28  13  34  1   
 29  14  16  1   
 30  14  35  1   
 31  14  36  1   
 32  15  16  1   
 33  15  37  1   
 34  15  38  1   
 35  16  17  1   
 36  16  39  1   
 37  17  18  ar  
 38  17  19  ar  
 39  18  20  ar  
 40  19  21  ar  
 41  19  40  1   
 42  20  22  ar  
 43  20  41  1   
 44  21  22  ar  
 45  21  42  1   
 46  22  43  1   
@<TRIPOS>SUBSTRUCTURE
  1 ****  15 GROUP 4 **** **** 0

# MOE 2024.06 (io_trps.svl 2023.06)
