@<TRIPOS>MOLECULE
NONAME
57 59 1 0 0 
SMALL
USER_CHARGES


@<TRIPOS>ATOM
  1 O        0.1080     0.4960    -3.3340 O.2   1 <1>  -0.5700 
  2 C        0.4000     0.1430    -2.2170 C.2   1 <1>   0.5690 
  3 N        0.7440     1.0630    -1.2470 N.am  1 <1>  -0.6600 
  4 C        0.4440    -1.3630    -1.9360 C.3   1 <1>   0.1810 
  5 C        1.0650     0.7240     0.1740 C.3   1 <1>   0.1400 
  6 C        1.0260     2.4710    -1.6130 C.3   1 <1>   0.1400 
  7 O        1.7150    -1.7120    -1.4510 O.3   1 <1>  -0.5600 
  8 C        2.5670     0.4570     0.4210 C.3   1 <1>   0.3430 
  9 C        2.4670     2.5940    -2.1240 C.3   1 <1>  -0.1600 
 10 C        1.8660    -2.9880    -0.9150 C.3   1 <1>   0.2640 
 11 N        3.5300     1.4680    -0.1480 N.4   1 <1>  -0.9590 
 12 C        3.4380     1.5110    -1.6390 C.3   1 <1>   0.3430 
 13 C        2.9310    -2.8500     0.1610 C.ar  1 <1>  -0.1440 
 14 C        4.9250     1.0600     0.2160 C.3   1 <1>   0.3430 
 15 C        2.5900    -2.8900     1.5060 C.ar  1 <1>  -0.1500 
 16 C        4.2550    -2.6370    -0.1970 C.ar  1 <1>  -0.1500 
 17 C        5.2660     1.3010     1.6910 C.3   1 <1>  -0.0170 
 18 C        3.5600    -2.7100     2.4780 C.ar  1 <1>  -0.1500 
 19 C        5.2240    -2.4550     0.7740 C.ar  1 <1>  -0.1500 
 20 C        6.6140     0.6850     2.0200 C.ar  1 <1>   0.1670 
 21 C        4.8760    -2.4910     2.1120 C.ar  1 <1>  -0.1500 
 22 N        7.4690     0.5540     1.0170 N.ar  1 <1>  -0.6200 
 23 C        6.8820     0.2940     3.3230 C.ar  1 <1>  -0.1500 
 24 C        8.6380     0.0110     1.3160 C.ar  1 <1>   0.1670 
 25 C        8.1010    -0.2730     3.6240 C.ar  1 <1>  -0.1500 
 26 C        8.9940    -0.4140     2.5860 C.ar  1 <1>  -0.1500 
 27 C        9.6140    -0.1350     0.1670 C.3   1 <1>  -0.0970 
 28 H        0.2620    -1.9110    -2.8440 H     1 <1>   0.0800 
 29 H       -0.3030    -1.6130    -1.2060 H     1 <1>   0.0800 
 30 H        0.5120    -0.1510     0.4690 H     1 <1>   0.0800 
 31 H        0.7370     1.5240     0.8140 H     1 <1>   0.0800 
 32 H        0.8790     3.1050    -0.7550 H     1 <1>   0.0800 
 33 H        0.3370     2.7970    -2.3760 H     1 <1>   0.0800 
 34 H        2.8100    -0.5020     0.0060 H     1 <1>   0.0800 
 35 H        2.7140     0.3730     1.4830 H     1 <1>   0.0800 
 36 H        2.8510     3.5720    -1.8960 H     1 <1>   0.0800 
 37 H        2.4290     2.5250    -3.1980 H     1 <1>   0.0800 
 38 H        2.1790    -3.6580    -1.6980 H     1 <1>   0.0800 
 39 H        0.9350    -3.3260    -0.4930 H     1 <1>   0.0800 
 40 H        3.3320     2.4060     0.2170 H     1 <1>   0.4500 
 41 H        4.4090     1.7190    -2.0590 H     1 <1>   0.0800 
 42 H        3.1200     0.5490    -2.0110 H     1 <1>   0.0800 
 43 H        5.6350     1.6090    -0.3820 H     1 <1>   0.0800 
 44 H        5.0620     0.0140    -0.0060 H     1 <1>   0.0800 
 45 H        1.5710    -3.0640     1.8050 H     1 <1>   0.1500 
 46 H        4.5320    -2.6100    -1.2380 H     1 <1>   0.1500 
 47 H        4.5270     0.8590     2.3310 H     1 <1>   0.0800 
 48 H        5.3190     2.3570     1.8810 H     1 <1>   0.0800 
 49 H        3.2930    -2.7510     3.5200 H     1 <1>   0.1500 
 50 H        6.2520    -2.2920     0.4940 H     1 <1>   0.1500 
 51 H        5.6350    -2.3600     2.8650 H     1 <1>   0.1500 
 52 H        6.1530     0.4290     4.1010 H     1 <1>   0.1500 
 53 H        8.3470    -0.5900     4.6240 H     1 <1>   0.1500 
 54 H        9.9610    -0.8490     2.7650 H     1 <1>   0.1500 
 55 H        9.8180     0.8320    -0.2560 H     1 <1>   0.0800 
 56 H        9.1870    -0.7630    -0.5930 H     1 <1>   0.0800 
 57 H       10.5390    -0.5700     0.4960 H     1 <1>   0.0800 
@<TRIPOS>BOND
  1   1   2  2   
  2   2   3  am  
  3   2   4  1   
  4   3   5  1   
  5   3   6  1   
  6   4   7  1   
  7   4  28  1   
  8   4  29  1   
  9   5   8  1   
 10   5  30  1   
 11   5  31  1   
 12   6   9  1   
 13   6  32  1   
 14   6  33  1   
 15   7  10  1   
 16   8  11  1   
 17   8  34  1   
 18   8  35  1   
 19   9  12  1   
 20   9  36  1   
 21   9  37  1   
 22  10  13  1   
 23  10  38  1   
 24  10  39  1   
 25  11  12  1   
 26  11  14  1   
 27  11  40  1   
 28  12  41  1   
 29  12  42  1   
 30  13  15  ar  
 31  13  16  ar  
 32  14  17  1   
 33  14  43  1   
 34  14  44  1   
 35  15  18  ar  
 36  15  45  1   
 37  16  19  ar  
 38  16  46  1   
 39  17  20  1   
 40  17  47  1   
 41  17  48  1   
 42  18  21  ar  
 43  18  49  1   
 44  19  21  ar  
 45  19  50  1   
 46  20  22  ar  
 47  20  23  ar  
 48  21  51  1   
 49  22  24  ar  
 50  23  25  ar  
 51  23  52  1   
 52  24  26  ar  
 53  24  27  1   
 54  25  26  ar  
 55  25  53  1   
 56  26  54  1   
 57  27  55  1   
 58  27  56  1   
 59  27  57  1   
@<TRIPOS>SUBSTRUCTURE
  1 ****  14 GROUP 4 **** **** 0

# MOE 2024.06 (io_trps.svl 2023.06)
