@<TRIPOS>MOLECULE
NONAME
47 50 1 0 0 
SMALL
USER_CHARGES


@<TRIPOS>ATOM
  1 N        0.3800    -0.2280     0.4600 N.ar  1 <1>  -0.6200 
  2 C        1.5890    -0.6680     0.1370 C.ar  1 <1>   0.4100 
  3 C       -0.5800    -1.0650     0.1180 C.ar  1 <1>   0.1660 
  4 N        2.6380     0.1610     0.5020 N.pl3 1 <1>  -0.8380 
  5 C        1.8020    -1.9060    -0.5140 C.ar  1 <1>   0.1660 
  6 C       -0.3570    -2.2830    -0.5140 C.ar  1 <1>   0.1600 
  7 C       -1.9890    -0.6230     0.4600 C.3   1 <1>  -0.0960 
  8 C        2.5610     1.5720     0.0450 C.3   1 <1>   0.2090 
  9 C        3.1040     0.0190     1.9000 C.3   1 <1>   0.2090 
 10 N        0.8390    -2.7430    -0.8490 N.ar  1 <1>  -0.6200 
 11 C        3.2090    -2.3570    -0.8710 C.3   1 <1>  -0.0970 
 12 C        3.9370     2.2500     0.1560 C.3   1 <1>  -0.0800 
 13 C        4.4960     0.6420     2.0340 C.3   1 <1>  -0.1600 
 14 C        4.5060     2.1110     1.5830 C.3   1 <1>  -0.1600 
 15 C        3.8300     3.7190    -0.2920 C.3   1 <1>   0.0200 
 16 C        5.1770     4.4190    -0.3250 C.2   1 <1>   0.0070 
 17 N        5.9820     4.3670    -1.3280 N.2   1 <1>  -0.5650 
 18 N        5.6400     5.1650     0.7110 N.pl3 1 <1>   0.0330 
 19 C        7.0520     5.1180    -0.9430 C.ar  1 <1>   0.2270 
 20 C        6.8560     5.6240     0.3270 C.ar  1 <1>  -0.1520 
 21 C        8.2280     5.4080    -1.6330 C.ar  1 <1>  -0.1500 
 22 C        7.8170     6.4280     0.9450 C.ar  1 <1>  -0.1500 
 23 C        9.1830     6.2010    -1.0330 C.ar  1 <1>  -0.1500 
 24 C        8.9760     6.7100     0.2560 C.ar  1 <1>  -0.1500 
 25 H       -1.1970    -2.9080    -0.7560 H     1 <1>   0.1500 
 26 H       -2.2020     0.3070    -0.0350 H     1 <1>   0.0800 
 27 H       -2.0700    -0.4760     1.5210 H     1 <1>   0.0800 
 28 H       -2.7130    -1.3550     0.1520 H     1 <1>   0.0800 
 29 H        1.8390     2.0960     0.6490 H     1 <1>   0.0800 
 30 H        2.2230     1.5930    -0.9770 H     1 <1>   0.0800 
 31 H        3.1420    -1.0250     2.1640 H     1 <1>   0.0800 
 32 H        2.4080     0.5110     2.5580 H     1 <1>   0.0800 
 33 H        3.8370    -1.5140    -1.0920 H     1 <1>   0.0800 
 34 H        3.1840    -2.9950    -1.7350 H     1 <1>   0.0800 
 35 H        3.6290    -2.9020    -0.0470 H     1 <1>   0.0800 
 36 H        4.6010     1.7470    -0.5280 H     1 <1>   0.0800 
 37 H        5.1850     0.0750     1.4330 H     1 <1>   0.0800 
 38 H        4.8180     0.5740     3.0570 H     1 <1>   0.0800 
 39 H        3.9130     2.6920     2.2680 H     1 <1>   0.0800 
 40 H        5.5190     2.4740     1.6140 H     1 <1>   0.0800 
 41 H        3.1570     4.2560     0.3530 H     1 <1>   0.0800 
 42 H        3.4200     3.7510    -1.2860 H     1 <1>   0.0800 
 43 H        5.1760     5.3470     1.6020 H     1 <1>   0.2700 
 44 H        8.3580     5.0040    -2.6190 H     1 <1>   0.1500 
 45 H        7.6490     6.8140     1.9350 H     1 <1>   0.1500 
 46 H       10.0960     6.4350    -1.5510 H     1 <1>   0.1500 
 47 H        9.7370     7.3260     0.7030 H     1 <1>   0.1500 
@<TRIPOS>BOND
  1   1   2  ar  
  2   1   3  ar  
  3   2   4  1   
  4   2   5  ar  
  5   3   6  ar  
  6   3   7  1   
  7   4   8  1   
  8   4   9  1   
  9   5  10  ar  
 10   5  11  1   
 11   6  10  ar  
 12   6  25  1   
 13   7  26  1   
 14   7  27  1   
 15   7  28  1   
 16   8  12  1   
 17   8  29  1   
 18   8  30  1   
 19   9  13  1   
 20   9  31  1   
 21   9  32  1   
 22  11  33  1   
 23  11  34  1   
 24  11  35  1   
 25  12  14  1   
 26  12  15  1   
 27  12  36  1   
 28  13  14  1   
 29  13  37  1   
 30  13  38  1   
 31  14  39  1   
 32  14  40  1   
 33  15  16  1   
 34  15  41  1   
 35  15  42  1   
 36  16  17  2   
 37  16  18  1   
 38  17  19  1   
 39  18  20  1   
 40  18  43  1   
 41  19  20  ar  
 42  19  21  ar  
 43  20  22  ar  
 44  21  23  ar  
 45  21  44  1   
 46  22  24  ar  
 47  22  45  1   
 48  23  24  ar  
 49  23  46  1   
 50  24  47  1   
@<TRIPOS>SUBSTRUCTURE
  1 ****  12 GROUP 4 **** **** 0

# MOE 2024.06 (io_trps.svl 2023.06)
