@<TRIPOS>MOLECULE
NONAME
54 57 1 0 0 
SMALL
USER_CHARGES


@<TRIPOS>ATOM
  1 O       -0.8990    -0.3030     1.1380 O.2   1 <1>  -0.5740 
  2 C       -2.0260    -0.2460     0.7090 C.2   1 <1>   0.6870 
  3 N       -2.8320    -1.3700     0.5980 N.am  1 <1>  -0.4410 
  4 N       -2.5170     0.9680     0.3250 N.am  1 <1>  -0.4950 
  5 C       -4.1190    -1.1920     0.1110 C.2   1 <1>   0.4210 
  6 C       -2.3310    -2.7180     0.9980 C.3   1 <1>   0.0530 
  7 C       -3.7780     1.1580    -0.1630 C.2   1 <1>   0.7000 
  8 N       -5.0770    -2.1380    -0.0660 N.pl3 1 <1>  -0.7030 
  9 C       -4.6230     0.0030    -0.2690 C.2   1 <1>   0.2710 
 10 O       -4.1260     2.2780    -0.4800 O.2   1 <1>  -0.5740 
 11 C       -6.1790    -1.5500    -0.5380 C.cat 1 <1>   1.0690 
 12 N       -5.9440    -0.2370    -0.6990 N.pl3 1 <1>  -0.7670 
 13 N       -7.3230    -2.2270    -0.7820 N.pl3 1 <1>  -0.5960 
 14 C       -6.7500     0.8330    -1.3600 C.3   1 <1>   0.2680 
 15 C       -8.6950    -1.6160    -0.7550 C.3   1 <1>   0.1610 
 16 C       -7.3760    -3.7120    -1.0030 C.3   1 <1>   0.1610 
 17 C       -9.6650    -2.4190     0.1340 C.3   1 <1>   0.2890 
 18 C       -8.3950    -4.3860    -0.0620 C.3   1 <1>   0.1940 
 19 O       -9.6320    -3.7660    -0.2190 O.3   1 <1>  -0.5640 
 20 C      -11.1030    -1.9260    -0.0330 C.3   1 <1>  -0.2010 
 21 C       -8.5950    -5.8750    -0.3650 C.3   1 <1>  -0.1670 
 22 C      -11.6160    -0.7550     0.7470 C.3   1 <1>  -0.2060 
 23 C      -12.1220    -2.1400     1.0410 C.3   1 <1>  -0.2060 
 24 C       -7.3330    -6.7160    -0.1110 C.3   1 <1>  -0.1670 
 25 C       -7.6180    -8.2050    -0.3310 C.3   1 <1>  -0.1670 
 26 C       -6.3650    -9.0490    -0.0840 C.3   1 <1>  -0.2460 
 27 H       -1.8980     1.7730     0.4150 H     1 <1>   0.3650 
 28 H       -2.8260    -3.0390     1.8980 H     1 <1>   0.0730 
 29 H       -1.2700    -2.6920     1.1850 H     1 <1>   0.0730 
 30 H       -2.5140    -3.4290     0.2120 H     1 <1>   0.0730 
 31 H       -4.9990    -3.1230     0.1680 H     1 <1>   0.4450 
 32 H       -6.1080     1.4860    -1.9280 H     1 <1>   0.0730 
 33 H       -7.2640     1.4200    -0.6170 H     1 <1>   0.0730 
 34 H       -7.4670     0.4080    -2.0400 H     1 <1>   0.0730 
 35 H       -8.6610    -0.6140    -0.3700 H     1 <1>   0.0730 
 36 H       -9.0890    -1.5810    -1.7570 H     1 <1>   0.0730 
 37 H       -7.6750    -3.9030    -2.0200 H     1 <1>   0.0730 
 38 H       -6.4090    -4.1580    -0.8640 H     1 <1>   0.0730 
 39 H       -9.3780    -2.3360     1.1690 H     1 <1>   0.0730 
 40 H       -8.0930    -4.2760     0.9660 H     1 <1>   0.0730 
 41 H      -11.4480    -2.0250    -1.0480 H     1 <1>   0.0930 
 42 H       -9.3850    -6.2420     0.2680 H     1 <1>   0.0730 
 43 H       -8.9070    -5.9940    -1.3880 H     1 <1>   0.0730 
 44 H      -10.9990    -0.2830     1.4920 H     1 <1>   0.0930 
 45 H      -12.2890    -0.0630     0.2710 H     1 <1>   0.0930 
 46 H      -13.1240    -2.4020     0.7490 H     1 <1>   0.0930 
 47 H      -11.8200    -2.6260     1.9530 H     1 <1>   0.0930 
 48 H       -6.5430    -6.4170    -0.7770 H     1 <1>   0.0730 
 49 H       -7.0010    -6.5700     0.9030 H     1 <1>   0.0730 
 50 H       -8.3980    -8.5280     0.3370 H     1 <1>   0.0730 
 51 H       -7.9580    -8.3640    -1.3410 H     1 <1>   0.0730 
 52 H       -6.0200    -8.9240     0.9270 H     1 <1>   0.0730 
 53 H       -5.5780    -8.7650    -0.7600 H     1 <1>   0.0730 
 54 H       -6.5890   -10.0900    -0.2400 H     1 <1>   0.0730 
@<TRIPOS>BOND
  1   1   2  2   
  2   2   3  am  
  3   2   4  am  
  4   3   5  1   
  5   3   6  1   
  6   4   7  am  
  7   4  27  1   
  8   5   8  1   
  9   5   9  2   
 10   6  28  1   
 11   6  29  1   
 12   6  30  1   
 13   7   9  1   
 14   7  10  2   
 15   8  11  ar  
 16   8  31  1   
 17   9  12  1   
 18  11  12  ar  
 19  11  13  ar  
 20  12  14  1   
 21  13  15  1   
 22  13  16  1   
 23  14  32  1   
 24  14  33  1   
 25  14  34  1   
 26  15  17  1   
 27  15  35  1   
 28  15  36  1   
 29  16  18  1   
 30  16  37  1   
 31  16  38  1   
 32  17  19  1   
 33  17  20  1   
 34  17  39  1   
 35  18  19  1   
 36  18  21  1   
 37  18  40  1   
 38  20  22  1   
 39  20  23  1   
 40  20  41  1   
 41  21  24  1   
 42  21  42  1   
 43  21  43  1   
 44  22  23  1   
 45  22  44  1   
 46  22  45  1   
 47  23  46  1   
 48  23  47  1   
 49  24  25  1   
 50  24  48  1   
 51  24  49  1   
 52  25  26  1   
 53  25  50  1   
 54  25  51  1   
 55  26  52  1   
 56  26  53  1   
 57  26  54  1   
@<TRIPOS>SUBSTRUCTURE
  1 ****  11 GROUP 4 **** **** 0

# MOE 2024.06 (io_trps.svl 2023.06)
