@<TRIPOS>MOLECULE
NONAME
58 61 1 0 0 
SMALL
USER_CHARGES


@<TRIPOS>ATOM
  1 O        1.9300     0.6010    -0.9840 O.2   1 <1>  -0.5700 
  2 C        2.3980    -0.2490    -0.2500 C.2   1 <1>   0.7160 
  3 N        2.9460     0.1230     0.9590 N.am  1 <1>  -0.6600 
  4 C        2.3700    -1.6290    -0.6500 C.2   1 <1>  -0.0860 
  5 C        3.8240    -0.7880     1.7530 C.3   1 <1>   0.1400 
  6 C        2.9550     1.5410     1.4010 C.3   1 <1>   0.1400 
  7 C        3.0910    -2.3100    -1.5630 C.2   1 <1>  -0.0400 
  8 C        1.5540    -2.6290    -0.1480 C.2   1 <1>   0.1080 
  9 C        5.2330    -0.9200     1.1490 C.3   1 <1>   0.1400 
 10 C        4.2160     2.2630     0.9170 C.3   1 <1>  -0.1600 
 11 O        2.7750    -3.5830    -1.5950 O.3   1 <1>  -0.0190 
 12 C        4.1680    -1.8070    -2.5030 C.3   1 <1>  -0.0600 
 13 N        1.8200    -3.7490    -0.7060 N.2   1 <1>  -0.4100 
 14 C        0.4790    -2.4410     0.9010 C.3   1 <1>  -0.0590 
 15 N        5.7920     0.3540     0.5880 N.am  1 <1>  -0.6600 
 16 C        5.5360     1.6120     1.3490 C.3   1 <1>   0.1400 
 17 C        6.5820     0.3310    -0.5440 C.2   1 <1>   0.7160 
 18 O        6.8720    -0.7390    -1.0460 O.2   1 <1>  -0.5700 
 19 C        7.0700     1.5480    -1.1430 C.2   1 <1>  -0.0860 
 20 C        8.2720     2.1930    -1.0680 C.2   1 <1>  -0.3320 
 21 C        6.3160     2.3610    -1.9910 C.2   1 <1>   0.1390 
 22 N        8.1740     3.2960    -1.8290 N.pl3 1 <1>   0.3000 
 23 C        9.5470     1.8220    -0.3220 C.3   1 <1>   0.1000 
 24 N        6.9600     3.4090    -2.3950 N.2   1 <1>  -0.7070 
 25 C       10.1890     0.5750    -0.9460 C.3   1 <1>  -0.1600 
 26 C        9.2800     1.6080     1.1760 C.3   1 <1>  -0.1600 
 27 C       11.4730     0.1740    -0.2050 C.3   1 <1>  -0.1600 
 28 C       10.5650     1.2190     1.9210 C.3   1 <1>  -0.1600 
 29 C       11.2080    -0.0260     1.2940 C.3   1 <1>  -0.1600 
 30 H        3.3800    -1.7660     1.8170 H     1 <1>   0.0800 
 31 H        3.9070    -0.4180     2.7590 H     1 <1>   0.0800 
 32 H        2.8950     1.5820     2.4740 H     1 <1>   0.0800 
 33 H        2.0860     2.0460     1.0100 H     1 <1>   0.0800 
 34 H        5.1860    -1.6640     0.3730 H     1 <1>   0.0800 
 35 H        5.9060    -1.2940     1.9010 H     1 <1>   0.0800 
 36 H        4.1910     3.2620     1.3140 H     1 <1>   0.0800 
 37 H        4.1820     2.3550    -0.1530 H     1 <1>   0.0800 
 38 H        4.3290    -0.7540    -2.3640 H     1 <1>   0.0800 
 39 H        3.8720    -1.9800    -3.5210 H     1 <1>   0.0800 
 40 H        5.0900    -2.3270    -2.3150 H     1 <1>   0.0800 
 41 H       -0.2320    -1.7080     0.5640 H     1 <1>   0.0800 
 42 H        0.9150    -2.1110     1.8250 H     1 <1>   0.0800 
 43 H       -0.0360    -3.3700     1.0700 H     1 <1>   0.0800 
 44 H        5.5230     1.4030     2.4050 H     1 <1>   0.0800 
 45 H        6.3390     2.3080     1.1740 H     1 <1>   0.0800 
 46 H        5.3010     2.1410    -2.2810 H     1 <1>   0.1500 
 47 H        8.9130     3.9910    -1.9920 H     1 <1>   0.2700 
 48 H       10.2470     2.6350    -0.4150 H     1 <1>   0.0800 
 49 H       10.4130     0.7640    -1.9810 H     1 <1>   0.0800 
 50 H        9.4920    -0.2440    -0.9080 H     1 <1>   0.0800 
 51 H        8.5590     0.8220     1.3060 H     1 <1>   0.0800 
 52 H        8.8750     2.5080     1.6020 H     1 <1>   0.0800 
 53 H       12.2170     0.9400    -0.3360 H     1 <1>   0.0800 
 54 H       11.8600    -0.7380    -0.6260 H     1 <1>   0.0800 
 55 H       10.3390     1.0230     2.9550 H     1 <1>   0.0800 
 56 H       11.2640     2.0370     1.8850 H     1 <1>   0.0800 
 57 H       12.1340    -0.2470     1.7970 H     1 <1>   0.0800 
 58 H       10.5520    -0.8700     1.4270 H     1 <1>   0.0800 
@<TRIPOS>BOND
  1   1   2  2   
  2   2   3  am  
  3   2   4  1   
  4   3   5  1   
  5   3   6  1   
  6   4   7  2   
  7   4   8  1   
  8   5   9  1   
  9   5  30  1   
 10   5  31  1   
 11   6  10  1   
 12   6  32  1   
 13   6  33  1   
 14   7  11  1   
 15   7  12  1   
 16   8  13  2   
 17   8  14  1   
 18   9  15  1   
 19   9  34  1   
 20   9  35  1   
 21  10  16  1   
 22  10  36  1   
 23  10  37  1   
 24  11  13  1   
 25  12  38  1   
 26  12  39  1   
 27  12  40  1   
 28  14  41  1   
 29  14  42  1   
 30  14  43  1   
 31  15  16  1   
 32  15  17  am  
 33  16  44  1   
 34  16  45  1   
 35  17  18  2   
 36  17  19  1   
 37  19  20  2   
 38  19  21  1   
 39  20  22  1   
 40  20  23  1   
 41  21  24  2   
 42  21  46  1   
 43  22  24  1   
 44  22  47  1   
 45  23  25  1   
 46  23  26  1   
 47  23  48  1   
 48  25  27  1   
 49  25  49  1   
 50  25  50  1   
 51  26  28  1   
 52  26  51  1   
 53  26  52  1   
 54  27  29  1   
 55  27  53  1   
 56  27  54  1   
 57  28  29  1   
 58  28  55  1   
 59  28  56  1   
 60  29  57  1   
 61  29  58  1   
@<TRIPOS>SUBSTRUCTURE
  1 ****  15 GROUP 4 **** **** 0

# MOE 2024.06 (io_trps.svl 2023.06)
