@<TRIPOS>MOLECULE
NONAME
46 48 1 0 0 
SMALL
USER_CHARGES


@<TRIPOS>ATOM
  1 O       -0.4800     0.1400     0.9810 O.2   1 <1>  -0.5700 
  2 C       -1.4480     0.7770     0.6340 C.2   1 <1>   0.5690 
  3 N       -2.5880     0.1230     0.2310 N.am  1 <1>  -0.6600 
  4 C       -1.3040     2.3070     0.6650 C.3   1 <1>  -0.0190 
  5 C       -3.8630     0.6870    -0.2800 C.3   1 <1>   0.1400 
  6 C       -2.6370    -1.3620     0.1860 C.3   1 <1>   0.1400 
  7 C       -2.3820     3.0460     1.4850 C.3   1 <1>  -0.1600 
  8 C       -1.1410     2.9220    -0.7400 C.3   1 <1>  -0.1600 
  9 C       -4.5650    -0.4860    -0.9570 C.3   1 <1>   0.2000 
 10 C       -4.0690    -1.7210    -0.2140 C.3   1 <1>  -0.0800 
 11 C       -2.0880     4.5500     1.5570 C.3   1 <1>  -0.1600 
 12 C       -0.8710     4.4310    -0.6620 C.3   1 <1>  -0.1600 
 13 O       -5.9430    -0.3840    -0.8600 O.3   1 <1>  -0.6800 
 14 C       -4.1710    -3.0100    -1.0430 C.3   1 <1>   0.0210 
 15 C       -1.9520     5.1540     0.1530 C.3   1 <1>  -0.1600 
 16 C       -3.5810    -4.1850    -0.2890 C.2   1 <1>   0.1080 
 17 N       -4.0700    -4.6180     0.8310 N.2   1 <1>  -0.7070 
 18 C       -2.4650    -4.9110    -0.6920 C.2   1 <1>  -0.1500 
 19 N       -3.2710    -5.6450     1.1760 N.pl3 1 <1>   0.3000 
 20 C       -2.2900    -5.8410     0.2700 C.2   1 <1>  -0.3320 
 21 C       -1.2290    -6.9200     0.3810 C.3   1 <1>  -0.0600 
 22 H       -0.3730     2.4890     1.1760 H     1 <1>   0.0800 
 23 H       -4.4490     1.0360     0.5520 H     1 <1>   0.0800 
 24 H       -3.6940     1.4800    -0.9820 H     1 <1>   0.0800 
 25 H       -1.9300    -1.7110    -0.5470 H     1 <1>   0.0800 
 26 H       -2.3830    -1.7830     1.1450 H     1 <1>   0.0800 
 27 H       -3.3490     2.9170     1.0400 H     1 <1>   0.0800 
 28 H       -2.4160     2.6370     2.4800 H     1 <1>   0.0800 
 29 H       -0.3220     2.4390    -1.2450 H     1 <1>   0.0800 
 30 H       -2.0260     2.7580    -1.3250 H     1 <1>   0.0800 
 31 H       -4.2960    -0.5160    -1.9990 H     1 <1>   0.0800 
 32 H       -4.6280    -1.8440     0.6970 H     1 <1>   0.0800 
 33 H       -2.8810     5.0480     2.0880 H     1 <1>   0.0800 
 34 H       -1.1740     4.7110     2.1050 H     1 <1>   0.0800 
 35 H        0.0890     4.5970    -0.2030 H     1 <1>   0.0800 
 36 H       -0.8330     4.8430    -1.6560 H     1 <1>   0.0800 
 37 H       -6.2310    -0.5480     0.0590 H     1 <1>   0.4000 
 38 H       -3.6570    -2.8910    -1.9790 H     1 <1>   0.0800 
 39 H       -5.2050    -3.2200    -1.2530 H     1 <1>   0.0800 
 40 H       -1.7020     6.1980     0.2340 H     1 <1>   0.0800 
 41 H       -2.8950     5.0810    -0.3610 H     1 <1>   0.0800 
 42 H       -1.8850    -4.7450    -1.5820 H     1 <1>   0.1500 
 43 H       -3.4210    -6.1890     2.0340 H     1 <1>   0.2700 
 44 H       -0.5630    -6.8720    -0.4620 H     1 <1>   0.0800 
 45 H       -1.6880    -7.8930     0.4000 H     1 <1>   0.0800 
 46 H       -0.6540    -6.7840     1.2800 H     1 <1>   0.0800 
@<TRIPOS>BOND
  1   1   2  2   
  2   2   3  am  
  3   2   4  1   
  4   3   5  1   
  5   3   6  1   
  6   4   7  1   
  7   4   8  1   
  8   4  22  1   
  9   5   9  1   
 10   5  23  1   
 11   5  24  1   
 12   6  10  1   
 13   6  25  1   
 14   6  26  1   
 15   7  11  1   
 16   7  27  1   
 17   7  28  1   
 18   8  12  1   
 19   8  29  1   
 20   8  30  1   
 21   9  10  1   
 22   9  13  1   
 23   9  31  1   
 24  10  14  1   
 25  10  32  1   
 26  11  15  1   
 27  11  33  1   
 28  11  34  1   
 29  12  15  1   
 30  12  35  1   
 31  12  36  1   
 32  13  37  1   
 33  14  16  1   
 34  14  38  1   
 35  14  39  1   
 36  15  40  1   
 37  15  41  1   
 38  16  17  2   
 39  16  18  1   
 40  17  19  1   
 41  18  20  2   
 42  18  42  1   
 43  19  20  1   
 44  19  43  1   
 45  20  21  1   
 46  21  44  1   
 47  21  45  1   
 48  21  46  1   
@<TRIPOS>SUBSTRUCTURE
  1 ****   6 GROUP 4 **** **** 0

# MOE 2024.06 (io_trps.svl 2023.06)
