@<TRIPOS>MOLECULE
NONAME
40 43 1 0 0 
SMALL
USER_CHARGES


@<TRIPOS>ATOM
  1 CL       0.1460    -0.0610     1.1980 Cl    1 <1>  -0.1770 
  2 C        1.5320    -1.0980     0.9020 C.ar  1 <1>   0.1770 
  3 C        1.3780    -2.4700     0.7420 C.ar  1 <1>   0.4100 
  4 C        2.7900    -0.5670     0.8220 C.ar  1 <1>   0.1600 
  5 N        2.4360    -3.2290     0.5200 N.ar  1 <1>  -0.6200 
  6 N        0.1310    -3.0580     0.8220 N.pl3 1 <1>  -0.8690 
  7 N        3.8520    -1.3220     0.5970 N.ar  1 <1>  -0.6200 
  8 C        3.6040    -2.6150     0.4600 C.ar  1 <1>   0.4770 
  9 C       -0.3060    -4.3990     0.3900 C.3   1 <1>   0.3690 
 10 C        4.8030    -3.4960     0.2080 C.3   1 <1>  -0.0960 
 11 C       -1.8350    -4.4390     0.5560 C.3   1 <1>  -0.1600 
 12 C        0.3160    -5.4990     1.2720 C.3   1 <1>  -0.1600 
 13 C        0.0390    -4.6520    -1.0920 C.3   1 <1>  -0.1600 
 14 C       -2.3550    -5.8160     0.1250 C.3   1 <1>   0.2800 
 15 C       -0.2070    -6.8850     0.8430 C.3   1 <1>  -0.0800 
 16 C       -0.4860    -6.0340    -1.5290 C.3   1 <1>  -0.0800 
 17 O       -3.7210    -5.8430     0.2710 O.3   1 <1>  -0.6800 
 18 C       -1.7390    -6.9150     1.0030 C.3   1 <1>  -0.1600 
 19 C       -2.0150    -6.0690    -1.3500 C.3   1 <1>  -0.1600 
 20 C        0.1520    -7.1210    -0.6390 C.3   1 <1>  -0.1600 
 21 H        2.9340     0.4920     0.9420 H     1 <1>   0.1500 
 22 H       -0.6500    -2.4130     0.9480 H     1 <1>   0.4000 
 23 H        4.5050    -4.3940    -0.3010 H     1 <1>   0.0800 
 24 H        5.2540    -3.7560     1.1470 H     1 <1>   0.0800 
 25 H        5.5220    -2.9750    -0.3960 H     1 <1>   0.0800 
 26 H       -2.2870    -3.6820    -0.0580 H     1 <1>   0.0800 
 27 H       -2.0880    -4.2610     1.5860 H     1 <1>   0.0800 
 28 H        0.0750    -5.3170     2.3040 H     1 <1>   0.0800 
 29 H        1.3860    -5.4900     1.1760 H     1 <1>   0.0800 
 30 H        1.1040    -4.6270    -1.2330 H     1 <1>   0.0800 
 31 H       -0.3970    -3.8840    -1.7040 H     1 <1>   0.0800 
 32 H        0.2410    -7.6500     1.4540 H     1 <1>   0.0800 
 33 H       -0.2340    -6.2100    -2.5610 H     1 <1>   0.0800 
 34 H       -3.9510    -5.7370     1.2110 H     1 <1>   0.4000 
 35 H       -2.1140    -7.8770     0.7000 H     1 <1>   0.0800 
 36 H       -1.9950    -6.7570     2.0350 H     1 <1>   0.0800 
 37 H       -2.4730    -5.3150    -1.9650 H     1 <1>   0.0800 
 38 H       -2.3950    -7.0290    -1.6520 H     1 <1>   0.0800 
 39 H       -0.1950    -8.0920    -0.9470 H     1 <1>   0.0800 
 40 H        1.2220    -7.1060    -0.7600 H     1 <1>   0.0800 
@<TRIPOS>BOND
  1   1   2  1   
  2   2   3  ar  
  3   2   4  ar  
  4   3   5  ar  
  5   3   6  1   
  6   4   7  ar  
  7   4  21  1   
  8   5   8  ar  
  9   6   9  1   
 10   6  22  1   
 11   7   8  ar  
 12   8  10  1   
 13   9  11  1   
 14   9  12  1   
 15   9  13  1   
 16  10  23  1   
 17  10  24  1   
 18  10  25  1   
 19  11  14  1   
 20  11  26  1   
 21  11  27  1   
 22  12  15  1   
 23  12  28  1   
 24  12  29  1   
 25  13  16  1   
 26  13  30  1   
 27  13  31  1   
 28  14  17  1   
 29  14  18  1   
 30  14  19  1   
 31  15  18  1   
 32  15  20  1   
 33  15  32  1   
 34  16  19  1   
 35  16  20  1   
 36  16  33  1   
 37  17  34  1   
 38  18  35  1   
 39  18  36  1   
 40  19  37  1   
 41  19  38  1   
 42  20  39  1   
 43  20  40  1   
@<TRIPOS>SUBSTRUCTURE
  1 ****   9 GROUP 4 **** **** 0

# MOE 2024.06 (io_trps.svl 2023.06)
