@<TRIPOS>MOLECULE
NONAME
50 52 1 0 0 
SMALL
USER_CHARGES


@<TRIPOS>ATOM
  1 S       -3.7620     2.1410    -2.8550 S.3   1 <1>  -0.3320 
  2 C       -3.4810     1.8590    -1.1000 C.ar  1 <1>   0.1020 
  3 C       -2.2490     2.9810    -3.5060 C.3   1 <1>  -0.0100 
  4 C       -4.4550     1.1490    -0.4250 C.ar  1 <1>  -0.1500 
  5 C       -2.3580     2.3300    -0.4400 C.ar  1 <1>  -0.1500 
  6 C       -4.3240     0.9140     0.9370 C.ar  1 <1>  -0.1430 
  7 C       -2.2210     2.0850     0.9150 C.ar  1 <1>  -0.1500 
  8 C       -3.1980     1.3830     1.6010 C.ar  1 <1>  -0.1500 
  9 C       -5.4110     0.1710     1.6920 C.3   1 <1>   0.4860 
 10 N       -6.6830     0.9170     1.5220 N.4   1 <1>  -0.9590 
 11 C       -6.6350     2.3230     2.0110 C.3   1 <1>   0.3430 
 12 C       -7.8990     0.1970     1.9660 C.3   1 <1>   0.3430 
 13 C       -7.9170     3.0710     1.6180 C.3   1 <1>  -0.1600 
 14 C       -9.1530     0.9200     1.4510 C.3   1 <1>  -0.1600 
 15 C       -8.8710     2.2530     0.7240 C.3   1 <1>   0.2800 
 16 O       -8.1980     1.9110    -0.4700 O.3   1 <1>  -0.5600 
 17 C      -10.1830     3.0170     0.4150 C.3   1 <1>  -0.1600 
 18 C       -8.1580     2.8760    -1.4880 C.3   1 <1>   0.1200 
 19 C      -10.6760     2.7970    -1.0180 C.3   1 <1>   0.2800 
 20 C       -9.5720     3.1780    -2.0100 C.3   1 <1>  -0.1600 
 21 O      -10.9220     1.4590    -1.1780 O.3   1 <1>  -0.6800 
 22 C      -11.9900     3.5200    -1.3010 C.3   1 <1>  -0.2400 
 23 H       -2.3830     3.1150    -4.5650 H     1 <1>   0.0800 
 24 H       -1.4050     2.3460    -3.3080 H     1 <1>   0.0800 
 25 H       -2.1540     3.9300    -3.0110 H     1 <1>   0.0800 
 26 H       -5.3040     0.7940    -0.9840 H     1 <1>   0.1500 
 27 H       -1.5950     2.8800    -0.9570 H     1 <1>   0.1500 
 28 H       -1.3480     2.4440     1.4360 H     1 <1>   0.1500 
 29 H       -3.0660     1.2080     2.6560 H     1 <1>   0.1500 
 30 H       -5.1570     0.1000     2.7370 H     1 <1>   0.0800 
 31 H       -5.5070    -0.8240     1.2900 H     1 <1>   0.0800 
 32 H       -6.8250     1.0350     0.5000 H     1 <1>   0.4500 
 33 H       -5.7900     2.8270     1.5690 H     1 <1>   0.0800 
 34 H       -6.5140     2.3400     3.0820 H     1 <1>   0.0800 
 35 H       -7.9230     0.1480     3.0430 H     1 <1>   0.0800 
 36 H       -7.8910    -0.8110     1.5810 H     1 <1>   0.0800 
 37 H       -7.6540     3.9980     1.1420 H     1 <1>   0.0800 
 38 H       -8.4350     3.3360     2.5220 H     1 <1>   0.0800 
 39 H       -9.7890     1.1050     2.2980 H     1 <1>   0.0800 
 40 H       -9.7000     0.2580     0.8050 H     1 <1>   0.0800 
 41 H      -10.0160     4.0710     0.5440 H     1 <1>   0.0800 
 42 H      -10.9570     2.7510     1.1120 H     1 <1>   0.0800 
 43 H       -7.5400     2.4970    -2.2840 H     1 <1>   0.0800 
 44 H       -7.6980     3.7680    -1.1000 H     1 <1>   0.0800 
 45 H       -9.7360     2.6830    -2.9510 H     1 <1>   0.0800 
 46 H       -9.6210     4.2330    -2.2100 H     1 <1>   0.0800 
 47 H      -10.0550     1.0110    -1.2340 H     1 <1>   0.4000 
 48 H      -11.8680     4.5810    -1.1820 H     1 <1>   0.0800 
 49 H      -12.7540     3.1860    -0.6230 H     1 <1>   0.0800 
 50 H      -12.3100     3.3260    -2.3100 H     1 <1>   0.0800 
@<TRIPOS>BOND
  1   1   2  1   
  2   1   3  1   
  3   2   4  ar  
  4   2   5  ar  
  5   3  23  1   
  6   3  24  1   
  7   3  25  1   
  8   4   6  ar  
  9   4  26  1   
 10   5   7  ar  
 11   5  27  1   
 12   6   8  ar  
 13   6   9  1   
 14   7   8  ar  
 15   7  28  1   
 16   8  29  1   
 17   9  10  1   
 18   9  30  1   
 19   9  31  1   
 20  10  11  1   
 21  10  12  1   
 22  10  32  1   
 23  11  13  1   
 24  11  33  1   
 25  11  34  1   
 26  12  14  1   
 27  12  35  1   
 28  12  36  1   
 29  13  15  1   
 30  13  37  1   
 31  13  38  1   
 32  14  15  1   
 33  14  39  1   
 34  14  40  1   
 35  15  16  1   
 36  15  17  1   
 37  16  18  1   
 38  17  19  1   
 39  17  41  1   
 40  17  42  1   
 41  18  20  1   
 42  18  43  1   
 43  18  44  1   
 44  19  20  1   
 45  19  21  1   
 46  19  22  1   
 47  20  45  1   
 48  20  46  1   
 49  21  47  1   
 50  22  48  1   
 51  22  49  1   
 52  22  50  1   
@<TRIPOS>SUBSTRUCTURE
  1 ****  16 GROUP 4 **** **** 0

# MOE 2024.06 (io_trps.svl 2023.06)
