@<TRIPOS>MOLECULE
NONAME
36 36 1 0 0 
SMALL
USER_CHARGES


@<TRIPOS>ATOM
  1 F        0.0130     1.3360     0.4450 F     1 <1>  -0.3400 
  2 C        1.3370     1.2900     0.4180 C.3   1 <1>   1.0200 
  3 F        1.7320     1.1250     1.6730 F     1 <1>  -0.3400 
  4 F        1.6670     0.1810    -0.2280 F     1 <1>  -0.3400 
  5 C        1.9400     2.5410    -0.2370 C.3   1 <1>  -0.0800 
  6 C        3.4640     2.5040    -0.2900 C.3   1 <1>   0.1400 
  7 C        1.6210     3.8770     0.4540 C.3   1 <1>  -0.1600 
  8 N        3.8700     3.9230    -0.2730 N.am  1 <1>  -0.6600 
  9 C        2.7350     4.8310     0.0100 C.3   1 <1>   0.2200 
 10 C        5.1790     4.3120    -0.3010 C.2   1 <1>   0.7800 
 11 C        2.3990     5.6420    -1.2570 C.3   1 <1>   0.1200 
 12 O        6.0770     3.5080    -0.4480 O.2   1 <1>  -0.5700 
 13 O        5.4210     5.6160    -0.1640 O.3   1 <1>  -0.4300 
 14 O        1.2830     6.4480    -1.0530 O.3   1 <1>  -0.6800 
 15 C        6.6760     6.2600    -0.1750 C.3   1 <1>   0.2800 
 16 C        7.5340     5.7700     0.9970 C.3   1 <1>  -0.2400 
 17 C        6.3610     7.7450     0.0160 C.3   1 <1>  -0.2400 
 18 C        7.3640     6.0590    -1.5300 C.3   1 <1>  -0.2400 
 19 H        1.5780     2.5810    -1.2480 H     1 <1>   0.0800 
 20 H        3.8230     2.0160    -1.1820 H     1 <1>   0.0800 
 21 H        3.8810     2.0150     0.5760 H     1 <1>   0.0800 
 22 H        1.6870     3.7670     1.5240 H     1 <1>   0.0800 
 23 H        0.6360     4.2370     0.2180 H     1 <1>   0.0800 
 24 H        2.9980     5.5100     0.8050 H     1 <1>   0.0800 
 25 H        2.1980     4.9930    -2.0910 H     1 <1>   0.0800 
 26 H        3.2220     6.2910    -1.5020 H     1 <1>   0.0800 
 27 H        0.4640     5.9170    -1.0110 H     1 <1>   0.4000 
 28 H        8.4300     6.3590     1.0670 H     1 <1>   0.0800 
 29 H        7.8290     4.7460     0.8600 H     1 <1>   0.0800 
 30 H        6.9930     5.8610     1.9210 H     1 <1>   0.0800 
 31 H        7.2680     8.3220     0.0200 H     1 <1>   0.0800 
 32 H        5.8550     7.9020     0.9510 H     1 <1>   0.0800 
 33 H        5.7370     8.1000    -0.7840 H     1 <1>   0.0800 
 34 H        8.2510     6.6620    -1.5830 H     1 <1>   0.0800 
 35 H        6.7060     6.3470    -2.3300 H     1 <1>   0.0800 
 36 H        7.6590     5.0350    -1.6660 H     1 <1>   0.0800 
@<TRIPOS>BOND
  1   1   2  1   
  2   2   3  1   
  3   2   4  1   
  4   2   5  1   
  5   5   6  1   
  6   5   7  1   
  7   5  19  1   
  8   6   8  1   
  9   6  20  1   
 10   6  21  1   
 11   7   9  1   
 12   7  22  1   
 13   7  23  1   
 14   8   9  1   
 15   8  10  am  
 16   9  11  1   
 17   9  24  1   
 18  10  12  2   
 19  10  13  1   
 20  11  14  1   
 21  11  25  1   
 22  11  26  1   
 23  13  15  1   
 24  14  27  1   
 25  15  16  1   
 26  15  17  1   
 27  15  18  1   
 28  16  28  1   
 29  16  29  1   
 30  16  30  1   
 31  17  31  1   
 32  17  32  1   
 33  17  33  1   
 34  18  34  1   
 35  18  35  1   
 36  18  36  1   
@<TRIPOS>SUBSTRUCTURE
  1 ****   8 GROUP 4 **** **** 0

# MOE 2024.06 (io_trps.svl 2023.06)
