@<TRIPOS>MOLECULE
NONAME
44 47 1 0 0 
SMALL
USER_CHARGES


@<TRIPOS>ATOM
  1 F       -0.5310    -0.3950    -0.4680 F     1 <1>  -0.1900 
  2 C       -1.7170    -0.9180    -0.2730 C.ar  1 <1>   0.1900 
  3 C       -2.7470    -0.6570    -1.1400 C.ar  1 <1>   0.1600 
  4 C       -1.9510    -1.7370     0.8030 C.ar  1 <1>   0.1600 
  5 N       -3.9400    -1.1780    -0.9530 N.ar  1 <1>  -0.6200 
  6 N       -3.1370    -2.2670     1.0060 N.ar  1 <1>  -0.6200 
  7 C       -4.0920    -1.9690     0.1170 C.ar  1 <1>   0.7200 
  8 N       -5.3420    -2.5210     0.3210 N.pl3 1 <1>  -0.8380 
  9 C       -5.7280    -3.2400     1.5700 C.3   1 <1>   0.2090 
 10 C       -6.4470    -2.4460    -0.6760 C.3   1 <1>   0.2090 
 11 C       -6.1500    -4.6680     1.2220 C.3   1 <1>  -0.1600 
 12 C       -6.8760    -3.8630    -1.0570 C.3   1 <1>  -0.1600 
 13 C       -7.2780    -4.6950     0.1760 C.3   1 <1>   0.4240 
 14 O       -8.3390    -4.0090     0.8060 O.3   1 <1>  -0.5600 
 15 C       -7.6850    -6.1530    -0.1930 C.ar  1 <1>  -0.1430 
 16 C       -9.6260    -4.2170     0.3270 C.3   1 <1>   0.1200 
 17 C       -6.7830    -7.0580    -0.7700 C.ar  1 <1>   0.0830 
 18 C       -8.9870    -6.5930     0.0480 C.ar  1 <1>  -0.1430 
 19 C      -10.0150    -5.6530     0.6410 C.3   1 <1>  -0.0170 
 20 O       -5.5160    -6.6440    -1.0370 O.3   1 <1>  -0.3630 
 21 C       -7.1850    -8.3590    -1.0680 C.ar  1 <1>  -0.1500 
 22 C       -9.3750    -7.8890    -0.2510 C.ar  1 <1>  -0.1500 
 23 C       -4.5190    -7.4980    -1.5520 C.3   1 <1>   0.0400 
 24 C       -8.4750    -8.7730    -0.8070 C.ar  1 <1>  -0.1500 
 25 H       -2.5860    -0.0170    -1.9890 H     1 <1>   0.1500 
 26 H       -1.1580    -1.9550     1.4960 H     1 <1>   0.1500 
 27 H       -6.5470    -2.7170     2.0340 H     1 <1>   0.0800 
 28 H       -4.9210    -3.2710     2.2800 H     1 <1>   0.0800 
 29 H       -6.1470    -1.9200    -1.5650 H     1 <1>   0.0800 
 30 H       -7.2750    -1.9120    -0.2410 H     1 <1>   0.0800 
 31 H       -6.4810    -5.1770     2.1070 H     1 <1>   0.0800 
 32 H       -5.2800    -5.1790     0.8640 H     1 <1>   0.0800 
 33 H       -6.0470    -4.3210    -1.5600 H     1 <1>   0.0800 
 34 H       -7.6850    -3.8280    -1.7600 H     1 <1>   0.0800 
 35 H       -9.6500    -4.0270    -0.7320 H     1 <1>   0.0800 
 36 H      -10.2820    -3.5280     0.8280 H     1 <1>   0.0800 
 37 H      -10.9870    -5.8520     0.2290 H     1 <1>   0.0800 
 38 H      -10.0620    -5.7880     1.7070 H     1 <1>   0.0800 
 39 H       -6.5100    -9.0670    -1.5060 H     1 <1>   0.1500 
 40 H      -10.3810    -8.2150    -0.0520 H     1 <1>   0.1500 
 41 H       -3.6100    -6.9310    -1.6390 H     1 <1>   0.0800 
 42 H       -4.8250    -7.8470    -2.5220 H     1 <1>   0.0800 
 43 H       -4.3760    -8.3170    -0.8710 H     1 <1>   0.0800 
 44 H       -8.7790    -9.7790    -1.0380 H     1 <1>   0.1500 
@<TRIPOS>BOND
  1   1   2  1   
  2   2   3  ar  
  3   2   4  ar  
  4   3   5  ar  
  5   3  25  1   
  6   4   6  ar  
  7   4  26  1   
  8   5   7  ar  
  9   6   7  ar  
 10   7   8  1   
 11   8   9  1   
 12   8  10  1   
 13   9  11  1   
 14   9  27  1   
 15   9  28  1   
 16  10  12  1   
 17  10  29  1   
 18  10  30  1   
 19  11  13  1   
 20  11  31  1   
 21  11  32  1   
 22  12  13  1   
 23  12  33  1   
 24  12  34  1   
 25  13  14  1   
 26  13  15  1   
 27  14  16  1   
 28  15  17  ar  
 29  15  18  ar  
 30  16  19  1   
 31  16  35  1   
 32  16  36  1   
 33  17  20  1   
 34  17  21  ar  
 35  18  19  1   
 36  18  22  ar  
 37  19  37  1   
 38  19  38  1   
 39  20  23  1   
 40  21  24  ar  
 41  21  39  1   
 42  22  24  ar  
 43  22  40  1   
 44  23  41  1   
 45  23  42  1   
 46  23  43  1   
 47  24  44  1   
@<TRIPOS>SUBSTRUCTURE
  1 ****  12 GROUP 4 **** **** 0

# MOE 2024.06 (io_trps.svl 2023.06)
