@<TRIPOS>MOLECULE
NONAME
45 47 1 0 0 
SMALL
USER_CHARGES


@<TRIPOS>ATOM
  1 O       -0.6940     2.0540     3.1930 O.2   1 <1>  -0.5700 
  2 C       -0.0490     2.7820     2.4510 C.2   1 <1>   0.6160 
  3 N       -0.5770     3.2110     1.2410 N.am  1 <1>  -0.4690 
  4 C        1.2590     3.2200     2.7880 C.2   1 <1>  -0.1360 
  5 C        0.1500     4.0340     0.4140 C.2   1 <1>  -0.0410 
  6 C       -1.9340     2.7480     0.8470 C.3   1 <1>   0.0600 
  7 C        1.9690     4.0370     1.9640 C.2   1 <1>  -0.1500 
  8 C        1.4110     4.4820     0.7270 C.2   1 <1>   0.0140 
  9 C        2.1670     5.3600    -0.1390 C.2   1 <1>   0.6160 
 10 O        3.3790     5.4650    -0.0450 O.2   1 <1>  -0.5700 
 11 N        1.5600     6.1780    -1.0660 N.am  1 <1>  -0.6600 
 12 C        2.1670     6.3920    -2.4230 C.3   1 <1>   0.1400 
 13 C        0.6020     7.2230    -0.6220 C.3   1 <1>   0.1400 
 14 C        3.3890     7.3410    -2.4180 C.3   1 <1>   0.3430 
 15 C        1.3500     8.4010     0.0190 C.3   1 <1>  -0.1600 
 16 N        3.5230     8.0740    -1.1250 N.4   1 <1>  -0.9590 
 17 C        2.4290     9.0470    -0.8570 C.3   1 <1>   0.3430 
 18 C        4.8830     8.6110    -0.8880 C.3   1 <1>   0.5240 
 19 C        4.9960     8.9100     0.5890 C.2   1 <1>  -0.1810 
 20 C        5.0710     8.0300     1.6120 C.2   1 <1>  -0.0100 
 21 C        5.0330    10.1820     1.1820 C.2   1 <1>  -0.1500 
 22 O        5.1390     8.6640     2.7630 O.3   1 <1>  -0.2800 
 23 C        5.1200     9.9570     2.5110 C.2   1 <1>  -0.0100 
 24 H        1.6480     2.8680     3.7240 H     1 <1>   0.1500 
 25 H       -0.3120     4.3200    -0.5160 H     1 <1>   0.1500 
 26 H       -2.6500     3.0690     1.5840 H     1 <1>   0.0800 
 27 H       -1.9460     1.6730     0.7990 H     1 <1>   0.0800 
 28 H       -2.2120     3.1470    -0.1120 H     1 <1>   0.0800 
 29 H        2.9620     4.3610     2.2260 H     1 <1>   0.1500 
 30 H        1.4190     6.7800    -3.0930 H     1 <1>   0.0800 
 31 H        2.4760     5.4400    -2.8210 H     1 <1>   0.0800 
 32 H       -0.0820     6.8050     0.0990 H     1 <1>   0.0800 
 33 H        0.0190     7.5630    -1.4620 H     1 <1>   0.0800 
 34 H        3.3220     8.0310    -3.2430 H     1 <1>   0.0800 
 35 H        4.2680     6.7360    -2.5710 H     1 <1>   0.0800 
 36 H        1.7860     8.0910     0.9530 H     1 <1>   0.0800 
 37 H        0.6240     9.1580     0.2600 H     1 <1>   0.0800 
 38 H        3.4150     7.3160    -0.4200 H     1 <1>   0.4500 
 39 H        2.8230     9.9020    -0.3320 H     1 <1>   0.0800 
 40 H        2.0000     9.3920    -1.7840 H     1 <1>   0.0800 
 41 H        5.0510     9.5020    -1.4700 H     1 <1>   0.0800 
 42 H        5.6220     7.8730    -1.1540 H     1 <1>   0.0800 
 43 H        5.0780     6.9520     1.6200 H     1 <1>   0.1500 
 44 H        5.0040    11.1310     0.6760 H     1 <1>   0.1500 
 45 H        5.1760    10.6460     3.3370 H     1 <1>   0.1500 
@<TRIPOS>BOND
  1   1   2  2   
  2   2   3  am  
  3   2   4  1   
  4   3   5  1   
  5   3   6  1   
  6   4   7  2   
  7   4  24  1   
  8   5   8  2   
  9   5  25  1   
 10   6  26  1   
 11   6  27  1   
 12   6  28  1   
 13   7   8  1   
 14   7  29  1   
 15   8   9  1   
 16   9  10  2   
 17   9  11  am  
 18  11  12  1   
 19  11  13  1   
 20  12  14  1   
 21  12  30  1   
 22  12  31  1   
 23  13  15  1   
 24  13  32  1   
 25  13  33  1   
 26  14  16  1   
 27  14  34  1   
 28  14  35  1   
 29  15  17  1   
 30  15  36  1   
 31  15  37  1   
 32  16  17  1   
 33  16  18  1   
 34  16  38  1   
 35  17  39  1   
 36  17  40  1   
 37  18  19  1   
 38  18  41  1   
 39  18  42  1   
 40  19  20  2   
 41  19  21  1   
 42  20  22  1   
 43  20  43  1   
 44  21  23  2   
 45  21  44  1   
 46  22  23  1   
 47  23  45  1   
@<TRIPOS>SUBSTRUCTURE
  1 ****   9 GROUP 4 **** **** 0

# MOE 2024.06 (io_trps.svl 2023.06)
