@<TRIPOS>MOLECULE
NONAME
44 45 1 0 0 
SMALL
USER_CHARGES


@<TRIPOS>ATOM
  1 O       -0.2050     0.9260     0.3780 O.2   1 <1>  -0.5700 
  2 C       -0.3150     2.1150     0.1940 C.2   1 <1>   0.5690 
  3 N       -1.3260     2.8560     0.7420 N.am  1 <1>  -0.6600 
  4 C        0.7080     2.8030    -0.7090 C.3   1 <1>   0.1810 
  5 C       -1.4740     4.3200     0.4450 C.3   1 <1>   0.3640 
  6 C       -2.3240     2.2720     1.6850 C.3   1 <1>   0.0600 
  7 O        0.8370     4.1730    -0.4240 O.3   1 <1>  -0.5600 
  8 C       -2.8910     4.6280    -0.0720 C.ar  1 <1>  -0.1430 
  9 C       -0.3820     4.9060    -0.4910 C.3   1 <1>   0.2610 
 10 C       -3.5170     3.9720    -1.1380 C.ar  1 <1>  -0.1430 
 11 C       -3.5850     5.6390     0.5860 C.ar  1 <1>  -0.1500 
 12 C       -0.1240     6.3730    -0.1240 C.2   1 <1>   0.5690 
 13 C       -4.8060     4.3350    -1.5020 C.ar  1 <1>  -0.1500 
 14 C       -2.8670     2.8500    -1.9410 C.3   1 <1>  -0.0960 
 15 C       -4.8660     5.9940     0.2130 C.ar  1 <1>  -0.1500 
 16 O       -0.9980     7.1940    -0.2700 O.2   1 <1>  -0.5700 
 17 N        1.0950     6.7220     0.3720 N.am  1 <1>  -0.7300 
 18 C       -5.4810     5.3390    -0.8340 C.ar  1 <1>  -0.1500 
 19 C        1.5280     8.0840     0.7420 C.3   1 <1>   0.1400 
 20 C        2.7590     8.4570    -0.0800 C.3   1 <1>  -0.1600 
 21 C        3.2150     9.8760     0.2550 C.3   1 <1>   0.1200 
 22 O        4.3140    10.1760    -0.5250 O.3   1 <1>  -0.6800 
 23 H        0.4230     2.6890    -1.7390 H     1 <1>   0.0800 
 24 H        1.6700     2.3470    -0.5630 H     1 <1>   0.0800 
 25 H       -1.3580     4.8210     1.3900 H     1 <1>   0.0800 
 26 H       -2.3550     2.8520     2.5900 H     1 <1>   0.0800 
 27 H       -2.0630     1.2580     1.9350 H     1 <1>   0.0800 
 28 H       -3.3010     2.2730     1.2330 H     1 <1>   0.0800 
 29 H       -0.7220     4.8830    -1.5090 H     1 <1>   0.0800 
 30 H       -3.1260     6.1740     1.4000 H     1 <1>   0.1500 
 31 H       -5.3010     3.8360    -2.3170 H     1 <1>   0.1500 
 32 H       -3.4360     2.6310    -2.8260 H     1 <1>   0.0800 
 33 H       -2.8200     1.9530    -1.3500 H     1 <1>   0.0800 
 34 H       -1.8790     3.1220    -2.2520 H     1 <1>   0.0800 
 35 H       -5.3820     6.7810     0.7340 H     1 <1>   0.1500 
 36 H        1.7980     5.9780     0.4220 H     1 <1>   0.3700 
 37 H       -6.4790     5.6100    -1.1310 H     1 <1>   0.1500 
 38 H        0.7310     8.7850     0.5500 H     1 <1>   0.0800 
 39 H        1.7560     8.1090     1.7940 H     1 <1>   0.0800 
 40 H        2.5080     8.4090    -1.1250 H     1 <1>   0.0800 
 41 H        3.5530     7.7640     0.1340 H     1 <1>   0.0800 
 42 H        3.4970     9.9680     1.2900 H     1 <1>   0.0800 
 43 H        2.4440    10.5930     0.0270 H     1 <1>   0.0800 
 44 H        5.0500     9.5610    -0.3440 H     1 <1>   0.4000 
@<TRIPOS>BOND
  1   1   2  2   
  2   2   3  am  
  3   2   4  1   
  4   3   5  1   
  5   3   6  1   
  6   4   7  1   
  7   4  23  1   
  8   4  24  1   
  9   5   8  1   
 10   5   9  1   
 11   5  25  1   
 12   6  26  1   
 13   6  27  1   
 14   6  28  1   
 15   7   9  1   
 16   8  10  ar  
 17   8  11  ar  
 18   9  12  1   
 19   9  29  1   
 20  10  13  ar  
 21  10  14  1   
 22  11  15  ar  
 23  11  30  1   
 24  12  16  2   
 25  12  17  am  
 26  13  18  ar  
 27  13  31  1   
 28  14  32  1   
 29  14  33  1   
 30  14  34  1   
 31  15  18  ar  
 32  15  35  1   
 33  17  19  1   
 34  17  36  1   
 35  18  37  1   
 36  19  20  1   
 37  19  38  1   
 38  19  39  1   
 39  20  21  1   
 40  20  40  1   
 41  20  41  1   
 42  21  22  1   
 43  21  42  1   
 44  21  43  1   
 45  22  44  1   
@<TRIPOS>SUBSTRUCTURE
  1 ****   9 GROUP 4 **** **** 0

# MOE 2024.06 (io_trps.svl 2023.06)
