@<TRIPOS>MOLECULE
NONAME
50 52 1 0 0 
SMALL
USER_CHARGES


@<TRIPOS>ATOM
  1 F       -4.7000     0.1320     1.3890 F     1 <1>  -0.1900 
  2 C       -3.7400     0.7500     0.7470 C.ar  1 <1>   0.1900 
  3 C       -3.6620     2.1310     0.8130 C.ar  1 <1>   0.1900 
  4 C       -2.8180     0.0020     0.0150 C.ar  1 <1>   0.0000 
  5 F       -4.5410     2.8100     1.5060 F     1 <1>  -0.1900 
  6 C       -2.6640     2.8230     0.1550 C.ar  1 <1>  -0.1500 
  7 C       -2.8710    -1.4400    -0.0750 C.ar  1 <1>   0.0000 
  8 C       -1.8160     0.7170    -0.6450 C.ar  1 <1>  -0.1500 
  9 C       -1.7360     2.1010    -0.5790 C.ar  1 <1>  -0.1500 
 10 C       -4.0040    -2.1110    -0.5270 C.ar  1 <1>   0.1600 
 11 C       -1.7810    -2.2220     0.2790 C.ar  1 <1>  -0.1500 
 12 N       -4.1310    -3.4200    -0.6550 N.ar  1 <1>  -0.6200 
 13 C       -1.8960    -3.5860     0.1570 C.ar  1 <1>  -0.1500 
 14 C       -3.0830    -4.1510    -0.3080 C.ar  1 <1>   0.4270 
 15 N       -3.2970    -5.5040    -0.4660 N.am  1 <1>  -0.5470 
 16 C       -2.5470    -6.6010    -0.1600 C.2   1 <1>   0.5690 
 17 O       -1.4900    -6.5350     0.4140 O.2   1 <1>  -0.5700 
 18 C       -3.0360    -7.9780    -0.5640 C.3   1 <1>  -0.0990 
 19 C       -4.3600    -8.3570     0.1150 C.3   1 <1>   0.2510 
 20 N       -4.3420    -9.8290     0.3880 N.3   1 <1>  -0.8100 
 21 C       -5.5620    -7.8790    -0.7340 C.2   1 <1>   0.5690 
 22 C       -4.7850   -10.1980     1.7420 C.3   1 <1>   0.1900 
 23 C       -4.7810   -10.6450    -0.7720 C.3   1 <1>   0.1100 
 24 O       -5.8190    -6.7020    -0.8020 O.2   1 <1>  -0.5700 
 25 N       -6.3130    -8.7640    -1.4310 N.am  1 <1>  -0.7300 
 26 C       -4.2210   -11.5660     2.1210 C.3   1 <1>  -0.2400 
 27 C       -6.3040   -10.1610     1.9060 C.3   1 <1>  -0.2400 
 28 C       -6.1440   -10.2370    -1.3710 C.3   1 <1>   0.1400 
 29 H       -2.6170     3.8960     0.2170 H     1 <1>   0.1500 
 30 H       -1.0860     0.1770    -1.2250 H     1 <1>   0.1500 
 31 H       -0.9480     2.6190    -1.1010 H     1 <1>   0.1500 
 32 H       -4.8610    -1.5210    -0.8030 H     1 <1>   0.1500 
 33 H       -0.8730    -1.7730     0.6410 H     1 <1>   0.1500 
 34 H       -1.0650    -4.2090     0.4230 H     1 <1>   0.1500 
 35 H       -4.2480    -5.6780    -0.8130 H     1 <1>   0.3700 
 36 H       -2.2780    -8.6850    -0.2770 H     1 <1>   0.0800 
 37 H       -3.1380    -8.0170    -1.6320 H     1 <1>   0.0800 
 38 H       -4.4040    -7.8350     1.0550 H     1 <1>   0.0800 
 39 H       -4.3590    -9.4880     2.4330 H     1 <1>   0.0800 
 40 H       -4.8030   -11.6880    -0.5130 H     1 <1>   0.0800 
 41 H       -4.0400   -10.5400    -1.5470 H     1 <1>   0.0800 
 42 H       -7.1120    -8.3910    -1.9470 H     1 <1>   0.3700 
 43 H       -4.6880   -12.3550     1.5630 H     1 <1>   0.0800 
 44 H       -4.3960   -11.7510     3.1650 H     1 <1>   0.0800 
 45 H       -3.1600   -11.5830     1.9500 H     1 <1>   0.0800 
 46 H       -6.7700   -10.9660     1.3730 H     1 <1>   0.0800 
 47 H       -6.7030    -9.2200     1.5730 H     1 <1>   0.0800 
 48 H       -6.5510   -10.2740     2.9460 H     1 <1>   0.0800 
 49 H       -6.9420   -10.6570    -0.7870 H     1 <1>   0.0800 
 50 H       -6.2230   -10.6430    -2.3650 H     1 <1>   0.0800 
@<TRIPOS>BOND
  1   1   2  1   
  2   2   3  ar  
  3   2   4  ar  
  4   3   5  1   
  5   3   6  ar  
  6   4   7  1   
  7   4   8  ar  
  8   6   9  ar  
  9   6  29  1   
 10   7  10  ar  
 11   7  11  ar  
 12   8   9  ar  
 13   8  30  1   
 14   9  31  1   
 15  10  12  ar  
 16  10  32  1   
 17  11  13  ar  
 18  11  33  1   
 19  12  14  ar  
 20  13  14  ar  
 21  13  34  1   
 22  14  15  1   
 23  15  16  am  
 24  15  35  1   
 25  16  17  2   
 26  16  18  1   
 27  18  19  1   
 28  18  36  1   
 29  18  37  1   
 30  19  20  1   
 31  19  21  1   
 32  19  38  1   
 33  20  22  1   
 34  20  23  1   
 35  21  24  2   
 36  21  25  am  
 37  22  26  1   
 38  22  27  1   
 39  22  39  1   
 40  23  28  1   
 41  23  40  1   
 42  23  41  1   
 43  25  28  1   
 44  25  42  1   
 45  26  43  1   
 46  26  44  1   
 47  26  45  1   
 48  27  46  1   
 49  27  47  1   
 50  27  48  1   
 51  28  49  1   
 52  28  50  1   
@<TRIPOS>SUBSTRUCTURE
  1 ****  14 GROUP 4 **** **** 0

# MOE 2024.06 (io_trps.svl 2023.06)
