@<TRIPOS>MOLECULE
NONAME
39 41 1 0 0 
SMALL
USER_CHARGES


@<TRIPOS>ATOM
  1 F       -0.6730    -0.1700     0.1460 F     1 <1>  -0.1900 
  2 C       -1.7900    -0.8620     0.2020 C.ar  1 <1>   0.1900 
  3 C       -1.7890    -2.2430     0.1540 C.ar  1 <1>   0.3920 
  4 C       -2.9890    -0.2110     0.3100 C.ar  1 <1>   0.1600 
  5 O       -0.6170    -2.9070     0.0500 O.3   1 <1>  -0.3630 
  6 N       -2.9160    -2.9270     0.2080 N.ar  1 <1>  -0.6200 
  7 N       -4.1250    -0.8760     0.3680 N.ar  1 <1>  -0.6200 
  8 C       -0.5770    -4.3210     0.0330 C.3   1 <1>   0.0400 
  9 C       -4.0310    -2.2070     0.3170 C.ar  1 <1>   0.7200 
 10 N       -5.2090    -2.9090     0.3890 N.pl3 1 <1>  -0.8380 
 11 C       -6.5440    -2.2720     0.2540 C.3   1 <1>   0.2090 
 12 C       -5.2950    -4.3670     0.1480 C.3   1 <1>   0.2090 
 13 C       -7.4950    -3.4120    -0.1210 C.3   1 <1>   0.2000 
 14 C       -6.7790    -4.7020     0.2790 C.3   1 <1>  -0.0800 
 15 O       -8.7080    -3.3190     0.5480 O.3   1 <1>  -0.6800 
 16 C       -7.2160    -5.9140    -0.5580 C.3   1 <1>  -0.0170 
 17 C       -6.4130    -7.1540    -0.1950 C.ar  1 <1>  -0.1430 
 18 C       -5.3980    -7.6310    -0.9980 C.ar  1 <1>  -0.1500 
 19 C       -6.6600    -7.8640     0.9620 C.ar  1 <1>  -0.1500 
 20 C       -4.6950    -8.7620    -0.6140 C.ar  1 <1>   0.1600 
 21 C       -5.8980    -8.9830     1.2550 C.ar  1 <1>   0.1600 
 22 N       -4.9200    -9.4480     0.4940 N.ar  1 <1>  -0.6200 
 23 H       -3.0150     0.8630     0.3490 H     1 <1>   0.1500 
 24 H        0.4500    -4.6300    -0.0440 H     1 <1>   0.0800 
 25 H       -1.1350    -4.6740    -0.8170 H     1 <1>   0.0800 
 26 H       -1.0080    -4.6930     0.9460 H     1 <1>   0.0800 
 27 H       -6.8180    -1.8270     1.1950 H     1 <1>   0.0800 
 28 H       -6.5290    -1.5220    -0.5180 H     1 <1>   0.0800 
 29 H       -4.9360    -4.5800    -0.8440 H     1 <1>   0.0800 
 30 H       -4.7040    -4.9110     0.8670 H     1 <1>   0.0800 
 31 H       -7.6900    -3.3830    -1.1800 H     1 <1>   0.0800 
 32 H       -6.9610    -4.9020     1.3200 H     1 <1>   0.0800 
 33 H       -8.5580    -3.3130     1.5130 H     1 <1>   0.4000 
 34 H       -7.0940    -5.6980    -1.6050 H     1 <1>   0.0800 
 35 H       -8.2620    -6.1050    -0.3890 H     1 <1>   0.0800 
 36 H       -5.1440    -7.1390    -1.9190 H     1 <1>   0.1500 
 37 H       -7.4360    -7.5580     1.6390 H     1 <1>   0.1500 
 38 H       -3.9070    -9.1210    -1.2540 H     1 <1>   0.1500 
 39 H       -6.1040    -9.5240     2.1620 H     1 <1>   0.1500 
@<TRIPOS>BOND
  1   1   2  1   
  2   2   3  ar  
  3   2   4  ar  
  4   3   5  1   
  5   3   6  ar  
  6   4   7  ar  
  7   4  23  1   
  8   5   8  1   
  9   6   9  ar  
 10   7   9  ar  
 11   8  24  1   
 12   8  25  1   
 13   8  26  1   
 14   9  10  1   
 15  10  11  1   
 16  10  12  1   
 17  11  13  1   
 18  11  27  1   
 19  11  28  1   
 20  12  14  1   
 21  12  29  1   
 22  12  30  1   
 23  13  14  1   
 24  13  15  1   
 25  13  31  1   
 26  14  16  1   
 27  14  32  1   
 28  15  33  1   
 29  16  17  1   
 30  16  34  1   
 31  16  35  1   
 32  17  18  ar  
 33  17  19  ar  
 34  18  20  ar  
 35  18  36  1   
 36  19  21  ar  
 37  19  37  1   
 38  20  22  ar  
 39  20  38  1   
 40  21  22  ar  
 41  21  39  1   
@<TRIPOS>SUBSTRUCTURE
  1 ****  12 GROUP 4 **** **** 0

# MOE 2024.06 (io_trps.svl 2023.06)
