@<TRIPOS>MOLECULE
NONAME
54 57 1 0 0 
SMALL
USER_CHARGES


@<TRIPOS>ATOM
  1 O        1.3530    -0.0300     1.3770 O.co2 1 <1>  -0.9000 
  2 C        1.8350     0.8520     0.6610 C.2   1 <1>   0.9060 
  3 O        1.9830     2.0000     1.0860 O.co2 1 <1>  -0.9000 
  4 C        2.6120     0.4210    -0.6010 C.3   1 <1>  -0.1060 
  5 C        3.6320    -0.6130    -0.0870 C.3   1 <1>   0.4230 
  6 C        3.4220     1.6040    -1.2280 C.3   1 <1>  -0.1600 
  7 C        1.6890    -0.1750    -1.6970 C.3   1 <1>  -0.1600 
  8 N        2.9200    -1.8790     0.3260 N.4   1 <1>  -0.9590 
  9 C        4.4950     0.0420     1.0500 C.3   1 <1>   0.3430 
 10 C        4.6810     2.0400    -0.4510 C.3   1 <1>   0.3430 
 11 C        1.1000    -1.5360    -1.3030 C.3   1 <1>  -0.1600 
 12 C        2.1680    -2.5050    -0.7950 C.3   1 <1>   0.3430 
 13 C        3.7190    -2.8890     1.0790 C.3   1 <1>   0.2630 
 14 N        4.6110     1.5440     0.9510 N.4   1 <1>  -0.9590 
 15 C        5.6180     2.1340     1.8690 C.3   1 <1>   0.5240 
 16 C        5.6700     3.6290     1.6990 C.2   1 <1>  -0.1810 
 17 C        6.5310     4.2890     0.8880 C.2   1 <1>  -0.0260 
 18 C        4.8990     4.6140     2.2930 C.2   1 <1>   0.1390 
 19 N        7.4910     3.7880     0.0360 N.2   1 <1>  -0.5760 
 20 N        6.2590     5.6290     1.0470 N.pl3 1 <1>   0.6010 
 21 N        5.2420     5.8150     1.9180 N.2   1 <1>  -0.7070 
 22 C        8.1730     4.6670    -0.6240 C.2   1 <1>   0.3750 
 23 C        6.9970     6.5570     0.3260 C.2   1 <1>  -0.1690 
 24 C        7.9560     6.0720    -0.5080 C.2   1 <1>  -0.1360 
 25 C        9.2530     4.1910    -1.5710 C.3   1 <1>  -0.1790 
 26 C        6.6900     8.0360     0.5140 C.3   1 <1>  -0.1020 
 27 H        4.2940    -0.8550    -0.9010 H     1 <1>   0.0800 
 28 H        2.7720     2.4590    -1.3200 H     1 <1>   0.0800 
 29 H        3.7380     1.3630    -2.2280 H     1 <1>   0.0800 
 30 H        0.8860     0.5140    -1.9030 H     1 <1>   0.0800 
 31 H        2.2430    -0.3070    -2.6120 H     1 <1>   0.0800 
 32 H        2.1600    -1.5010     0.9600 H     1 <1>   0.4500 
 33 H        5.4780    -0.3960     1.0310 H     1 <1>   0.0800 
 34 H        4.0320    -0.1910     1.9950 H     1 <1>   0.0800 
 35 H        4.7360     3.1170    -0.4670 H     1 <1>   0.0800 
 36 H        5.5690     1.6570    -0.9270 H     1 <1>   0.0800 
 37 H        0.6060    -1.9710    -2.1540 H     1 <1>   0.0800 
 38 H        0.3500    -1.4060    -0.5400 H     1 <1>   0.0800 
 39 H        2.8430    -2.7580    -1.5960 H     1 <1>   0.0800 
 40 H        1.6860    -3.4080    -0.4550 H     1 <1>   0.0800 
 41 H        4.5220    -3.2670     0.4690 H     1 <1>   0.0800 
 42 H        3.0870    -3.7140     1.3670 H     1 <1>   0.0800 
 43 H        4.1280    -2.4550     1.9760 H     1 <1>   0.0800 
 44 H        3.6810     1.9310     1.2710 H     1 <1>   0.4500 
 45 H        5.3700     1.8970     2.8910 H     1 <1>   0.0800 
 46 H        6.5930     1.7310     1.6470 H     1 <1>   0.0800 
 47 H        4.0950     4.4350     2.9910 H     1 <1>   0.1500 
 48 H        8.5730     6.7240    -1.0990 H     1 <1>   0.1500 
 49 H       10.2020     4.5960    -1.2720 H     1 <1>   0.0800 
 50 H        9.0310     4.5130    -2.5710 H     1 <1>   0.0800 
 51 H        9.3180     3.1180    -1.5590 H     1 <1>   0.0800 
 52 H        5.6660     8.2360     0.2500 H     1 <1>   0.0800 
 53 H        7.3290     8.6440    -0.1000 H     1 <1>   0.0800 
 54 H        6.8350     8.3130     1.5440 H     1 <1>   0.0800 
@<TRIPOS>BOND
  1   1   2  ar  
  2   2   3  ar  
  3   2   4  1   
  4   4   5  1   
  5   4   6  1   
  6   4   7  1   
  7   5   8  1   
  8   5   9  1   
  9   5  27  1   
 10   6  10  1   
 11   6  28  1   
 12   6  29  1   
 13   7  11  1   
 14   7  30  1   
 15   7  31  1   
 16   8  12  1   
 17   8  13  1   
 18   8  32  1   
 19   9  14  1   
 20   9  33  1   
 21   9  34  1   
 22  10  14  1   
 23  10  35  1   
 24  10  36  1   
 25  11  12  1   
 26  11  37  1   
 27  11  38  1   
 28  12  39  1   
 29  12  40  1   
 30  13  41  1   
 31  13  42  1   
 32  13  43  1   
 33  14  15  1   
 34  14  44  1   
 35  15  16  1   
 36  15  45  1   
 37  15  46  1   
 38  16  17  2   
 39  16  18  1   
 40  17  19  1   
 41  17  20  1   
 42  18  21  2   
 43  18  47  1   
 44  19  22  2   
 45  20  21  1   
 46  20  23  1   
 47  22  24  1   
 48  22  25  1   
 49  23  24  2   
 50  23  26  1   
 51  24  48  1   
 52  25  49  1   
 53  25  50  1   
 54  25  51  1   
 55  26  52  1   
 56  26  53  1   
 57  26  54  1   
@<TRIPOS>SUBSTRUCTURE
  1 ****  10 GROUP 4 **** **** 0

# MOE 2024.06 (io_trps.svl 2023.06)
