@<TRIPOS>MOLECULE
NONAME
23 23 1 0 0 
SMALL
USER_CHARGES


@<TRIPOS>ATOM
  1 F       -0.6060     0.8810     0.9000 F     1 <1>  -0.3400 
  2 C       -1.4180     0.8160    -0.1460 C.3   1 <1>   1.1640 
  3 F       -1.6190    -0.4740    -0.3850 F     1 <1>  -0.3400 
  4 F       -0.7310     1.2810    -1.1830 F     1 <1>  -0.3400 
  5 C       -2.7260     1.5910     0.0940 C.ar  1 <1>  -0.1440 
  6 C       -2.7960     2.9580    -0.1480 C.ar  1 <1>  -0.1500 
  7 C       -3.8650     0.9540     0.5690 C.ar  1 <1>  -0.1500 
  8 C       -3.9620     3.6750     0.0650 C.ar  1 <1>  -0.1440 
  9 C       -5.0310     1.6620     0.7860 C.ar  1 <1>  -0.1500 
 10 C       -5.1160     3.0340     0.5370 C.ar  1 <1>   0.0860 
 11 C       -3.9570     5.1720    -0.2290 C.3   1 <1>  -0.0960 
 12 C       -6.3560     3.7430     0.7680 C.2   1 <1>   0.4230 
 13 O       -6.4140     4.7040     1.5040 O.2   1 <1>  -0.5700 
 14 C       -7.6050     3.2160     0.0290 C.3   1 <1>   1.0810 
 15 F       -7.3180     2.7160    -1.1720 F     1 <1>  -0.3400 
 16 F       -8.5360     4.1430    -0.1860 F     1 <1>  -0.3400 
 17 F       -8.2110     2.2330     0.6920 F     1 <1>  -0.3400 
 18 H       -1.9190     3.4730    -0.5090 H     1 <1>   0.1500 
 19 H       -3.8500    -0.1050     0.7770 H     1 <1>   0.1500 
 20 H       -5.8870     1.1300     1.1650 H     1 <1>   0.1500 
 21 H       -3.0410     5.4750    -0.7030 H     1 <1>   0.0800 
 22 H       -4.0580     5.7260     0.6880 H     1 <1>   0.0800 
 23 H       -4.7710     5.4320    -0.8810 H     1 <1>   0.0800 
@<TRIPOS>BOND
  1   1   2  1   
  2   2   3  1   
  3   2   4  1   
  4   2   5  1   
  5   5   6  ar  
  6   5   7  ar  
  7   6   8  ar  
  8   6  18  1   
  9   7   9  ar  
 10   7  19  1   
 11   8  10  ar  
 12   8  11  1   
 13   9  10  ar  
 14   9  20  1   
 15  10  12  1   
 16  11  21  1   
 17  11  22  1   
 18  11  23  1   
 19  12  13  2   
 20  12  14  1   
 21  14  15  1   
 22  14  16  1   
 23  14  17  1   
@<TRIPOS>SUBSTRUCTURE
  1 ****  10 GROUP 4 **** **** 0

# MOE 2024.06 (io_trps.svl 2023.06)
