@<TRIPOS>MOLECULE
NONAME
53 55 1 0 0 
SMALL
USER_CHARGES


@<TRIPOS>ATOM
  1 O       -0.5520    -1.4170    -1.5530 O.2   1 <1>  -0.5700 
  2 C       -0.2940    -2.1370    -0.6130 C.2   1 <1>   0.5440 
  3 N       -1.3390    -2.4620     0.1850 N.am  1 <1>  -0.8000 
  4 C        1.0530    -2.5830    -0.3510 C.ar  1 <1>   0.0860 
  5 C        1.3490    -3.9050     0.0320 C.ar  1 <1>   0.4100 
  6 C        2.1140    -1.7000    -0.4760 C.ar  1 <1>  -0.1500 
  7 N        2.5770    -4.3300     0.3150 N.ar  1 <1>  -0.6200 
  8 N        0.3580    -4.8640     0.1130 N.pl3 1 <1>  -0.8690 
  9 C        3.3890    -2.1380    -0.1940 C.ar  1 <1>  -0.1430 
 10 C        3.5610    -3.4600     0.2060 C.ar  1 <1>   0.1670 
 11 C        0.6120    -6.3020     0.2710 C.3   1 <1>   0.2890 
 12 C        4.5540    -1.1660    -0.3300 C.3   1 <1>  -0.0970 
 13 C        4.9400    -3.9960     0.5440 C.3   1 <1>  -0.0970 
 14 C        0.9100    -6.9070    -1.0970 C.3   1 <1>  -0.1600 
 15 C       -0.6120    -6.9580     0.8980 C.3   1 <1>  -0.1600 
 16 C        1.1110    -8.4120    -0.9740 C.3   1 <1>   0.3430 
 17 C       -0.4020    -8.4640     1.0070 C.3   1 <1>   0.3430 
 18 N       -0.0850    -9.0280    -0.3350 N.4   1 <1>  -0.9590 
 19 C       -0.0280   -10.5250    -0.3450 C.3   1 <1>   0.3430 
 20 C       -1.4460   -11.1190    -0.5020 C.3   1 <1>   0.2000 
 21 O       -2.2600   -10.1930    -1.1660 O.3   1 <1>  -0.5600 
 22 C       -2.1780   -11.4280     0.8080 C.3   1 <1>  -0.1600 
 23 C       -3.5920   -10.4490    -0.8630 C.3   1 <1>   0.1200 
 24 C       -3.5770   -10.8610     0.6020 C.3   1 <1>  -0.1600 
 25 H       -2.2350    -2.0010     0.0160 H     1 <1>   0.3700 
 26 H       -1.2040    -2.8760     1.1090 H     1 <1>   0.3700 
 27 H        1.9240    -0.6870    -0.7900 H     1 <1>   0.1500 
 28 H       -0.5410    -4.6130    -0.3130 H     1 <1>   0.4000 
 29 H        1.4580    -6.4490     0.9240 H     1 <1>   0.0800 
 30 H        4.2300    -0.2340    -0.7580 H     1 <1>   0.0800 
 31 H        5.3130    -1.5810    -0.9690 H     1 <1>   0.0800 
 32 H        4.9800    -0.9630     0.6360 H     1 <1>   0.0800 
 33 H        4.8640    -4.9610     1.0110 H     1 <1>   0.0800 
 34 H        5.4420    -3.3340     1.2250 H     1 <1>   0.0800 
 35 H        5.5220    -4.0940    -0.3530 H     1 <1>   0.0800 
 36 H        1.8110    -6.4670    -1.4880 H     1 <1>   0.0800 
 37 H        0.1090    -6.7030    -1.7850 H     1 <1>   0.0800 
 38 H       -1.4900    -6.7610     0.3090 H     1 <1>   0.0800 
 39 H       -0.7650    -6.5530     1.8820 H     1 <1>   0.0800 
 40 H        1.9870    -8.6090    -0.3770 H     1 <1>   0.0800 
 41 H        1.2650    -8.8330    -1.9550 H     1 <1>   0.0800 
 42 H       -1.2990    -8.9170     1.3940 H     1 <1>   0.0800 
 43 H        0.4080    -8.6680     1.6890 H     1 <1>   0.0800 
 44 H       -0.9140    -8.8410    -0.9350 H     1 <1>   0.4500 
 45 H        0.4460   -10.9040     0.5450 H     1 <1>   0.0800 
 46 H        0.5530   -10.8520    -1.1910 H     1 <1>   0.0800 
 47 H       -1.4060   -12.0110    -1.1050 H     1 <1>   0.0800 
 48 H       -1.7020   -10.9820     1.6620 H     1 <1>   0.0800 
 49 H       -2.2150   -12.4930     0.9600 H     1 <1>   0.0800 
 50 H       -3.9320   -11.2550    -1.4920 H     1 <1>   0.0800 
 51 H       -4.1800    -9.5660    -1.0430 H     1 <1>   0.0800 
 52 H       -3.7330    -9.9940     1.2210 H     1 <1>   0.0800 
 53 H       -4.3490   -11.5820     0.8110 H     1 <1>   0.0800 
@<TRIPOS>BOND
  1   1   2  2   
  2   2   3  am  
  3   2   4  1   
  4   3  25  1   
  5   3  26  1   
  6   4   5  ar  
  7   4   6  ar  
  8   5   7  ar  
  9   5   8  1   
 10   6   9  ar  
 11   6  27  1   
 12   7  10  ar  
 13   8  11  1   
 14   8  28  1   
 15   9  10  ar  
 16   9  12  1   
 17  10  13  1   
 18  11  14  1   
 19  11  15  1   
 20  11  29  1   
 21  12  30  1   
 22  12  31  1   
 23  12  32  1   
 24  13  33  1   
 25  13  34  1   
 26  13  35  1   
 27  14  16  1   
 28  14  36  1   
 29  14  37  1   
 30  15  17  1   
 31  15  38  1   
 32  15  39  1   
 33  16  18  1   
 34  16  40  1   
 35  16  41  1   
 36  17  18  1   
 37  17  42  1   
 38  17  43  1   
 39  18  19  1   
 40  18  44  1   
 41  19  20  1   
 42  19  45  1   
 43  19  46  1   
 44  20  21  1   
 45  20  22  1   
 46  20  47  1   
 47  21  23  1   
 48  22  24  1   
 49  22  48  1   
 50  22  49  1   
 51  23  24  1   
 52  23  50  1   
 53  23  51  1   
 54  24  52  1   
 55  24  53  1   
@<TRIPOS>SUBSTRUCTURE
  1 ****  11 GROUP 4 **** **** 0

# MOE 2024.06 (io_trps.svl 2023.06)
