@<TRIPOS>MOLECULE
NONAME
57 60 1 0 0 
SMALL
USER_CHARGES


@<TRIPOS>ATOM
  1 O       -3.7750     1.3740     1.8530 O.2   1 <1>  -0.5700 
  2 C       -3.6180     2.2240     1.0070 C.2   1 <1>   0.5690 
  3 N       -4.0550     2.0000    -0.2650 N.am  1 <1>  -0.6600 
  4 C       -2.9140     3.5220     1.3490 C.3   1 <1>  -0.0990 
  5 C       -5.5080     1.6810    -0.4480 C.3   1 <1>   0.1400 
  6 C       -3.1850     1.1510    -1.1390 C.3   1 <1>   0.1400 
  7 C       -1.4250     3.4930     0.9690 C.3   1 <1>  -0.1600 
  8 C       -5.8240     0.1890    -0.1480 C.3   1 <1>   0.4230 
  9 C       -3.5600    -0.3510    -1.0560 C.3   1 <1>   0.3430 
 10 C       -0.7000     4.7740     1.3920 C.3   1 <1>  -0.0160 
 11 N       -4.5640    -0.6240     0.0330 N.4   1 <1>  -0.9590 
 12 C       -6.7330    -0.4340    -1.2310 C.3   1 <1>   0.1200 
 13 C        0.7550     4.7100     0.9580 C.ar  1 <1>  -0.1430 
 14 C       -4.8920    -2.0620     0.2710 C.3   1 <1>   0.5180 
 15 O       -6.9810    -1.7830    -0.9500 O.3   1 <1>  -0.5600 
 16 C        1.1470     5.2370    -0.2630 C.ar  1 <1>  -0.1500 
 17 C        1.7030     4.1170     1.7780 C.ar  1 <1>  -0.1500 
 18 C       -3.5870    -2.8650     0.4380 C.3   1 <1>  -0.1950 
 19 C       -5.8410    -2.5940    -0.8330 C.3   1 <1>   0.1200 
 20 C        2.4700     5.1720    -0.6650 C.ar  1 <1>  -0.1500 
 21 C        3.0260     4.0510     1.3790 C.ar  1 <1>  -0.1500 
 22 C       -2.8060    -3.4820    -0.6880 C.3   1 <1>  -0.2000 
 23 C       -3.5240    -4.3560     0.3010 C.3   1 <1>  -0.2000 
 24 C        3.4200     4.5740     0.1580 C.ar  1 <1>   0.0820 
 25 O        4.7340     4.4660    -0.1580 O.3   1 <1>  -0.3620 
 26 C        5.2420     4.9870    -1.3650 C.3   1 <1>   0.0400 
 27 H       -3.4060     4.3290     0.8380 H     1 <1>   0.0800 
 28 H       -3.0120     3.6900     2.4070 H     1 <1>   0.0800 
 29 H       -6.0970     2.2990     0.2090 H     1 <1>   0.0800 
 30 H       -5.7940     1.9290    -1.4550 H     1 <1>   0.0800 
 31 H       -3.2590     1.4890    -2.1580 H     1 <1>   0.0800 
 32 H       -2.1570     1.2650    -0.8410 H     1 <1>   0.0800 
 33 H       -0.9500     2.6500     1.4420 H     1 <1>   0.0800 
 34 H       -1.3270     3.3770    -0.0970 H     1 <1>   0.0800 
 35 H       -6.3770     0.1640     0.7770 H     1 <1>   0.0800 
 36 H       -2.6590    -0.9150    -0.8770 H     1 <1>   0.0800 
 37 H       -3.9570    -0.6690    -2.0050 H     1 <1>   0.0800 
 38 H       -0.7510     4.8920     2.4610 H     1 <1>   0.0800 
 39 H       -1.1710     5.6320     0.9450 H     1 <1>   0.0800 
 40 H       -4.1430    -0.2310     0.9000 H     1 <1>   0.4500 
 41 H       -6.2880    -0.3630    -2.2080 H     1 <1>   0.0800 
 42 H       -7.6840     0.0700    -1.2520 H     1 <1>   0.0800 
 43 H       -5.4310    -2.1370     1.2020 H     1 <1>   0.0800 
 44 H        0.4220     5.7010    -0.9080 H     1 <1>   0.1500 
 45 H        1.4160     3.7050     2.7290 H     1 <1>   0.1500 
 46 H       -3.0200    -2.4770     1.2680 H     1 <1>   0.1000 
 47 H       -6.1780    -3.5840    -0.5830 H     1 <1>   0.0800 
 48 H       -5.3490    -2.6330    -1.7880 H     1 <1>   0.0800 
 49 H        2.7400     5.5890    -1.6160 H     1 <1>   0.1500 
 50 H        3.7630     3.5920     2.0120 H     1 <1>   0.1500 
 51 H       -3.1730    -3.4860    -1.7000 H     1 <1>   0.1000 
 52 H       -1.7290    -3.4670    -0.6500 H     1 <1>   0.1000 
 53 H       -2.9340    -4.9170     1.0070 H     1 <1>   0.1000 
 54 H       -4.3670    -4.9250    -0.0520 H     1 <1>   0.1000 
 55 H        6.2990     4.7940    -1.3930 H     1 <1>   0.0800 
 56 H        5.0620     6.0470    -1.3910 H     1 <1>   0.0800 
 57 H        4.7580     4.4930    -2.1890 H     1 <1>   0.0800 
@<TRIPOS>BOND
  1   1   2  2   
  2   2   3  am  
  3   2   4  1   
  4   3   5  1   
  5   3   6  1   
  6   4   7  1   
  7   4  27  1   
  8   4  28  1   
  9   5   8  1   
 10   5  29  1   
 11   5  30  1   
 12   6   9  1   
 13   6  31  1   
 14   6  32  1   
 15   7  10  1   
 16   7  33  1   
 17   7  34  1   
 18   8  11  1   
 19   8  12  1   
 20   8  35  1   
 21   9  11  1   
 22   9  36  1   
 23   9  37  1   
 24  10  13  1   
 25  10  38  1   
 26  10  39  1   
 27  11  14  1   
 28  11  40  1   
 29  12  15  1   
 30  12  41  1   
 31  12  42  1   
 32  13  16  ar  
 33  13  17  ar  
 34  14  18  1   
 35  14  19  1   
 36  14  43  1   
 37  15  19  1   
 38  16  20  ar  
 39  16  44  1   
 40  17  21  ar  
 41  17  45  1   
 42  18  22  1   
 43  18  23  1   
 44  18  46  1   
 45  19  47  1   
 46  19  48  1   
 47  20  24  ar  
 48  20  49  1   
 49  21  24  ar  
 50  21  50  1   
 51  22  23  1   
 52  22  51  1   
 53  22  52  1   
 54  23  53  1   
 55  23  54  1   
 56  24  25  1   
 57  25  26  1   
 58  26  55  1   
 59  26  56  1   
 60  26  57  1   
@<TRIPOS>SUBSTRUCTURE
  1 ****   6 GROUP 4 **** **** 0

# MOE 2024.06 (io_trps.svl 2023.06)
