@<TRIPOS>MOLECULE
NONAME
56 58 1 0 0 
SMALL
USER_CHARGES


@<TRIPOS>ATOM
  1 N        0.0480    -0.7360    -1.8970 N.2   1 <1>  -0.7070 
  2 N        0.8100    -0.8150    -0.7710 N.pl3 1 <1>   0.5930 
  3 C       -0.0680    -1.9390    -2.3500 C.2   1 <1>   0.1390 
  4 C        1.0580     0.3050     0.0790 C.ar  1 <1>  -0.0230 
  5 C        1.0870    -2.1230    -0.5250 C.2   1 <1>  -0.3020 
  6 C        0.5190    -2.8660    -1.5020 C.2   1 <1>  -0.1810 
  7 C        0.9950     1.6010    -0.4290 C.ar  1 <1>  -0.1500 
  8 C        1.3520     0.1460     1.4330 C.ar  1 <1>  -0.1500 
  9 C        0.4360    -4.3660    -1.6630 C.3   1 <1>   0.5240 
 10 C        1.2080     2.6970     0.3860 C.ar  1 <1>  -0.1500 
 11 C        1.5650     1.2440     2.2470 C.ar  1 <1>  -0.1500 
 12 N       -0.6140    -4.8450    -0.7180 N.4   1 <1>  -0.9590 
 13 C        1.4920     2.5250     1.7300 C.ar  1 <1>  -0.1430 
 14 C       -0.8060    -6.3240    -0.7470 C.3   1 <1>   0.5240 
 15 C       -1.9310    -4.0990    -0.7500 C.3   1 <1>   0.3430 
 16 C        1.7300     3.7310     2.6210 C.3   1 <1>  -0.0970 
 17 C       -1.3920    -6.7160     0.6070 C.2   1 <1>   0.0460 
 18 C       -2.0780    -3.0930     0.4310 C.3   1 <1>   0.3430 
 19 N       -1.1930    -5.9250     1.6910 N.2   1 <1>  -0.5650 
 20 C       -2.1270    -7.8030     0.9340 C.2   1 <1>  -0.3320 
 21 N       -3.1870    -2.0780     0.2840 N.4   1 <1>  -0.9590 
 22 C       -1.7870    -6.5640     2.6490 C.2   1 <1>   0.0360 
 23 N       -2.3780    -7.7110     2.2550 N.pl3 1 <1>   0.0330 
 24 C       -2.6190    -8.9780     0.1010 C.3   1 <1>  -0.0600 
 25 C       -2.8980    -1.0410    -0.7670 C.3   1 <1>   0.2630 
 26 C       -3.4040    -1.3770     1.5910 C.3   1 <1>   0.2630 
 27 H       -0.5840    -2.1690    -3.2710 H     1 <1>   0.1500 
 28 H        1.6620    -2.4320     0.3290 H     1 <1>   0.1500 
 29 H        0.7800     1.7610    -1.4720 H     1 <1>   0.1500 
 30 H        1.4210    -0.8300     1.8760 H     1 <1>   0.1500 
 31 H        1.3890    -4.8140    -1.4250 H     1 <1>   0.0800 
 32 H        0.1780    -4.6150    -2.6800 H     1 <1>   0.0800 
 33 H        1.1570     3.6880    -0.0310 H     1 <1>   0.1500 
 34 H        1.7960     1.1010     3.2890 H     1 <1>   0.1500 
 35 H       -0.2410    -4.7390     0.2430 H     1 <1>   0.4500 
 36 H        0.1440    -6.8200    -0.8620 H     1 <1>   0.0800 
 37 H       -1.4600    -6.6240    -1.5480 H     1 <1>   0.0800 
 38 H       -2.7430    -4.8060    -0.6870 H     1 <1>   0.0800 
 39 H       -2.0180    -3.5710    -1.6840 H     1 <1>   0.0800 
 40 H        1.1320     4.5630     2.2950 H     1 <1>   0.0800 
 41 H        2.7670     4.0130     2.5800 H     1 <1>   0.0800 
 42 H        1.4720     3.5070     3.6400 H     1 <1>   0.0800 
 43 H       -1.1500    -2.5610     0.5480 H     1 <1>   0.0800 
 44 H       -2.2440    -3.6640     1.3310 H     1 <1>   0.0800 
 45 H       -4.0760    -2.5500     0.0490 H     1 <1>   0.4500 
 46 H       -1.8190    -6.2390     3.6770 H     1 <1>   0.1500 
 47 H       -2.8890    -8.3770     2.8460 H     1 <1>   0.2700 
 48 H       -2.3140    -8.8840    -0.9250 H     1 <1>   0.0800 
 49 H       -3.6930    -9.0350     0.1330 H     1 <1>   0.0800 
 50 H       -2.2180    -9.9000     0.4880 H     1 <1>   0.0800 
 51 H       -2.0070    -0.4870    -0.5150 H     1 <1>   0.0800 
 52 H       -3.7180    -0.3440    -0.8410 H     1 <1>   0.0800 
 53 H       -2.7540    -1.4970    -1.7320 H     1 <1>   0.0800 
 54 H       -2.5160    -0.8390     1.8830 H     1 <1>   0.0800 
 55 H       -3.6480    -2.0860     2.3660 H     1 <1>   0.0800 
 56 H       -4.2160    -0.6720     1.5080 H     1 <1>   0.0800 
@<TRIPOS>BOND
  1   1   2  1   
  2   1   3  2   
  3   2   4  1   
  4   2   5  1   
  5   3   6  1   
  6   3  27  1   
  7   4   7  ar  
  8   4   8  ar  
  9   5   6  2   
 10   5  28  1   
 11   6   9  1   
 12   7  10  ar  
 13   7  29  1   
 14   8  11  ar  
 15   8  30  1   
 16   9  12  1   
 17   9  31  1   
 18   9  32  1   
 19  10  13  ar  
 20  10  33  1   
 21  11  13  ar  
 22  11  34  1   
 23  12  14  1   
 24  12  15  1   
 25  12  35  1   
 26  13  16  1   
 27  14  17  1   
 28  14  36  1   
 29  14  37  1   
 30  15  18  1   
 31  15  38  1   
 32  15  39  1   
 33  16  40  1   
 34  16  41  1   
 35  16  42  1   
 36  17  19  1   
 37  17  20  2   
 38  18  21  1   
 39  18  43  1   
 40  18  44  1   
 41  19  22  2   
 42  20  23  1   
 43  20  24  1   
 44  21  25  1   
 45  21  26  1   
 46  21  45  1   
 47  22  23  1   
 48  22  46  1   
 49  23  47  1   
 50  24  48  1   
 51  24  49  1   
 52  24  50  1   
 53  25  51  1   
 54  25  52  1   
 55  25  53  1   
 56  26  54  1   
 57  26  55  1   
 58  26  56  1   
@<TRIPOS>SUBSTRUCTURE
  1 ****  18 GROUP 4 **** **** 0

# MOE 2024.06 (io_trps.svl 2023.06)
