@<TRIPOS>MOLECULE
NONAME
44 46 1 0 0 
SMALL
USER_CHARGES


@<TRIPOS>ATOM
  1 O        1.6090     0.6410    -1.3320 O.3   1 <1>  -0.6800 
  2 C        1.5100     0.1780    -0.0330 C.3   1 <1>   0.2800 
  3 C        2.9150     0.1660     0.6470 C.3   1 <1>  -0.0800 
  4 C        0.9480    -1.2530    -0.1230 C.3   1 <1>  -0.1600 
  5 C        0.5030     1.0950     0.6950 C.3   1 <1>  -0.1600 
  6 C        3.6380    -1.1900     0.6220 C.3   1 <1>  -0.0800 
  7 C        3.9460     1.1500     0.0820 C.3   1 <1>   0.2090 
  8 C        1.8700    -2.2310    -0.8840 C.3   1 <1>  -0.1600 
  9 C        0.8950     2.5810     0.7770 C.3   1 <1>  -0.2400 
 10 C        3.3690    -1.9300    -0.6980 C.3   1 <1>  -0.1600 
 11 C        5.1160    -0.8470     0.8200 C.3   1 <1>   0.2090 
 12 N        5.2830     0.5660     0.3850 N.pl3 1 <1>  -0.8380 
 13 C        6.4740     1.1900     0.1720 C.ar  1 <1>   0.1000 
 14 C        6.5540     2.4330    -0.4740 C.ar  1 <1>  -0.1500 
 15 C        7.6880     0.6250     0.5860 C.ar  1 <1>  -0.1500 
 16 C        7.7570     3.0540    -0.6900 C.ar  1 <1>   0.2180 
 17 C        8.8780     1.2640     0.3590 C.ar  1 <1>   0.2110 
 18 N        8.9030     2.4630    -0.2720 N.ar  1 <1>  -0.1790 
 19 C        7.8520     4.3980    -1.3920 C.3   1 <1>  -0.0970 
 20 H        0.7450     0.5510    -1.7720 H     1 <1>   0.4000 
 21 H        2.7830     0.4120     1.6850 H     1 <1>   0.0800 
 22 H        0.8230    -1.6220     0.8800 H     1 <1>   0.0800 
 23 H       -0.0270    -1.2490    -0.5760 H     1 <1>   0.0800 
 24 H       -0.4520     1.0210     0.2060 H     1 <1>   0.0800 
 25 H        0.3660     0.7280     1.6970 H     1 <1>   0.0800 
 26 H        3.3070    -1.8130     1.4350 H     1 <1>   0.0800 
 27 H        3.8400     2.1200     0.5320 H     1 <1>   0.0800 
 28 H        3.8630     1.2400    -0.9870 H     1 <1>   0.0800 
 29 H        1.6590    -3.2330    -0.5490 H     1 <1>   0.0800 
 30 H        1.6450    -2.1900    -1.9360 H     1 <1>   0.0800 
 31 H        1.0830     2.9810    -0.2040 H     1 <1>   0.0800 
 32 H        1.7720     2.7140     1.3830 H     1 <1>   0.0800 
 33 H        0.0940     3.1440     1.2230 H     1 <1>   0.0800 
 34 H        3.7030    -1.3110    -1.5150 H     1 <1>   0.0800 
 35 H        3.9280    -2.8490    -0.7370 H     1 <1>   0.0800 
 36 H        5.7490    -1.5030     0.2480 H     1 <1>   0.0800 
 37 H        5.3690    -0.9220     1.8640 H     1 <1>   0.0800 
 38 H        5.6460     2.8990    -0.8090 H     1 <1>   0.1500 
 39 H        7.6800    -0.3220     1.0910 H     1 <1>   0.1500 
 40 H        9.8100     0.8250     0.6780 H     1 <1>   0.1500 
 41 H        9.7980     2.9330    -0.4390 H     1 <1>   0.4570 
 42 H        6.8730     4.7480    -1.6710 H     1 <1>   0.0800 
 43 H        8.4440     4.3150    -2.2870 H     1 <1>   0.0800 
 44 H        8.2960     5.1320    -0.7420 H     1 <1>   0.0800 
@<TRIPOS>BOND
  1   1   2  1   
  2   1  20  1   
  3   2   3  1   
  4   2   4  1   
  5   2   5  1   
  6   3   6  1   
  7   3   7  1   
  8   3  21  1   
  9   4   8  1   
 10   4  22  1   
 11   4  23  1   
 12   5   9  1   
 13   5  24  1   
 14   5  25  1   
 15   6  10  1   
 16   6  11  1   
 17   6  26  1   
 18   7  12  1   
 19   7  27  1   
 20   7  28  1   
 21   8  10  1   
 22   8  29  1   
 23   8  30  1   
 24   9  31  1   
 25   9  32  1   
 26   9  33  1   
 27  10  34  1   
 28  10  35  1   
 29  11  12  1   
 30  11  36  1   
 31  11  37  1   
 32  12  13  1   
 33  13  14  ar  
 34  13  15  ar  
 35  14  16  ar  
 36  14  38  1   
 37  15  17  ar  
 38  15  39  1   
 39  16  18  ar  
 40  16  19  1   
 41  17  18  ar  
 42  17  40  1   
 43  18  41  1   
 44  19  42  1   
 45  19  43  1   
 46  19  44  1   
@<TRIPOS>SUBSTRUCTURE
  1 ****   7 GROUP 4 **** **** 0

# MOE 2024.06 (io_trps.svl 2023.06)
