@<TRIPOS>MOLECULE
NONAME
48 49 1 0 0 
SMALL
USER_CHARGES


@<TRIPOS>ATOM
  1 S        0.3340     1.0370    -1.4230 S.o2  1 <1>   1.3330 
  2 O        0.2990    -0.3280    -1.8950 O.2   1 <1>  -0.6500 
  3 O        0.0330     2.1030    -2.3510 O.2   1 <1>  -0.6500 
  4 N        1.8960     1.3010    -0.8140 N.am  1 <1>  -0.8490 
  5 C       -0.7840     1.1630    -0.0150 C.3   1 <1>  -0.0550 
  6 C        2.8350     1.6520    -1.8830 C.3   1 <1>   0.1160 
  7 C        2.4320     0.1600    -0.0620 C.3   1 <1>   0.1160 
  8 C       -0.8800     2.4880     0.7810 C.3   1 <1>  -0.0800 
  9 C       -1.1110     3.7420    -0.0770 C.3   1 <1>   0.2000 
 10 C        0.3560     2.8010     1.6390 C.3   1 <1>   0.1400 
 11 O       -1.9520     4.5800     0.6380 O.3   1 <1>  -0.6800 
 12 C        0.2550     4.4230    -0.1710 C.3   1 <1>   0.1400 
 13 N        0.9290     4.0490     1.0930 N.am  1 <1>  -0.6600 
 14 C        1.8380     4.8230     1.7760 C.2   1 <1>   0.5440 
 15 O        2.1770     4.4730     2.8900 O.2   1 <1>  -0.5700 
 16 C        2.3590     6.0490     1.2030 C.ar  1 <1>   0.0860 
 17 C        3.2370     6.0800     0.1100 C.ar  1 <1>  -0.1430 
 18 C        1.9530     7.2610     1.7570 C.ar  1 <1>  -0.1500 
 19 C        3.6530     7.2980    -0.4210 C.ar  1 <1>   0.0820 
 20 C        3.7620     4.7890    -0.5180 C.3   1 <1>  -0.0970 
 21 C        2.3710     8.4700     1.2390 C.ar  1 <1>  -0.1500 
 22 O        4.4850     7.2690    -1.4970 O.3   1 <1>  -0.3630 
 23 C        3.2160     8.4920     0.1470 C.ar  1 <1>  -0.1500 
 24 C        4.9940     8.4460    -2.0820 C.3   1 <1>   0.0400 
 25 H       -1.7690     0.9500    -0.3820 H     1 <1>   0.0800 
 26 H       -0.5480     0.3780     0.6760 H     1 <1>   0.0800 
 27 H        3.8140     1.8380    -1.4750 H     1 <1>   0.0800 
 28 H        2.5050     2.5440    -2.3870 H     1 <1>   0.0800 
 29 H        2.8970     0.8530    -2.6040 H     1 <1>   0.0800 
 30 H        3.3860     0.4190     0.3660 H     1 <1>   0.0800 
 31 H        2.5580    -0.6930    -0.7080 H     1 <1>   0.0800 
 32 H        1.7660    -0.1080     0.7380 H     1 <1>   0.0800 
 33 H       -1.7160     2.3600     1.4480 H     1 <1>   0.0800 
 34 H       -1.5630     3.5520    -1.0350 H     1 <1>   0.0800 
 35 H        1.0920     2.0180     1.6040 H     1 <1>   0.0800 
 36 H        0.0720     2.9620     2.6650 H     1 <1>   0.0800 
 37 H       -1.4780     4.8850     1.4380 H     1 <1>   0.4000 
 38 H        0.1600     5.4890    -0.2860 H     1 <1>   0.0800 
 39 H        0.8190     4.0280    -0.9960 H     1 <1>   0.0800 
 40 H        1.2960     7.2450     2.6100 H     1 <1>   0.1500 
 41 H        3.5450     3.9220     0.0790 H     1 <1>   0.0800 
 42 H        4.8300     4.8460    -0.6310 H     1 <1>   0.0800 
 43 H        3.3210     4.6600    -1.4890 H     1 <1>   0.0800 
 44 H        2.0390     9.3910     1.6840 H     1 <1>   0.1500 
 45 H        3.5230     9.4440    -0.2410 H     1 <1>   0.1500 
 46 H        5.6350     8.1630    -2.8980 H     1 <1>   0.0800 
 47 H        5.5600     8.9860    -1.3440 H     1 <1>   0.0800 
 48 H        4.1740     9.0370    -2.4500 H     1 <1>   0.0800 
@<TRIPOS>BOND
  1   1   2  2   
  2   1   3  2   
  3   1   4  am  
  4   1   5  1   
  5   4   6  1   
  6   4   7  1   
  7   5   8  1   
  8   5  25  1   
  9   5  26  1   
 10   6  27  1   
 11   6  28  1   
 12   6  29  1   
 13   7  30  1   
 14   7  31  1   
 15   7  32  1   
 16   8   9  1   
 17   8  10  1   
 18   8  33  1   
 19   9  11  1   
 20   9  12  1   
 21   9  34  1   
 22  10  13  1   
 23  10  35  1   
 24  10  36  1   
 25  11  37  1   
 26  12  13  1   
 27  12  38  1   
 28  12  39  1   
 29  13  14  am  
 30  14  15  2   
 31  14  16  1   
 32  16  17  ar  
 33  16  18  ar  
 34  17  19  ar  
 35  17  20  1   
 36  18  21  ar  
 37  18  40  1   
 38  19  22  1   
 39  19  23  ar  
 40  20  41  1   
 41  20  42  1   
 42  20  43  1   
 43  21  23  ar  
 44  21  44  1   
 45  22  24  1   
 46  23  45  1   
 47  24  46  1   
 48  24  47  1   
 49  24  48  1   
@<TRIPOS>SUBSTRUCTURE
  1 ****  13 GROUP 4 **** **** 0

# MOE 2024.06 (io_trps.svl 2023.06)
