@<TRIPOS>MOLECULE
NONAME
36 38 1 0 0 
SMALL
USER_CHARGES


@<TRIPOS>ATOM
  1 O        1.1300    -0.2210    -1.4880 O.2   1 <1>  -0.5700 
  2 C        1.9480    -0.5310    -0.6380 C.2   1 <1>   0.7150 
  3 N        2.3380     0.4280     0.2830 N.am  1 <1>  -0.6600 
  4 C        2.4880    -1.8750    -0.6230 C.2   1 <1>   0.0550 
  5 C        3.0210     0.0800     1.5740 C.3   1 <1>   0.1400 
  6 C        2.0450     1.8710     0.0470 C.3   1 <1>   0.1400 
  7 O        1.6850    -2.9360    -0.6150 O.3   1 <1>  -0.2800 
  8 C        3.7780    -2.3180    -0.6160 C.2   1 <1>  -0.1500 
  9 C        4.1380     1.0590     1.9760 C.3   1 <1>   0.1400 
 10 C        3.2190     2.5360    -0.6840 C.3   1 <1>  -0.1600 
 11 C        2.4180    -4.0260    -0.6010 C.2   1 <1>  -0.0100 
 12 C        3.7300    -3.7110    -0.6000 C.2   1 <1>  -0.1500 
 13 N        4.9440     1.4980     0.7980 N.am  1 <1>  -0.6600 
 14 C        4.4660     2.7660     0.1820 C.3   1 <1>   0.1400 
 15 C        5.9670     0.7000     0.3060 C.2   1 <1>   0.7160 
 16 O        6.2850    -0.2710     0.9760 O.2   1 <1>  -0.5700 
 17 C        6.6890     0.9290    -0.9390 C.2   1 <1>   0.1410 
 18 N        6.2230     1.6040    -2.0170 N.2   1 <1>  -0.2270 
 19 C        7.9300     0.4870    -1.2570 C.2   1 <1>  -0.3020 
 20 N        7.1140     1.5950    -2.9400 N.2   1 <1>  -0.4180 
 21 N        8.1660     0.9110    -2.4920 N.pl3 1 <1>   0.3000 
 22 H        3.4520    -0.9020     1.5190 H     1 <1>   0.0800 
 23 H        2.2850     0.0530     2.3580 H     1 <1>   0.0800 
 24 H        1.8480     2.3670     0.9810 H     1 <1>   0.0800 
 25 H        1.1590     1.9670    -0.5580 H     1 <1>   0.0800 
 26 H        4.6750    -1.7250    -0.6250 H     1 <1>   0.1500 
 27 H        4.7760     0.5850     2.7020 H     1 <1>   0.0800 
 28 H        3.7020     1.9150     2.4580 H     1 <1>   0.0800 
 29 H        2.8900     3.4950    -1.0410 H     1 <1>   0.0800 
 30 H        3.4760     1.9540    -1.5520 H     1 <1>   0.0800 
 31 H        1.9280    -4.9840    -0.5950 H     1 <1>   0.1500 
 32 H        4.5810    -4.3690    -0.5900 H     1 <1>   0.1500 
 33 H        4.2310     3.4670     0.9640 H     1 <1>   0.0800 
 34 H        5.2450     3.2160    -0.4070 H     1 <1>   0.0800 
 35 H        8.6170    -0.0940    -0.6700 H     1 <1>   0.1500 
 36 H        9.0070     0.7590    -3.0590 H     1 <1>   0.2700 
@<TRIPOS>BOND
  1   1   2  2   
  2   2   3  am  
  3   2   4  1   
  4   3   5  1   
  5   3   6  1   
  6   4   7  1   
  7   4   8  2   
  8   5   9  1   
  9   5  22  1   
 10   5  23  1   
 11   6  10  1   
 12   6  24  1   
 13   6  25  1   
 14   7  11  1   
 15   8  12  1   
 16   8  26  1   
 17   9  13  1   
 18   9  27  1   
 19   9  28  1   
 20  10  14  1   
 21  10  29  1   
 22  10  30  1   
 23  11  12  2   
 24  11  31  1   
 25  12  32  1   
 26  13  14  1   
 27  13  15  am  
 28  14  33  1   
 29  14  34  1   
 30  15  16  2   
 31  15  17  1   
 32  17  18  1   
 33  17  19  2   
 34  18  20  2   
 35  19  21  1   
 36  19  35  1   
 37  20  21  1   
 38  21  36  1   
@<TRIPOS>SUBSTRUCTURE
  1 ****  15 GROUP 4 **** **** 0

# MOE 2024.06 (io_trps.svl 2023.06)
