@<TRIPOS>MOLECULE
NONAME
64 68 1 0 0 
SMALL
USER_CHARGES


@<TRIPOS>ATOM
  1 O       -2.9840     2.8000    -2.5360 O.2   1 <1>  -0.5700 
  2 C       -3.1600     2.5690    -1.3640 C.2   1 <1>   0.5690 
  3 N       -4.1030     1.6650    -0.9380 N.am  1 <1>  -0.6600 
  4 C       -2.2400     3.2750    -0.3730 C.3   1 <1>  -0.0190 
  5 C       -4.9510     0.9260    -1.9190 C.3   1 <1>   0.1400 
  6 C       -4.3480     1.2050     0.4600 C.3   1 <1>   0.1400 
  7 C       -1.0800     2.3470     0.0720 C.3   1 <1>   0.4230 
  8 C       -1.7200     4.6410    -0.8780 C.3   1 <1>  -0.1600 
  9 C       -4.5870    -0.5600    -1.8700 C.3   1 <1>  -0.1600 
 10 C       -3.9560    -0.2690     0.5700 C.3   1 <1>  -0.1600 
 11 N        0.1370     3.1360     0.4650 N.4   1 <1>  -0.9590 
 12 C       -0.6070     1.3070    -0.9630 C.3   1 <1>  -0.1600 
 13 C       -0.8950     5.3500     0.2160 C.3   1 <1>  -0.1600 
 14 C       -4.7130    -1.1410    -0.4460 C.3   1 <1>   0.4240 
 15 C       -0.1900     4.3920     1.1860 C.3   1 <1>   0.3430 
 16 C        1.1290     2.2940     1.1820 C.3   1 <1>   0.3430 
 17 C        0.4940     0.4000    -0.3900 C.3   1 <1>  -0.1600 
 18 O       -6.0620    -0.9880    -0.0660 O.3   1 <1>  -0.5600 
 19 C       -4.2470    -2.6200    -0.3480 C.ar  1 <1>  -0.1430 
 20 C        1.6390     1.2200     0.2190 C.3   1 <1>  -0.1600 
 21 C       -6.9590    -1.9820    -0.4420 C.3   1 <1>   0.1200 
 22 C       -2.9310    -3.0090    -0.6300 C.ar  1 <1>   0.0820 
 23 C       -5.1520    -3.6090     0.0330 C.ar  1 <1>  -0.1430 
 24 C       -6.5990    -3.2530     0.3110 C.3   1 <1>  -0.0170 
 25 O       -2.0210    -2.0920    -1.0460 O.3   1 <1>  -0.3620 
 26 C       -2.5430    -4.3380    -0.4900 C.ar  1 <1>  -0.1500 
 27 C       -4.7590    -4.9310     0.1610 C.ar  1 <1>  -0.1500 
 28 C       -1.1260    -2.4390    -2.0830 C.3   1 <1>   0.0400 
 29 C       -3.4530    -5.2970    -0.0960 C.ar  1 <1>  -0.1500 
 30 H       -2.8330     3.4990     0.4920 H     1 <1>   0.0800 
 31 H       -5.9890     1.0610    -1.6640 H     1 <1>   0.0800 
 32 H       -4.8060     1.3030    -2.9170 H     1 <1>   0.0800 
 33 H       -3.7960     1.7760     1.1790 H     1 <1>   0.0800 
 34 H       -5.3950     1.3220     0.6880 H     1 <1>   0.0800 
 35 H       -1.4300     1.7980     0.9310 H     1 <1>   0.0800 
 36 H       -1.1070     4.4850    -1.7510 H     1 <1>   0.0800 
 37 H       -2.5460     5.2650    -1.1770 H     1 <1>   0.0800 
 38 H       -3.5820    -0.6540    -2.2290 H     1 <1>   0.0800 
 39 H       -5.2080    -1.1120    -2.5480 H     1 <1>   0.0800 
 40 H       -4.1710    -0.6310     1.5590 H     1 <1>   0.0800 
 41 H       -2.8980    -0.3530     0.4270 H     1 <1>   0.0800 
 42 H        0.5680     3.4160    -0.4240 H     1 <1>   0.4500 
 43 H       -1.4250     0.6740    -1.2580 H     1 <1>   0.0800 
 44 H       -0.2580     1.8080    -1.8500 H     1 <1>   0.0800 
 45 H       -1.5410     5.9890     0.7930 H     1 <1>   0.0800 
 46 H       -0.1660     5.9900    -0.2510 H     1 <1>   0.0800 
 47 H       -0.8400     4.1700     2.0170 H     1 <1>   0.0800 
 48 H        0.7050     4.8570     1.5670 H     1 <1>   0.0800 
 49 H        1.9580     2.8960     1.5180 H     1 <1>   0.0800 
 50 H        0.6690     1.8300     2.0400 H     1 <1>   0.0800 
 51 H        0.0660    -0.2350     0.3690 H     1 <1>   0.0800 
 52 H        0.8800    -0.2400    -1.1650 H     1 <1>   0.0800 
 53 H        2.2070     1.6900    -0.5660 H     1 <1>   0.0800 
 54 H        2.3070     0.5620     0.7470 H     1 <1>   0.0800 
 55 H       -7.9480    -1.6520    -0.1780 H     1 <1>   0.0800 
 56 H       -6.9050    -2.1290    -1.5060 H     1 <1>   0.0800 
 57 H       -6.7420    -3.1010     1.3660 H     1 <1>   0.0800 
 58 H       -7.2480    -4.0480    -0.0100 H     1 <1>   0.0800 
 59 H       -1.5300    -4.6380    -0.6780 H     1 <1>   0.1500 
 60 H       -5.4680    -5.6830     0.4630 H     1 <1>   0.1500 
 61 H       -0.7410    -1.5340    -2.5150 H     1 <1>   0.0800 
 62 H       -1.6560    -3.0010    -2.8320 H     1 <1>   0.0800 
 63 H       -0.3200    -3.0200    -1.6710 H     1 <1>   0.0800 
 64 H       -3.1490    -6.3240     0.0110 H     1 <1>   0.1500 
@<TRIPOS>BOND
  1   1   2  2   
  2   2   3  am  
  3   2   4  1   
  4   3   5  1   
  5   3   6  1   
  6   4   7  1   
  7   4   8  1   
  8   4  30  1   
  9   5   9  1   
 10   5  31  1   
 11   5  32  1   
 12   6  10  1   
 13   6  33  1   
 14   6  34  1   
 15   7  11  1   
 16   7  12  1   
 17   7  35  1   
 18   8  13  1   
 19   8  36  1   
 20   8  37  1   
 21   9  14  1   
 22   9  38  1   
 23   9  39  1   
 24  10  14  1   
 25  10  40  1   
 26  10  41  1   
 27  11  15  1   
 28  11  16  1   
 29  11  42  1   
 30  12  17  1   
 31  12  43  1   
 32  12  44  1   
 33  13  15  1   
 34  13  45  1   
 35  13  46  1   
 36  14  18  1   
 37  14  19  1   
 38  15  47  1   
 39  15  48  1   
 40  16  20  1   
 41  16  49  1   
 42  16  50  1   
 43  17  20  1   
 44  17  51  1   
 45  17  52  1   
 46  18  21  1   
 47  19  22  ar  
 48  19  23  ar  
 49  20  53  1   
 50  20  54  1   
 51  21  24  1   
 52  21  55  1   
 53  21  56  1   
 54  22  25  1   
 55  22  26  ar  
 56  23  24  1   
 57  23  27  ar  
 58  24  57  1   
 59  24  58  1   
 60  25  28  1   
 61  26  29  ar  
 62  26  59  1   
 63  27  29  ar  
 64  27  60  1   
 65  28  61  1   
 66  28  62  1   
 67  28  63  1   
 68  29  64  1   
@<TRIPOS>SUBSTRUCTURE
  1 ****  10 GROUP 4 **** **** 0

# MOE 2024.06 (io_trps.svl 2023.06)
