@<TRIPOS>MOLECULE
NONAME
54 57 1 0 0 
SMALL
USER_CHARGES


@<TRIPOS>ATOM
  1 O       -0.0780     1.3610     1.4850 O.2   1 <1>  -0.5700 
  2 C       -0.6410     1.8910     0.5420 C.2   1 <1>   0.5440 
  3 N        0.0830     2.7720    -0.2210 N.am  1 <1>  -0.6600 
  4 C       -2.0380     1.6390     0.2620 C.ar  1 <1>   0.0860 
  5 C        1.4580     2.4050    -0.6360 C.3   1 <1>   0.1400 
  6 C        0.0800     4.2040     0.1630 C.3   1 <1>   0.1400 
  7 C       -2.5430     0.4970    -0.3970 C.ar  1 <1>   0.0830 
  8 C       -2.9590     2.6120     0.6520 C.ar  1 <1>  -0.1500 
  9 C        2.3620     3.3750     0.1210 C.3   1 <1>   0.2200 
 10 C        1.5410     4.6580     0.1340 C.3   1 <1>  -0.1600 
 11 O       -1.8140    -0.5690    -0.8230 O.3   1 <1>  -0.3630 
 12 C       -3.9000     0.3970    -0.6680 C.ar  1 <1>  -0.1500 
 13 C       -4.3110     2.5010     0.3910 C.ar  1 <1>   0.0830 
 14 N        3.6920     3.6320    -0.4880 N.am  1 <1>  -0.7300 
 15 C       -0.6640    -1.0030    -0.1400 C.3   1 <1>   0.1200 
 16 C       -4.7860     1.3820    -0.2820 C.ar  1 <1>  -0.1500 
 17 O       -5.1010     3.5190     0.8190 O.3   1 <1>  -0.3630 
 18 C        4.6880     2.7920    -0.8650 C.2   1 <1>   0.5690 
 19 C       -0.3540    -2.4520    -0.5180 C.3   1 <1>  -0.1600 
 20 C       -6.4990     3.4840     0.6320 C.3   1 <1>   0.0400 
 21 O        5.7900     3.2420    -1.0400 O.2   1 <1>  -0.5700 
 22 C        4.4700     1.3110    -1.0880 C.3   1 <1>  -0.0990 
 23 C        0.8310    -3.0080     0.2930 C.3   1 <1>   0.0960 
 24 C        4.4050     0.5090     0.2210 C.3   1 <1>   0.0210 
 25 N        2.0710    -2.2350     0.0610 N.pl3 1 <1>   0.3140 
 26 C        3.5760    -0.7440     0.0180 C.2   1 <1>   0.0460 
 27 N        2.9640    -2.5670    -0.8750 N.2   1 <1>  -0.4180 
 28 C        2.4450    -1.0950     0.6440 C.2   1 <1>  -0.3020 
 29 N        3.8850    -1.6670    -0.8990 N.2   1 <1>  -0.2270 
 30 H        1.5520     2.5500    -1.6980 H     1 <1>   0.0800 
 31 H        1.6750     1.3850    -0.3790 H     1 <1>   0.0800 
 32 H       -0.3210     4.3140     1.1570 H     1 <1>   0.0800 
 33 H       -0.5180     4.7730    -0.5290 H     1 <1>   0.0800 
 34 H       -2.6150     3.4840     1.1740 H     1 <1>   0.1500 
 35 H        2.4860     3.0170     1.1290 H     1 <1>   0.0800 
 36 H        1.7730     5.2720     0.9850 H     1 <1>   0.0800 
 37 H        1.7050     5.2190    -0.7690 H     1 <1>   0.0800 
 38 H       -4.2600    -0.4740    -1.1870 H     1 <1>   0.1500 
 39 H        4.0020     4.6020    -0.4050 H     1 <1>   0.3700 
 40 H       -0.8500    -0.9270     0.9170 H     1 <1>   0.0800 
 41 H        0.1470    -0.3620    -0.4320 H     1 <1>   0.0800 
 42 H       -5.8290     1.2630    -0.5100 H     1 <1>   0.1500 
 43 H       -0.1270    -2.5120    -1.5690 H     1 <1>   0.0800 
 44 H       -1.2210    -3.0570    -0.3220 H     1 <1>   0.0800 
 45 H       -6.9150     4.3780     1.0590 H     1 <1>   0.0800 
 46 H       -6.8970     2.6200     1.1330 H     1 <1>   0.0800 
 47 H       -6.7100     3.4510    -0.4230 H     1 <1>   0.0800 
 48 H        5.2770     0.9270    -1.6850 H     1 <1>   0.0800 
 49 H        3.5770     1.1740    -1.6650 H     1 <1>   0.0800 
 50 H        1.0170    -4.0280     0.0100 H     1 <1>   0.0800 
 51 H        0.6070    -2.9830     1.3440 H     1 <1>   0.0800 
 52 H        3.9540     1.0950     1.0000 H     1 <1>   0.0800 
 53 H        5.3980     0.2440     0.5370 H     1 <1>   0.0800 
 54 H        1.8910    -0.6070     1.4260 H     1 <1>   0.1500 
@<TRIPOS>BOND
  1   1   2  2   
  2   2   3  am  
  3   2   4  1   
  4   3   5  1   
  5   3   6  1   
  6   4   7  ar  
  7   4   8  ar  
  8   5   9  1   
  9   5  30  1   
 10   5  31  1   
 11   6  10  1   
 12   6  32  1   
 13   6  33  1   
 14   7  11  1   
 15   7  12  ar  
 16   8  13  ar  
 17   8  34  1   
 18   9  10  1   
 19   9  14  1   
 20   9  35  1   
 21  10  36  1   
 22  10  37  1   
 23  11  15  1   
 24  12  16  ar  
 25  12  38  1   
 26  13  16  ar  
 27  13  17  1   
 28  14  18  am  
 29  14  39  1   
 30  15  19  1   
 31  15  40  1   
 32  15  41  1   
 33  16  42  1   
 34  17  20  1   
 35  18  21  2   
 36  18  22  1   
 37  19  23  1   
 38  19  43  1   
 39  19  44  1   
 40  20  45  1   
 41  20  46  1   
 42  20  47  1   
 43  22  24  1   
 44  22  48  1   
 45  22  49  1   
 46  23  25  1   
 47  23  50  1   
 48  23  51  1   
 49  24  26  1   
 50  24  52  1   
 51  24  53  1   
 52  25  27  1   
 53  25  28  1   
 54  26  28  2   
 55  26  29  1   
 56  27  29  2   
 57  28  54  1   
@<TRIPOS>SUBSTRUCTURE
  1 ****   2 GROUP 4 **** **** 0

# MOE 2024.06 (io_trps.svl 2023.06)
