@<TRIPOS>MOLECULE
NONAME
53 55 1 0 0 
SMALL
USER_CHARGES


@<TRIPOS>ATOM
  1 F       -2.3630    -0.1980    -2.4670 F     1 <1>  -0.3400 
  2 C       -2.8080     0.0760    -1.2480 C.3   1 <1>   0.8800 
  3 F       -1.7870     0.6410    -0.6130 F     1 <1>  -0.3400 
  4 O       -3.0960    -1.1480    -0.6120 O.3   1 <1>  -0.3630 
  5 C       -3.7680    -1.0950     0.5550 C.ar  1 <1>   0.0830 
  6 C       -5.1570    -0.9130     0.5940 C.ar  1 <1>   0.0860 
  7 C       -3.0410    -1.2720     1.7220 C.ar  1 <1>  -0.1500 
  8 C       -5.9490    -0.7770    -0.6090 C.2   1 <1>   0.5440 
  9 C       -5.7700    -0.8760     1.8470 C.ar  1 <1>  -0.1500 
 10 C       -3.6750    -1.2460     2.9490 C.ar  1 <1>  -0.1500 
 11 O       -5.8380     0.2430    -1.2660 O.2   1 <1>  -0.5700 
 12 N       -6.8440    -1.7410    -1.0290 N.am  1 <1>  -0.6600 
 13 C       -5.0430    -1.0410     3.0110 C.ar  1 <1>  -0.1500 
 14 C       -6.9300    -3.0980    -0.3700 C.3   1 <1>   0.3640 
 15 C       -7.8290    -1.4110    -2.1050 C.3   1 <1>   0.1400 
 16 C       -5.5440    -3.7470    -0.4030 C.ar  1 <1>  -0.1430 
 17 C       -7.9650    -4.0960    -0.9780 C.3   1 <1>   0.2000 
 18 C       -8.4320    -2.6530    -2.7590 C.3   1 <1>   0.1200 
 19 C       -4.9670    -4.2190     0.7680 C.ar  1 <1>  -0.1500 
 20 C       -4.8360    -3.8500    -1.5940 C.ar  1 <1>  -0.1500 
 21 O       -8.9460    -3.4820    -1.7690 O.3   1 <1>  -0.5600 
 22 C       -8.7200    -4.8920     0.0990 C.3   1 <1>   0.1200 
 23 C       -3.6980    -4.7700     0.7640 C.ar  1 <1>   0.0830 
 24 C       -3.5630    -4.3920    -1.6090 C.ar  1 <1>  -0.1500 
 25 O       -7.8460    -5.5160     0.9830 O.3   1 <1>  -0.6800 
 26 O       -3.2110    -5.2170     1.9490 O.3   1 <1>  -0.3630 
 27 C       -2.9790    -4.8320    -0.4350 C.ar  1 <1>   0.0830 
 28 C       -2.8440    -6.5770     2.0230 C.3   1 <1>   0.0400 
 29 O       -1.7050    -5.2840    -0.4980 O.3   1 <1>  -0.3630 
 30 C       -0.7370    -4.4040     0.0280 C.3   1 <1>   0.0400 
 31 H       -3.6380     0.7550    -1.2960 H     1 <1>   0.0800 
 32 H       -1.9800    -1.4340     1.6640 H     1 <1>   0.1500 
 33 H       -6.8330    -0.7170     1.9020 H     1 <1>   0.1500 
 34 H       -3.1080    -1.3860     3.8540 H     1 <1>   0.1500 
 35 H       -5.5370    -1.0150     3.9670 H     1 <1>   0.1500 
 36 H       -7.2050    -2.9360     0.6580 H     1 <1>   0.0800 
 37 H       -8.6210    -0.8200    -1.6800 H     1 <1>   0.0800 
 38 H       -7.3500    -0.8190    -2.8660 H     1 <1>   0.0800 
 39 H       -7.4530    -4.7960    -1.6150 H     1 <1>   0.0800 
 40 H       -7.6970    -3.1900    -3.3330 H     1 <1>   0.0800 
 41 H       -9.2430    -2.3710    -3.4080 H     1 <1>   0.0800 
 42 H       -5.4940    -4.1570     1.7040 H     1 <1>   0.1500 
 43 H       -5.2640    -3.4890    -2.5130 H     1 <1>   0.1500 
 44 H       -9.3340    -5.6490    -0.3570 H     1 <1>   0.0800 
 45 H       -9.3430    -4.2290     0.6750 H     1 <1>   0.0800 
 46 H       -3.0090    -4.4570    -2.5280 H     1 <1>   0.1500 
 47 H       -7.2860    -6.1740     0.5230 H     1 <1>   0.4000 
 48 H       -2.7110    -6.8320     3.0580 H     1 <1>   0.0800 
 49 H       -1.9240    -6.7280     1.4890 H     1 <1>   0.0800 
 50 H       -3.6290    -7.1740     1.5940 H     1 <1>   0.0800 
 51 H        0.2340    -4.8380    -0.1280 H     1 <1>   0.0800 
 52 H       -0.9180    -4.2690     1.0790 H     1 <1>   0.0800 
 53 H       -0.8100    -3.4610    -0.4870 H     1 <1>   0.0800 
@<TRIPOS>BOND
  1   1   2  1   
  2   2   3  1   
  3   2   4  1   
  4   2  31  1   
  5   4   5  1   
  6   5   6  ar  
  7   5   7  ar  
  8   6   8  1   
  9   6   9  ar  
 10   7  10  ar  
 11   7  32  1   
 12   8  11  2   
 13   8  12  am  
 14   9  13  ar  
 15   9  33  1   
 16  10  13  ar  
 17  10  34  1   
 18  12  14  1   
 19  12  15  1   
 20  13  35  1   
 21  14  16  1   
 22  14  17  1   
 23  14  36  1   
 24  15  18  1   
 25  15  37  1   
 26  15  38  1   
 27  16  19  ar  
 28  16  20  ar  
 29  17  21  1   
 30  17  22  1   
 31  17  39  1   
 32  18  21  1   
 33  18  40  1   
 34  18  41  1   
 35  19  23  ar  
 36  19  42  1   
 37  20  24  ar  
 38  20  43  1   
 39  22  25  1   
 40  22  44  1   
 41  22  45  1   
 42  23  26  1   
 43  23  27  ar  
 44  24  27  ar  
 45  24  46  1   
 46  25  47  1   
 47  26  28  1   
 48  27  29  1   
 49  28  48  1   
 50  28  49  1   
 51  28  50  1   
 52  29  30  1   
 53  30  51  1   
 54  30  52  1   
 55  30  53  1   
@<TRIPOS>SUBSTRUCTURE
  1 ****  16 GROUP 4 **** **** 0

# MOE 2024.06 (io_trps.svl 2023.06)
