@<TRIPOS>MOLECULE
NONAME
54 57 1 0 0 
SMALL
USER_CHARGES


@<TRIPOS>ATOM
  1 O        2.3400    -0.0390     3.0440 O.2   1 <1>  -0.5700 
  2 C        2.1940    -0.7140     2.0420 C.2   1 <1>   0.5440 
  3 N        2.4480    -0.1320     0.8100 N.am  1 <1>  -0.6600 
  4 C        1.7860    -2.0990     2.1770 C.ar  1 <1>   0.0860 
  5 C        2.7890     1.3270     0.7590 C.3   1 <1>   0.1400 
  6 C        2.7300    -0.9670    -0.4030 C.3   1 <1>   0.1400 
  7 C        0.6460    -2.5870     1.5430 C.ar  1 <1>  -0.1500 
  8 C        2.5350    -2.9900     2.9410 C.ar  1 <1>  -0.1500 
  9 C        4.3110     1.6160     0.6650 C.3   1 <1>   0.4230 
 10 C        4.1110    -0.7270    -1.0520 C.3   1 <1>  -0.0800 
 11 C        0.2560    -3.9180     1.6360 C.ar  1 <1>   0.0000 
 12 C        2.1660    -4.3170     3.0540 C.ar  1 <1>  -0.1500 
 13 N        4.8150     1.6860    -0.7560 N.4   1 <1>  -0.9590 
 14 C        5.2110     0.6640     1.5020 C.3   1 <1>   0.1200 
 15 C        5.3280    -1.1050    -0.1790 C.3   1 <1>   0.1200 
 16 C        4.2150     0.6700    -1.6700 C.3   1 <1>   0.3430 
 17 C       -0.9240    -4.3950     0.9520 C.ar  1 <1>   0.0000 
 18 C        1.0360    -4.7760     2.4030 C.ar  1 <1>  -0.1500 
 19 C        4.6640     3.0610    -1.3250 C.3   1 <1>   0.2630 
 20 O        5.1850    -0.6970     1.1440 O.3   1 <1>  -0.5600 
 21 C       -0.8510    -5.4580     0.0580 C.ar  1 <1>  -0.1500 
 22 C       -2.1670    -3.8060     1.1650 C.ar  1 <1>  -0.1500 
 23 C       -1.9720    -5.9240    -0.6070 C.ar  1 <1>   0.0820 
 24 C       -3.2960    -4.2600     0.5060 C.ar  1 <1>  -0.1500 
 25 O       -1.7880    -6.9660    -1.4560 O.3   1 <1>  -0.3630 
 26 C       -3.2040    -5.3180    -0.3810 C.ar  1 <1>  -0.1500 
 27 C       -2.8670    -7.5290    -2.1690 C.3   1 <1>   0.0400 
 28 H        2.2670     1.7880    -0.0590 H     1 <1>   0.0800 
 29 H        2.4220     1.8070     1.6490 H     1 <1>   0.0800 
 30 H        2.6740    -2.0110    -0.1500 H     1 <1>   0.0800 
 31 H        1.9540    -0.7800    -1.1270 H     1 <1>   0.0800 
 32 H        0.0480    -1.9110     0.9590 H     1 <1>   0.1500 
 33 H        3.4140    -2.6290     3.4470 H     1 <1>   0.1500 
 34 H        4.4490     2.5930     1.0950 H     1 <1>   0.0800 
 35 H        4.1400    -1.3980    -1.8920 H     1 <1>   0.0800 
 36 H        2.7580    -4.9920     3.6490 H     1 <1>   0.1500 
 37 H        5.8190     1.4710    -0.6940 H     1 <1>   0.4500 
 38 H        4.8930     0.7090     2.5300 H     1 <1>   0.0800 
 39 H        6.2330     0.9930     1.4660 H     1 <1>   0.0800 
 40 H        6.2520    -0.7150    -0.5690 H     1 <1>   0.0800 
 41 H        5.4120    -2.1790    -0.1480 H     1 <1>   0.0800 
 42 H        3.2290     0.9860    -1.9720 H     1 <1>   0.0800 
 43 H        4.8200     0.6070    -2.5600 H     1 <1>   0.0800 
 44 H        0.7490    -5.8090     2.4940 H     1 <1>   0.1500 
 45 H        3.6210     3.3260    -1.3970 H     1 <1>   0.0800 
 46 H        5.1000     3.1090    -2.3100 H     1 <1>   0.0800 
 47 H        5.1610     3.7840    -0.6980 H     1 <1>   0.0800 
 48 H        0.0940    -5.9330    -0.1290 H     1 <1>   0.1500 
 49 H       -2.2480    -2.9870     1.8580 H     1 <1>   0.1500 
 50 H       -4.2470    -3.7900     0.6860 H     1 <1>   0.1500 
 51 H       -4.0940    -5.6530    -0.8800 H     1 <1>   0.1500 
 52 H       -2.4850    -8.3380    -2.7670 H     1 <1>   0.0800 
 53 H       -3.2960    -6.7760    -2.8060 H     1 <1>   0.0800 
 54 H       -3.5920    -7.9030    -1.4680 H     1 <1>   0.0800 
@<TRIPOS>BOND
  1   1   2  2   
  2   2   3  am  
  3   2   4  1   
  4   3   5  1   
  5   3   6  1   
  6   4   7  ar  
  7   4   8  ar  
  8   5   9  1   
  9   5  28  1   
 10   5  29  1   
 11   6  10  1   
 12   6  30  1   
 13   6  31  1   
 14   7  11  ar  
 15   7  32  1   
 16   8  12  ar  
 17   8  33  1   
 18   9  13  1   
 19   9  14  1   
 20   9  34  1   
 21  10  15  1   
 22  10  16  1   
 23  10  35  1   
 24  11  17  1   
 25  11  18  ar  
 26  12  18  ar  
 27  12  36  1   
 28  13  16  1   
 29  13  19  1   
 30  13  37  1   
 31  14  20  1   
 32  14  38  1   
 33  14  39  1   
 34  15  20  1   
 35  15  40  1   
 36  15  41  1   
 37  16  42  1   
 38  16  43  1   
 39  17  21  ar  
 40  17  22  ar  
 41  18  44  1   
 42  19  45  1   
 43  19  46  1   
 44  19  47  1   
 45  21  23  ar  
 46  21  48  1   
 47  22  24  ar  
 48  22  49  1   
 49  23  25  1   
 50  23  26  ar  
 51  24  26  ar  
 52  24  50  1   
 53  25  27  1   
 54  26  51  1   
 55  27  52  1   
 56  27  53  1   
 57  27  54  1   
@<TRIPOS>SUBSTRUCTURE
  1 ****   7 GROUP 4 **** **** 0

# MOE 2024.06 (io_trps.svl 2023.06)
