@<TRIPOS>MOLECULE
NONAME
21 22 1 0 0 
SMALL
USER_CHARGES


@<TRIPOS>ATOM
  1 S       -1.3800    -5.7780    -0.3650 S.3   1 <1>  -0.0800 
  2 C        0.1720    -5.0180    -0.2000 C.2   1 <1>  -0.1400 
  3 C       -2.1250    -4.2500     0.0760 C.2   1 <1>   0.1980 
  4 C       -0.0010    -3.7420     0.1470 C.2   1 <1>   0.0460 
  5 C        1.4670    -5.7480    -0.4260 C.3   1 <1>   0.5230 
  6 N       -1.2980    -3.3080     0.3080 N.2   1 <1>  -0.5650 
  7 C       -3.6340    -4.2020     0.1370 C.3   1 <1>  -0.0600 
  8 C        1.1590    -2.7990     0.3580 C.3   1 <1>   0.0210 
  9 N        2.5580    -4.9030     0.1620 N.4   1 <1>  -0.9060 
 10 C        2.4490    -3.4400    -0.1910 C.3   1 <1>   0.3430 
 11 H        1.6200    -5.8880    -1.4840 H     1 <1>   0.0800 
 12 H        1.4370    -6.7120     0.0560 H     1 <1>   0.0800 
 13 H       -3.9930    -4.9060     0.8640 H     1 <1>   0.0800 
 14 H       -4.0460    -4.4430    -0.8250 H     1 <1>   0.0800 
 15 H       -3.9550    -3.2160     0.4170 H     1 <1>   0.0800 
 16 H        1.2580    -2.5810     1.4060 H     1 <1>   0.0800 
 17 H        0.9700    -1.8730    -0.1570 H     1 <1>   0.0800 
 18 H        3.4720    -5.2780    -0.1170 H     1 <1>   0.4500 
 19 H        2.4880    -4.9920     1.1840 H     1 <1>   0.4500 
 20 H        3.3010    -2.9000     0.1910 H     1 <1>   0.0800 
 21 H        2.4490    -3.3380    -1.2650 H     1 <1>   0.0800 
@<TRIPOS>BOND
  1   1   2  1   
  2   1   3  1   
  3   2   4  2   
  4   2   5  1   
  5   3   6  2   
  6   3   7  1   
  7   4   6  1   
  8   4   8  1   
  9   5   9  1   
 10   5  11  1   
 11   5  12  1   
 12   7  13  1   
 13   7  14  1   
 14   7  15  1   
 15   8  10  1   
 16   8  16  1   
 17   8  17  1   
 18   9  10  1   
 19   9  18  1   
 20   9  19  1   
 21  10  20  1   
 22  10  21  1   
@<TRIPOS>SUBSTRUCTURE
  1 ****   4 GROUP 4 **** **** 0

# MOE 2024.06 (io_trps.svl 2023.06)
