@<TRIPOS>MOLECULE
NONAME
45 47 1 0 0 
SMALL
USER_CHARGES


@<TRIPOS>ATOM
  1 F       -0.0510     2.0680    -1.5990 F     1 <1>  -0.1900 
  2 C        1.1450     1.8330    -1.1260 C.ar  1 <1>   0.1900 
  3 C        1.8160     2.8310    -0.4330 C.ar  1 <1>  -0.1440 
  4 C        1.6790     0.5800    -1.3520 C.ar  1 <1>  -0.1500 
  5 C        3.1110     2.5600     0.0340 C.ar  1 <1>   0.0860 
  6 C        1.1380     4.1790    -0.1820 C.3   1 <1>  -0.0970 
  7 C        2.9420     0.3030    -0.8640 C.ar  1 <1>  -0.1500 
  8 C        3.9290     3.5470     0.7170 C.2   1 <1>   0.5440 
  9 C        3.6380     1.2840    -0.1790 C.ar  1 <1>  -0.1500 
 10 O        4.3800     3.3160     1.8200 O.2   1 <1>  -0.5700 
 11 N        4.2850     4.7340     0.1170 N.am  1 <1>  -0.6600 
 12 C        4.7490     5.8850     0.9830 C.3   1 <1>   0.2200 
 13 C        4.5290     4.7840    -1.3570 C.3   1 <1>   0.1400 
 14 C        4.3230     7.2510     0.4240 C.3   1 <1>   0.1200 
 15 C        6.2730     5.8280     1.2400 C.3   1 <1>   0.3430 
 16 C        5.6670     5.7310    -1.7870 C.3   1 <1>  -0.0800 
 17 O        5.2550     7.7400    -0.4910 O.3   1 <1>  -0.5600 
 18 N        6.9710     4.9200     0.2710 N.4   1 <1>  -0.9590 
 19 C        5.2250     7.2030    -1.7690 C.3   1 <1>   0.1200 
 20 C        7.0350     5.5200    -1.1000 C.3   1 <1>   0.3430 
 21 C        8.3860     4.6740     0.7750 C.3   1 <1>   0.2370 
 22 C        9.2710     5.9230     0.8200 C.2   1 <1>   0.9060 
 23 O        9.2480     6.6120     1.8440 O.co2 1 <1>  -0.9000 
 24 O        9.8640     6.2450    -0.2140 O.co2 1 <1>  -0.9000 
 25 H        1.1150    -0.1590    -1.8920 H     1 <1>   0.1500 
 26 H        1.4710     4.6140     0.7430 H     1 <1>   0.0800 
 27 H        0.0710     4.0640    -0.1130 H     1 <1>   0.0800 
 28 H        1.3550     4.8580    -0.9860 H     1 <1>   0.0800 
 29 H        3.3760    -0.6710    -1.0140 H     1 <1>   0.1500 
 30 H        4.6180     1.0570     0.2050 H     1 <1>   0.1500 
 31 H        4.2610     5.7940     1.9390 H     1 <1>   0.0800 
 32 H        4.7690     3.7920    -1.7020 H     1 <1>   0.0800 
 33 H        3.6170     5.0790    -1.8470 H     1 <1>   0.0800 
 34 H        4.2940     7.9620     1.2310 H     1 <1>   0.0800 
 35 H        3.3470     7.2120    -0.0280 H     1 <1>   0.0800 
 36 H        6.4300     5.4610     2.2400 H     1 <1>   0.0800 
 37 H        6.6980     6.8190     1.1950 H     1 <1>   0.0800 
 38 H        5.8350     5.5220    -2.8280 H     1 <1>   0.0800 
 39 H        6.4200     4.0530     0.2630 H     1 <1>   0.4500 
 40 H        4.2350     7.3290    -2.1760 H     1 <1>   0.0800 
 41 H        5.9070     7.7900    -2.3620 H     1 <1>   0.0800 
 42 H        7.5530     6.4660    -1.0510 H     1 <1>   0.0800 
 43 H        7.6320     4.8730    -1.7220 H     1 <1>   0.0800 
 44 H        8.3530     4.2720     1.7710 H     1 <1>   0.0800 
 45 H        8.8800     3.9630     0.1380 H     1 <1>   0.0800 
@<TRIPOS>BOND
  1   1   2  1   
  2   2   3  ar  
  3   2   4  ar  
  4   3   5  ar  
  5   3   6  1   
  6   4   7  ar  
  7   4  25  1   
  8   5   8  1   
  9   5   9  ar  
 10   6  26  1   
 11   6  27  1   
 12   6  28  1   
 13   7   9  ar  
 14   7  29  1   
 15   8  10  2   
 16   8  11  am  
 17   9  30  1   
 18  11  12  1   
 19  11  13  1   
 20  12  14  1   
 21  12  15  1   
 22  12  31  1   
 23  13  16  1   
 24  13  32  1   
 25  13  33  1   
 26  14  17  1   
 27  14  34  1   
 28  14  35  1   
 29  15  18  1   
 30  15  36  1   
 31  15  37  1   
 32  16  19  1   
 33  16  20  1   
 34  16  38  1   
 35  17  19  1   
 36  18  20  1   
 37  18  21  1   
 38  18  39  1   
 39  19  40  1   
 40  19  41  1   
 41  20  42  1   
 42  20  43  1   
 43  21  22  1   
 44  21  44  1   
 45  21  45  1   
 46  22  23  ar  
 47  22  24  ar  
@<TRIPOS>SUBSTRUCTURE
  1 ****  11 GROUP 4 **** **** 0

# MOE 2024.06 (io_trps.svl 2023.06)
