@<TRIPOS>MOLECULE
NONAME
49 51 1 0 0 
SMALL
USER_CHARGES


@<TRIPOS>ATOM
  1 S        0.6560     1.3880    -1.3920 S.o2  1 <1>   1.3330 
  2 O        0.4560    -0.0190    -1.6580 O.2   1 <1>  -0.6500 
  3 O        0.2150     2.3690    -2.3570 O.2   1 <1>  -0.6500 
  4 N       -0.1170     1.7510     0.0780 N.am  1 <1>  -0.8490 
  5 C        2.3950     1.6400    -1.0280 C.3   1 <1>  -0.0550 
  6 C       -1.4090     1.0700     0.2020 C.3   1 <1>   0.1160 
  7 C       -0.2960     3.1920     0.2960 C.3   1 <1>   0.1160 
  8 C        3.0130     0.5520    -0.1200 C.3   1 <1>  -0.0800 
  9 C        4.5130     0.6700     0.1110 C.3   1 <1>   0.2200 
 10 C        2.4570     0.4920     1.3080 C.3   1 <1>   0.1200 
 11 N        4.8930     2.0700     0.4120 N.am  1 <1>  -0.7300 
 12 C        4.6550    -0.1500     1.3850 C.3   1 <1>   0.1200 
 13 O        3.5360     0.1870     2.1460 O.3   1 <1>  -0.5600 
 14 C        5.3490     2.9880    -0.4930 C.2   1 <1>   0.7160 
 15 O        5.4810     2.6230    -1.6470 O.2   1 <1>  -0.5700 
 16 C        5.6280     4.3500    -0.0580 C.2   1 <1>   0.2030 
 17 N        5.3410     5.4610    -0.7120 N.2   1 <1>  -0.7070 
 18 C        6.2400     4.6490     1.1670 C.2   1 <1>  -0.1500 
 19 N        5.7590     6.4850     0.0690 N.pl3 1 <1>   0.5930 
 20 C        6.3120     5.9880     1.2120 C.2   1 <1>  -0.0890 
 21 C        5.6160     7.8560    -0.2780 C.ar  1 <1>  -0.0230 
 22 O        6.8600     6.7330     2.2080 O.3   1 <1>  -0.5130 
 23 C        5.0040     8.7540     0.5940 C.ar  1 <1>  -0.1500 
 24 C        6.0940     8.3290    -1.4970 C.ar  1 <1>  -0.1500 
 25 C        4.8890    10.0920     0.2620 C.ar  1 <1>  -0.1500 
 26 C        5.9790     9.6670    -1.8290 C.ar  1 <1>  -0.1500 
 27 C        5.3790    10.5500    -0.9480 C.ar  1 <1>  -0.1500 
 28 H        2.9350     1.6390    -1.9560 H     1 <1>   0.0800 
 29 H        2.5260     2.6070    -0.5870 H     1 <1>   0.0800 
 30 H       -1.8690     1.3100     1.1450 H     1 <1>   0.0800 
 31 H       -1.2690     0.0030     0.1590 H     1 <1>   0.0800 
 32 H       -2.0660     1.3650    -0.6000 H     1 <1>   0.0800 
 33 H       -0.7080     3.3690     1.2740 H     1 <1>   0.0800 
 34 H       -0.9620     3.6060    -0.4450 H     1 <1>   0.0800 
 35 H        0.6500     3.7010     0.2290 H     1 <1>   0.0800 
 36 H        2.8290    -0.4060    -0.5760 H     1 <1>   0.0800 
 37 H        5.0990     0.2770    -0.7040 H     1 <1>   0.0800 
 38 H        1.7020    -0.2690     1.4120 H     1 <1>   0.0800 
 39 H        2.0610     1.4410     1.6260 H     1 <1>   0.0800 
 40 H        4.6540     2.3680     1.3600 H     1 <1>   0.3700 
 41 H        5.5520     0.0760     1.9340 H     1 <1>   0.0800 
 42 H        4.6080    -1.2040     1.1720 H     1 <1>   0.0800 
 43 H        6.5860     3.9440     1.9010 H     1 <1>   0.1500 
 44 H        6.9570     7.6830     1.9890 H     1 <1>   0.4500 
 45 H        4.6080     8.4060     1.5330 H     1 <1>   0.1500 
 46 H        6.5550     7.6430    -2.1880 H     1 <1>   0.1500 
 47 H        4.4150    10.7790     0.9420 H     1 <1>   0.1500 
 48 H        6.3530    10.0200    -2.7740 H     1 <1>   0.1500 
 49 H        5.2890    11.5910    -1.2080 H     1 <1>   0.1500 
@<TRIPOS>BOND
  1   1   2  2   
  2   1   3  2   
  3   1   4  am  
  4   1   5  1   
  5   4   6  1   
  6   4   7  1   
  7   5   8  1   
  8   5  28  1   
  9   5  29  1   
 10   6  30  1   
 11   6  31  1   
 12   6  32  1   
 13   7  33  1   
 14   7  34  1   
 15   7  35  1   
 16   8   9  1   
 17   8  10  1   
 18   8  36  1   
 19   9  11  1   
 20   9  12  1   
 21   9  37  1   
 22  10  13  1   
 23  10  38  1   
 24  10  39  1   
 25  11  14  am  
 26  11  40  1   
 27  12  13  1   
 28  12  41  1   
 29  12  42  1   
 30  14  15  2   
 31  14  16  1   
 32  16  17  2   
 33  16  18  1   
 34  17  19  1   
 35  18  20  2   
 36  18  43  1   
 37  19  20  1   
 38  19  21  1   
 39  20  22  1   
 40  21  23  ar  
 41  21  24  ar  
 42  22  44  1   
 43  23  25  ar  
 44  23  45  1   
 45  24  26  ar  
 46  24  46  1   
 47  25  27  ar  
 48  25  47  1   
 49  26  27  ar  
 50  26  48  1   
 51  27  49  1   
@<TRIPOS>SUBSTRUCTURE
  1 ****  16 GROUP 4 **** **** 0

# MOE 2024.06 (io_trps.svl 2023.06)
