@<TRIPOS>MOLECULE
NONAME
39 41 1 0 0 
SMALL
USER_CHARGES


@<TRIPOS>ATOM
  1 S        0.0240     0.2670    -1.0380 S.3   1 <1>  -0.0800 
  2 C        0.7710    -1.2620    -0.6260 C.ar  1 <1>   0.0400 
  3 C        1.3030     1.1090    -0.1690 C.2   1 <1>   0.1980 
  4 C        1.9030    -0.9970     0.1200 C.ar  1 <1>   0.2270 
  5 C        0.3550    -2.5390    -0.9550 C.ar  1 <1>  -0.1500 
  6 N        2.1770     0.3500     0.3590 N.2   1 <1>  -0.5650 
  7 C        1.2200     2.6240    -0.1550 C.3   1 <1>   0.0200 
  8 C        2.6640    -2.0690     0.5630 C.ar  1 <1>  -0.1500 
  9 C        1.1270    -3.5980    -0.5050 C.ar  1 <1>  -0.1500 
 10 C        2.2950     3.2540     0.7450 C.3   1 <1>  -0.0990 
 11 C        2.2740    -3.3630     0.2490 C.ar  1 <1>  -0.1500 
 12 C        2.2740     4.7660     0.6670 C.2   1 <1>   0.5690 
 13 O        1.2170     5.3300     0.7940 O.2   1 <1>  -0.5700 
 14 N        3.4610     5.4070     0.4590 N.am  1 <1>  -0.4940 
 15 C        3.7160     6.7740     0.3010 C.2   1 <1>   0.2040 
 16 O        2.7570     7.6670     0.2340 O.3   1 <1>  -0.0190 
 17 C        4.8890     7.4270     0.1770 C.2   1 <1>  -0.1810 
 18 N        3.2280     8.8770     0.0690 N.2   1 <1>  -0.4100 
 19 C        4.5060     8.7590     0.0320 C.2   1 <1>   0.1080 
 20 C        6.3040     6.8730     0.1900 C.3   1 <1>   0.0210 
 21 C        5.4400     9.9380    -0.1450 C.3   1 <1>  -0.0590 
 22 C        6.7980     6.6230    -1.2360 C.3   1 <1>  -0.2400 
 23 H       -0.5340    -2.6950    -1.5380 H     1 <1>   0.1500 
 24 H        0.2450     2.9160     0.1940 H     1 <1>   0.0800 
 25 H        1.3340     2.9840    -1.1620 H     1 <1>   0.0800 
 26 H        3.5470    -1.8780     1.1440 H     1 <1>   0.1500 
 27 H        0.8400    -4.6090    -0.7390 H     1 <1>   0.1500 
 28 H        3.2610     2.8870     0.4510 H     1 <1>   0.0800 
 29 H        2.1210     2.9600     1.7640 H     1 <1>   0.0800 
 30 H        2.8640    -4.1960     0.5920 H     1 <1>   0.1500 
 31 H        4.2820     4.8120     0.4020 H     1 <1>   0.3700 
 32 H        6.3250     5.9500     0.7430 H     1 <1>   0.0800 
 33 H        6.9600     7.5650     0.6880 H     1 <1>   0.0800 
 34 H        6.0180     9.8170    -1.0410 H     1 <1>   0.0800 
 35 H        6.0980    10.0140     0.7000 H     1 <1>   0.0800 
 36 H        4.8700    10.8470    -0.2210 H     1 <1>   0.0800 
 37 H        6.1510     5.9240    -1.7380 H     1 <1>   0.0800 
 38 H        7.7950     6.2200    -1.2190 H     1 <1>   0.0800 
 39 H        6.8070     7.5410    -1.7960 H     1 <1>   0.0800 
@<TRIPOS>BOND
  1   1   2  1   
  2   1   3  1   
  3   2   4  ar  
  4   2   5  ar  
  5   3   6  2   
  6   3   7  1   
  7   4   6  1   
  8   4   8  ar  
  9   5   9  ar  
 10   5  23  1   
 11   7  10  1   
 12   7  24  1   
 13   7  25  1   
 14   8  11  ar  
 15   8  26  1   
 16   9  11  ar  
 17   9  27  1   
 18  10  12  1   
 19  10  28  1   
 20  10  29  1   
 21  11  30  1   
 22  12  13  2   
 23  12  14  am  
 24  14  15  1   
 25  14  31  1   
 26  15  16  1   
 27  15  17  2   
 28  16  18  1   
 29  17  19  1   
 30  17  20  1   
 31  18  19  2   
 32  19  21  1   
 33  20  22  1   
 34  20  32  1   
 35  20  33  1   
 36  21  34  1   
 37  21  35  1   
 38  21  36  1   
 39  22  37  1   
 40  22  38  1   
 41  22  39  1   
@<TRIPOS>SUBSTRUCTURE
  1 ****  10 GROUP 4 **** **** 0

# MOE 2024.06 (io_trps.svl 2023.06)
