@<TRIPOS>MOLECULE
NONAME
49 52 1 0 0 
SMALL
USER_CHARGES


@<TRIPOS>ATOM
  1 S        0.5930     0.1840    -1.2200 S.3   1 <1>  -0.0800 
  2 C        1.4470     1.5640    -0.5250 C.ar  1 <1>   0.0400 
  3 C        1.0600    -0.8860     0.1220 C.2   1 <1>  -0.0450 
  4 C        2.0520     1.1910     0.6640 C.ar  1 <1>   0.0000 
  5 C        1.5260     2.8390    -1.0520 C.ar  1 <1>  -0.1500 
  6 C        0.6380    -2.2660     0.1160 C.2   1 <1>   0.7150 
  7 C        1.8230    -0.1840     0.9940 C.2   1 <1>  -0.1500 
  8 C        2.7770     2.1580     1.3570 C.ar  1 <1>  -0.1500 
  9 C        2.2500     3.7860    -0.3480 C.ar  1 <1>  -0.1500 
 10 O        1.2250    -3.0880     0.7980 O.2   1 <1>  -0.5700 
 11 N       -0.4420    -2.7200    -0.6100 N.am  1 <1>  -0.6600 
 12 C        2.8710     3.4430     0.8510 C.ar  1 <1>  -0.1500 
 13 C       -0.5030    -4.1540    -0.9930 C.3   1 <1>   0.1400 
 14 C       -1.7750    -2.0760    -0.4630 C.3   1 <1>   0.1400 
 15 C       -1.2710    -4.9370     0.0960 C.3   1 <1>   0.4230 
 16 C       -2.5650    -2.8360     0.6120 C.3   1 <1>  -0.1600 
 17 N       -1.2300    -6.4490    -0.0840 N.4   1 <1>  -0.9590 
 18 C       -2.7010    -4.3620     0.3310 C.3   1 <1>   0.0000 
 19 C       -2.2800    -7.1860     0.6910 C.3   1 <1>   0.3430 
 20 C       -1.2070    -6.9340    -1.5030 C.3   1 <1>   0.2630 
 21 C       -3.3290    -5.0450     1.5820 C.3   1 <1>  -0.1600 
 22 C       -3.5890    -4.6030    -0.9230 C.3   1 <1>   0.1200 
 23 C       -2.6940    -6.4030     1.9360 C.3   1 <1>  -0.1600 
 24 O       -4.7960    -3.9290    -0.8340 O.3   1 <1>  -0.6800 
 25 H        1.0390     3.0800    -1.9790 H     1 <1>   0.1500 
 26 H        2.2520    -0.5990     1.8890 H     1 <1>   0.1500 
 27 H        3.2590     1.8980     2.2820 H     1 <1>   0.1500 
 28 H        2.3340     4.7900    -0.7260 H     1 <1>   0.1500 
 29 H        3.4310     4.1890     1.3870 H     1 <1>   0.1500 
 30 H       -0.9790    -4.2330    -1.9530 H     1 <1>   0.0800 
 31 H        0.4990    -4.5390    -1.0790 H     1 <1>   0.0800 
 32 H       -1.6680    -1.0480    -0.1600 H     1 <1>   0.0800 
 33 H       -2.2950    -2.0900    -1.4060 H     1 <1>   0.0800 
 34 H       -0.7340    -4.7320     1.0080 H     1 <1>   0.0800 
 35 H       -2.0570    -2.6820     1.5490 H     1 <1>   0.0800 
 36 H       -3.5340    -2.3800     0.7130 H     1 <1>   0.0800 
 37 H       -0.3280    -6.7240     0.3360 H     1 <1>   0.4500 
 38 H       -3.1530    -7.3320     0.0750 H     1 <1>   0.0800 
 39 H       -1.9100    -8.1580     0.9770 H     1 <1>   0.0800 
 40 H       -2.1080    -6.6400    -2.0180 H     1 <1>   0.0800 
 41 H       -1.1340    -8.0100    -1.5290 H     1 <1>   0.0800 
 42 H       -0.3590    -6.5270    -2.0300 H     1 <1>   0.0800 
 43 H       -3.2320    -4.4120     2.4490 H     1 <1>   0.0800 
 44 H       -4.3870    -5.1830     1.4360 H     1 <1>   0.0800 
 45 H       -3.8140    -5.6460    -1.0540 H     1 <1>   0.0800 
 46 H       -3.1120    -4.2440    -1.8170 H     1 <1>   0.0800 
 47 H       -3.4000    -6.9850     2.5030 H     1 <1>   0.0800 
 48 H       -1.8310    -6.2580     2.5640 H     1 <1>   0.0800 
 49 H       -5.3420    -4.2420    -0.0860 H     1 <1>   0.4000 
@<TRIPOS>BOND
  1   1   2  1   
  2   1   3  1   
  3   2   4  ar  
  4   2   5  ar  
  5   3   6  1   
  6   3   7  2   
  7   4   7  1   
  8   4   8  ar  
  9   5   9  ar  
 10   5  25  1   
 11   6  10  2   
 12   6  11  am  
 13   7  26  1   
 14   8  12  ar  
 15   8  27  1   
 16   9  12  ar  
 17   9  28  1   
 18  11  13  1   
 19  11  14  1   
 20  12  29  1   
 21  13  15  1   
 22  13  30  1   
 23  13  31  1   
 24  14  16  1   
 25  14  32  1   
 26  14  33  1   
 27  15  17  1   
 28  15  18  1   
 29  15  34  1   
 30  16  18  1   
 31  16  35  1   
 32  16  36  1   
 33  17  19  1   
 34  17  20  1   
 35  17  37  1   
 36  18  21  1   
 37  18  22  1   
 38  19  23  1   
 39  19  38  1   
 40  19  39  1   
 41  20  40  1   
 42  20  41  1   
 43  20  42  1   
 44  21  23  1   
 45  21  43  1   
 46  21  44  1   
 47  22  24  1   
 48  22  45  1   
 49  22  46  1   
 50  23  47  1   
 51  23  48  1   
 52  24  49  1   
@<TRIPOS>SUBSTRUCTURE
  1 ****  11 GROUP 4 **** **** 0

# MOE 2024.06 (io_trps.svl 2023.06)
