@<TRIPOS>MOLECULE
NONAME
54 57 1 0 0 
SMALL
USER_CHARGES


@<TRIPOS>ATOM
  1 O        1.3340    -1.4650     0.5340 O.2   1 <1>  -0.5700 
  2 C        1.4240    -0.7970    -0.4680 C.2   1 <1>   0.5690 
  3 N        1.9290     0.4670    -0.4940 N.am  1 <1>  -0.4940 
  4 C        0.9540    -1.4340    -1.7710 C.3   1 <1>  -0.0190 
  5 C        2.3200     1.2590     0.5650 C.2   1 <1>   0.5420 
  6 C       -0.2970    -2.2840    -1.4750 C.3   1 <1>   0.3430 
  7 C        2.0920    -2.2680    -2.4150 C.3   1 <1>  -0.1600 
  8 O        2.8560     2.4000     0.2970 O.3   1 <1>  -0.2800 
  9 N        2.2260     1.0570     1.8290 N.2   1 <1>  -0.3380 
 10 N        0.1310    -3.5730    -0.8650 N.4   1 <1>  -0.9590 
 11 C        1.5990    -3.6410    -2.9070 C.3   1 <1>  -0.1600 
 12 C        3.0950     2.9410     1.4620 C.2   1 <1>   0.4250 
 13 N        2.7300     2.1420     2.4100 N.2   1 <1>  -0.3380 
 14 C        0.8990    -4.4540    -1.8040 C.3   1 <1>   0.3430 
 15 C       -0.9690    -4.2900    -0.1620 C.3   1 <1>   0.5230 
 16 C        3.7130     4.2420     1.5910 C.ar  1 <1>   0.0530 
 17 C       -0.3980    -5.4160     0.6810 C.2   1 <1>  -0.0400 
 18 C        3.5440     5.2720     0.6510 C.ar  1 <1>   0.0820 
 19 C        4.5170     4.5050     2.7020 C.ar  1 <1>  -0.1500 
 20 O        0.0150    -6.5210     0.0870 O.3   1 <1>  -0.2800 
 21 C       -0.2210    -5.5050     2.0180 C.2   1 <1>  -0.1500 
 22 O        2.7350     5.0400    -0.4160 O.3   1 <1>  -0.3630 
 23 C        4.1840     6.4980     0.8290 C.ar  1 <1>  -0.1500 
 24 C        5.1440     5.7220     2.8770 C.ar  1 <1>  -0.1500 
 25 C        0.4610    -7.3340     1.0240 C.2   1 <1>  -0.0100 
 26 C        0.3450    -6.7660     2.2420 C.2   1 <1>  -0.1500 
 27 C        2.4170     6.0330    -1.3620 C.3   1 <1>   0.1200 
 28 C        4.9800     6.7210     1.9360 C.ar  1 <1>  -0.1500 
 29 C        1.4490     5.4240    -2.3720 C.3   1 <1>  -0.2400 
 30 H        2.0650     0.9190    -1.3930 H     1 <1>   0.3700 
 31 H        0.6580    -0.6520    -2.4470 H     1 <1>   0.0800 
 32 H       -0.8360    -2.4760    -2.3880 H     1 <1>   0.0800 
 33 H       -0.9420    -1.7460    -0.7990 H     1 <1>   0.0800 
 34 H        2.8760    -2.4360    -1.6930 H     1 <1>   0.0800 
 35 H        2.5290    -1.7220    -3.2350 H     1 <1>   0.0800 
 36 H        0.7880    -3.2930    -0.1090 H     1 <1>   0.4500 
 37 H        2.4290    -4.2140    -3.2840 H     1 <1>   0.0800 
 38 H        0.9160    -3.5070    -3.7280 H     1 <1>   0.0800 
 39 H        0.2380    -5.1730    -2.2620 H     1 <1>   0.0800 
 40 H        1.6350    -5.0040    -1.2390 H     1 <1>   0.0800 
 41 H       -1.6730    -4.6930    -0.8720 H     1 <1>   0.0800 
 42 H       -1.4880    -3.6040     0.4870 H     1 <1>   0.0800 
 43 H        4.6530     3.7360     3.4440 H     1 <1>   0.1500 
 44 H       -0.4470    -4.7880     2.7910 H     1 <1>   0.1500 
 45 H        4.0760     7.2960     0.1200 H     1 <1>   0.1500 
 46 H        5.7600     5.8940     3.7430 H     1 <1>   0.1500 
 47 H        0.8430    -8.3010     0.7410 H     1 <1>   0.1500 
 48 H        0.6180    -7.1690     3.2020 H     1 <1>   0.1500 
 49 H        3.3250     6.3480    -1.8470 H     1 <1>   0.0800 
 50 H        1.9590     6.8610    -0.8480 H     1 <1>   0.0800 
 51 H        5.4710     7.6710     2.0680 H     1 <1>   0.1500 
 52 H        1.9120     4.5930    -2.8720 H     1 <1>   0.0800 
 53 H        1.1820     6.1610    -3.1080 H     1 <1>   0.0800 
 54 H        0.5540     5.0960    -1.8750 H     1 <1>   0.0800 
@<TRIPOS>BOND
  1   1   2  2   
  2   2   3  am  
  3   2   4  1   
  4   3   5  1   
  5   3  30  1   
  6   4   6  1   
  7   4   7  1   
  8   4  31  1   
  9   5   8  1   
 10   5   9  2   
 11   6  10  1   
 12   6  32  1   
 13   6  33  1   
 14   7  11  1   
 15   7  34  1   
 16   7  35  1   
 17   8  12  1   
 18   9  13  1   
 19  10  14  1   
 20  10  15  1   
 21  10  36  1   
 22  11  14  1   
 23  11  37  1   
 24  11  38  1   
 25  12  13  2   
 26  12  16  1   
 27  14  39  1   
 28  14  40  1   
 29  15  17  1   
 30  15  41  1   
 31  15  42  1   
 32  16  18  ar  
 33  16  19  ar  
 34  17  20  1   
 35  17  21  2   
 36  18  22  1   
 37  18  23  ar  
 38  19  24  ar  
 39  19  43  1   
 40  20  25  1   
 41  21  26  1   
 42  21  44  1   
 43  22  27  1   
 44  23  28  ar  
 45  23  45  1   
 46  24  28  ar  
 47  24  46  1   
 48  25  26  2   
 49  25  47  1   
 50  26  48  1   
 51  27  29  1   
 52  27  49  1   
 53  27  50  1   
 54  28  51  1   
 55  29  52  1   
 56  29  53  1   
 57  29  54  1   
@<TRIPOS>SUBSTRUCTURE
  1 ****   3 GROUP 4 **** **** 0

# MOE 2024.06 (io_trps.svl 2023.06)
