@<TRIPOS>MOLECULE
NONAME
56 59 1 0 0 
SMALL
USER_CHARGES


@<TRIPOS>ATOM
  1 O       -1.3870     0.7990     1.7570 O.2   1 <1>  -0.5700 
  2 C       -1.3520     0.8450     0.5420 C.2   1 <1>   0.7160 
  3 N       -1.3570    -0.3150    -0.1730 N.am  1 <1>  -0.7300 
  4 C       -1.3510     2.0840    -0.1570 C.2   1 <1>  -0.0860 
  5 C       -1.7730    -1.6320     0.3450 C.3   1 <1>   0.1400 
  6 C       -2.4810     2.8050    -0.5560 C.2   1 <1>   0.3720 
  7 C       -0.3160     2.7880    -0.6800 C.2   1 <1>   0.0870 
  8 C       -3.0350    -2.0560    -0.4060 C.3   1 <1>  -0.1600 
  9 N       -2.1450     3.8110    -1.2830 N.2   1 <1>  -0.4100 
 10 N       -3.8210     2.5200    -0.2650 N.pl3 1 <1>  -0.8210 
 11 O       -0.8390     3.7910    -1.3380 O.3   1 <1>  -0.0190 
 12 C        1.1110     2.5900    -0.6390 C.ar  1 <1>   0.0530 
 13 C       -3.7010    -3.2750     0.2400 C.3   1 <1>   0.0210 
 14 C       -4.2150     1.8500     1.0100 C.3   1 <1>   0.2090 
 15 C       -4.7290     2.2250    -1.4090 C.3   1 <1>   0.2090 
 16 C        1.9240     3.0210    -1.6880 C.ar  1 <1>  -0.1500 
 17 C        1.7340     1.9620     0.4400 C.ar  1 <1>  -0.1500 
 18 C       -4.9130    -3.7060    -0.5700 C.2   1 <1>  -0.1810 
 19 C       -5.7190     2.0300     1.2770 C.3   1 <1>   0.1200 
 20 C       -6.2050     2.3560    -0.9900 C.3   1 <1>   0.1200 
 21 C        3.2920     2.8240    -1.6690 C.ar  1 <1>  -0.1500 
 22 C        3.1010     1.7610     0.4650 C.ar  1 <1>  -0.1500 
 23 C       -5.0790    -4.7880    -1.3500 C.2   1 <1>  -0.0400 
 24 C       -6.1410    -3.0480    -0.6790 C.2   1 <1>   0.1080 
 25 O       -6.4700     1.6120     0.1700 O.3   1 <1>  -0.5600 
 26 C        3.8840     2.1910    -0.5910 C.ar  1 <1>  -0.1500 
 27 O       -6.2830    -4.7440    -1.8510 O.3   1 <1>  -0.0190 
 28 C       -4.1780    -5.9500    -1.7160 C.3   1 <1>  -0.0600 
 29 N       -6.9370    -3.6940    -1.4530 N.2   1 <1>  -0.4100 
 30 C       -6.5310    -1.7480    -0.0050 C.3   1 <1>  -0.0590 
 31 H       -1.2770    -0.2440    -1.1880 H     1 <1>   0.3700 
 32 H       -1.9750    -1.5630     1.4020 H     1 <1>   0.0800 
 33 H       -0.9820    -2.3480     0.1950 H     1 <1>   0.0800 
 34 H       -2.7830    -2.2920    -1.4260 H     1 <1>   0.0800 
 35 H       -3.7350    -1.2410    -0.4090 H     1 <1>   0.0800 
 36 H       -4.0100    -3.0410     1.2440 H     1 <1>   0.0800 
 37 H       -2.9970    -4.0860     0.2930 H     1 <1>   0.0800 
 38 H       -3.6530     2.2690     1.8270 H     1 <1>   0.0800 
 39 H       -4.0010     0.7980     0.9530 H     1 <1>   0.0800 
 40 H       -4.5480     1.2240    -1.7610 H     1 <1>   0.0800 
 41 H       -4.5270     2.9070    -2.2170 H     1 <1>   0.0800 
 42 H        1.4760     3.5160    -2.5320 H     1 <1>   0.1500 
 43 H        1.1470     1.6320     1.2790 H     1 <1>   0.1500 
 44 H       -5.9420     3.0630     1.4790 H     1 <1>   0.0800 
 45 H       -6.0190     1.4380     2.1230 H     1 <1>   0.0800 
 46 H       -6.8460     1.9900    -1.7710 H     1 <1>   0.0800 
 47 H       -6.4460     3.3880    -0.8000 H     1 <1>   0.0800 
 48 H        3.8980     3.1640    -2.4910 H     1 <1>   0.1500 
 49 H        3.5580     1.2730     1.3080 H     1 <1>   0.1500 
 50 H        4.9490     2.0350    -0.5730 H     1 <1>   0.1500 
 51 H       -3.2180    -5.8540    -1.2440 H     1 <1>   0.0800 
 52 H       -4.0410    -5.9780    -2.7810 H     1 <1>   0.0800 
 53 H       -4.6320    -6.8720    -1.3990 H     1 <1>   0.0800 
 54 H       -6.1080    -1.6890     0.9790 H     1 <1>   0.0800 
 55 H       -7.6010    -1.6850     0.0760 H     1 <1>   0.0800 
 56 H       -6.1850    -0.9200    -0.5940 H     1 <1>   0.0800 
@<TRIPOS>BOND
  1   1   2  2   
  2   2   3  am  
  3   2   4  1   
  4   3   5  1   
  5   3  31  1   
  6   4   6  1   
  7   4   7  2   
  8   5   8  1   
  9   5  32  1   
 10   5  33  1   
 11   6   9  2   
 12   6  10  1   
 13   7  11  1   
 14   7  12  1   
 15   8  13  1   
 16   8  34  1   
 17   8  35  1   
 18   9  11  1   
 19  10  14  1   
 20  10  15  1   
 21  12  16  ar  
 22  12  17  ar  
 23  13  18  1   
 24  13  36  1   
 25  13  37  1   
 26  14  19  1   
 27  14  38  1   
 28  14  39  1   
 29  15  20  1   
 30  15  40  1   
 31  15  41  1   
 32  16  21  ar  
 33  16  42  1   
 34  17  22  ar  
 35  17  43  1   
 36  18  23  2   
 37  18  24  1   
 38  19  25  1   
 39  19  44  1   
 40  19  45  1   
 41  20  25  1   
 42  20  46  1   
 43  20  47  1   
 44  21  26  ar  
 45  21  48  1   
 46  22  26  ar  
 47  22  49  1   
 48  23  27  1   
 49  23  28  1   
 50  24  29  2   
 51  24  30  1   
 52  26  50  1   
 53  27  29  1   
 54  28  51  1   
 55  28  52  1   
 56  28  53  1   
 57  30  54  1   
 58  30  55  1   
 59  30  56  1   
@<TRIPOS>SUBSTRUCTURE
  1 ****   3 GROUP 4 **** **** 0

# MOE 2024.06 (io_trps.svl 2023.06)
