@<TRIPOS>MOLECULE
NONAME
50 54 1 0 0 
SMALL
USER_CHARGES


@<TRIPOS>ATOM
  1 O        1.0710    -0.5940    -1.4400 O.3   1 <1>  -0.5600 
  2 C        1.9660    -1.0840    -0.4680 C.3   1 <1>   0.4240 
  3 C       -0.2870    -0.8290    -1.2410 C.3   1 <1>   0.1200 
  4 C        1.5440    -2.4800     0.0440 C.ar  1 <1>  -0.1440 
  5 C        2.0330    -0.0650     0.6800 C.3   1 <1>  -0.1600 
  6 C        3.3260    -1.1590    -1.1720 C.3   1 <1>  -0.1600 
  7 C       -0.5450    -2.3290    -1.3410 C.3   1 <1>  -0.0160 
  8 C        0.3550    -3.0710    -0.3730 C.ar  1 <1>  -0.1440 
  9 C        2.3480    -3.1740     0.9430 C.ar  1 <1>  -0.1500 
 10 C        2.5220     1.3030     0.2050 C.3   1 <1>   0.2090 
 11 C        3.7890     0.2190    -1.6380 C.3   1 <1>   0.2090 
 12 C       -0.0130    -4.3250     0.0880 C.ar  1 <1>  -0.1500 
 13 C        1.9800    -4.4240     1.4060 C.ar  1 <1>  -0.1500 
 14 N        3.8460     1.1480    -0.4670 N.pl3 1 <1>  -0.8380 
 15 C        0.8020    -5.0110     0.9830 C.ar  1 <1>   0.0820 
 16 C        4.9760     1.8320    -0.1110 C.ar  1 <1>   0.4100 
 17 O        0.5150    -6.2390     1.4820 O.3   1 <1>  -0.3630 
 18 N        6.1300     1.2330    -0.3950 N.ar  1 <1>  -0.6200 
 19 C        4.9610     3.1130     0.5280 C.ar  1 <1>   0.2270 
 20 C       -0.6500    -6.9330     1.0970 C.3   1 <1>   0.0400 
 21 C        7.2570     1.8270    -0.0630 C.ar  1 <1>   0.7710 
 22 N        3.9580     3.9720     0.9010 N.2   1 <1>  -0.5650 
 23 C        6.1600     3.6870     0.8460 C.ar  1 <1>   0.1560 
 24 N        7.3200     3.0260     0.5480 N.ar  1 <1>  -0.1260 
 25 N        8.3730     1.1680    -0.3680 N.pl3 1 <1>  -0.9000 
 26 C        4.5550     4.9890     1.4150 C.2   1 <1>   0.0360 
 27 N        5.9080     4.8810     1.4160 N.pl3 1 <1>   0.0330 
 28 H       -0.8290    -0.3030    -2.0080 H     1 <1>   0.0800 
 29 H       -0.5780    -0.4480    -0.2790 H     1 <1>   0.0800 
 30 H        2.7130    -0.4180     1.4320 H     1 <1>   0.0800 
 31 H        1.0710     0.0300     1.1470 H     1 <1>   0.0800 
 32 H        3.2500    -1.8230    -2.0130 H     1 <1>   0.0800 
 33 H        4.0710    -1.5550    -0.5090 H     1 <1>   0.0800 
 34 H       -0.3470    -2.6600    -2.3450 H     1 <1>   0.0800 
 35 H       -1.5770    -2.5260    -1.1150 H     1 <1>   0.0800 
 36 H        3.2700    -2.7470     1.2940 H     1 <1>   0.1500 
 37 H        2.5910     1.9470     1.0610 H     1 <1>   0.0800 
 38 H        1.8170     1.7330    -0.4870 H     1 <1>   0.0800 
 39 H        3.0960     0.6110    -2.3640 H     1 <1>   0.0800 
 40 H        4.7480     0.1350    -2.1180 H     1 <1>   0.0800 
 41 H       -0.9330    -4.7550    -0.2560 H     1 <1>   0.1500 
 42 H        2.6080    -4.9540     2.0990 H     1 <1>   0.1500 
 43 H       -0.6590    -7.8790     1.6080 H     1 <1>   0.0800 
 44 H       -0.6270    -7.0930     0.0340 H     1 <1>   0.0800 
 45 H       -1.5110    -6.3550     1.3840 H     1 <1>   0.0800 
 46 H        8.2420     3.3950     0.7570 H     1 <1>   0.4570 
 47 H        9.3480     1.4260    -0.2100 H     1 <1>   0.4000 
 48 H        8.2590     0.2590    -0.8300 H     1 <1>   0.4000 
 49 H        4.0490     5.8560     1.8120 H     1 <1>   0.1500 
 50 H        6.5560     5.5890     1.7770 H     1 <1>   0.2700 
@<TRIPOS>BOND
  1   1   2  1   
  2   1   3  1   
  3   2   4  1   
  4   2   5  1   
  5   2   6  1   
  6   3   7  1   
  7   3  28  1   
  8   3  29  1   
  9   4   8  ar  
 10   4   9  ar  
 11   5  10  1   
 12   5  30  1   
 13   5  31  1   
 14   6  11  1   
 15   6  32  1   
 16   6  33  1   
 17   7   8  1   
 18   7  34  1   
 19   7  35  1   
 20   8  12  ar  
 21   9  13  ar  
 22   9  36  1   
 23  10  14  1   
 24  10  37  1   
 25  10  38  1   
 26  11  14  1   
 27  11  39  1   
 28  11  40  1   
 29  12  15  ar  
 30  12  41  1   
 31  13  15  ar  
 32  13  42  1   
 33  14  16  1   
 34  15  17  1   
 35  16  18  ar  
 36  16  19  ar  
 37  17  20  1   
 38  18  21  ar  
 39  19  22  1   
 40  19  23  ar  
 41  20  43  1   
 42  20  44  1   
 43  20  45  1   
 44  21  24  ar  
 45  21  25  1   
 46  22  26  2   
 47  23  24  ar  
 48  23  27  1   
 49  24  46  1   
 50  25  47  1   
 51  25  48  1   
 52  26  27  1   
 53  26  49  1   
 54  27  50  1   
@<TRIPOS>SUBSTRUCTURE
  1 ****   5 GROUP 4 **** **** 0

# MOE 2024.06 (io_trps.svl 2023.06)
