@<TRIPOS>MOLECULE
NONAME
49 50 1 0 0 
SMALL
USER_CHARGES


@<TRIPOS>ATOM
  1 O       -0.5740     1.2880     1.4630 O.2   1 <1>  -0.5700 
  2 C       -1.5880     1.5560     0.8600 C.2   1 <1>   0.5690 
  3 N       -2.6910     0.7350     0.8970 N.am  1 <1>  -0.6600 
  4 C       -1.6170     2.8490     0.0550 C.3   1 <1>  -0.0990 
  5 C       -3.9540     1.0150     0.1490 C.3   1 <1>   0.1400 
  6 C       -2.6700    -0.4840     1.7530 C.3   1 <1>   0.1400 
  7 C       -0.3770     3.7440     0.2590 C.3   1 <1>  -0.0990 
  8 C       -4.6700    -0.2380    -0.3760 C.3   1 <1>  -0.1600 
  9 C       -2.1500    -1.6810     0.9500 C.3   1 <1>  -0.1600 
 10 C       -0.4540     5.0590    -0.4920 C.2   1 <1>   0.5690 
 11 C       -3.7460    -1.2720    -1.0420 C.3   1 <1>  -0.1600 
 12 C       -3.1650    -2.2780    -0.0370 C.3   1 <1>  -0.1600 
 13 O       -1.2240     5.1950    -1.4110 O.2   1 <1>  -0.5700 
 14 N        0.3640     6.0610    -0.1040 N.am  1 <1>  -0.7300 
 15 C        0.4940     7.3570    -0.8000 C.3   1 <1>   0.4000 
 16 C        1.9310     7.8760    -0.7020 C.2   1 <1>   0.2980 
 17 C       -0.4920     8.3360    -0.1640 C.3   1 <1>  -0.2400 
 18 O        2.2920     8.8400    -1.5110 O.3   1 <1>  -0.0190 
 19 N        2.8380     7.4700     0.1020 N.2   1 <1>  -0.5650 
 20 N        3.5300     9.0670    -1.1980 N.2   1 <1>  -0.4100 
 21 C        3.8370     8.2630    -0.2580 C.2   1 <1>   0.3350 
 22 C        5.1880     8.1560     0.4360 C.3   1 <1>   0.0210 
 23 C        6.2390     9.1510    -0.0800 C.3   1 <1>  -0.2400 
 24 H       -2.4910     3.4080     0.3350 H     1 <1>   0.0800 
 25 H       -1.6930     2.5970    -0.9860 H     1 <1>   0.0800 
 26 H       -3.7370     1.6370    -0.7000 H     1 <1>   0.0800 
 27 H       -4.6230     1.5620     0.7910 H     1 <1>   0.0800 
 28 H       -3.6500    -0.6830     2.1490 H     1 <1>   0.0800 
 29 H       -2.0140    -0.3160     2.5910 H     1 <1>   0.0800 
 30 H        0.5000     3.2170    -0.0720 H     1 <1>   0.0800 
 31 H       -0.2640     3.9520     1.3070 H     1 <1>   0.0800 
 32 H       -5.3900     0.0920    -1.1050 H     1 <1>   0.0800 
 33 H       -5.2330    -0.6970     0.4180 H     1 <1>   0.0800 
 34 H       -1.8710    -2.4510     1.6460 H     1 <1>   0.0800 
 35 H       -1.2550    -1.3880     0.4280 H     1 <1>   0.0800 
 36 H       -2.9530    -0.7780    -1.5770 H     1 <1>   0.0800 
 37 H       -4.3240    -1.8260    -1.7620 H     1 <1>   0.0800 
 38 H       -3.9690    -2.7340     0.5130 H     1 <1>   0.0800 
 39 H       -2.6730    -3.0620    -0.5870 H     1 <1>   0.0800 
 40 H        1.0860     5.9120     0.6060 H     1 <1>   0.3700 
 41 H        0.2470     7.2240    -1.8400 H     1 <1>   0.0800 
 42 H       -0.2590     8.4780     0.8760 H     1 <1>   0.0800 
 43 H       -1.4950     7.9600    -0.2590 H     1 <1>   0.0800 
 44 H       -0.4360     9.2860    -0.6620 H     1 <1>   0.0800 
 45 H        5.5540     7.1540     0.3040 H     1 <1>   0.0800 
 46 H        5.0370     8.3160     1.4890 H     1 <1>   0.0800 
 47 H        6.4160     8.9910    -1.1300 H     1 <1>   0.0800 
 48 H        7.1650     9.0220     0.4510 H     1 <1>   0.0800 
 49 H        5.8950    10.1600     0.0610 H     1 <1>   0.0800 
@<TRIPOS>BOND
  1   1   2  2   
  2   2   3  am  
  3   2   4  1   
  4   3   5  1   
  5   3   6  1   
  6   4   7  1   
  7   4  24  1   
  8   4  25  1   
  9   5   8  1   
 10   5  26  1   
 11   5  27  1   
 12   6   9  1   
 13   6  28  1   
 14   6  29  1   
 15   7  10  1   
 16   7  30  1   
 17   7  31  1   
 18   8  11  1   
 19   8  32  1   
 20   8  33  1   
 21   9  12  1   
 22   9  34  1   
 23   9  35  1   
 24  10  13  2   
 25  10  14  am  
 26  11  12  1   
 27  11  36  1   
 28  11  37  1   
 29  12  38  1   
 30  12  39  1   
 31  14  15  1   
 32  14  40  1   
 33  15  16  1   
 34  15  17  1   
 35  15  41  1   
 36  16  18  1   
 37  16  19  2   
 38  17  42  1   
 39  17  43  1   
 40  17  44  1   
 41  18  20  1   
 42  19  21  1   
 43  20  21  2   
 44  21  22  1   
 45  22  23  1   
 46  22  45  1   
 47  22  46  1   
 48  23  47  1   
 49  23  48  1   
 50  23  49  1   
@<TRIPOS>SUBSTRUCTURE
  1 ****   7 GROUP 4 **** **** 0

# MOE 2024.06 (io_trps.svl 2023.06)
