@<TRIPOS>MOLECULE
NONAME
32 33 1 0 0 
SMALL
USER_CHARGES


@<TRIPOS>ATOM
  1 O       -2.7410     1.0990    -0.9490 O.2   1 <1>  -0.5700 
  2 C       -2.3670     0.6550     0.1070 C.2   1 <1>   0.5690 
  3 N       -2.2100    -0.6710     0.3160 N.am  1 <1>  -0.7300 
  4 C       -2.0740     1.5960     1.2450 C.3   1 <1>  -0.1790 
  5 C       -2.4060    -1.7180    -0.7140 C.3   1 <1>   0.2200 
  6 C       -3.7040    -2.4830    -0.4900 C.3   1 <1>  -0.0800 
  7 C       -1.3880    -2.8270    -0.4860 C.3   1 <1>   0.1200 
  8 C       -3.3060    -3.5470     0.5390 C.3   1 <1>   0.1200 
  9 C       -4.9250    -1.6350    -0.0890 C.3   1 <1>  -0.0160 
 10 O       -1.9080    -3.5830     0.5650 O.3   1 <1>  -0.5600 
 11 C       -6.1750    -2.4970     0.0040 C.ar  1 <1>  -0.1440 
 12 C       -6.9030    -2.8400    -1.1170 C.ar  1 <1>  -0.1500 
 13 C       -6.6470    -2.9810     1.2080 C.ar  1 <1>  -0.1500 
 14 C       -8.0310    -3.6330    -0.9860 C.ar  1 <1>   0.1600 
 15 C       -7.7870    -3.7680     1.2290 C.ar  1 <1>   0.1600 
 16 N       -8.4890    -4.1080     0.1610 N.ar  1 <1>  -0.6200 
 17 H       -1.9140    -1.0320     1.2250 H     1 <1>   0.3700 
 18 H       -1.0620     1.4620     1.5760 H     1 <1>   0.0800 
 19 H       -2.7480     1.4030     2.0580 H     1 <1>   0.0800 
 20 H       -2.2030     2.6110     0.9180 H     1 <1>   0.0800 
 21 H       -2.3370    -1.2960    -1.7030 H     1 <1>   0.0800 
 22 H       -3.9410    -2.9960    -1.4050 H     1 <1>   0.0800 
 23 H       -0.4140    -2.4540    -0.2210 H     1 <1>   0.0800 
 24 H       -1.3170    -3.4650    -1.3500 H     1 <1>   0.0800 
 25 H       -3.6770    -4.5210     0.2690 H     1 <1>   0.0800 
 26 H       -3.6420    -3.2920     1.5290 H     1 <1>   0.0800 
 27 H       -5.0780    -0.8610    -0.8210 H     1 <1>   0.0800 
 28 H       -4.7540    -1.1520     0.8570 H     1 <1>   0.0800 
 29 H       -6.6030    -2.4970    -2.0910 H     1 <1>   0.1500 
 30 H       -6.1410    -2.7550     2.1280 H     1 <1>   0.1500 
 31 H       -8.5850    -3.8900    -1.8720 H     1 <1>   0.1500 
 32 H       -8.1400    -4.1370     2.1770 H     1 <1>   0.1500 
@<TRIPOS>BOND
  1   1   2  2   
  2   2   3  am  
  3   2   4  1   
  4   3   5  1   
  5   3  17  1   
  6   4  18  1   
  7   4  19  1   
  8   4  20  1   
  9   5   6  1   
 10   5   7  1   
 11   5  21  1   
 12   6   8  1   
 13   6   9  1   
 14   6  22  1   
 15   7  10  1   
 16   7  23  1   
 17   7  24  1   
 18   8  10  1   
 19   8  25  1   
 20   8  26  1   
 21   9  11  1   
 22   9  27  1   
 23   9  28  1   
 24  11  12  ar  
 25  11  13  ar  
 26  12  14  ar  
 27  12  29  1   
 28  13  15  ar  
 29  13  30  1   
 30  14  16  ar  
 31  14  31  1   
 32  15  16  ar  
 33  15  32  1   
@<TRIPOS>SUBSTRUCTURE
  1 ****   9 GROUP 4 **** **** 0

# MOE 2024.06 (io_trps.svl 2023.06)
