@<TRIPOS>MOLECULE
NONAME
48 51 1 0 0 
SMALL
USER_CHARGES


@<TRIPOS>ATOM
  1 S        2.0260     0.5720     1.7830 S.3   1 <1>  -0.0800 
  2 C        2.9540    -0.2310     0.5230 C.2   1 <1>   0.1980 
  3 C        0.8140     0.9470     0.5990 C.2   1 <1>  -0.1400 
  4 N        2.4070    -0.1980    -0.6330 N.2   1 <1>  -0.5650 
  5 C        4.2840    -0.8590     0.9560 C.3   1 <1>   0.4690 
  6 C        1.1970     0.4700    -0.5880 C.2   1 <1>   0.0460 
  7 C       -0.4540     1.6960     0.9400 C.3   1 <1>   0.0200 
  8 N        5.4110     0.0580     0.6910 N.pl3 1 <1>  -0.8690 
  9 C        4.5740    -2.1580     0.2090 C.3   1 <1>  -0.2400 
 10 C        0.3530     0.6330    -1.8360 C.3   1 <1>   0.0210 
 11 C       -1.4500     1.5270    -0.2250 C.3   1 <1>  -0.1600 
 12 C        5.5050     1.1720     1.4730 C.ar  1 <1>   0.4100 
 13 C       -0.7750     1.6660    -1.6080 C.3   1 <1>  -0.1600 
 14 N        5.1630     2.2720     0.8460 N.ar  1 <1>  -0.6200 
 15 C        5.9010     1.1430     2.8180 C.ar  1 <1>   0.1600 
 16 C        5.1660     3.3660     1.6250 C.ar  1 <1>   0.3960 
 17 N        5.9420     2.1960     3.6070 N.ar  1 <1>  -0.6200 
 18 C        4.7470     4.6680     1.1000 C.2   1 <1>   0.5440 
 19 C        5.5630     3.2960     2.9660 C.ar  1 <1>   0.1600 
 20 O        5.2130     5.6830     1.5930 O.2   1 <1>  -0.5700 
 21 N        3.8180     4.8310     0.0870 N.am  1 <1>  -0.6600 
 22 C        3.4450     6.1560    -0.4530 C.3   1 <1>   0.1400 
 23 C        3.0370     3.7540    -0.5680 C.3   1 <1>   0.1400 
 24 C        2.5600     5.8540    -1.6570 C.3   1 <1>  -0.1600 
 25 C        1.9610     4.4820    -1.3630 C.3   1 <1>  -0.1600 
 26 H        4.2380    -1.0740     2.0100 H     1 <1>   0.0800 
 27 H       -0.2180     2.7360     1.0830 H     1 <1>   0.0800 
 28 H       -0.8810     1.3100     1.8480 H     1 <1>   0.0800 
 29 H        5.3310     0.3550    -0.2860 H     1 <1>   0.4000 
 30 H        4.6330    -1.9740    -0.8490 H     1 <1>   0.0800 
 31 H        3.7820    -2.8610     0.3870 H     1 <1>   0.0800 
 32 H        5.4990    -2.5840     0.5510 H     1 <1>   0.0800 
 33 H       -0.0680    -0.3240    -2.0840 H     1 <1>   0.0800 
 34 H        0.9770     0.9480    -2.6530 H     1 <1>   0.0800 
 35 H       -2.2400     2.2510    -0.1270 H     1 <1>   0.0800 
 36 H       -1.8930     0.5480    -0.1580 H     1 <1>   0.0800 
 37 H       -1.5120     1.5610    -2.3860 H     1 <1>   0.0800 
 38 H       -0.3590     2.6550    -1.6870 H     1 <1>   0.0800 
 39 H        6.1890     0.1940     3.2310 H     1 <1>   0.1500 
 40 H        5.5620     4.2080     3.5380 H     1 <1>   0.1500 
 41 H        4.3220     6.7160    -0.7310 H     1 <1>   0.0800 
 42 H        2.8950     6.6960     0.2990 H     1 <1>   0.0800 
 43 H        2.6090     3.0860     0.1590 H     1 <1>   0.0800 
 44 H        3.6820     3.2010    -1.2300 H     1 <1>   0.0800 
 45 H        3.1780     5.8010    -2.5370 H     1 <1>   0.0800 
 46 H        1.8090     6.6100    -1.8010 H     1 <1>   0.0800 
 47 H        1.0850     4.5880    -0.7470 H     1 <1>   0.0800 
 48 H        1.7010     3.9470    -2.2590 H     1 <1>   0.0800 
@<TRIPOS>BOND
  1   1   2  1   
  2   1   3  1   
  3   2   4  2   
  4   2   5  1   
  5   3   6  2   
  6   3   7  1   
  7   4   6  1   
  8   5   8  1   
  9   5   9  1   
 10   5  26  1   
 11   6  10  1   
 12   7  11  1   
 13   7  27  1   
 14   7  28  1   
 15   8  12  1   
 16   8  29  1   
 17   9  30  1   
 18   9  31  1   
 19   9  32  1   
 20  10  13  1   
 21  10  33  1   
 22  10  34  1   
 23  11  13  1   
 24  11  35  1   
 25  11  36  1   
 26  12  14  ar  
 27  12  15  ar  
 28  13  37  1   
 29  13  38  1   
 30  14  16  ar  
 31  15  17  ar  
 32  15  39  1   
 33  16  18  1   
 34  16  19  ar  
 35  17  19  ar  
 36  18  20  2   
 37  18  21  am  
 38  19  40  1   
 39  21  22  1   
 40  21  23  1   
 41  22  24  1   
 42  22  41  1   
 43  22  42  1   
 44  23  25  1   
 45  23  43  1   
 46  23  44  1   
 47  24  25  1   
 48  24  45  1   
 49  24  46  1   
 50  25  47  1   
 51  25  48  1   
@<TRIPOS>SUBSTRUCTURE
  1 ****  23 GROUP 4 **** **** 0

# MOE 2024.06 (io_trps.svl 2023.06)
