@<TRIPOS>MOLECULE
NONAME
51 53 1 0 0 
SMALL
USER_CHARGES


@<TRIPOS>ATOM
  1 CL       4.2680     3.8750     3.8740 Cl    1 <1>  -0.1230 
  2 C        4.5650     2.3840     2.9930 C.2   1 <1>   0.1230 
  3 C        5.0370     2.2500     1.6820 C.2   1 <1>   0.2030 
  4 C        4.3590     1.1510     3.4790 C.2   1 <1>  -0.3020 
  5 N        5.1050     0.9530     1.3860 N.2   1 <1>  -0.7070 
  6 C        5.4020     3.3780     0.8290 C.2   1 <1>   0.7160 
  7 N        4.6960     0.3040     2.4910 N.pl3 1 <1>   0.3140 
  8 O        5.7760     4.4280     1.3280 O.2   1 <1>  -0.5700 
  9 N        5.4100     3.3200    -0.5640 N.am  1 <1>  -0.6600 
 10 C        4.6350    -1.1610     2.5700 C.3   1 <1>   0.0160 
 11 C        5.2180     2.0660    -1.3570 C.3   1 <1>   0.1400 
 12 C        5.7670     4.5040    -1.3900 C.3   1 <1>   0.1400 
 13 C        6.5170     1.2350    -1.4200 C.3   1 <1>   0.3430 
 14 C        7.2680     4.5030    -1.6980 C.3   1 <1>  -0.1600 
 15 N        7.7580     2.0800    -1.3350 N.4   1 <1>  -0.9590 
 16 C        7.8130     3.2090    -2.3130 C.3   1 <1>   0.3430 
 17 C        9.0220     1.2720    -1.3690 C.3   1 <1>   0.3430 
 18 C        9.8930     1.4730    -0.1140 C.3   1 <1>   0.1400 
 19 N        9.8500     2.8820     0.3810 N.am  1 <1>  -0.4200 
 20 C        8.9740     3.2230     1.3870 C.2   1 <1>   0.6900 
 21 C       10.5980     3.8630    -0.2390 C.2   1 <1>   0.6160 
 22 O        8.1520     2.4240     1.7770 O.2   1 <1>  -0.5700 
 23 N        8.9660     4.5020     1.8590 N.am  1 <1>  -0.5390 
 24 O       11.1690     3.6010    -1.2820 O.2   1 <1>  -0.5700 
 25 C       10.5990     5.1760     0.3180 C.2   1 <1>  -0.1360 
 26 C        9.7860     5.4870     1.3520 C.2   1 <1>  -0.0290 
 27 C        9.6930     6.8540     1.9990 C.3   1 <1>  -0.1020 
 28 H        4.0010     0.8420     4.4430 H     1 <1>   0.1500 
 29 H        5.2240    -1.4950     3.4040 H     1 <1>   0.0800 
 30 H        5.0250    -1.5830     1.6620 H     1 <1>   0.0800 
 31 H        3.6140    -1.4660     2.7000 H     1 <1>   0.0800 
 32 H        4.9170     2.3170    -2.3580 H     1 <1>   0.0800 
 33 H        4.4200     1.4750    -0.9430 H     1 <1>   0.0800 
 34 H        5.5070     5.4110    -0.8670 H     1 <1>   0.0800 
 35 H        5.1980     4.4930    -2.3040 H     1 <1>   0.0800 
 36 H        6.5200     0.6510    -2.3250 H     1 <1>   0.0800 
 37 H        6.5090     0.5470    -0.5890 H     1 <1>   0.0800 
 38 H        7.8080     4.7430    -0.8020 H     1 <1>   0.0800 
 39 H        7.4570     5.3040    -2.3890 H     1 <1>   0.0800 
 40 H        7.6920     2.5120    -0.3950 H     1 <1>   0.4500 
 41 H        8.8400     3.3850    -2.5940 H     1 <1>   0.0800 
 42 H        7.2640     2.9590    -3.2060 H     1 <1>   0.0800 
 43 H        9.6060     1.5560    -2.2300 H     1 <1>   0.0800 
 44 H        8.7930     0.2240    -1.4680 H     1 <1>   0.0800 
 45 H       10.9110     1.2050    -0.3420 H     1 <1>   0.0800 
 46 H        9.5590     0.8040     0.6600 H     1 <1>   0.0800 
 47 H        8.2330     4.7040     2.5480 H     1 <1>   0.3700 
 48 H       11.2630     5.8870    -0.1380 H     1 <1>   0.1500 
 49 H        8.6910     7.2350     1.9150 H     1 <1>   0.0800 
 50 H       10.3640     7.5470     1.5240 H     1 <1>   0.0800 
 51 H        9.9520     6.7870     3.0410 H     1 <1>   0.0800 
@<TRIPOS>BOND
  1   1   2  1   
  2   2   3  1   
  3   2   4  2   
  4   3   5  2   
  5   3   6  1   
  6   4   7  1   
  7   4  28  1   
  8   5   7  1   
  9   6   8  2   
 10   6   9  am  
 11   7  10  1   
 12   9  11  1   
 13   9  12  1   
 14  10  29  1   
 15  10  30  1   
 16  10  31  1   
 17  11  13  1   
 18  11  32  1   
 19  11  33  1   
 20  12  14  1   
 21  12  34  1   
 22  12  35  1   
 23  13  15  1   
 24  13  36  1   
 25  13  37  1   
 26  14  16  1   
 27  14  38  1   
 28  14  39  1   
 29  15  16  1   
 30  15  17  1   
 31  15  40  1   
 32  16  41  1   
 33  16  42  1   
 34  17  18  1   
 35  17  43  1   
 36  17  44  1   
 37  18  19  1   
 38  18  45  1   
 39  18  46  1   
 40  19  20  am  
 41  19  21  am  
 42  20  22  2   
 43  20  23  am  
 44  21  24  2   
 45  21  25  1   
 46  23  26  1   
 47  23  47  1   
 48  25  26  2   
 49  25  48  1   
 50  26  27  1   
 51  27  49  1   
 52  27  50  1   
 53  27  51  1   
@<TRIPOS>SUBSTRUCTURE
  1 ****  22 GROUP 4 **** **** 0

# MOE 2024.06 (io_trps.svl 2023.06)
