@<TRIPOS>MOLECULE
NONAME
36 37 1 0 0 
SMALL
USER_CHARGES


@<TRIPOS>ATOM
  1 O        0.5450     0.1210    -0.3630 O.3   1 <1>  -0.8500 
  2 C        1.5750     0.7750    -0.1370 C.2   1 <1>  -0.1500 
  3 C        2.6170     0.2790     0.6270 C.2   1 <1>  -0.1360 
  4 C        1.7220     2.0830    -0.6690 C.2   1 <1>  -0.1500 
  5 C        3.7690     1.0220     0.8610 C.2   1 <1>   0.6160 
  6 C        2.8380     2.8250    -0.4500 C.2   1 <1>  -0.0290 
  7 O        4.7200     0.5690     1.5310 O.2   1 <1>  -0.5700 
  8 N        3.8910     2.3150     0.3200 N.am  1 <1>  -0.4690 
  9 C        2.9460     4.2210    -1.0430 C.3   1 <1>  -0.1020 
 10 C        5.1640     3.0600     0.5440 C.3   1 <1>   0.1400 
 11 C        6.2130     2.6080    -0.4740 C.3   1 <1>   0.0200 
 12 C        7.4970     3.4100    -0.3780 C.2   1 <1>   0.2980 
 13 O        8.5200     3.0130    -1.0930 O.3   1 <1>  -0.0190 
 14 N        7.6980     4.4530     0.3280 N.2   1 <1>  -0.5650 
 15 N        9.4530     3.8710    -0.8140 N.2   1 <1>  -0.4100 
 16 C        8.9630     4.7000     0.0170 C.2   1 <1>   0.3350 
 17 C        9.7100     5.8700     0.6190 C.3   1 <1>   0.0210 
 18 C        9.1540     7.1860     0.0830 C.3   1 <1>   0.1200 
 19 O        9.8850     8.2310     0.6410 O.3   1 <1>  -0.5600 
 20 C        9.4720     9.4920     0.2240 C.3   1 <1>   0.0400 
 21 H        2.5280    -0.7030     1.0400 H     1 <1>   0.1500 
 22 H        0.8890     2.4280    -1.2510 H     1 <1>   0.1500 
 23 H        3.8080     4.2920    -1.6790 H     1 <1>   0.0800 
 24 H        3.0120     4.9510    -0.2570 H     1 <1>   0.0800 
 25 H        2.0740     4.4430    -1.6320 H     1 <1>   0.0800 
 26 H        5.5220     2.8710     1.5420 H     1 <1>   0.0800 
 27 H        4.9980     4.1170     0.4630 H     1 <1>   0.0800 
 28 H        5.8180     2.7130    -1.4670 H     1 <1>   0.0800 
 29 H        6.4440     1.5720    -0.3050 H     1 <1>   0.0800 
 30 H       10.7520     5.7930     0.3660 H     1 <1>   0.0800 
 31 H        9.6050     5.8400     1.6870 H     1 <1>   0.0800 
 32 H        8.1200     7.2960     0.3600 H     1 <1>   0.0800 
 33 H        9.2540     7.2240    -0.9890 H     1 <1>   0.0800 
 34 H       10.0930    10.2240     0.7100 H     1 <1>   0.0800 
 35 H        8.4450     9.6430     0.5080 H     1 <1>   0.0800 
 36 H        9.5880     9.5700    -0.8430 H     1 <1>   0.0800 
@<TRIPOS>BOND
  1   1   2  1   
  2   2   3  2   
  3   2   4  1   
  4   3   5  1   
  5   3  21  1   
  6   4   6  2   
  7   4  22  1   
  8   5   7  2   
  9   5   8  am  
 10   6   8  1   
 11   6   9  1   
 12   8  10  1   
 13   9  23  1   
 14   9  24  1   
 15   9  25  1   
 16  10  11  1   
 17  10  26  1   
 18  10  27  1   
 19  11  12  1   
 20  11  28  1   
 21  11  29  1   
 22  12  13  1   
 23  12  14  2   
 24  13  15  1   
 25  14  16  1   
 26  15  16  2   
 27  16  17  1   
 28  17  18  1   
 29  17  30  1   
 30  17  31  1   
 31  18  19  1   
 32  18  32  1   
 33  18  33  1   
 34  19  20  1   
 35  20  34  1   
 36  20  35  1   
 37  20  36  1   
@<TRIPOS>SUBSTRUCTURE
  1 ****  10 GROUP 4 **** **** 0

# MOE 2024.06 (io_trps.svl 2023.06)
