@<TRIPOS>MOLECULE
NONAME
7 6 1 0 0 
SMALL
USER_CHARGES


@<TRIPOS>ATOM
  1 F       -0.2230    -0.6720    -1.1560 F     1 <1>  -0.3400 
  2 C        0.0410    -1.4640    -0.1080 C.3   1 <1>   0.9140 
  3 F        1.2330    -1.0480     0.3430 F     1 <1>  -0.3400 
  4 F       -0.8260    -1.0810     0.8390 F     1 <1>  -0.3400 
  5 C       -0.0190    -3.0100    -0.4560 C.2   1 <1>   0.9060 
  6 O        1.0080    -3.6320    -0.8040 O.co2 1 <1>  -0.9000 
  7 O       -1.0980    -3.6390    -0.3980 O.co2 1 <1>  -0.9000 
@<TRIPOS>BOND
  1   1   2  1   
  2   2   3  1   
  3   2   4  1   
  4   2   5  1   
  5   5   6  ar  
  6   5   7  ar  
@<TRIPOS>SUBSTRUCTURE
  1 ****   2 GROUP 4 **** **** 0

# MOE 2024.06 (io_trps.svl 2023.06)
