@<TRIPOS>MOLECULE
NONAME
40 42 1 0 0 
SMALL
USER_CHARGES


@<TRIPOS>ATOM
  1 CL      -3.2220     0.3870    -2.8340 Cl    1 <1>  -0.1770 
  2 C       -3.1640     0.9920    -1.1970 C.ar  1 <1>   0.1770 
  3 C       -3.1110     0.1010    -0.1240 C.ar  1 <1>   0.0860 
  4 C       -3.1740     2.3660    -1.0210 C.ar  1 <1>  -0.1500 
  5 C       -3.1200    -1.3290    -0.3210 C.2   1 <1>   0.5440 
  6 C       -3.0540     0.6410     1.1600 C.ar  1 <1>  -0.1500 
  7 C       -3.1270     2.8910     0.2600 C.ar  1 <1>  -0.1500 
  8 O       -2.0670    -1.9320    -0.2380 O.2   1 <1>  -0.5700 
  9 N       -4.2860    -2.0290    -0.5630 N.am  1 <1>  -0.6600 
 10 C       -3.0670     2.0110     1.3260 C.ar  1 <1>   0.1900 
 11 C       -5.6340    -1.3950    -0.4360 C.3   1 <1>   0.2200 
 12 C       -4.2170    -3.4810    -0.9160 C.3   1 <1>   0.0600 
 13 F       -3.0240     2.4980     2.5360 F     1 <1>  -0.1900 
 14 C       -6.6230    -2.1890     0.4150 C.3   1 <1>  -0.1600 
 15 C       -6.3400    -1.2180    -1.7760 C.3   1 <1>  -0.1600 
 16 C       -8.0000    -1.6610    -0.0090 C.3   1 <1>  -0.0800 
 17 C       -7.8210    -1.0490    -1.4110 C.3   1 <1>  -0.0800 
 18 C       -8.5280    -0.5340     0.8910 C.3   1 <1>  -0.1600 
 19 C       -8.2590     0.4190    -1.3030 C.3   1 <1>  -0.1600 
 20 C       -9.1500     0.4640    -0.0720 C.3   1 <1>   0.2000 
 21 O       -9.1400     1.7260     0.4780 O.3   1 <1>  -0.6800 
 22 H       -3.2160     3.0150    -1.8780 H     1 <1>   0.1500 
 23 H       -2.9980    -0.0090     2.0160 H     1 <1>   0.1500 
 24 H       -3.1330     3.9530     0.4340 H     1 <1>   0.1500 
 25 H       -5.5440    -0.4230     0.0150 H     1 <1>   0.0800 
 26 H       -5.0160    -3.7540    -1.5810 H     1 <1>   0.0800 
 27 H       -4.2820    -4.0720    -0.0200 H     1 <1>   0.0800 
 28 H       -3.2830    -3.7020    -1.4060 H     1 <1>   0.0800 
 29 H       -6.5820    -3.2350     0.1740 H     1 <1>   0.0800 
 30 H       -6.4370    -2.0620     1.4660 H     1 <1>   0.0800 
 31 H       -5.9560    -0.3770    -2.3240 H     1 <1>   0.0800 
 32 H       -6.2310    -2.1030    -2.3760 H     1 <1>   0.0800 
 33 H       -8.7190    -2.4620    -0.0440 H     1 <1>   0.0800 
 34 H       -8.4470    -1.5630    -2.1220 H     1 <1>   0.0800 
 35 H       -7.7160    -0.0700     1.4220 H     1 <1>   0.0800 
 36 H       -9.2550    -0.9020     1.5940 H     1 <1>   0.0800 
 37 H       -8.7930     0.7340    -2.1820 H     1 <1>   0.0800 
 38 H       -7.4030     1.0540    -1.1550 H     1 <1>   0.0800 
 39 H      -10.1640     0.1910    -0.3160 H     1 <1>   0.0800 
 40 H       -8.2310     1.9790     0.7180 H     1 <1>   0.4000 
@<TRIPOS>BOND
  1   1   2  1   
  2   2   3  ar  
  3   2   4  ar  
  4   3   5  1   
  5   3   6  ar  
  6   4   7  ar  
  7   4  22  1   
  8   5   8  2   
  9   5   9  am  
 10   6  10  ar  
 11   6  23  1   
 12   7  10  ar  
 13   7  24  1   
 14   9  11  1   
 15   9  12  1   
 16  10  13  1   
 17  11  14  1   
 18  11  15  1   
 19  11  25  1   
 20  12  26  1   
 21  12  27  1   
 22  12  28  1   
 23  14  16  1   
 24  14  29  1   
 25  14  30  1   
 26  15  17  1   
 27  15  31  1   
 28  15  32  1   
 29  16  17  1   
 30  16  18  1   
 31  16  33  1   
 32  17  19  1   
 33  17  34  1   
 34  18  20  1   
 35  18  35  1   
 36  18  36  1   
 37  19  20  1   
 38  19  37  1   
 39  19  38  1   
 40  20  21  1   
 41  20  39  1   
 42  21  40  1   
@<TRIPOS>SUBSTRUCTURE
  1 ****  11 GROUP 4 **** **** 0

# MOE 2024.06 (io_trps.svl 2023.06)
