@<TRIPOS>MOLECULE
NONAME
49 50 1 0 0 
SMALL
USER_CHARGES


@<TRIPOS>ATOM
  1 S        0.2270    -0.1530    -2.1220 S.o2  1 <1>   1.4470 
  2 O        0.9560    -1.3920    -2.2980 O.2   1 <1>  -0.6500 
  3 O       -0.0070     0.6750    -3.2900 O.2   1 <1>  -0.6500 
  4 N       -1.2890    -0.5210    -1.4680 N.am  1 <1>  -0.8490 
  5 C        1.0280     0.8420    -0.8320 C.ar  1 <1>  -0.0090 
  6 C       -1.5960    -1.9520    -1.2760 C.3   1 <1>   0.1960 
  7 C       -2.3800     0.3980    -1.7630 C.3   1 <1>   0.1960 
  8 C        2.0400     1.7400    -1.1510 C.ar  1 <1>  -0.1500 
  9 C        0.6690     0.7270     0.5060 C.ar  1 <1>  -0.1500 
 10 C       -3.0510    -2.2150    -0.8290 C.3   1 <1>   0.2000 
 11 C       -3.5560     0.2540    -0.7750 C.3   1 <1>  -0.1600 
 12 C        2.6680     2.5100    -0.1830 C.ar  1 <1>  -0.1430 
 13 C        1.2770     1.4880     1.4840 C.ar  1 <1>  -0.1500 
 14 O       -3.8480    -2.3380    -1.9710 O.3   1 <1>  -0.6800 
 15 C       -3.5850    -1.0660     0.0610 C.3   1 <1>  -0.1060 
 16 C        2.2820     2.3890     1.1490 C.ar  1 <1>   0.0820 
 17 C        3.7680     3.4820    -0.5840 C.3   1 <1>  -0.0970 
 18 C       -2.6540    -0.9870     1.2950 C.2   1 <1>   0.9060 
 19 C       -5.0350    -1.3860     0.5280 C.3   1 <1>  -0.1600 
 20 O        2.9110     3.1660     2.0690 O.3   1 <1>  -0.3630 
 21 O       -2.4230     0.1030     1.8370 O.co2 1 <1>  -0.9000 
 22 O       -2.1520    -2.0290     1.7380 O.co2 1 <1>  -0.9000 
 23 C       -5.6630    -0.3170     1.4400 C.3   1 <1>  -0.1600 
 24 C        2.5180     3.1530     3.4240 C.3   1 <1>   0.0400 
 25 C       -7.0800    -0.7160     1.8600 C.3   1 <1>  -0.2400 
 26 H       -1.3960    -2.5040    -2.1780 H     1 <1>   0.0800 
 27 H       -0.9360    -2.3300    -0.5130 H     1 <1>   0.0800 
 28 H       -2.0160     1.4110    -1.7170 H     1 <1>   0.0800 
 29 H       -2.7180     0.2170    -2.7690 H     1 <1>   0.0800 
 30 H        2.3330     1.8350    -2.1820 H     1 <1>   0.1500 
 31 H       -0.1060     0.0360     0.8010 H     1 <1>   0.1500 
 32 H       -3.0980    -3.1550    -0.3060 H     1 <1>   0.0800 
 33 H       -3.5400     1.0980    -0.1090 H     1 <1>   0.0800 
 34 H       -4.4650     0.3430    -1.3410 H     1 <1>   0.0800 
 35 H        0.9380     1.3550     2.4950 H     1 <1>   0.1500 
 36 H       -3.8540    -1.4760    -2.4220 H     1 <1>   0.4000 
 37 H        3.9500     3.4510    -1.6430 H     1 <1>   0.0800 
 38 H        4.6790     3.2300    -0.0700 H     1 <1>   0.0800 
 39 H        3.4840     4.4820    -0.3120 H     1 <1>   0.0800 
 40 H       -5.6710    -1.5250    -0.3290 H     1 <1>   0.0800 
 41 H       -5.0130    -2.3200     1.0650 H     1 <1>   0.0800 
 42 H       -5.0570    -0.1930     2.3220 H     1 <1>   0.0800 
 43 H       -5.6990     0.6300     0.9320 H     1 <1>   0.0800 
 44 H        3.1240     3.8640     3.9550 H     1 <1>   0.0800 
 45 H        2.6750     2.1670     3.8220 H     1 <1>   0.0800 
 46 H        1.4810     3.4330     3.4880 H     1 <1>   0.0800 
 47 H       -7.0600    -1.6470     2.3990 H     1 <1>   0.0800 
 48 H       -7.7120    -0.8250     0.9970 H     1 <1>   0.0800 
 49 H       -7.4980     0.0410     2.5010 H     1 <1>   0.0800 
@<TRIPOS>BOND
  1   1   2  2   
  2   1   3  2   
  3   1   4  am  
  4   1   5  1   
  5   4   6  1   
  6   4   7  1   
  7   5   8  ar  
  8   5   9  ar  
  9   6  10  1   
 10   6  26  1   
 11   6  27  1   
 12   7  11  1   
 13   7  28  1   
 14   7  29  1   
 15   8  12  ar  
 16   8  30  1   
 17   9  13  ar  
 18   9  31  1   
 19  10  14  1   
 20  10  15  1   
 21  10  32  1   
 22  11  15  1   
 23  11  33  1   
 24  11  34  1   
 25  12  16  ar  
 26  12  17  1   
 27  13  16  ar  
 28  13  35  1   
 29  14  36  1   
 30  15  18  1   
 31  15  19  1   
 32  16  20  1   
 33  17  37  1   
 34  17  38  1   
 35  17  39  1   
 36  18  21  ar  
 37  18  22  ar  
 38  19  23  1   
 39  19  40  1   
 40  19  41  1   
 41  20  24  1   
 42  23  25  1   
 43  23  42  1   
 44  23  43  1   
 45  24  44  1   
 46  24  45  1   
 47  24  46  1   
 48  25  47  1   
 49  25  48  1   
 50  25  49  1   
@<TRIPOS>SUBSTRUCTURE
  1 ****   4 GROUP 4 **** **** 0

# MOE 2024.06 (io_trps.svl 2023.06)
