@<TRIPOS>MOLECULE
NONAME
47 49 1 0 0 
SMALL
USER_CHARGES


@<TRIPOS>ATOM
  1 F        0.4850     0.7390     0.0360 F     1 <1>  -0.1900 
  2 C        1.1900     1.8390     0.0120 C.ar  1 <1>   0.1900 
  3 C        1.0510     2.6960    -1.0630 C.ar  1 <1>  -0.1500 
  4 C        2.0490     2.1030     1.0610 C.ar  1 <1>  -0.1500 
  5 C        1.7980     3.8610    -1.0810 C.ar  1 <1>  -0.1500 
  6 C        2.7900     3.2720     1.0310 C.ar  1 <1>  -0.1500 
  7 C        2.6680     4.1640    -0.0340 C.ar  1 <1>  -0.0230 
  8 N        3.4260     5.3690    -0.0440 N.pl3 1 <1>   0.5930 
  9 N        4.7770     5.3730    -0.1070 N.2   1 <1>  -0.7070 
 10 C        2.9640     6.6390     0.0270 C.2   1 <1>  -0.3320 
 11 C        5.1270     6.6130    -0.0750 C.2   1 <1>   0.1080 
 12 C        4.0330     7.4860    -0.0020 C.2   1 <1>  -0.0860 
 13 C        1.4850     6.9960     0.1370 C.3   1 <1>  -0.0600 
 14 C        6.5890     7.0110    -0.0930 C.3   1 <1>  -0.0590 
 15 C        4.0890     8.9270     0.0360 C.2   1 <1>   0.7160 
 16 O        3.4150     9.5710     0.8170 O.2   1 <1>  -0.5700 
 17 N        4.9110     9.5950    -0.8210 N.am  1 <1>  -0.7300 
 18 C        5.0700    11.0670    -0.8780 C.3   1 <1>   0.1400 
 19 C        5.9530    11.5490     0.2770 C.3   1 <1>   0.1400 
 20 N        6.1400    13.0220     0.2020 N.am  1 <1>  -0.6600 
 21 C        7.0680    13.5640    -0.6530 C.2   1 <1>   0.7800 
 22 C        5.2630    13.8440     1.0680 C.3   1 <1>   0.1400 
 23 O        7.7720    12.8780    -1.3650 O.2   1 <1>  -0.5700 
 24 O        7.1980    14.8880    -0.7380 O.3   1 <1>  -0.4300 
 25 C        5.8320    15.2540     1.1980 C.3   1 <1>  -0.1600 
 26 C        6.2580    15.7750    -0.1730 C.3   1 <1>   0.1200 
 27 H        0.3760     2.4520    -1.8630 H     1 <1>   0.1500 
 28 H        2.1340     1.4090     1.8770 H     1 <1>   0.1500 
 29 H        1.7100     4.5380    -1.9140 H     1 <1>   0.1500 
 30 H        3.4730     3.4980     1.8330 H     1 <1>   0.1500 
 31 H        1.0520     6.5120     0.9950 H     1 <1>   0.0800 
 32 H        0.9560     6.6820    -0.7440 H     1 <1>   0.0800 
 33 H        1.3540     8.0570     0.2490 H     1 <1>   0.0800 
 34 H        7.1920     6.1820     0.2320 H     1 <1>   0.0800 
 35 H        6.7620     7.8390     0.5690 H     1 <1>   0.0800 
 36 H        6.8840     7.2780    -1.0910 H     1 <1>   0.0800 
 37 H        5.4080     9.0570    -1.5330 H     1 <1>   0.3700 
 38 H        4.1010    11.5320    -0.8070 H     1 <1>   0.0800 
 39 H        5.5210    11.3390    -1.8180 H     1 <1>   0.0800 
 40 H        6.9150    11.0690     0.2150 H     1 <1>   0.0800 
 41 H        5.4990    11.2850     1.2170 H     1 <1>   0.0800 
 42 H        5.1850    13.3950     2.0440 H     1 <1>   0.0800 
 43 H        4.2800    13.8810     0.6290 H     1 <1>   0.0800 
 44 H        6.6800    15.2480     1.8590 H     1 <1>   0.0800 
 45 H        5.0890    15.9060     1.6220 H     1 <1>   0.0800 
 46 H        5.4180    15.8350    -0.8430 H     1 <1>   0.0800 
 47 H        6.7220    16.7420    -0.0950 H     1 <1>   0.0800 
@<TRIPOS>BOND
  1   1   2  1   
  2   2   3  ar  
  3   2   4  ar  
  4   3   5  ar  
  5   3  27  1   
  6   4   6  ar  
  7   4  28  1   
  8   5   7  ar  
  9   5  29  1   
 10   6   7  ar  
 11   6  30  1   
 12   7   8  1   
 13   8   9  1   
 14   8  10  1   
 15   9  11  2   
 16  10  12  2   
 17  10  13  1   
 18  11  12  1   
 19  11  14  1   
 20  12  15  1   
 21  13  31  1   
 22  13  32  1   
 23  13  33  1   
 24  14  34  1   
 25  14  35  1   
 26  14  36  1   
 27  15  16  2   
 28  15  17  am  
 29  17  18  1   
 30  17  37  1   
 31  18  19  1   
 32  18  38  1   
 33  18  39  1   
 34  19  20  1   
 35  19  40  1   
 36  19  41  1   
 37  20  21  am  
 38  20  22  1   
 39  21  23  2   
 40  21  24  1   
 41  22  25  1   
 42  22  42  1   
 43  22  43  1   
 44  24  26  1   
 45  25  26  1   
 46  25  44  1   
 47  25  45  1   
 48  26  46  1   
 49  26  47  1   
@<TRIPOS>SUBSTRUCTURE
  1 ****  15 GROUP 4 **** **** 0

# MOE 2024.06 (io_trps.svl 2023.06)
