@<TRIPOS>MOLECULE
NONAME
47 49 1 0 0 
SMALL
USER_CHARGES


@<TRIPOS>ATOM
  1 S        1.0380    -1.5060    -0.8990 S.3   1 <1>  -0.0800 
  2 C       -0.6830    -1.6180    -1.0830 C.2   1 <1>   0.4420 
  3 C        0.9620    -0.0180    -1.7790 C.2   1 <1>   0.1980 
  4 N       -1.1640    -0.6220    -1.7330 N.2   1 <1>  -0.3380 
  5 N       -1.2890    -2.7230    -0.5300 N.am  1 <1>  -0.4940 
  6 N       -0.2200     0.2860    -2.1280 N.2   1 <1>  -0.3380 
  7 C        2.2480     0.7390    -2.0260 C.3   1 <1>   0.0200 
  8 C       -2.6120    -3.0580    -0.4610 C.2   1 <1>   0.7150 
  9 C        2.6150     1.5640    -0.7970 C.3   1 <1>   0.1200 
 10 O       -3.4590    -2.2930    -0.8690 O.2   1 <1>  -0.5700 
 11 C       -2.9550    -4.3250     0.1190 C.2   1 <1>  -0.2370 
 12 O        3.8550     2.1880    -1.0380 O.3   1 <1>  -0.3630 
 13 N       -4.2250    -4.7690     0.3340 N.pl3 1 <1>   0.3140 
 14 C       -2.1510    -5.3330     0.5670 C.2   1 <1>  -0.1500 
 15 C        4.4540     2.9690    -0.0990 C.ar  1 <1>   0.0830 
 16 N       -4.2460    -5.9880     0.8920 N.2   1 <1>  -0.7070 
 17 C       -5.4970    -4.0860     0.0360 C.3   1 <1>   0.0160 
 18 C       -3.0020    -6.3180     1.0270 C.2   1 <1>   0.1080 
 19 C        5.7150     3.4780    -0.3950 C.ar  1 <1>  -0.1430 
 20 C        3.8600     3.2710     1.1250 C.ar  1 <1>  -0.1500 
 21 C       -2.5880    -7.6420     1.6250 C.3   1 <1>  -0.0590 
 22 C        6.3650     4.2750     0.5330 C.ar  1 <1>  -0.1500 
 23 C        6.3860     3.1680    -1.7260 C.3   1 <1>  -0.0970 
 24 C        4.5140     4.0700     2.0480 C.ar  1 <1>  -0.1430 
 25 C        5.7700     4.5690     1.7470 C.ar  1 <1>  -0.1500 
 26 C        3.8670     4.3960     3.3820 C.3   1 <1>  -0.0970 
 27 H       -0.6690    -3.4010    -0.1040 H     1 <1>   0.3700 
 28 H        2.1110     1.3960    -2.8660 H     1 <1>   0.0800 
 29 H        3.0360     0.0430    -2.2520 H     1 <1>   0.0800 
 30 H        2.7180     0.9340     0.0700 H     1 <1>   0.0800 
 31 H        1.8760     2.3260    -0.6210 H     1 <1>   0.0800 
 32 H       -1.0780    -5.3970     0.5800 H     1 <1>   0.1500 
 33 H       -5.5310    -3.1530     0.5670 H     1 <1>   0.0800 
 34 H       -6.3160    -4.7080     0.3470 H     1 <1>   0.0800 
 35 H       -5.5620    -3.9050    -1.0200 H     1 <1>   0.0800 
 36 H        2.8890     2.8940     1.3770 H     1 <1>   0.1500 
 37 H       -1.5180    -7.7290     1.6500 H     1 <1>   0.0800 
 38 H       -2.9950    -8.4430     1.0350 H     1 <1>   0.0800 
 39 H       -2.9730    -7.7180     2.6250 H     1 <1>   0.0800 
 40 H        7.3400     4.6740     0.3170 H     1 <1>   0.1500 
 41 H        5.7720     3.5240    -2.5330 H     1 <1>   0.0800 
 42 H        6.5120     2.1050    -1.8290 H     1 <1>   0.0800 
 43 H        7.3500     3.6370    -1.7950 H     1 <1>   0.0800 
 44 H        6.2910     5.1880     2.4560 H     1 <1>   0.1500 
 45 H        2.7960     4.3490     3.3060 H     1 <1>   0.0800 
 46 H        4.1400     5.3880     3.6970 H     1 <1>   0.0800 
 47 H        4.1950     3.6930     4.1270 H     1 <1>   0.0800 
@<TRIPOS>BOND
  1   1   2  1   
  2   1   3  1   
  3   2   4  2   
  4   2   5  1   
  5   3   6  2   
  6   3   7  1   
  7   4   6  1   
  8   5   8  am  
  9   5  27  1   
 10   7   9  1   
 11   7  28  1   
 12   7  29  1   
 13   8  10  2   
 14   8  11  1   
 15   9  12  1   
 16   9  30  1   
 17   9  31  1   
 18  11  13  1   
 19  11  14  2   
 20  12  15  1   
 21  13  16  1   
 22  13  17  1   
 23  14  18  1   
 24  14  32  1   
 25  15  19  ar  
 26  15  20  ar  
 27  16  18  2   
 28  17  33  1   
 29  17  34  1   
 30  17  35  1   
 31  18  21  1   
 32  19  22  ar  
 33  19  23  1   
 34  20  24  ar  
 35  20  36  1   
 36  21  37  1   
 37  21  38  1   
 38  21  39  1   
 39  22  25  ar  
 40  22  40  1   
 41  23  41  1   
 42  23  42  1   
 43  23  43  1   
 44  24  25  ar  
 45  24  26  1   
 46  25  44  1   
 47  26  45  1   
 48  26  46  1   
 49  26  47  1   
@<TRIPOS>SUBSTRUCTURE
  1 ****   1 GROUP 4 **** **** 0

# MOE 2024.06 (io_trps.svl 2023.06)
