@<TRIPOS>MOLECULE
NONAME
46 47 1 0 0 
SMALL
USER_CHARGES


@<TRIPOS>ATOM
  1 O        1.7530     1.1000     2.6430 O.co2 1 <1>  -0.9000 
  2 C        1.9140     0.3170     1.6980 C.2   1 <1>   0.9060 
  3 O        1.7710    -0.9010     1.8550 O.co2 1 <1>  -0.9000 
  4 C        2.3370     0.8320     0.3110 C.3   1 <1>  -0.1060 
  5 C        3.5250    -0.0630    -0.1280 C.3   1 <1>   0.2000 
  6 C        2.8100     2.3170     0.3580 C.3   1 <1>  -0.1600 
  7 C        1.1410     0.6550    -0.6660 C.3   1 <1>  -0.0160 
  8 O        3.9320     0.2650    -1.4190 O.3   1 <1>  -0.6800 
  9 C        4.7460     0.1590     0.7820 C.3   1 <1>   0.1400 
 10 C        4.0720     2.5150     1.2120 C.3   1 <1>   0.1400 
 11 C        0.0280     1.6920    -0.5190 C.ar  1 <1>  -0.1440 
 12 N        5.1560     1.6030     0.7400 N.am  1 <1>  -0.6600 
 13 C       -0.8110     1.6790     0.5850 C.ar  1 <1>  -0.1500 
 14 C       -0.1580     2.6600    -1.4950 C.ar  1 <1>  -0.1500 
 15 C        6.3990     1.9930     0.3110 C.2   1 <1>   0.5690 
 16 C       -1.8190     2.6180     0.7130 C.ar  1 <1>  -0.1500 
 17 C       -1.1670     3.6000    -1.3710 C.ar  1 <1>  -0.1500 
 18 O        7.1680     1.2010    -0.1820 O.2   1 <1>  -0.5700 
 19 C        6.8160     3.4570     0.4320 C.3   1 <1>  -0.0990 
 20 C       -1.9990     3.5800    -0.2660 C.ar  1 <1>  -0.1500 
 21 C        8.2920     3.7580     0.1190 C.3   1 <1>  -0.1600 
 22 C        8.5940     5.2580     0.2960 C.3   1 <1>  -0.2660 
 23 C       10.0420     5.6070     0.0350 C.2   1 <1>   0.9060 
 24 O       10.3540     6.0350    -1.0800 O.co2 1 <1>  -0.9000 
 25 O       10.8530     5.4760     0.9560 O.co2 1 <1>  -0.9000 
 26 H        3.2380    -1.1010    -0.1280 H     1 <1>   0.0800 
 27 H        2.0280     2.9260     0.7760 H     1 <1>   0.0800 
 28 H        3.0000     2.6750    -0.6370 H     1 <1>   0.0800 
 29 H        1.4940     0.6940    -1.6800 H     1 <1>   0.0800 
 30 H        0.7190    -0.3260    -0.5290 H     1 <1>   0.0800 
 31 H        4.5860     0.9890    -1.3220 H     1 <1>   0.4000 
 32 H        5.5490    -0.4820     0.4630 H     1 <1>   0.0800 
 33 H        4.5010    -0.1110     1.7950 H     1 <1>   0.0800 
 34 H        3.8560     2.2930     2.2440 H     1 <1>   0.0800 
 35 H        4.3700     3.5450     1.1580 H     1 <1>   0.0800 
 36 H       -0.6740     0.9380     1.3570 H     1 <1>   0.1500 
 37 H        0.4870     2.6840    -2.3550 H     1 <1>   0.1500 
 38 H       -2.4550     2.5960     1.5800 H     1 <1>   0.1500 
 39 H       -1.3030     4.3450    -2.1340 H     1 <1>   0.1500 
 40 H        6.2000     4.0320    -0.2330 H     1 <1>   0.0800 
 41 H        6.6180     3.7750     1.4390 H     1 <1>   0.0800 
 42 H       -2.7820     4.3090    -0.1640 H     1 <1>   0.1500 
 43 H        8.5210     3.4670    -0.8920 H     1 <1>   0.0800 
 44 H        8.9280     3.1900     0.7770 H     1 <1>   0.0800 
 45 H        8.3700     5.5640     1.3000 H     1 <1>   0.0800 
 46 H        7.9940     5.8380    -0.3780 H     1 <1>   0.0800 
@<TRIPOS>BOND
  1   1   2  ar  
  2   2   3  ar  
  3   2   4  1   
  4   4   5  1   
  5   4   6  1   
  6   4   7  1   
  7   5   8  1   
  8   5   9  1   
  9   5  26  1   
 10   6  10  1   
 11   6  27  1   
 12   6  28  1   
 13   7  11  1   
 14   7  29  1   
 15   7  30  1   
 16   8  31  1   
 17   9  12  1   
 18   9  32  1   
 19   9  33  1   
 20  10  12  1   
 21  10  34  1   
 22  10  35  1   
 23  11  13  ar  
 24  11  14  ar  
 25  12  15  am  
 26  13  16  ar  
 27  13  36  1   
 28  14  17  ar  
 29  14  37  1   
 30  15  18  2   
 31  15  19  1   
 32  16  20  ar  
 33  16  38  1   
 34  17  20  ar  
 35  17  39  1   
 36  19  21  1   
 37  19  40  1   
 38  19  41  1   
 39  20  42  1   
 40  21  22  1   
 41  21  43  1   
 42  21  44  1   
 43  22  23  1   
 44  22  45  1   
 45  22  46  1   
 46  23  24  ar  
 47  23  25  ar  
@<TRIPOS>SUBSTRUCTURE
  1 ****   6 GROUP 4 **** **** 0

# MOE 2024.06 (io_trps.svl 2023.06)
