@<TRIPOS>MOLECULE
NONAME
47 49 1 0 0 
SMALL
USER_CHARGES


@<TRIPOS>ATOM
  1 F        1.1870     0.2490     0.4820 F     1 <1>  -0.3400 
  2 C        0.6040     1.3990     0.1540 C.3   1 <1>   1.1640 
  3 F       -0.5940     1.3530     0.7290 F     1 <1>  -0.3400 
  4 F        0.4110     1.3240    -1.1590 F     1 <1>  -0.3400 
  5 C        1.4440     2.6080     0.5820 C.ar  1 <1>  -0.1440 
  6 C        0.9570     3.9040     0.3060 C.ar  1 <1>   0.3100 
  7 C        2.6530     2.4430     1.2240 C.ar  1 <1>  -0.1500 
  8 N       -0.2320     4.0410    -0.3330 N.ar  1 <1>  -0.6200 
  9 C        1.7270     5.0280     0.7010 C.ar  1 <1>   0.0000 
 10 C        3.4120     3.5460     1.6100 C.ar  1 <1>  -0.1500 
 11 C       -0.6630     5.2440    -0.5700 C.ar  1 <1>   0.1600 
 12 C        1.2290     6.3260     0.4170 C.ar  1 <1>   0.1000 
 13 C        2.9580     4.8080     1.3520 C.ar  1 <1>  -0.1500 
 14 C        0.0180     6.4020    -0.2190 C.ar  1 <1>  -0.1500 
 15 N        1.9270     7.4680     0.7780 N.pl3 1 <1>  -0.8690 
 16 C        1.9800     8.6970    -0.0370 C.3   1 <1>   0.2090 
 17 C        3.4430     9.0820    -0.2310 C.3   1 <1>  -0.1600 
 18 C        3.5710    10.3150    -1.1330 C.3   1 <1>   0.0960 
 19 N        4.9930    10.6800    -1.2970 N.pl3 1 <1>   0.0480 
 20 C        5.7540    11.5540    -0.5860 C.2   1 <1>   0.0070 
 21 C        5.8230    10.1760    -2.2280 C.2   1 <1>  -0.3020 
 22 N        6.9780    11.6260    -1.0110 N.2   1 <1>  -0.5650 
 23 C        5.2120    12.3730     0.5890 C.3   1 <1>   0.1000 
 24 C        7.0230    10.7630    -2.0390 C.2   1 <1>   0.0770 
 25 C        4.6230    13.6920     0.0800 C.3   1 <1>  -0.2400 
 26 C        6.2960    12.6530     1.6380 C.3   1 <1>  -0.2400 
 27 H        3.0480     1.4650     1.4480 H     1 <1>   0.1500 
 28 H        4.3540     3.3890     2.1080 H     1 <1>   0.1500 
 29 H       -1.6120     5.3450    -1.0700 H     1 <1>   0.1500 
 30 H        3.5540     5.6490     1.6500 H     1 <1>   0.1500 
 31 H       -0.4260     7.3510    -0.4450 H     1 <1>   0.1500 
 32 H        2.7230     7.3540     1.4120 H     1 <1>   0.4000 
 33 H        1.4460     9.4830     0.4710 H     1 <1>   0.0800 
 34 H        1.5170     8.5220    -0.9940 H     1 <1>   0.0800 
 35 H        3.9640     8.2580    -0.6880 H     1 <1>   0.0800 
 36 H        3.8850     9.2930     0.7260 H     1 <1>   0.0800 
 37 H        3.0400    11.1480    -0.7120 H     1 <1>   0.0800 
 38 H        3.1600    10.1070    -2.1050 H     1 <1>   0.0800 
 39 H        5.5270     9.4450    -2.9570 H     1 <1>   0.1500 
 40 H        4.4350    11.8120     1.0760 H     1 <1>   0.0800 
 41 H        7.9310    10.6080    -2.5960 H     1 <1>   0.1500 
 42 H        5.3900    14.2700    -0.4070 H     1 <1>   0.0800 
 43 H        4.2200    14.2660     0.8950 H     1 <1>   0.0800 
 44 H        3.8400    13.5040    -0.6320 H     1 <1>   0.0800 
 45 H        7.0840    13.2490     1.2110 H     1 <1>   0.0800 
 46 H        6.7220    11.7270     1.9800 H     1 <1>   0.0800 
 47 H        5.8830    13.1780     2.4800 H     1 <1>   0.0800 
@<TRIPOS>BOND
  1   1   2  1   
  2   2   3  1   
  3   2   4  1   
  4   2   5  1   
  5   5   6  ar  
  6   5   7  ar  
  7   6   8  ar  
  8   6   9  ar  
  9   7  10  ar  
 10   7  27  1   
 11   8  11  ar  
 12   9  12  ar  
 13   9  13  ar  
 14  10  13  ar  
 15  10  28  1   
 16  11  14  ar  
 17  11  29  1   
 18  12  14  ar  
 19  12  15  1   
 20  13  30  1   
 21  14  31  1   
 22  15  16  1   
 23  15  32  1   
 24  16  17  1   
 25  16  33  1   
 26  16  34  1   
 27  17  18  1   
 28  17  35  1   
 29  17  36  1   
 30  18  19  1   
 31  18  37  1   
 32  18  38  1   
 33  19  20  1   
 34  19  21  1   
 35  20  22  2   
 36  20  23  1   
 37  21  24  2   
 38  21  39  1   
 39  22  24  1   
 40  23  25  1   
 41  23  26  1   
 42  23  40  1   
 43  24  41  1   
 44  25  42  1   
 45  25  43  1   
 46  25  44  1   
 47  26  45  1   
 48  26  46  1   
 49  26  47  1   
@<TRIPOS>SUBSTRUCTURE
  1 ****  15 GROUP 4 **** **** 0

# MOE 2024.06 (io_trps.svl 2023.06)
