@<TRIPOS>MOLECULE
NONAME
48 49 1 0 0 
SMALL
USER_CHARGES


@<TRIPOS>ATOM
  1 F       -0.2140     0.6940    -0.2800 F     1 <1>  -0.1900 
  2 C       -1.5080     0.8930    -0.3000 C.ar  1 <1>   0.1900 
  3 C       -2.0880     2.0570     0.2160 C.ar  1 <1>   0.0830 
  4 C       -2.2750    -0.1100    -0.8590 C.ar  1 <1>  -0.1500 
  5 O       -1.4430     3.1130     0.7890 O.3   1 <1>  -0.3630 
  6 C       -3.4670     2.1700     0.1510 C.ar  1 <1>  -0.1500 
  7 C       -3.6490     0.0350    -0.9090 C.ar  1 <1>  -0.1500 
  8 C       -0.0400     3.1790     0.9190 C.3   1 <1>   0.0400 
  9 C       -4.2760     1.1740    -0.4010 C.ar  1 <1>   0.0530 
 10 C       -5.7090     1.3300    -0.4350 C.2   1 <1>   0.0870 
 11 O       -6.2490     2.5180    -0.5540 O.3   1 <1>  -0.0190 
 12 C       -6.7350     0.4470    -0.3370 C.2   1 <1>  -0.0860 
 13 N       -7.5570     2.4880    -0.5500 N.2   1 <1>  -0.4100 
 14 C       -7.8730     1.2470    -0.4310 C.2   1 <1>   0.3720 
 15 C       -6.7890    -0.9610    -0.1290 C.2   1 <1>   0.7160 
 16 N       -9.1870     0.7540    -0.4110 N.pl3 1 <1>  -0.8210 
 17 O       -6.5080    -1.7270    -1.0340 O.2   1 <1>  -0.5700 
 18 N       -7.2170    -1.4790     1.0740 N.am  1 <1>  -0.6600 
 19 C      -10.1880     1.6820     0.1910 C.3   1 <1>   0.1290 
 20 C       -9.6310     0.2750    -1.7510 C.3   1 <1>   0.1290 
 21 C       -7.8980    -2.8070     1.1120 C.3   1 <1>   0.1400 
 22 C       -7.3590    -0.6530     2.3070 C.3   1 <1>   0.0600 
 23 C       -9.2360    -2.7960     0.3430 C.3   1 <1>   0.2000 
 24 O      -10.0280    -1.7170     0.7510 O.3   1 <1>  -0.6800 
 25 C      -10.0170    -4.1020     0.5520 C.3   1 <1>   0.1200 
 26 O      -11.2960    -3.9590     0.0390 O.3   1 <1>  -0.6800 
 27 H       -1.8010    -0.9920    -1.2510 H     1 <1>   0.1500 
 28 H       -3.9230     3.0610     0.5440 H     1 <1>   0.1500 
 29 H       -4.2380    -0.7460    -1.3570 H     1 <1>   0.1500 
 30 H        0.2100     4.1130     1.3880 H     1 <1>   0.0800 
 31 H        0.4060     3.1330    -0.0600 H     1 <1>   0.0800 
 32 H        0.2940     2.3620     1.5340 H     1 <1>   0.0800 
 33 H       -9.8180     2.0600     1.1290 H     1 <1>   0.0800 
 34 H      -11.1120     1.1600     0.3700 H     1 <1>   0.0800 
 35 H      -10.3700     2.5130    -0.4690 H     1 <1>   0.0800 
 36 H       -8.9100    -0.4170    -2.1550 H     1 <1>   0.0800 
 37 H       -9.7280     1.1070    -2.4280 H     1 <1>   0.0800 
 38 H      -10.5790    -0.2280    -1.6690 H     1 <1>   0.0800 
 39 H       -8.0750    -3.0950     2.1330 H     1 <1>   0.0800 
 40 H       -7.2480    -3.5450     0.6740 H     1 <1>   0.0800 
 41 H       -6.7290     0.2190     2.2580 H     1 <1>   0.0800 
 42 H       -7.0710    -1.2300     3.1680 H     1 <1>   0.0800 
 43 H       -8.3820    -0.3390     2.4200 H     1 <1>   0.0800 
 44 H       -9.0380    -2.6790    -0.7090 H     1 <1>   0.0800 
 45 H       -9.6020    -0.8670     0.4540 H     1 <1>   0.4000 
 46 H      -10.1040    -4.3250     1.6010 H     1 <1>   0.0800 
 47 H       -9.5400    -4.9270     0.0520 H     1 <1>   0.0800 
 48 H      -11.5940    -3.0510     0.2730 H     1 <1>   0.4000 
@<TRIPOS>BOND
  1   1   2  1   
  2   2   3  ar  
  3   2   4  ar  
  4   3   5  1   
  5   3   6  ar  
  6   4   7  ar  
  7   4  27  1   
  8   5   8  1   
  9   6   9  ar  
 10   6  28  1   
 11   7   9  ar  
 12   7  29  1   
 13   8  30  1   
 14   8  31  1   
 15   8  32  1   
 16   9  10  1   
 17  10  11  1   
 18  10  12  2   
 19  11  13  1   
 20  12  14  1   
 21  12  15  1   
 22  13  14  2   
 23  14  16  1   
 24  15  17  2   
 25  15  18  am  
 26  16  19  1   
 27  16  20  1   
 28  18  21  1   
 29  18  22  1   
 30  19  33  1   
 31  19  34  1   
 32  19  35  1   
 33  20  36  1   
 34  20  37  1   
 35  20  38  1   
 36  21  23  1   
 37  21  39  1   
 38  21  40  1   
 39  22  41  1   
 40  22  42  1   
 41  22  43  1   
 42  23  24  1   
 43  23  25  1   
 44  23  44  1   
 45  24  45  1   
 46  25  26  1   
 47  25  46  1   
 48  25  47  1   
 49  26  48  1   
@<TRIPOS>SUBSTRUCTURE
  1 ****  12 GROUP 4 **** **** 0

# MOE 2024.06 (io_trps.svl 2023.06)
