@<TRIPOS>MOLECULE
NONAME
46 47 1 0 0 
SMALL
USER_CHARGES


@<TRIPOS>ATOM
  1 O       -0.0550     0.6590    -1.4090 O.2   1 <1>  -0.5700 
  2 C        0.0110     1.7170    -0.8140 C.2   1 <1>   0.5690 
  3 N       -1.0820     2.5680    -0.8360 N.am  1 <1>  -0.6600 
  4 C        1.3240     2.0110     0.0020 C.3   1 <1>   0.3410 
  5 C       -2.3720     2.1600    -1.4830 C.3   1 <1>   0.1400 
  6 C       -1.1440     3.9250    -0.2300 C.3   1 <1>   0.1400 
  7 O        1.8260     3.2920    -0.3400 O.3   1 <1>  -0.5600 
  8 C        1.0160     1.9700     1.5120 C.3   1 <1>  -0.2400 
  9 C        2.4230     0.9700    -0.3100 C.3   1 <1>  -0.2400 
 10 C       -3.6070     2.5490    -0.5480 C.3   1 <1>   0.0000 
 11 C       -2.1940     4.7760    -0.9530 C.3   1 <1>  -0.1600 
 12 C        2.9960     3.7880     0.2460 C.3   1 <1>   0.0400 
 13 C       -4.8900     2.9060     0.3420 C.3   1 <1>   0.2000 
 14 C       -3.5510     4.0450    -1.1420 C.3   1 <1>  -0.1600 
 15 C       -3.5840     1.0780     0.0630 C.3   1 <1>  -0.1600 
 16 O       -6.0000     3.1060    -0.5020 O.3   1 <1>  -0.5600 
 17 C       -5.3180     1.8610     1.3680 C.3   1 <1>  -0.1600 
 18 C       -4.1030     1.0170     1.4830 C.3   1 <1>  -0.1600 
 19 C       -7.0130     3.9130     0.0140 C.3   1 <1>   0.0400 
 20 H       -2.3970     2.6200    -2.4570 H     1 <1>   0.0800 
 21 H       -2.3370     1.1200    -1.7710 H     1 <1>   0.0800 
 22 H       -1.4180     3.8280     0.8050 H     1 <1>   0.0800 
 23 H       -0.1950     4.4240    -0.2920 H     1 <1>   0.0800 
 24 H        0.4830     1.0640     1.7380 H     1 <1>   0.0800 
 25 H        0.4000     2.8010     1.7970 H     1 <1>   0.0800 
 26 H        1.9150     1.9740     2.0980 H     1 <1>   0.0800 
 27 H        2.0450    -0.0210    -0.1340 H     1 <1>   0.0800 
 28 H        3.2890     1.0960     0.3100 H     1 <1>   0.0800 
 29 H        2.7030     1.0390    -1.3460 H     1 <1>   0.0800 
 30 H       -2.3400     5.6840    -0.3950 H     1 <1>   0.0800 
 31 H       -1.8020     5.0560    -1.9160 H     1 <1>   0.0800 
 32 H        3.1380     4.7930    -0.1100 H     1 <1>   0.0800 
 33 H        3.8370     3.1910    -0.0560 H     1 <1>   0.0800 
 34 H        2.8980     3.8050     1.3160 H     1 <1>   0.0800 
 35 H       -4.7050     3.8020     0.9140 H     1 <1>   0.0800 
 36 H       -3.8040     4.0210    -2.1900 H     1 <1>   0.0800 
 37 H       -4.2680     4.7640    -0.7810 H     1 <1>   0.0800 
 38 H       -4.1950     0.4420    -0.5570 H     1 <1>   0.0800 
 39 H       -2.6140     0.6070     0.1510 H     1 <1>   0.0800 
 40 H       -5.5840     2.3010     2.3120 H     1 <1>   0.0800 
 41 H       -6.1310     1.2640     0.9910 H     1 <1>   0.0800 
 42 H       -3.3910     1.4630     2.1580 H     1 <1>   0.0800 
 43 H       -4.3300     0.0120     1.7960 H     1 <1>   0.0800 
 44 H       -7.7800     4.0030    -0.7350 H     1 <1>   0.0800 
 45 H       -6.6130     4.8860     0.2410 H     1 <1>   0.0800 
 46 H       -7.4250     3.4570     0.8970 H     1 <1>   0.0800 
@<TRIPOS>BOND
  1   1   2  2   
  2   2   3  am  
  3   2   4  1   
  4   3   5  1   
  5   3   6  1   
  6   4   7  1   
  7   4   8  1   
  8   4   9  1   
  9   5  10  1   
 10   5  20  1   
 11   5  21  1   
 12   6  11  1   
 13   6  22  1   
 14   6  23  1   
 15   7  12  1   
 16   8  24  1   
 17   8  25  1   
 18   8  26  1   
 19   9  27  1   
 20   9  28  1   
 21   9  29  1   
 22  10  13  1   
 23  10  14  1   
 24  10  15  1   
 25  11  14  1   
 26  11  30  1   
 27  11  31  1   
 28  12  32  1   
 29  12  33  1   
 30  12  34  1   
 31  13  16  1   
 32  13  17  1   
 33  13  35  1   
 34  14  36  1   
 35  14  37  1   
 36  15  18  1   
 37  15  38  1   
 38  15  39  1   
 39  16  19  1   
 40  17  18  1   
 41  17  40  1   
 42  17  41  1   
 43  18  42  1   
 44  18  43  1   
 45  19  44  1   
 46  19  45  1   
 47  19  46  1   
@<TRIPOS>SUBSTRUCTURE
  1 ****   3 GROUP 4 **** **** 0

# MOE 2024.06 (io_trps.svl 2023.06)
