@<TRIPOS>MOLECULE
NONAME
47 49 1 0 0 
SMALL
USER_CHARGES


@<TRIPOS>ATOM
  1 O       -0.0700     1.4440     1.8850 O.2   1 <1>  -0.5700 
  2 C       -0.1700     1.8350     0.7380 C.2   1 <1>   0.5440 
  3 N       -1.4060     1.8030     0.1590 N.am  1 <1>  -0.7300 
  4 C        0.9930     2.2860    -0.0070 C.ar  1 <1>   0.0860 
  5 C       -2.6710     1.4190     0.8370 C.3   1 <1>   0.2200 
  6 C        2.2680     1.8080     0.3000 C.ar  1 <1>  -0.1500 
  7 C        0.8900     3.2060    -1.0530 C.ar  1 <1>  -0.1500 
  8 C       -2.8230    -0.1130     0.9390 C.3   1 <1>   0.2000 
  9 C       -3.8400     2.0410     0.0710 C.3   1 <1>  -0.1600 
 10 C        3.3840     2.2160    -0.4080 C.ar  1 <1>  -0.1500 
 11 C        2.0020     3.6180    -1.7660 C.ar  1 <1>  -0.1500 
 12 O       -1.8800    -0.6150     1.8280 O.3   1 <1>  -0.6800 
 13 C       -4.2200    -0.5090     1.4320 C.3   1 <1>   0.1100 
 14 C       -5.1770     1.6060     0.6730 C.3   1 <1>   0.1100 
 15 C        3.2520     3.1220    -1.4450 C.ar  1 <1>  -0.1500 
 16 N       -5.2790     0.1450     0.6260 N.3   1 <1>  -0.8100 
 17 C       -6.6340    -0.3090     1.0400 C.3   1 <1>   0.2910 
 18 C       -6.8730    -1.8150     0.8930 C.2   1 <1>   0.3350 
 19 N       -6.9720    -2.6270     1.8710 N.2   1 <1>  -0.4100 
 20 N       -7.0100    -2.4010    -0.2920 N.2   1 <1>  -0.5650 
 21 O       -7.1580    -3.8110     1.3710 O.3   1 <1>  -0.0190 
 22 C       -7.1660    -3.6110     0.0760 C.2   1 <1>   0.2980 
 23 C       -7.3790    -4.8000    -0.8490 C.3   1 <1>   0.3000 
 24 O       -6.4340    -5.8040    -0.6000 O.3   1 <1>  -0.5600 
 25 C       -6.5240    -6.8980    -1.4540 C.3   1 <1>   0.0400 
 26 H       -1.4760     1.9070    -0.8530 H     1 <1>   0.3700 
 27 H       -2.6720     1.8220     1.8370 H     1 <1>   0.0800 
 28 H        2.3800     1.1050     1.1080 H     1 <1>   0.1500 
 29 H       -0.0710     3.6140    -1.3100 H     1 <1>   0.1500 
 30 H       -2.6480    -0.5650    -0.0210 H     1 <1>   0.0800 
 31 H       -3.7680     3.1130     0.1140 H     1 <1>   0.0800 
 32 H       -3.8160     1.7330    -0.9600 H     1 <1>   0.0800 
 33 H        4.3560     1.8300    -0.1500 H     1 <1>   0.1500 
 34 H        1.8990     4.3270    -2.5690 H     1 <1>   0.1500 
 35 H       -1.1210     0.0230     1.8820 H     1 <1>   0.4000 
 36 H       -4.3270    -0.2290     2.4660 H     1 <1>   0.0800 
 37 H       -4.3090    -1.5790     1.3530 H     1 <1>   0.0800 
 38 H       -5.9780     2.0410     0.0990 H     1 <1>   0.0800 
 39 H       -5.2580     1.9500     1.6910 H     1 <1>   0.0800 
 40 H        4.1200     3.4400    -1.9970 H     1 <1>   0.1500 
 41 H       -6.8020    -0.0370     2.0670 H     1 <1>   0.0800 
 42 H       -7.3700     0.1930     0.4380 H     1 <1>   0.0800 
 43 H       -7.2790    -4.4780    -1.8700 H     1 <1>   0.0800 
 44 H       -8.3610    -5.2070    -0.6900 H     1 <1>   0.0800 
 45 H       -5.7620    -7.6040    -1.1720 H     1 <1>   0.0800 
 46 H       -6.3580    -6.5740    -2.4670 H     1 <1>   0.0800 
 47 H       -7.4940    -7.3530    -1.3520 H     1 <1>   0.0800 
@<TRIPOS>BOND
  1   1   2  2   
  2   2   3  am  
  3   2   4  1   
  4   3   5  1   
  5   3  26  1   
  6   4   6  ar  
  7   4   7  ar  
  8   5   8  1   
  9   5   9  1   
 10   5  27  1   
 11   6  10  ar  
 12   6  28  1   
 13   7  11  ar  
 14   7  29  1   
 15   8  12  1   
 16   8  13  1   
 17   8  30  1   
 18   9  14  1   
 19   9  31  1   
 20   9  32  1   
 21  10  15  ar  
 22  10  33  1   
 23  11  15  ar  
 24  11  34  1   
 25  12  35  1   
 26  13  16  1   
 27  13  36  1   
 28  13  37  1   
 29  14  16  1   
 30  14  38  1   
 31  14  39  1   
 32  15  40  1   
 33  16  17  1   
 34  17  18  1   
 35  17  41  1   
 36  17  42  1   
 37  18  19  2   
 38  18  20  1   
 39  19  21  1   
 40  20  22  2   
 41  21  22  1   
 42  22  23  1   
 43  23  24  1   
 44  23  43  1   
 45  23  44  1   
 46  24  25  1   
 47  25  45  1   
 48  25  46  1   
 49  25  47  1   
@<TRIPOS>SUBSTRUCTURE
  1 ****   8 GROUP 4 **** **** 0

# MOE 2024.06 (io_trps.svl 2023.06)
