@<TRIPOS>MOLECULE
NONAME
45 47 1 0 0 
SMALL
USER_CHARGES


@<TRIPOS>ATOM
  1 O       -1.8920     0.4790    -2.0200 O.2   1 <1>  -0.5700 
  2 C       -1.6920     0.4200    -0.8220 C.2   1 <1>   0.7160 
  3 N       -1.6890    -0.8080    -0.2330 N.am  1 <1>  -0.7300 
  4 C       -1.4940     1.6030    -0.0180 C.2   1 <1>  -0.0860 
  5 C       -1.9860    -2.0920    -0.9070 C.3   1 <1>   0.2200 
  6 C       -1.1250     2.8830    -0.3270 C.2   1 <1>  -0.3320 
  7 C       -1.6790     1.6580     1.3660 C.2   1 <1>   0.1390 
  8 C       -3.3990    -2.5650    -0.5840 C.3   1 <1>  -0.0800 
  9 C       -1.1700    -3.1910    -0.2410 C.3   1 <1>   0.1200 
 10 N       -1.1120     3.5920     0.8200 N.pl3 1 <1>   0.3140 
 11 C       -0.7800     3.4690    -1.6910 C.3   1 <1>  -0.0600 
 12 N       -1.4530     2.8260     1.8690 N.2   1 <1>  -0.7070 
 13 C       -3.2260    -3.2690     0.7670 C.3   1 <1>   0.1200 
 14 C       -4.4950    -1.4810    -0.6010 C.3   1 <1>  -0.0170 
 15 O       -1.8540    -3.4790     0.9400 O.3   1 <1>  -0.5600 
 16 C       -0.7830     5.0220     1.0060 C.3   1 <1>   0.0960 
 17 C       -5.8580    -2.0800    -0.2960 C.ar  1 <1>  -0.1430 
 18 C       -2.0280     5.9030     0.8410 C.3   1 <1>  -0.2400 
 19 C       -6.5810    -2.7670    -1.2500 C.ar  1 <1>  -0.1500 
 20 C       -6.4440    -1.9670     0.9490 C.ar  1 <1>  -0.1500 
 21 C       -7.8170    -3.2990    -0.9210 C.ar  1 <1>   0.1600 
 22 C       -7.6860    -2.5370     1.1750 C.ar  1 <1>   0.1600 
 23 N       -8.3850    -3.2020     0.2700 N.ar  1 <1>  -0.6200 
 24 H       -1.4670    -0.9000     0.7590 H     1 <1>   0.3700 
 25 H       -1.7980    -2.0250    -1.9660 H     1 <1>   0.0800 
 26 H       -1.9850     0.8210     1.9700 H     1 <1>   0.1500 
 27 H       -3.6650    -3.3180    -1.3050 H     1 <1>   0.0800 
 28 H       -0.1630    -2.8870    -0.0150 H     1 <1>   0.0800 
 29 H       -1.1600    -4.0810    -0.8450 H     1 <1>   0.0800 
 30 H       -0.8140     2.7150    -2.4560 H     1 <1>   0.0800 
 31 H        0.2120     3.8840    -1.6790 H     1 <1>   0.0800 
 32 H       -1.4820     4.2410    -1.9500 H     1 <1>   0.0800 
 33 H       -3.7330    -4.2190     0.7880 H     1 <1>   0.0800 
 34 H       -3.5670    -2.6570     1.5830 H     1 <1>   0.0800 
 35 H       -4.5190    -1.0110    -1.5690 H     1 <1>   0.0800 
 36 H       -4.2800    -0.7150     0.1230 H     1 <1>   0.0800 
 37 H       -0.3790     5.1440     1.9950 H     1 <1>   0.0800 
 38 H       -0.0290     5.3010     0.2940 H     1 <1>   0.0800 
 39 H       -2.7720     5.6240     1.5670 H     1 <1>   0.0800 
 40 H       -2.4390     5.7930    -0.1470 H     1 <1>   0.0800 
 41 H       -1.7700     6.9350     0.9940 H     1 <1>   0.0800 
 42 H       -6.1960    -2.8920    -2.2460 H     1 <1>   0.1500 
 43 H       -5.9490    -1.4420     1.7450 H     1 <1>   0.1500 
 44 H       -8.3670    -3.8320    -1.6770 H     1 <1>   0.1500 
 45 H       -8.1270    -2.4390     2.1520 H     1 <1>   0.1500 
@<TRIPOS>BOND
  1   1   2  2   
  2   2   3  am  
  3   2   4  1   
  4   3   5  1   
  5   3  24  1   
  6   4   6  2   
  7   4   7  1   
  8   5   8  1   
  9   5   9  1   
 10   5  25  1   
 11   6  10  1   
 12   6  11  1   
 13   7  12  2   
 14   7  26  1   
 15   8  13  1   
 16   8  14  1   
 17   8  27  1   
 18   9  15  1   
 19   9  28  1   
 20   9  29  1   
 21  10  12  1   
 22  10  16  1   
 23  11  30  1   
 24  11  31  1   
 25  11  32  1   
 26  13  15  1   
 27  13  33  1   
 28  13  34  1   
 29  14  17  1   
 30  14  35  1   
 31  14  36  1   
 32  16  18  1   
 33  16  37  1   
 34  16  38  1   
 35  17  19  ar  
 36  17  20  ar  
 37  18  39  1   
 38  18  40  1   
 39  18  41  1   
 40  19  21  ar  
 41  19  42  1   
 42  20  22  ar  
 43  20  43  1   
 44  21  23  ar  
 45  21  44  1   
 46  22  23  ar  
 47  22  45  1   
@<TRIPOS>SUBSTRUCTURE
  1 ****   3 GROUP 4 **** **** 0

# MOE 2024.06 (io_trps.svl 2023.06)
