@<TRIPOS>MOLECULE
NONAME
52 53 1 0 0 
SMALL
USER_CHARGES


@<TRIPOS>ATOM
  1 S       -0.2930     0.2110    -0.1100 S.o2  1 <1>   1.3330 
  2 O       -0.6780    -0.0520     1.2590 O.2   1 <1>  -0.6500 
  3 O       -0.8110     1.3790    -0.7830 O.2   1 <1>  -0.6500 
  4 N       -0.6930    -1.1580    -1.0320 N.am  1 <1>  -0.8490 
  5 C        1.4950     0.2570    -0.2390 C.3   1 <1>  -0.0550 
  6 C       -2.0130    -1.0400    -1.6590 C.3   1 <1>   0.1160 
  7 C       -0.6090    -2.4130    -0.2770 C.3   1 <1>   0.1160 
  8 C        2.1300     1.4840     0.4460 C.3   1 <1>  -0.0800 
  9 C        3.6070     1.5960     0.1070 C.3   1 <1>   0.2200 
 10 C        2.1600     1.3440     1.9730 C.3   1 <1>   0.1200 
 11 N        4.0350     3.0030     0.2780 N.am  1 <1>  -0.7300 
 12 C        4.2430     0.7320     1.1890 C.3   1 <1>   0.1200 
 13 O        3.4220     0.8470     2.3120 O.3   1 <1>  -0.5600 
 14 C        4.5450     3.7980    -0.7090 C.2   1 <1>   0.5440 
 15 O        4.6820     3.3210    -1.8180 O.2   1 <1>  -0.5700 
 16 C        4.9210     5.1730    -0.4320 C.ar  1 <1>   0.0860 
 17 C        5.9500     5.7920    -1.1380 C.ar  1 <1>  -0.1500 
 18 C        4.2740     5.9330     0.5430 C.ar  1 <1>  -0.1500 
 19 C        6.3360     7.0970    -0.8930 C.ar  1 <1>   0.0820 
 20 C        4.6480     7.2370     0.8120 C.ar  1 <1>  -0.1500 
 21 O        7.3550     7.5550    -1.6720 O.3   1 <1>  -0.3620 
 22 C        5.6890     7.8390     0.1080 C.ar  1 <1>   0.0820 
 23 C        7.3710     8.8910    -2.1260 C.3   1 <1>   0.0400 
 24 O        6.0930     9.1090     0.3820 O.3   1 <1>  -0.3630 
 25 C        5.5510     9.8760     1.4320 C.3   1 <1>   0.1200 
 26 C        6.2800    11.2160     1.4600 C.3   1 <1>  -0.2400 
 27 H        1.9080    -0.6420     0.1750 H     1 <1>   0.0800 
 28 H        1.7470     0.2820    -1.2820 H     1 <1>   0.0800 
 29 H       -2.2270    -1.9160    -2.2470 H     1 <1>   0.0800 
 30 H       -2.0350    -0.1840    -2.3130 H     1 <1>   0.0800 
 31 H       -2.7750    -0.9200    -0.9070 H     1 <1>   0.0800 
 32 H       -0.7800    -3.2500    -0.9330 H     1 <1>   0.0800 
 33 H       -1.3450    -2.4290     0.5110 H     1 <1>   0.0800 
 34 H        0.3680    -2.5200     0.1610 H     1 <1>   0.0800 
 35 H        1.5950     2.3670     0.1400 H     1 <1>   0.0800 
 36 H        3.8450     1.2440    -0.8830 H     1 <1>   0.0800 
 37 H        1.4110     0.6760     2.3610 H     1 <1>   0.0800 
 38 H        2.0530     2.3050     2.4440 H     1 <1>   0.0800 
 39 H        4.0550     3.3210     1.2480 H     1 <1>   0.3700 
 40 H        5.2420     1.0460     1.4350 H     1 <1>   0.0800 
 41 H        4.2490    -0.3020     0.8940 H     1 <1>   0.0800 
 42 H        6.4630     5.2390    -1.9050 H     1 <1>   0.1500 
 43 H        3.4590     5.5000     1.0950 H     1 <1>   0.1500 
 44 H        4.1140     7.7680     1.5770 H     1 <1>   0.1500 
 45 H        7.9900     8.9390    -3.0030 H     1 <1>   0.0800 
 46 H        7.7860     9.5150    -1.3550 H     1 <1>   0.0800 
 47 H        6.3670     9.1950    -2.3650 H     1 <1>   0.0800 
 48 H        4.5010    10.0200     1.2430 H     1 <1>   0.0800 
 49 H        5.6980     9.3430     2.3550 H     1 <1>   0.0800 
 50 H        6.1400    11.7330     0.5280 H     1 <1>   0.0800 
 51 H        7.3310    11.0600     1.6290 H     1 <1>   0.0800 
 52 H        5.8910    11.8270     2.2540 H     1 <1>   0.0800 
@<TRIPOS>BOND
  1   1   2  2   
  2   1   3  2   
  3   1   4  am  
  4   1   5  1   
  5   4   6  1   
  6   4   7  1   
  7   5   8  1   
  8   5  27  1   
  9   5  28  1   
 10   6  29  1   
 11   6  30  1   
 12   6  31  1   
 13   7  32  1   
 14   7  33  1   
 15   7  34  1   
 16   8   9  1   
 17   8  10  1   
 18   8  35  1   
 19   9  11  1   
 20   9  12  1   
 21   9  36  1   
 22  10  13  1   
 23  10  37  1   
 24  10  38  1   
 25  11  14  am  
 26  11  39  1   
 27  12  13  1   
 28  12  40  1   
 29  12  41  1   
 30  14  15  2   
 31  14  16  1   
 32  16  17  ar  
 33  16  18  ar  
 34  17  19  ar  
 35  17  42  1   
 36  18  20  ar  
 37  18  43  1   
 38  19  21  1   
 39  19  22  ar  
 40  20  22  ar  
 41  20  44  1   
 42  21  23  1   
 43  22  24  1   
 44  23  45  1   
 45  23  46  1   
 46  23  47  1   
 47  24  25  1   
 48  25  26  1   
 49  25  48  1   
 50  25  49  1   
 51  26  50  1   
 52  26  51  1   
 53  26  52  1   
@<TRIPOS>SUBSTRUCTURE
  1 ****  11 GROUP 4 **** **** 0

# MOE 2024.06 (io_trps.svl 2023.06)
