@<TRIPOS>MOLECULE
NONAME
51 54 1 0 0 
SMALL
USER_CHARGES


@<TRIPOS>ATOM
  1 O       -0.5880     0.4600     0.4500 O.2   1 <1>  -0.5700 
  2 C       -0.5040     1.6660     0.4620 C.2   1 <1>   0.5690 
  3 N       -1.5510     2.4700     0.8250 N.am  1 <1>  -0.6600 
  4 C        0.8210     2.2960     0.0210 C.3   1 <1>   0.1810 
  5 C       -1.4190     3.9630     0.8140 C.3   1 <1>   0.3640 
  6 C       -2.8100     1.9280     1.4130 C.3   1 <1>   0.0600 
  7 O        0.9910     3.6200     0.4680 O.3   1 <1>  -0.5600 
  8 C       -2.6160     4.6390     0.1240 C.ar  1 <1>  -0.1430 
  9 C       -0.1010     4.4730     0.1780 C.3   1 <1>   0.2610 
 10 C       -3.1340     4.2770    -1.1250 C.ar  1 <1>  -0.1430 
 11 C       -3.1990     5.7010     0.8060 C.ar  1 <1>  -0.1500 
 12 C        0.1930     5.9200     0.6050 C.2   1 <1>   0.5690 
 13 C       -4.2130     4.9790    -1.6440 C.ar  1 <1>  -0.1500 
 14 C       -2.5910     3.1300    -1.9720 C.3   1 <1>  -0.0960 
 15 C       -4.2700     6.3940     0.2780 C.ar  1 <1>  -0.1500 
 16 O       -0.1300     6.2740     1.7220 O.2   1 <1>  -0.5700 
 17 N        0.7920     6.7830    -0.2860 N.am  1 <1>  -0.5090 
 18 C       -4.7800     6.0310    -0.9520 C.ar  1 <1>  -0.1500 
 19 C        0.8420     8.2450    -0.0560 C.3   1 <1>   0.0540 
 20 C        1.6900     6.3040    -1.3830 C.3   1 <1>   0.1400 
 21 C        2.2440     8.6980     0.3790 C.3   1 <1>  -0.0650 
 22 C       -0.3840     8.9890     0.3690 C.3   1 <1>  -0.2000 
 23 C        0.0830     9.0670    -1.0520 C.3   1 <1>  -0.2000 
 24 C        2.8750     7.2600    -1.6260 C.3   1 <1>  -0.1600 
 25 C        3.3650     7.8990    -0.3160 C.3   1 <1>  -0.1600 
 26 H        0.8800     2.2880    -1.0520 H     1 <1>   0.0800 
 27 H        1.6340     1.7140     0.4150 H     1 <1>   0.0800 
 28 H       -1.4150     4.2610     1.8480 H     1 <1>   0.0800 
 29 H       -3.6530     2.2130     0.8080 H     1 <1>   0.0800 
 30 H       -2.9440     2.3190     2.4070 H     1 <1>   0.0800 
 31 H       -2.7740     0.8540     1.4680 H     1 <1>   0.0800 
 32 H       -0.2230     4.4780    -0.8870 H     1 <1>   0.0800 
 33 H       -2.8140     6.0090     1.7650 H     1 <1>   0.1500 
 34 H       -4.6270     4.7090    -2.5990 H     1 <1>   0.1500 
 35 H       -2.9360     3.2070    -2.9880 H     1 <1>   0.0800 
 36 H       -2.9320     2.1900    -1.5770 H     1 <1>   0.0800 
 37 H       -1.5200     3.1270    -1.9940 H     1 <1>   0.0800 
 38 H       -4.7030     7.2150     0.8230 H     1 <1>   0.1500 
 39 H       -5.6160     6.5660    -1.3690 H     1 <1>   0.1500 
 40 H        2.0880     5.3420    -1.1130 H     1 <1>   0.0800 
 41 H        1.1200     6.1960    -2.2890 H     1 <1>   0.0800 
 42 H        2.3580     9.7460     0.1670 H     1 <1>   0.0800 
 43 H        2.3300     8.5770     1.4450 H     1 <1>   0.0800 
 44 H       -1.2750     8.4290     0.5960 H     1 <1>   0.1000 
 45 H       -0.2700     9.8530     0.9980 H     1 <1>   0.1000 
 46 H        0.4870    10.0040    -1.3930 H     1 <1>   0.1000 
 47 H       -0.5030     8.5700    -1.8030 H     1 <1>   0.1000 
 48 H        3.6770     6.7190    -2.0950 H     1 <1>   0.0800 
 49 H        2.5680     8.0350    -2.3070 H     1 <1>   0.0800 
 50 H        4.2080     8.5410    -0.5040 H     1 <1>   0.0800 
 51 H        3.6900     7.1140     0.3460 H     1 <1>   0.0800 
@<TRIPOS>BOND
  1   1   2  2   
  2   2   3  am  
  3   2   4  1   
  4   3   5  1   
  5   3   6  1   
  6   4   7  1   
  7   4  26  1   
  8   4  27  1   
  9   5   8  1   
 10   5   9  1   
 11   5  28  1   
 12   6  29  1   
 13   6  30  1   
 14   6  31  1   
 15   7   9  1   
 16   8  10  ar  
 17   8  11  ar  
 18   9  12  1   
 19   9  32  1   
 20  10  13  ar  
 21  10  14  1   
 22  11  15  ar  
 23  11  33  1   
 24  12  16  2   
 25  12  17  am  
 26  13  18  ar  
 27  13  34  1   
 28  14  35  1   
 29  14  36  1   
 30  14  37  1   
 31  15  18  ar  
 32  15  38  1   
 33  17  19  1   
 34  17  20  1   
 35  18  39  1   
 36  19  21  1   
 37  19  22  1   
 38  19  23  1   
 39  20  24  1   
 40  20  40  1   
 41  20  41  1   
 42  21  25  1   
 43  21  42  1   
 44  21  43  1   
 45  22  23  1   
 46  22  44  1   
 47  22  45  1   
 48  23  46  1   
 49  23  47  1   
 50  24  25  1   
 51  24  48  1   
 52  24  49  1   
 53  25  50  1   
 54  25  51  1   
@<TRIPOS>SUBSTRUCTURE
  1 ****   9 GROUP 4 **** **** 0

# MOE 2024.06 (io_trps.svl 2023.06)
