@<TRIPOS>MOLECULE
NONAME
60 62 1 0 0 
SMALL
USER_CHARGES


@<TRIPOS>ATOM
  1 O        1.6280     0.2280    -0.1020 O.2   1 <1>  -0.5700 
  2 C        2.3770    -0.6240     0.3090 C.2   1 <1>   0.5690 
  3 N        3.5310    -0.2690     0.9590 N.am  1 <1>  -0.6600 
  4 C        2.0090    -2.0890     0.0670 C.3   1 <1>  -0.0190 
  5 C        4.8540    -0.9160     0.7180 C.3   1 <1>   0.1400 
  6 C        3.5540     0.9680     1.7910 C.3   1 <1>   0.1400 
  7 C        0.6500    -2.1690    -0.6670 C.3   1 <1>   0.3430 
  8 C        1.9690    -2.9070     1.3760 C.3   1 <1>  -0.1600 
  9 C        5.4900    -0.4080    -0.5950 C.3   1 <1>   0.3430 
 10 C        4.4520     2.0600     1.2020 C.3   1 <1>  -0.1600 
 11 N       -0.1380    -3.4110    -0.3450 N.4   1 <1>  -0.9590 
 12 C        1.6080    -4.3820     1.1030 C.3   1 <1>  -0.1600 
 13 N        5.7820     1.0650    -0.6290 N.4   1 <1>  -0.9590 
 14 C        4.6350     1.9720    -0.3120 C.3   1 <1>   0.3430 
 15 C        0.7260    -4.6030    -0.1340 C.3   1 <1>   0.3430 
 16 C       -1.1850    -3.6600    -1.3820 C.3   1 <1>   0.2630 
 17 C        6.4170     1.4660    -1.9140 C.3   1 <1>   0.5230 
 18 C        7.1640     2.7570    -1.6580 C.2   1 <1>  -0.0400 
 19 O        7.9620     2.8090    -0.6080 O.3   1 <1>  -0.2800 
 20 C        7.1650     3.9370    -2.3130 C.2   1 <1>  -0.1500 
 21 C        8.4950     4.0140    -0.5660 C.2   1 <1>  -0.0400 
 22 C        8.0400     4.7610    -1.5960 C.2   1 <1>  -0.1500 
 23 C        9.4690     4.3300     0.5580 C.3   1 <1>   0.0200 
 24 C        9.9990     5.7690     0.4940 C.3   1 <1>  -0.1600 
 25 C       10.9730     6.0610     1.6410 C.3   1 <1>  -0.2400 
 26 H        2.7550    -2.5070    -0.5830 H     1 <1>   0.0800 
 27 H        4.7300    -1.9820     0.6540 H     1 <1>   0.0800 
 28 H        5.5150    -0.7210     1.5450 H     1 <1>   0.0800 
 29 H        3.8820     0.7240     2.7890 H     1 <1>   0.0800 
 30 H        2.5510     1.3550     1.8790 H     1 <1>   0.0800 
 31 H        0.8300    -2.1110    -1.7280 H     1 <1>   0.0800 
 32 H        0.0490    -1.3140    -0.3990 H     1 <1>   0.0800 
 33 H        1.2290    -2.4750     2.0300 H     1 <1>   0.0800 
 34 H        2.9110    -2.8600     1.8940 H     1 <1>   0.0800 
 35 H        4.8260    -0.6550    -1.4070 H     1 <1>   0.0800 
 36 H        6.4090    -0.9480    -0.7530 H     1 <1>   0.0800 
 37 H        5.4070     2.0680     1.6970 H     1 <1>   0.0800 
 38 H        3.9890     3.0050     1.4270 H     1 <1>   0.0800 
 39 H       -0.6150    -3.2370     0.5530 H     1 <1>   0.4500 
 40 H        1.1130    -4.7890     1.9690 H     1 <1>   0.0800 
 41 H        2.5090    -4.9550     0.9700 H     1 <1>   0.0800 
 42 H        6.5160     1.2880     0.0620 H     1 <1>   0.4500 
 43 H        4.8520     2.9630    -0.6780 H     1 <1>   0.0800 
 44 H        3.7260     1.6300    -0.7830 H     1 <1>   0.0800 
 45 H        1.3490    -4.7510    -1.0010 H     1 <1>   0.0800 
 46 H        0.1250    -5.4890     0.0040 H     1 <1>   0.0800 
 47 H       -0.7280    -3.8560    -2.3380 H     1 <1>   0.0800 
 48 H       -1.8280    -2.8000    -1.4770 H     1 <1>   0.0800 
 49 H       -1.7890    -4.5100    -1.1080 H     1 <1>   0.0800 
 50 H        5.6780     1.6000    -2.6870 H     1 <1>   0.0800 
 51 H        7.1250     0.7170    -2.2280 H     1 <1>   0.0800 
 52 H        6.6310     4.2380    -3.1990 H     1 <1>   0.1500 
 53 H        8.2780     5.7810    -1.8480 H     1 <1>   0.1500 
 54 H       10.2940     3.6420     0.5010 H     1 <1>   0.0800 
 55 H        8.9710     4.1740     1.4990 H     1 <1>   0.0800 
 56 H        9.1730     6.4580     0.5490 H     1 <1>   0.0800 
 57 H       10.5030     5.9230    -0.4440 H     1 <1>   0.0800 
 58 H       10.4860     5.9380     2.5930 H     1 <1>   0.0800 
 59 H       11.3290     7.0740     1.5700 H     1 <1>   0.0800 
 60 H       11.8200     5.3990     1.5950 H     1 <1>   0.0800 
@<TRIPOS>BOND
  1   1   2  2   
  2   2   3  am  
  3   2   4  1   
  4   3   5  1   
  5   3   6  1   
  6   4   7  1   
  7   4   8  1   
  8   4  26  1   
  9   5   9  1   
 10   5  27  1   
 11   5  28  1   
 12   6  10  1   
 13   6  29  1   
 14   6  30  1   
 15   7  11  1   
 16   7  31  1   
 17   7  32  1   
 18   8  12  1   
 19   8  33  1   
 20   8  34  1   
 21   9  13  1   
 22   9  35  1   
 23   9  36  1   
 24  10  14  1   
 25  10  37  1   
 26  10  38  1   
 27  11  15  1   
 28  11  16  1   
 29  11  39  1   
 30  12  15  1   
 31  12  40  1   
 32  12  41  1   
 33  13  14  1   
 34  13  17  1   
 35  13  42  1   
 36  14  43  1   
 37  14  44  1   
 38  15  45  1   
 39  15  46  1   
 40  16  47  1   
 41  16  48  1   
 42  16  49  1   
 43  17  18  1   
 44  17  50  1   
 45  17  51  1   
 46  18  19  1   
 47  18  20  2   
 48  19  21  1   
 49  20  22  1   
 50  20  52  1   
 51  21  22  2   
 52  21  23  1   
 53  22  53  1   
 54  23  24  1   
 55  23  54  1   
 56  23  55  1   
 57  24  25  1   
 58  24  56  1   
 59  24  57  1   
 60  25  58  1   
 61  25  59  1   
 62  25  60  1   
@<TRIPOS>SUBSTRUCTURE
  1 ****  13 GROUP 4 **** **** 0

# MOE 2024.06 (io_trps.svl 2023.06)
