@<TRIPOS>MOLECULE
NONAME
30 29 1 0 0 
SMALL
USER_CHARGES


@<TRIPOS>ATOM
  1 O       -0.2980     0.0930    -0.0130 O.3   1 <1>  -0.5600 
  2 C       -1.4690     0.8510    -0.0130 C.3   1 <1>   0.2000 
  3 C        0.7970     0.6870     0.6250 C.3   1 <1>   0.1200 
  4 C       -2.6450    -0.1320    -0.0660 C.3   1 <1>   0.1200 
  5 C       -1.4370     1.7870    -1.2260 C.3   1 <1>  -0.2400 
  6 C        2.0110    -0.2510     0.5460 C.3   1 <1>   0.2000 
  7 O       -3.8500     0.5710     0.0030 O.3   1 <1>  -0.5600 
  8 O        3.0880     0.3680     1.1500 O.3   1 <1>  -0.6800 
  9 C        2.4340    -0.5900    -0.8830 C.3   1 <1>  -0.2400 
 10 C       -4.9770    -0.2380    -0.0590 C.3   1 <1>   0.2580 
 11 C       -6.1890     0.6600     0.0650 C.2   1 <1>  -0.2880 
 12 C       -7.1570     0.5400     0.9810 C.2   1 <1>  -0.3000 
 13 H       -1.5290     1.4080     0.9070 H     1 <1>   0.0800 
 14 H        0.5380     0.8590     1.6550 H     1 <1>   0.0800 
 15 H        1.0170     1.6180     0.1350 H     1 <1>   0.0800 
 16 H       -2.5940    -0.8030     0.7740 H     1 <1>   0.0800 
 17 H       -2.6190    -0.6860    -0.9880 H     1 <1>   0.0800 
 18 H       -1.3330     1.2180    -2.1310 H     1 <1>   0.0800 
 19 H       -0.6290     2.4900    -1.1470 H     1 <1>   0.0800 
 20 H       -2.3560     2.3430    -1.2760 H     1 <1>   0.0800 
 21 H        1.8040    -1.1490     1.1030 H     1 <1>   0.0800 
 22 H        3.4510     1.0530     0.5580 H     1 <1>   0.4000 
 23 H        2.6320     0.3030    -1.4470 H     1 <1>   0.0800 
 24 H        1.6410    -1.1270    -1.3720 H     1 <1>   0.0800 
 25 H        3.3060    -1.2180    -0.8730 H     1 <1>   0.0800 
 26 H       -4.9430    -0.9500     0.7490 H     1 <1>   0.0800 
 27 H       -4.9830    -0.7510    -1.0050 H     1 <1>   0.0800 
 28 H       -6.1890     1.4340    -0.6820 H     1 <1>   0.1500 
 29 H       -8.0060     1.1990     1.0430 H     1 <1>   0.1500 
 30 H       -7.1820    -0.2200     1.7430 H     1 <1>   0.1500 
@<TRIPOS>BOND
  1   1   2  1   
  2   1   3  1   
  3   2   4  1   
  4   2   5  1   
  5   2  13  1   
  6   3   6  1   
  7   3  14  1   
  8   3  15  1   
  9   4   7  1   
 10   4  16  1   
 11   4  17  1   
 12   5  18  1   
 13   5  19  1   
 14   5  20  1   
 15   6   8  1   
 16   6   9  1   
 17   6  21  1   
 18   7  10  1   
 19   8  22  1   
 20   9  23  1   
 21   9  24  1   
 22   9  25  1   
 23  10  11  1   
 24  10  26  1   
 25  10  27  1   
 26  11  12  2   
 27  11  28  1   
 28  12  29  1   
 29  12  30  1   
@<TRIPOS>SUBSTRUCTURE
  1 ****   2 GROUP 4 **** **** 0

# MOE 2024.06 (io_trps.svl 2023.06)
