@<TRIPOS>MOLECULE
NONAME
47 49 1 0 0 
SMALL
USER_CHARGES


@<TRIPOS>ATOM
  1 O       -0.4930     0.4780     0.8660 O.2   1 <1>  -0.5700 
  2 C       -1.4900     0.9430     0.3670 C.2   1 <1>   0.5690 
  3 N       -2.5530     0.1480     0.0450 N.am  1 <1>  -0.6600 
  4 C       -1.5650     2.4380     0.1000 C.3   1 <1>  -0.0990 
  5 C       -3.8610     0.5760    -0.5120 C.3   1 <1>   0.1400 
  6 C       -2.5590    -1.3130     0.3090 C.3   1 <1>   0.1400 
  7 C       -0.2310     3.1610     0.3210 C.3   1 <1>   0.0210 
  8 C       -4.8160    -0.5540    -0.1320 C.3   1 <1>   0.2000 
  9 C       -3.9300    -1.8050    -0.1740 C.3   1 <1>  -0.0800 
 10 C       -0.2480     4.6610     0.0350 C.2   1 <1>  -0.1810 
 11 O       -5.2460    -0.3300     1.1670 O.3   1 <1>  -0.6800 
 12 C       -4.4750    -3.0120     0.6140 C.3   1 <1>   0.0200 
 13 C       -1.1830     5.5560    -0.3470 C.2   1 <1>  -0.0400 
 14 C        0.9020     5.4470     0.1500 C.2   1 <1>   0.1080 
 15 C       -3.6450    -4.2710     0.4280 C.2   1 <1>  -0.0400 
 16 O       -0.6040     6.7240    -0.4350 O.3   1 <1>  -0.0190 
 17 C       -2.6640     5.5170    -0.6750 C.3   1 <1>  -0.0600 
 18 N        0.6570     6.6730    -0.1370 N.2   1 <1>  -0.4100 
 19 C        2.2760     4.9550     0.5580 C.3   1 <1>  -0.0590 
 20 O       -3.9370    -5.3240     1.1460 O.3   1 <1>  -0.0190 
 21 C       -2.6040    -4.5920    -0.3580 C.2   1 <1>  -0.1500 
 22 N       -3.1490    -6.3270     0.8860 N.2   1 <1>  -0.4100 
 23 C       -2.3350    -5.9140    -0.0170 C.2   1 <1>   0.1080 
 24 C       -1.2350    -6.7600    -0.6200 C.3   1 <1>  -0.0590 
 25 H       -1.8720     2.5840    -0.9180 H     1 <1>   0.0800 
 26 H       -2.3010     2.8550     0.7610 H     1 <1>   0.0800 
 27 H       -4.1890     1.5200    -0.1120 H     1 <1>   0.0800 
 28 H       -3.7810     0.6420    -1.5830 H     1 <1>   0.0800 
 29 H       -1.7520    -1.7920    -0.2170 H     1 <1>   0.0800 
 30 H       -2.4380    -1.4790     1.3670 H     1 <1>   0.0800 
 31 H        0.5130     2.7030    -0.3080 H     1 <1>   0.0800 
 32 H        0.0750     3.0150     1.3430 H     1 <1>   0.0800 
 33 H       -5.6790    -0.6160    -0.7740 H     1 <1>   0.0800 
 34 H       -3.8290    -2.0920    -1.2060 H     1 <1>   0.0800 
 35 H       -4.4670    -0.1650     1.7350 H     1 <1>   0.4000 
 36 H       -5.4810    -3.2200     0.2970 H     1 <1>   0.0800 
 37 H       -4.5080    -2.7810     1.6640 H     1 <1>   0.0800 
 38 H       -3.0800     4.5370    -0.5760 H     1 <1>   0.0800 
 39 H       -2.8130     5.8530    -1.6860 H     1 <1>   0.0800 
 40 H       -3.1920     6.1810    -0.0140 H     1 <1>   0.0800 
 41 H        2.2280     4.5000     1.5300 H     1 <1>   0.0800 
 42 H        2.9640     5.7800     0.5960 H     1 <1>   0.0800 
 43 H        2.6340     4.2380    -0.1560 H     1 <1>   0.0800 
 44 H       -2.0740    -4.0120    -1.0890 H     1 <1>   0.1500 
 45 H       -0.2820    -6.2970    -0.4450 H     1 <1>   0.0800 
 46 H       -1.3930    -6.8630    -1.6780 H     1 <1>   0.0800 
 47 H       -1.2360    -7.7370    -0.1710 H     1 <1>   0.0800 
@<TRIPOS>BOND
  1   1   2  2   
  2   2   3  am  
  3   2   4  1   
  4   3   5  1   
  5   3   6  1   
  6   4   7  1   
  7   4  25  1   
  8   4  26  1   
  9   5   8  1   
 10   5  27  1   
 11   5  28  1   
 12   6   9  1   
 13   6  29  1   
 14   6  30  1   
 15   7  10  1   
 16   7  31  1   
 17   7  32  1   
 18   8   9  1   
 19   8  11  1   
 20   8  33  1   
 21   9  12  1   
 22   9  34  1   
 23  10  13  2   
 24  10  14  1   
 25  11  35  1   
 26  12  15  1   
 27  12  36  1   
 28  12  37  1   
 29  13  16  1   
 30  13  17  1   
 31  14  18  2   
 32  14  19  1   
 33  15  20  1   
 34  15  21  2   
 35  16  18  1   
 36  17  38  1   
 37  17  39  1   
 38  17  40  1   
 39  19  41  1   
 40  19  42  1   
 41  19  43  1   
 42  20  22  1   
 43  21  23  1   
 44  21  44  1   
 45  22  23  2   
 46  23  24  1   
 47  24  45  1   
 48  24  46  1   
 49  24  47  1   
@<TRIPOS>SUBSTRUCTURE
  1 ****   3 GROUP 4 **** **** 0

# MOE 2024.06 (io_trps.svl 2023.06)
