@<TRIPOS>MOLECULE
NONAME
47 49 1 0 0 
SMALL
USER_CHARGES


@<TRIPOS>ATOM
  1 F       -3.8140    -0.9980    -0.8350 F     1 <1>  -0.3400 
  2 C       -4.1340     0.2040    -1.2910 C.3   1 <1>   1.1640 
  3 F       -3.8770     0.1720    -2.5940 F     1 <1>  -0.3400 
  4 F       -5.4510     0.3160    -1.1980 F     1 <1>  -0.3400 
  5 C       -3.3860     1.3410    -0.5740 C.ar  1 <1>  -0.1440 
  6 C       -3.7290     1.7060     0.7380 C.ar  1 <1>   0.0860 
  7 C       -2.3580     2.0190    -1.2260 C.ar  1 <1>  -0.1500 
  8 C       -4.7740     1.0590     1.5130 C.2   1 <1>   0.5440 
  9 C       -3.0150     2.7420     1.3410 C.ar  1 <1>  -0.1500 
 10 C       -1.6720     3.0460    -0.6070 C.ar  1 <1>  -0.1500 
 11 O       -4.6640    -0.1180     1.7970 O.2   1 <1>  -0.5700 
 12 N       -5.8800     1.7460     1.9630 N.am  1 <1>  -0.6600 
 13 C       -2.0010     3.4090     0.6830 C.ar  1 <1>  -0.1500 
 14 C       -6.8010     1.1240     2.9570 C.3   1 <1>   0.1400 
 15 C       -6.3590     3.0370     1.3950 C.3   1 <1>   0.1400 
 16 C       -7.7530     0.1130     2.2980 C.3   1 <1>   0.1400 
 17 C       -7.4980     2.8340     0.3850 C.3   1 <1>  -0.1600 
 18 N       -8.3060     0.5650     0.9770 N.am  1 <1>  -0.6600 
 19 C       -8.6890     2.0020     0.8860 C.3   1 <1>   0.1400 
 20 C       -8.3490    -0.2210    -0.1560 C.2   1 <1>   0.5690 
 21 O       -8.8640     0.1920    -1.1740 O.2   1 <1>  -0.5700 
 22 C       -7.7370    -1.6450    -0.1800 C.3   1 <1>   0.2810 
 23 N       -7.6400    -2.2510    -1.5290 N.am  1 <1>  -0.7300 
 24 C       -8.5660    -2.6950     0.5920 C.3   1 <1>  -0.1600 
 25 C       -8.1090    -3.4990    -1.6030 C.2   1 <1>   0.5690 
 26 C       -8.5070    -3.9900    -0.2400 C.3   1 <1>  -0.0990 
 27 O       -8.2380    -4.1370    -2.6160 O.2   1 <1>  -0.5700 
 28 H       -2.0730     1.7550    -2.2320 H     1 <1>   0.1500 
 29 H       -3.2610     3.0230     2.3510 H     1 <1>   0.1500 
 30 H       -0.8800     3.5600    -1.1270 H     1 <1>   0.1500 
 31 H       -1.4670     4.2060     1.1730 H     1 <1>   0.1500 
 32 H       -7.3720     1.8870     3.4550 H     1 <1>   0.0800 
 33 H       -6.2220     0.6170     3.7100 H     1 <1>   0.0800 
 34 H       -5.5520     3.5520     0.9060 H     1 <1>   0.0800 
 35 H       -6.6990     3.6660     2.1990 H     1 <1>   0.0800 
 36 H       -8.5700    -0.0860     2.9690 H     1 <1>   0.0800 
 37 H       -7.2050    -0.8020     2.1830 H     1 <1>   0.0800 
 38 H       -7.1090     2.3890    -0.5140 H     1 <1>   0.0800 
 39 H       -7.8660     3.8060     0.1100 H     1 <1>   0.0800 
 40 H       -9.5060     2.1060     0.1910 H     1 <1>   0.0800 
 41 H       -9.0330     2.3610     1.8400 H     1 <1>   0.0800 
 42 H       -6.7400    -1.5960     0.2200 H     1 <1>   0.0800 
 43 H       -7.5910    -1.6380    -2.3460 H     1 <1>   0.3700 
 44 H       -9.5860    -2.3580     0.6530 H     1 <1>   0.0800 
 45 H       -8.1910    -2.8430     1.5890 H     1 <1>   0.0800 
 46 H       -9.4570    -4.4910    -0.2770 H     1 <1>   0.0800 
 47 H       -7.7470    -4.6560     0.1230 H     1 <1>   0.0800 
@<TRIPOS>BOND
  1   1   2  1   
  2   2   3  1   
  3   2   4  1   
  4   2   5  1   
  5   5   6  ar  
  6   5   7  ar  
  7   6   8  1   
  8   6   9  ar  
  9   7  10  ar  
 10   7  28  1   
 11   8  11  2   
 12   8  12  am  
 13   9  13  ar  
 14   9  29  1   
 15  10  13  ar  
 16  10  30  1   
 17  12  14  1   
 18  12  15  1   
 19  13  31  1   
 20  14  16  1   
 21  14  32  1   
 22  14  33  1   
 23  15  17  1   
 24  15  34  1   
 25  15  35  1   
 26  16  18  1   
 27  16  36  1   
 28  16  37  1   
 29  17  19  1   
 30  17  38  1   
 31  17  39  1   
 32  18  19  1   
 33  18  20  am  
 34  19  40  1   
 35  19  41  1   
 36  20  21  2   
 37  20  22  1   
 38  22  23  1   
 39  22  24  1   
 40  22  42  1   
 41  23  25  am  
 42  23  43  1   
 43  24  26  1   
 44  24  44  1   
 45  24  45  1   
 46  25  26  1   
 47  25  27  2   
 48  26  46  1   
 49  26  47  1   
@<TRIPOS>SUBSTRUCTURE
  1 ****   4 GROUP 4 **** **** 0

# MOE 2024.06 (io_trps.svl 2023.06)
