@<TRIPOS>MOLECULE
NONAME
53 57 1 0 0 
SMALL
USER_CHARGES


@<TRIPOS>ATOM
  1 O       -0.7500     0.5180     1.4630 O.2   1 <1>  -0.5700 
  2 C       -1.7650     1.0460     1.0470 C.2   1 <1>   0.5440 
  3 N       -1.7330     2.3930     0.7480 N.am  1 <1>  -0.6600 
  4 C       -2.9520     0.2440     0.8680 C.ar  1 <1>   0.0860 
  5 C       -0.6200     3.2780     1.2100 C.3   1 <1>   0.1400 
  6 C       -2.5910     3.0320    -0.2950 C.3   1 <1>   0.1400 
  7 C       -2.8600    -1.0460     0.3500 C.ar  1 <1>   0.1600 
  8 C       -4.2270     0.6920     1.2060 C.ar  1 <1>  -0.1500 
  9 C        0.1310     3.8750     0.0100 C.3   1 <1>   0.1200 
 10 C       -1.7260     3.6560    -1.4040 C.3   1 <1>   0.1200 
 11 N       -3.8700    -1.8690     0.1230 N.ar  1 <1>  -0.6200 
 12 C       -5.2870    -0.1530     0.9860 C.ar  1 <1>  -0.1500 
 13 O       -0.7610     4.5120    -0.8610 O.3   1 <1>  -0.5600 
 14 C       -5.0780    -1.4180     0.4430 C.ar  1 <1>   0.4100 
 15 N       -6.1430    -2.2580     0.2160 N.pl3 1 <1>  -0.8380 
 16 C       -5.9360    -3.7280     0.3750 C.3   1 <1>   0.2090 
 17 C       -7.1490    -1.8700    -0.8040 C.3   1 <1>   0.2090 
 18 C       -7.2670    -4.4510     0.6370 C.3   1 <1>   0.1000 
 19 C       -8.4900    -2.5340    -0.4790 C.3   1 <1>  -0.1600 
 20 C       -7.0740    -5.9620     0.7020 C.2   1 <1>   0.0070 
 21 C       -8.3560    -4.0620    -0.3810 C.3   1 <1>  -0.1600 
 22 N       -7.3420    -6.6550     1.7610 N.2   1 <1>  -0.3380 
 23 N       -6.6160    -6.7330    -0.2970 N.pl3 1 <1>   0.3340 
 24 N       -7.0640    -7.9230     1.4950 N.2   1 <1>  -0.3380 
 25 C       -6.6290    -7.9680     0.2640 C.2   1 <1>   0.1410 
 26 C       -6.1860    -6.5520    -1.6130 C.2   1 <1>  -0.1810 
 27 C       -6.1970    -9.0850    -0.4960 C.2   1 <1>  -0.1050 
 28 C       -5.7700    -7.6150    -2.3500 C.2   1 <1>  -0.1500 
 29 C       -5.7740    -8.9150    -1.7790 C.2   1 <1>  -0.1500 
 30 H        0.0710     2.7330     1.8290 H     1 <1>   0.0800 
 31 H       -1.0290     4.0780     1.8030 H     1 <1>   0.0800 
 32 H       -3.1900     3.8020     0.1610 H     1 <1>   0.0800 
 33 H       -3.2530     2.3100    -0.7400 H     1 <1>   0.0800 
 34 H       -1.8760    -1.4110     0.1080 H     1 <1>   0.1500 
 35 H       -4.3660     1.6680     1.6350 H     1 <1>   0.1500 
 36 H        0.6530     3.1030    -0.5280 H     1 <1>   0.0800 
 37 H        0.8440     4.6070     0.3450 H     1 <1>   0.0800 
 38 H       -2.3380     4.2340    -2.0730 H     1 <1>   0.0800 
 39 H       -1.2250     2.8890    -1.9700 H     1 <1>   0.0800 
 40 H       -6.2890     0.1380     1.2370 H     1 <1>   0.1500 
 41 H       -5.2690    -3.9080     1.2010 H     1 <1>   0.0800 
 42 H       -5.4650    -4.1030    -0.5150 H     1 <1>   0.0800 
 43 H       -6.8050    -2.1860    -1.7740 H     1 <1>   0.0800 
 44 H       -7.2650    -0.8000    -0.8200 H     1 <1>   0.0800 
 45 H       -7.6000    -4.1300     1.6090 H     1 <1>   0.0800 
 46 H       -9.2050    -2.2820    -1.2420 H     1 <1>   0.0800 
 47 H       -8.8530    -2.1390     0.4540 H     1 <1>   0.0800 
 48 H       -9.2960    -4.4880    -0.0750 H     1 <1>   0.0800 
 49 H       -8.1170    -4.4530    -1.3520 H     1 <1>   0.0800 
 50 H       -6.2010    -5.5510    -2.0000 H     1 <1>   0.1500 
 51 H       -6.2200   -10.0480    -0.0180 H     1 <1>   0.1500 
 52 H       -5.4310    -7.5050    -3.3680 H     1 <1>   0.1500 
 53 H       -5.4400    -9.7450    -2.3790 H     1 <1>   0.1500 
@<TRIPOS>BOND
  1   1   2  2   
  2   2   3  am  
  3   2   4  1   
  4   3   5  1   
  5   3   6  1   
  6   4   7  ar  
  7   4   8  ar  
  8   5   9  1   
  9   5  30  1   
 10   5  31  1   
 11   6  10  1   
 12   6  32  1   
 13   6  33  1   
 14   7  11  ar  
 15   7  34  1   
 16   8  12  ar  
 17   8  35  1   
 18   9  13  1   
 19   9  36  1   
 20   9  37  1   
 21  10  13  1   
 22  10  38  1   
 23  10  39  1   
 24  11  14  ar  
 25  12  14  ar  
 26  12  40  1   
 27  14  15  1   
 28  15  16  1   
 29  15  17  1   
 30  16  18  1   
 31  16  41  1   
 32  16  42  1   
 33  17  19  1   
 34  17  43  1   
 35  17  44  1   
 36  18  20  1   
 37  18  21  1   
 38  18  45  1   
 39  19  21  1   
 40  19  46  1   
 41  19  47  1   
 42  20  22  2   
 43  20  23  1   
 44  21  48  1   
 45  21  49  1   
 46  22  24  1   
 47  23  25  1   
 48  23  26  1   
 49  24  25  2   
 50  25  27  1   
 51  26  28  2   
 52  26  50  1   
 53  27  29  2   
 54  27  51  1   
 55  28  29  1   
 56  28  52  1   
 57  29  53  1   
@<TRIPOS>SUBSTRUCTURE
  1 ****  11 GROUP 4 **** **** 0

# MOE 2024.06 (io_trps.svl 2023.06)
