@<TRIPOS>MOLECULE
NONAME
47 49 1 0 0 
SMALL
USER_CHARGES


@<TRIPOS>ATOM
  1 F       -0.1270    -0.8990    -1.2890 F     1 <1>  -0.1900 
  2 C       -0.2960    -2.1400    -0.9100 C.ar  1 <1>   0.1900 
  3 C       -1.2730    -2.8980    -1.5250 C.ar  1 <1>  -0.1500 
  4 C        0.5090    -2.6470     0.0890 C.ar  1 <1>  -0.1500 
  5 C       -1.4570    -4.2140    -1.1290 C.ar  1 <1>  -0.1440 
  6 C        0.3210    -3.9600     0.4820 C.ar  1 <1>  -0.1500 
  7 C       -0.6540    -4.7570    -0.1180 C.ar  1 <1>   0.1170 
  8 C       -2.5370    -5.0440    -1.8160 C.3   1 <1>  -0.0960 
  9 N       -0.8580    -6.0890     0.2750 N.am  1 <1>  -0.5470 
 10 C       -0.1030    -7.0000     0.9560 C.2   1 <1>   0.5690 
 11 O        0.9890    -6.7770     1.4190 O.2   1 <1>  -0.5700 
 12 C       -0.7120    -8.3960     1.1110 C.3   1 <1>   0.1710 
 13 N       -1.7700    -8.7070     0.1000 N.3   1 <1>  -0.8100 
 14 C       -1.2160    -8.9360    -1.2420 C.3   1 <1>   0.1100 
 15 C       -2.4870    -9.9510     0.4240 C.3   1 <1>   0.1100 
 16 C       -2.3480    -9.6370    -1.9820 C.3   1 <1>   0.2000 
 17 C       -2.9360   -10.5650    -0.9180 C.3   1 <1>  -0.0800 
 18 O       -3.3030    -8.6820    -2.2810 O.3   1 <1>  -0.6800 
 19 C       -2.4340   -12.0090    -1.0980 C.3   1 <1>  -0.0170 
 20 C       -3.0170   -12.9450    -0.0520 C.ar  1 <1>   0.1670 
 21 N       -2.2800   -13.1580     1.0280 N.ar  1 <1>  -0.6200 
 22 C       -4.2620   -13.5190    -0.2670 C.ar  1 <1>  -0.1500 
 23 C       -2.8050   -13.9740     1.9290 C.ar  1 <1>   0.1600 
 24 C       -4.7960   -14.3640     0.6810 C.ar  1 <1>  -0.1500 
 25 C       -4.0370   -14.5920     1.8080 C.ar  1 <1>  -0.1500 
 26 H       -1.8720    -2.4530    -2.2980 H     1 <1>   0.1500 
 27 H        1.2600    -2.0300     0.5470 H     1 <1>   0.1500 
 28 H        0.9390    -4.3620     1.2630 H     1 <1>   0.1500 
 29 H       -3.0490    -4.4660    -2.5640 H     1 <1>   0.0800 
 30 H       -3.2620    -5.3790    -1.0970 H     1 <1>   0.0800 
 31 H       -2.0970    -5.8980    -2.2990 H     1 <1>   0.0800 
 32 H       -1.7070    -6.5280    -0.0890 H     1 <1>   0.3700 
 33 H       -1.1420    -8.4470     2.0950 H     1 <1>   0.0800 
 34 H        0.0770    -9.1250     1.0580 H     1 <1>   0.0800 
 35 H       -0.9260    -8.0200    -1.7290 H     1 <1>   0.0800 
 36 H       -0.3650    -9.5940    -1.1860 H     1 <1>   0.0800 
 37 H       -1.8280   -10.6260     0.9440 H     1 <1>   0.0800 
 38 H       -3.3320    -9.7400     1.0570 H     1 <1>   0.0800 
 39 H       -2.0420   -10.1240    -2.8920 H     1 <1>   0.0800 
 40 H       -4.0110   -10.5740    -0.9770 H     1 <1>   0.0800 
 41 H       -3.5050    -8.2230    -1.4400 H     1 <1>   0.4000 
 42 H       -1.3600   -12.0400    -1.0390 H     1 <1>   0.0800 
 43 H       -2.7130   -12.3640    -2.0740 H     1 <1>   0.0800 
 44 H       -4.8100   -13.3050    -1.1660 H     1 <1>   0.1500 
 45 H       -2.2200   -14.1600     2.8130 H     1 <1>   0.1500 
 46 H       -5.7600   -14.8250     0.5470 H     1 <1>   0.1500 
 47 H       -4.3940   -15.2420     2.5860 H     1 <1>   0.1500 
@<TRIPOS>BOND
  1   1   2  1   
  2   2   3  ar  
  3   2   4  ar  
  4   3   5  ar  
  5   3  26  1   
  6   4   6  ar  
  7   4  27  1   
  8   5   7  ar  
  9   5   8  1   
 10   6   7  ar  
 11   6  28  1   
 12   7   9  1   
 13   8  29  1   
 14   8  30  1   
 15   8  31  1   
 16   9  10  am  
 17   9  32  1   
 18  10  11  2   
 19  10  12  1   
 20  12  13  1   
 21  12  33  1   
 22  12  34  1   
 23  13  14  1   
 24  13  15  1   
 25  14  16  1   
 26  14  35  1   
 27  14  36  1   
 28  15  17  1   
 29  15  37  1   
 30  15  38  1   
 31  16  17  1   
 32  16  18  1   
 33  16  39  1   
 34  17  19  1   
 35  17  40  1   
 36  18  41  1   
 37  19  20  1   
 38  19  42  1   
 39  19  43  1   
 40  20  21  ar  
 41  20  22  ar  
 42  21  23  ar  
 43  22  24  ar  
 44  22  44  1   
 45  23  25  ar  
 46  23  45  1   
 47  24  25  ar  
 48  24  46  1   
 49  25  47  1   
@<TRIPOS>SUBSTRUCTURE
  1 ****  13 GROUP 4 **** **** 0

# MOE 2024.06 (io_trps.svl 2023.06)
