@<TRIPOS>MOLECULE
NONAME
47 48 1 0 0 
SMALL
USER_CHARGES


@<TRIPOS>ATOM
  1 F        0.1630    -0.7860     0.1610 F     1 <1>  -0.1900 
  2 C       -0.1160    -2.0240    -0.1490 C.ar  1 <1>   0.1900 
  3 C       -1.0790    -2.2700    -1.1070 C.ar  1 <1>  -0.1500 
  4 C        0.5630    -3.0410     0.4940 C.ar  1 <1>  -0.1500 
  5 C       -1.3720    -3.5850    -1.4290 C.ar  1 <1>  -0.1500 
  6 C        0.2610    -4.3520     0.1630 C.ar  1 <1>  -0.1500 
  7 C       -0.7070    -4.6270    -0.7950 C.ar  1 <1>  -0.1430 
  8 C       -1.0470    -6.0660    -1.1450 C.3   1 <1>  -0.0160 
  9 C       -2.1660    -6.5700    -0.2220 C.3   1 <1>  -0.0990 
 10 C       -2.5730    -8.0060    -0.5170 C.2   1 <1>   0.5690 
 11 O       -2.6290    -8.3590    -1.6680 O.2   1 <1>  -0.5700 
 12 N       -2.9340    -8.8550     0.4930 N.am  1 <1>  -0.6600 
 13 C       -2.7940   -10.3260     0.2880 C.3   1 <1>   0.3200 
 14 C       -3.5640    -8.3930     1.7750 C.3   1 <1>   0.1400 
 15 C       -4.1770   -10.9170     0.1270 C.2   1 <1>  -0.3320 
 16 C       -4.8620    -7.5830     1.5360 C.3   1 <1>   0.3430 
 17 N       -4.8130   -11.6750     1.0430 N.pl3 1 <1>   0.0330 
 18 C       -5.0110   -10.8100    -0.9300 C.2   1 <1>   0.0770 
 19 N       -5.7330    -8.2310     0.5050 N.4   1 <1>  -0.9590 
 20 C       -6.0200   -11.9340     0.5000 C.2   1 <1>   0.0360 
 21 N       -6.1880   -11.4050    -0.6690 N.2   1 <1>  -0.5650 
 22 C       -5.9030    -7.4040    -0.7280 C.3   1 <1>   0.2630 
 23 C       -7.0580    -8.6730     1.0310 C.3   1 <1>   0.2630 
 24 H       -1.5820    -1.4510    -1.5880 H     1 <1>   0.1500 
 25 H        1.3100    -2.8080     1.2310 H     1 <1>   0.1500 
 26 H       -2.1180    -3.7910    -2.1780 H     1 <1>   0.1500 
 27 H        0.7860    -5.1530     0.6540 H     1 <1>   0.1500 
 28 H       -0.1740    -6.6870    -1.0370 H     1 <1>   0.0800 
 29 H       -1.3600    -6.1230    -2.1740 H     1 <1>   0.0800 
 30 H       -3.0230    -5.9360    -0.3410 H     1 <1>   0.0800 
 31 H       -1.8190    -6.4900     0.7910 H     1 <1>   0.0800 
 32 H       -2.2770   -10.7670     1.1230 H     1 <1>   0.0800 
 33 H       -2.2130   -10.5250    -0.5990 H     1 <1>   0.0800 
 34 H       -2.8620    -7.7950     2.3300 H     1 <1>   0.0800 
 35 H       -3.8010    -9.2460     2.3870 H     1 <1>   0.0800 
 36 H       -4.5970    -6.5900     1.2120 H     1 <1>   0.0800 
 37 H       -5.3960    -7.4860     2.4670 H     1 <1>   0.0800 
 38 H       -4.4610   -12.0290     1.9400 H     1 <1>   0.2700 
 39 H       -4.8240   -10.3130    -1.8720 H     1 <1>   0.1500 
 40 H       -5.2290    -9.0910     0.2020 H     1 <1>   0.4500 
 41 H       -6.7610   -12.5330     1.0040 H     1 <1>   0.1500 
 42 H       -6.3980    -6.4760    -0.4960 H     1 <1>   0.0800 
 43 H       -6.4950    -7.9410    -1.4520 H     1 <1>   0.0800 
 44 H       -4.9440    -7.1900    -1.1720 H     1 <1>   0.0800 
 45 H       -7.6540    -7.8220     1.3180 H     1 <1>   0.0800 
 46 H       -6.9260    -9.3140     1.8860 H     1 <1>   0.0800 
 47 H       -7.5860    -9.2290     0.2720 H     1 <1>   0.0800 
@<TRIPOS>BOND
  1   1   2  1   
  2   2   3  ar  
  3   2   4  ar  
  4   3   5  ar  
  5   3  24  1   
  6   4   6  ar  
  7   4  25  1   
  8   5   7  ar  
  9   5  26  1   
 10   6   7  ar  
 11   6  27  1   
 12   7   8  1   
 13   8   9  1   
 14   8  28  1   
 15   8  29  1   
 16   9  10  1   
 17   9  30  1   
 18   9  31  1   
 19  10  11  2   
 20  10  12  am  
 21  12  13  1   
 22  12  14  1   
 23  13  15  1   
 24  13  32  1   
 25  13  33  1   
 26  14  16  1   
 27  14  34  1   
 28  14  35  1   
 29  15  17  1   
 30  15  18  2   
 31  16  19  1   
 32  16  36  1   
 33  16  37  1   
 34  17  20  1   
 35  17  38  1   
 36  18  21  1   
 37  18  39  1   
 38  19  22  1   
 39  19  23  1   
 40  19  40  1   
 41  20  21  2   
 42  20  41  1   
 43  22  42  1   
 44  22  43  1   
 45  22  44  1   
 46  23  45  1   
 47  23  46  1   
 48  23  47  1   
@<TRIPOS>SUBSTRUCTURE
  1 ****  10 GROUP 4 **** **** 0

# MOE 2024.06 (io_trps.svl 2023.06)
