@<TRIPOS>MOLECULE
NONAME
38 39 1 0 0 
SMALL
USER_CHARGES


@<TRIPOS>ATOM
  1 S       -2.0040     0.3530     0.9380 S.3   1 <1>  -0.0800 
  2 C       -1.4610    -0.7290    -0.3030 C.2   1 <1>   0.4420 
  3 C       -0.9940     1.5640     0.2280 C.2   1 <1>   0.1980 
  4 N       -0.6260    -0.1670    -1.1010 N.2   1 <1>  -0.3380 
  5 N       -1.9710    -2.0090    -0.2630 N.am  1 <1>  -0.4940 
  6 N       -0.3650     1.1400    -0.7920 N.2   1 <1>  -0.3380 
  7 C       -0.9750     2.9330     0.8790 C.3   1 <1>   0.0200 
  8 C       -1.8140    -3.0590    -1.1350 C.2   1 <1>   0.5440 
  9 C       -0.0450     3.8900     0.1370 C.3   1 <1>   0.1200 
 10 O       -1.2320    -2.8740    -2.1820 O.2   1 <1>  -0.5700 
 11 C       -2.3210    -4.3890    -0.8280 C.ar  1 <1>   0.0860 
 12 O       -0.0800     5.1180     0.7900 O.3   1 <1>  -0.5600 
 13 C       -3.3070    -4.6610     0.1310 C.ar  1 <1>   0.1900 
 14 C       -1.8140    -5.4970    -1.5170 C.ar  1 <1>  -0.1500 
 15 C        0.7300     6.0840     0.2090 C.3   1 <1>   0.1200 
 16 F       -3.8280    -3.6620     0.7980 F     1 <1>  -0.1900 
 17 C       -3.7830    -5.9370     0.4260 C.ar  1 <1>   0.0830 
 18 C       -2.2560    -6.7820    -1.2620 C.ar  1 <1>  -0.1500 
 19 C        0.5830     7.3590     1.0300 C.3   1 <1>  -0.2400 
 20 O       -4.7460    -6.0370     1.3940 O.3   1 <1>  -0.3630 
 21 C       -3.2260    -6.9920    -0.3000 C.ar  1 <1>   0.1900 
 22 C       -5.3670    -7.2530     1.7560 C.3   1 <1>   0.0400 
 23 F       -3.5900    -8.2330    -0.1100 F     1 <1>  -0.1900 
 24 H       -2.5860    -2.1950     0.5280 H     1 <1>   0.3700 
 25 H       -0.6410     2.8320     1.8950 H     1 <1>   0.0800 
 26 H       -1.9720     3.3350     0.8740 H     1 <1>   0.0800 
 27 H       -0.3750     4.0240    -0.8790 H     1 <1>   0.0800 
 28 H        0.9660     3.5170     0.1470 H     1 <1>   0.0800 
 29 H       -1.0560    -5.3450    -2.2700 H     1 <1>   0.1500 
 30 H        0.4070     6.2460    -0.8060 H     1 <1>   0.0800 
 31 H        1.7500     5.7380     0.2230 H     1 <1>   0.0800 
 32 H       -1.8510    -7.6200    -1.8040 H     1 <1>   0.1500 
 33 H       -0.4410     7.6870     1.0210 H     1 <1>   0.0800 
 34 H        1.1970     8.1350     0.6110 H     1 <1>   0.0800 
 35 H        0.8950     7.1820     2.0440 H     1 <1>   0.0800 
 36 H       -6.1020    -7.0400     2.5110 H     1 <1>   0.0800 
 37 H       -4.6240    -7.9230     2.1530 H     1 <1>   0.0800 
 38 H       -5.8460    -7.6750     0.8910 H     1 <1>   0.0800 
@<TRIPOS>BOND
  1   1   2  1   
  2   1   3  1   
  3   2   4  2   
  4   2   5  1   
  5   3   6  2   
  6   3   7  1   
  7   4   6  1   
  8   5   8  am  
  9   5  24  1   
 10   7   9  1   
 11   7  25  1   
 12   7  26  1   
 13   8  10  2   
 14   8  11  1   
 15   9  12  1   
 16   9  27  1   
 17   9  28  1   
 18  11  13  ar  
 19  11  14  ar  
 20  12  15  1   
 21  13  16  1   
 22  13  17  ar  
 23  14  18  ar  
 24  14  29  1   
 25  15  19  1   
 26  15  30  1   
 27  15  31  1   
 28  17  20  1   
 29  17  21  ar  
 30  18  21  ar  
 31  18  32  1   
 32  19  33  1   
 33  19  34  1   
 34  19  35  1   
 35  20  22  1   
 36  21  23  1   
 37  22  36  1   
 38  22  37  1   
 39  22  38  1   
@<TRIPOS>SUBSTRUCTURE
  1 ****   5 GROUP 4 **** **** 0

# MOE 2024.06 (io_trps.svl 2023.06)
