@<TRIPOS>MOLECULE
NONAME
34 35 1 0 0 
SMALL
USER_CHARGES


@<TRIPOS>ATOM
  1 S       -0.4260     0.9920     1.0850 S.3   1 <1>  -0.0800 
  2 C        1.2690     1.4240     1.2250 C.2   1 <1>  -0.1100 
  3 C       -0.5030     1.6520    -0.5380 C.2   1 <1>  -0.1100 
  4 C        1.7070     2.0240     0.1010 C.2   1 <1>  -0.1810 
  5 C        0.6910     2.1530    -0.9040 C.2   1 <1>  -0.1500 
  6 C        3.1140     2.5360    -0.1400 C.3   1 <1>   0.3900 
  7 N        3.0430     3.9990    -0.2760 N.pl3 1 <1>  -0.8690 
  8 C        4.1460     4.8100    -0.2160 C.ar  1 <1>   0.4100 
  9 N        5.3200     4.2210    -0.3090 N.ar  1 <1>  -0.6200 
 10 C        4.0290     6.1870    -0.0650 C.ar  1 <1>  -0.1430 
 11 C        6.3690     5.0130    -0.2490 C.ar  1 <1>   0.4770 
 12 C        5.2060     6.8950    -0.0140 C.ar  1 <1>   0.1600 
 13 C        2.6440     6.8360     0.0320 C.3   1 <1>  -0.0160 
 14 N        6.3890     6.3220    -0.1030 N.ar  1 <1>  -0.6200 
 15 C        7.7190     4.3450    -0.3560 C.3   1 <1>  -0.0970 
 16 C        2.6420     8.3690     0.1360 C.3   1 <1>  -0.1600 
 17 C        1.2140     8.9200     0.2100 C.3   1 <1>  -0.2400 
 18 H        1.7640     1.1800     2.1490 H     1 <1>   0.1500 
 19 H       -1.4460     1.5940    -1.0520 H     1 <1>   0.1500 
 20 H        0.9110     2.6160    -1.8520 H     1 <1>   0.1500 
 21 H        3.5230     2.1080    -1.0390 H     1 <1>   0.0800 
 22 H        3.7530     2.2790     0.6890 H     1 <1>   0.0800 
 23 H        2.1470     4.3760     0.0330 H     1 <1>   0.4000 
 24 H        5.2050     7.9630     0.1030 H     1 <1>   0.1500 
 25 H        2.1410     6.4330     0.8940 H     1 <1>   0.0800 
 26 H        2.0790     6.5530    -0.8400 H     1 <1>   0.0800 
 27 H        7.6130     3.3370    -0.7130 H     1 <1>   0.0800 
 28 H        8.1830     4.3300     0.6110 H     1 <1>   0.0800 
 29 H        8.3400     4.8930    -1.0380 H     1 <1>   0.0800 
 30 H        3.1340     8.7910    -0.7250 H     1 <1>   0.0800 
 31 H        3.1770     8.6730     1.0190 H     1 <1>   0.0800 
 32 H        0.6590     8.6520    -0.6720 H     1 <1>   0.0800 
 33 H        1.2380     9.9940     0.2820 H     1 <1>   0.0800 
 34 H        0.7030     8.5320     1.0740 H     1 <1>   0.0800 
@<TRIPOS>BOND
  1   1   2  1   
  2   1   3  1   
  3   2   4  2   
  4   2  18  1   
  5   3   5  2   
  6   3  19  1   
  7   4   5  1   
  8   4   6  1   
  9   5  20  1   
 10   6   7  1   
 11   6  21  1   
 12   6  22  1   
 13   7   8  1   
 14   7  23  1   
 15   8   9  ar  
 16   8  10  ar  
 17   9  11  ar  
 18  10  12  ar  
 19  10  13  1   
 20  11  14  ar  
 21  11  15  1   
 22  12  14  ar  
 23  12  24  1   
 24  13  16  1   
 25  13  25  1   
 26  13  26  1   
 27  15  27  1   
 28  15  28  1   
 29  15  29  1   
 30  16  17  1   
 31  16  30  1   
 32  16  31  1   
 33  17  32  1   
 34  17  33  1   
 35  17  34  1   
@<TRIPOS>SUBSTRUCTURE
  1 ****   7 GROUP 4 **** **** 0

# MOE 2024.06 (io_trps.svl 2023.06)
