@<TRIPOS>MOLECULE
NONAME
57 60 1 0 0 
SMALL
USER_CHARGES


@<TRIPOS>ATOM
  1 O        0.3250     0.4160     0.0620 O.2   1 <1>  -0.5700 
  2 C        1.3830    -0.1090     0.3510 C.2   1 <1>   0.7150 
  3 N        2.3420     0.6630     0.9980 N.am  1 <1>  -0.6600 
  4 C        1.5900    -1.4920    -0.0090 C.2   1 <1>   0.0550 
  5 C        3.4220     0.0730     1.8460 C.3   1 <1>   0.1400 
  6 C        2.1670     2.1400     1.1020 C.3   1 <1>   0.1400 
  7 O        2.7910    -2.0160    -0.0960 O.3   1 <1>  -0.0190 
  8 C        0.7320    -2.4830    -0.3390 C.2   1 <1>  -0.1500 
  9 C        4.7550    -0.0340     1.0760 C.3   1 <1>   0.3430 
 10 C        3.4960     2.8890     0.9500 C.3   1 <1>  -0.1600 
 11 N        2.7860    -3.2630    -0.4380 N.2   1 <1>  -0.4100 
 12 C        1.5450    -3.5780    -0.5970 C.2   1 <1>   0.1080 
 13 N        5.3780     1.2810     0.6880 N.4   1 <1>  -0.9590 
 14 C        4.4640     2.2250    -0.0310 C.3   1 <1>   0.3430 
 15 C        1.0370    -4.9550    -1.0120 C.3   1 <1>   0.1010 
 16 C        6.6050     1.0260    -0.1170 C.3   1 <1>   0.4860 
 17 C        1.4270    -6.0160     0.0240 C.3   1 <1>  -0.2400 
 18 C        1.5710    -5.3390    -2.3980 C.3   1 <1>  -0.2400 
 19 C        7.4160     2.3070    -0.2060 C.ar  1 <1>  -0.1440 
 20 C        8.0980     2.7880     0.9030 C.ar  1 <1>  -0.1500 
 21 C        7.4900     3.0070    -1.4020 C.ar  1 <1>  -0.1500 
 22 C        8.8330     3.9560     0.8170 C.ar  1 <1>  -0.1500 
 23 C        8.2280     4.1740    -1.4850 C.ar  1 <1>  -0.1500 
 24 C        8.9090     4.6660    -0.3760 C.ar  1 <1>  -0.0230 
 25 N        9.6730     5.8600    -0.4630 N.pl3 1 <1>   0.3260 
 26 C        9.3490     7.0340    -1.0690 C.2   1 <1>   0.0360 
 27 C       10.9050     6.0990     0.0410 C.2   1 <1>  -0.3020 
 28 N       10.2520     7.9560    -0.9870 N.2   1 <1>  -0.5650 
 29 C       11.2380     7.3660    -0.2850 C.2   1 <1>   0.0770 
 30 H        3.1240    -0.9120     2.1660 H     1 <1>   0.0800 
 31 H        3.5550     0.6600     2.7380 H     1 <1>   0.0800 
 32 H        1.7070     2.3820     2.0460 H     1 <1>   0.0800 
 33 H        1.4990     2.4760     0.3240 H     1 <1>   0.0800 
 34 H       -0.3410    -2.4420    -0.3960 H     1 <1>   0.1500 
 35 H        4.5840    -0.6200     0.1890 H     1 <1>   0.0800 
 36 H        5.4500    -0.5840     1.6890 H     1 <1>   0.0800 
 37 H        3.9590     3.0310     1.9100 H     1 <1>   0.0800 
 38 H        3.2610     3.8710     0.5780 H     1 <1>   0.0800 
 39 H        5.6920     1.7680     1.5360 H     1 <1>   0.4500 
 40 H        5.0490     3.0030    -0.4940 H     1 <1>   0.0800 
 41 H        3.9170     1.7120    -0.8070 H     1 <1>   0.0800 
 42 H       -0.0380    -4.9170    -1.0660 H     1 <1>   0.0800 
 43 H        6.3400     0.6840    -1.1040 H     1 <1>   0.0800 
 44 H        7.2070     0.2650     0.3540 H     1 <1>   0.0800 
 45 H        2.4980    -6.0940     0.0950 H     1 <1>   0.0800 
 46 H        1.0280    -6.9750    -0.2520 H     1 <1>   0.0800 
 47 H        1.0390    -5.7480     0.9900 H     1 <1>   0.0800 
 48 H        2.6450    -5.4010    -2.3810 H     1 <1>   0.0800 
 49 H        1.2840    -4.5970    -3.1210 H     1 <1>   0.0800 
 50 H        1.1740    -6.2900    -2.7040 H     1 <1>   0.0800 
 51 H        8.0750     2.2610     1.8420 H     1 <1>   0.1500 
 52 H        6.9830     2.6520    -2.2840 H     1 <1>   0.1500 
 53 H        9.3570     4.3220     1.6860 H     1 <1>   0.1500 
 54 H        8.2840     4.7020    -2.4230 H     1 <1>   0.1500 
 55 H        8.4060     7.1600    -1.5680 H     1 <1>   0.1500 
 56 H       11.4640     5.3630     0.5870 H     1 <1>   0.1500 
 57 H       12.1470     7.8960    -0.0510 H     1 <1>   0.1500 
@<TRIPOS>BOND
  1   1   2  2   
  2   2   3  am  
  3   2   4  1   
  4   3   5  1   
  5   3   6  1   
  6   4   7  1   
  7   4   8  2   
  8   5   9  1   
  9   5  30  1   
 10   5  31  1   
 11   6  10  1   
 12   6  32  1   
 13   6  33  1   
 14   7  11  1   
 15   8  12  1   
 16   8  34  1   
 17   9  13  1   
 18   9  35  1   
 19   9  36  1   
 20  10  14  1   
 21  10  37  1   
 22  10  38  1   
 23  11  12  2   
 24  12  15  1   
 25  13  14  1   
 26  13  16  1   
 27  13  39  1   
 28  14  40  1   
 29  14  41  1   
 30  15  17  1   
 31  15  18  1   
 32  15  42  1   
 33  16  19  1   
 34  16  43  1   
 35  16  44  1   
 36  17  45  1   
 37  17  46  1   
 38  17  47  1   
 39  18  48  1   
 40  18  49  1   
 41  18  50  1   
 42  19  20  ar  
 43  19  21  ar  
 44  20  22  ar  
 45  20  51  1   
 46  21  23  ar  
 47  21  52  1   
 48  22  24  ar  
 49  22  53  1   
 50  23  24  ar  
 51  23  54  1   
 52  24  25  1   
 53  25  26  1   
 54  25  27  1   
 55  26  28  2   
 56  26  55  1   
 57  27  29  2   
 58  27  56  1   
 59  28  29  1   
 60  29  57  1   
@<TRIPOS>SUBSTRUCTURE
  1 ****  13 GROUP 4 **** **** 0

# MOE 2024.06 (io_trps.svl 2023.06)
