@<TRIPOS>MOLECULE
NONAME
61 64 1 0 0 
SMALL
USER_CHARGES


@<TRIPOS>ATOM
  1 O        0.6870    -1.0150    -1.8570 O.3   1 <1>  -0.6800 
  2 C        0.1130    -1.6710    -0.7810 C.3   1 <1>   0.1200 
  3 C        1.1540    -2.0620     0.3110 C.3   1 <1>   0.0000 
  4 C        2.4770    -2.6850    -0.2310 C.3   1 <1>   0.4230 
  5 C        1.5010    -0.8100     1.1630 C.3   1 <1>  -0.1600 
  6 C        0.4830    -3.1110     1.2460 C.3   1 <1>  -0.1600 
  7 N        2.2620    -3.9460    -1.0630 N.4   1 <1>  -0.9590 
  8 C        3.4640    -1.6540    -0.8460 C.3   1 <1>   0.2090 
  9 C        2.4320     0.1890     0.4690 C.3   1 <1>   0.2090 
 10 C        0.8170    -4.5740     0.8820 C.3   1 <1>  -0.1600 
 11 C        1.0950    -4.7720    -0.6100 C.3   1 <1>   0.3430 
 12 C        2.1430    -3.6900    -2.5370 C.3   1 <1>   0.2630 
 13 N        3.7000    -0.5040     0.0830 N.pl3 1 <1>  -0.8380 
 14 C        4.9150     0.0830     0.2770 C.ar  1 <1>   0.4100 
 15 N        4.9490     1.3970     0.3770 N.ar  1 <1>  -0.6200 
 16 C        6.0940    -0.6810     0.3650 C.ar  1 <1>  -0.1500 
 17 C        6.1170     2.0010     0.5430 C.ar  1 <1>   0.7710 
 18 C        7.2830    -0.0510     0.5300 C.ar  1 <1>   0.2170 
 19 N        7.2610     1.2990     0.6090 N.ar  1 <1>  -0.1790 
 20 N        6.1700     3.3580     0.6410 N.pl3 1 <1>  -0.8380 
 21 C        8.6160    -0.7720     0.6350 C.3   1 <1>  -0.0960 
 22 C        7.3580     4.1950     0.9980 C.3   1 <1>   0.2090 
 23 C        4.9700     4.2150     0.3630 C.3   1 <1>   0.2090 
 24 C        7.7180     5.0900    -0.1910 C.3   1 <1>  -0.1600 
 25 C        5.2720     5.1280    -0.8300 C.3   1 <1>  -0.1600 
 26 C        6.5320     5.9760    -0.5990 C.3   1 <1>  -0.1600 
 27 H        0.0090    -0.5150    -2.3620 H     1 <1>   0.4000 
 28 H       -0.6350    -1.0190    -0.3590 H     1 <1>   0.0800 
 29 H       -0.3910    -2.5370    -1.1700 H     1 <1>   0.0800 
 30 H        2.9850    -3.0130     0.6590 H     1 <1>   0.0800 
 31 H        1.9950    -1.1050     2.0720 H     1 <1>   0.0800 
 32 H        0.6000    -0.2980     1.4520 H     1 <1>   0.0800 
 33 H        0.7900    -2.9640     2.2680 H     1 <1>   0.0800 
 34 H       -0.5860    -2.9750     1.2380 H     1 <1>   0.0800 
 35 H        3.1000    -4.5240    -0.9180 H     1 <1>   0.4500 
 36 H        3.0790    -1.2580    -1.7670 H     1 <1>   0.0800 
 37 H        4.3920    -2.1450    -1.0670 H     1 <1>   0.0800 
 38 H        2.6350     0.9970     1.1530 H     1 <1>   0.0800 
 39 H        1.9690     0.6110    -0.4060 H     1 <1>   0.0800 
 40 H       -0.0050    -5.2050     1.1740 H     1 <1>   0.0800 
 41 H        1.6760    -4.9040     1.4400 H     1 <1>   0.0800 
 42 H        0.2130    -4.4870    -1.1610 H     1 <1>   0.0800 
 43 H        1.2840    -5.8140    -0.8110 H     1 <1>   0.0800 
 44 H        1.2750    -3.0890    -2.7470 H     1 <1>   0.0800 
 45 H        2.0490    -4.6220    -3.0720 H     1 <1>   0.0800 
 46 H        3.0130    -3.1730    -2.9070 H     1 <1>   0.0800 
 47 H        6.0290    -1.7500     0.3150 H     1 <1>   0.1500 
 48 H        8.1010     1.8520     0.7010 H     1 <1>   0.4570 
 49 H        8.4770    -1.8370     0.5610 H     1 <1>   0.0800 
 50 H        9.0850    -0.5610     1.5800 H     1 <1>   0.0800 
 51 H        9.2730    -0.4650    -0.1600 H     1 <1>   0.0800 
 52 H        7.1080     4.8150     1.8450 H     1 <1>   0.0800 
 53 H        8.2080     3.6000     1.2780 H     1 <1>   0.0800 
 54 H        4.0930     3.6310     0.1410 H     1 <1>   0.0800 
 55 H        4.7490     4.8120     1.2320 H     1 <1>   0.0800 
 56 H        8.5530     5.7160     0.0710 H     1 <1>   0.0800 
 57 H        8.0150     4.4770    -1.0250 H     1 <1>   0.0800 
 58 H        5.3970     4.5200    -1.7090 H     1 <1>   0.0800 
 59 H        4.4310     5.7760    -1.0010 H     1 <1>   0.0800 
 60 H        6.7730     6.5210    -1.4960 H     1 <1>   0.0800 
 61 H        6.3380     6.6930     0.1800 H     1 <1>   0.0800 
@<TRIPOS>BOND
  1   1   2  1   
  2   1  27  1   
  3   2   3  1   
  4   2  28  1   
  5   2  29  1   
  6   3   4  1   
  7   3   5  1   
  8   3   6  1   
  9   4   7  1   
 10   4   8  1   
 11   4  30  1   
 12   5   9  1   
 13   5  31  1   
 14   5  32  1   
 15   6  10  1   
 16   6  33  1   
 17   6  34  1   
 18   7  11  1   
 19   7  12  1   
 20   7  35  1   
 21   8  13  1   
 22   8  36  1   
 23   8  37  1   
 24   9  13  1   
 25   9  38  1   
 26   9  39  1   
 27  10  11  1   
 28  10  40  1   
 29  10  41  1   
 30  11  42  1   
 31  11  43  1   
 32  12  44  1   
 33  12  45  1   
 34  12  46  1   
 35  13  14  1   
 36  14  15  ar  
 37  14  16  ar  
 38  15  17  ar  
 39  16  18  ar  
 40  16  47  1   
 41  17  19  ar  
 42  17  20  1   
 43  18  19  ar  
 44  18  21  1   
 45  19  48  1   
 46  20  22  1   
 47  20  23  1   
 48  21  49  1   
 49  21  50  1   
 50  21  51  1   
 51  22  24  1   
 52  22  52  1   
 53  22  53  1   
 54  23  25  1   
 55  23  54  1   
 56  23  55  1   
 57  24  26  1   
 58  24  56  1   
 59  24  57  1   
 60  25  26  1   
 61  25  58  1   
 62  25  59  1   
 63  26  60  1   
 64  26  61  1   
@<TRIPOS>SUBSTRUCTURE
  1 ****  13 GROUP 4 **** **** 0

# MOE 2024.06 (io_trps.svl 2023.06)
