@<TRIPOS>MOLECULE
NONAME
44 46 1 0 0 
SMALL
USER_CHARGES


@<TRIPOS>ATOM
  1 CL      -4.2110    -0.7530    -2.8910 Cl    1 <1>  -0.1770 
  2 C       -3.2430     0.3130    -1.8960 C.ar  1 <1>   0.1770 
  3 C       -2.9540    -0.0180    -0.5750 C.ar  1 <1>   0.0830 
  4 C       -2.7860     1.4880    -2.4640 C.ar  1 <1>  -0.1500 
  5 O       -3.4380    -1.1880    -0.0740 O.3   1 <1>  -0.3630 
  6 C       -2.1820     0.8690     0.1750 C.ar  1 <1>  -0.1500 
  7 C       -2.0230     2.3590    -1.7070 C.ar  1 <1>  -0.1500 
  8 C       -3.3470    -1.4810     1.3160 C.3   1 <1>   0.1810 
  9 C       -1.7230     2.0470    -0.3910 C.ar  1 <1>  -0.1500 
 10 C       -4.0230    -2.8000     1.6930 C.2   1 <1>   0.5690 
 11 O       -3.3260    -3.6070     2.2650 O.2   1 <1>  -0.5700 
 12 N       -5.3600    -3.0530     1.4580 N.am  1 <1>  -0.6600 
 13 C       -6.2500    -2.0970     0.7300 C.3   1 <1>   0.2200 
 14 C       -5.9500    -4.3560     1.9010 C.3   1 <1>   0.0600 
 15 C       -6.5660    -2.5660    -0.6830 C.3   1 <1>  -0.1600 
 16 C       -7.6210    -1.8800     1.3660 C.3   1 <1>  -0.1600 
 17 C       -7.7650    -1.7080    -1.0990 C.3   1 <1>  -0.0800 
 18 C       -8.4870    -1.3310     0.2210 C.3   1 <1>  -0.0800 
 19 C       -8.6340    -2.3790    -2.1810 C.3   1 <1>   0.1400 
 20 C       -9.9520    -1.8030     0.2930 C.3   1 <1>  -0.0990 
 21 N       -9.9990    -1.8150    -2.1550 N.am  1 <1>  -0.7300 
 22 C      -10.6610    -1.5300    -1.0150 C.2   1 <1>   0.5690 
 23 O      -11.7790    -1.0840    -1.0280 O.2   1 <1>  -0.5700 
 24 H       -3.0250     1.7150    -3.4870 H     1 <1>   0.1500 
 25 H       -1.9200     0.6640     1.1960 H     1 <1>   0.1500 
 26 H       -1.6620     3.2770    -2.1400 H     1 <1>   0.1500 
 27 H       -2.3050    -1.5430     1.5720 H     1 <1>   0.0800 
 28 H       -3.8060    -0.6800     1.8640 H     1 <1>   0.0800 
 29 H       -1.1270     2.7270     0.1950 H     1 <1>   0.1500 
 30 H       -5.7840    -1.1310     0.6600 H     1 <1>   0.0800 
 31 H       -6.6720    -4.7130     1.1900 H     1 <1>   0.0800 
 32 H       -6.4280    -4.2280     2.8560 H     1 <1>   0.0800 
 33 H       -5.1840    -5.1060     2.0000 H     1 <1>   0.0800 
 34 H       -5.7260    -2.4290    -1.3390 H     1 <1>   0.0800 
 35 H       -6.8440    -3.6040    -0.6770 H     1 <1>   0.0800 
 36 H       -8.0340    -2.8090     1.7130 H     1 <1>   0.0800 
 37 H       -7.5660    -1.1870     2.1860 H     1 <1>   0.0800 
 38 H       -7.3770    -0.7960    -1.5220 H     1 <1>   0.0800 
 39 H       -8.4900    -0.2550     0.2830 H     1 <1>   0.0800 
 40 H       -8.7040    -3.4390    -2.0000 H     1 <1>   0.0800 
 41 H       -8.1910    -2.2290    -3.1510 H     1 <1>   0.0800 
 42 H      -10.4650    -1.3010     1.0920 H     1 <1>   0.0800 
 43 H      -10.0000    -2.8610     0.4720 H     1 <1>   0.0800 
 44 H      -10.4890    -1.6590    -3.0390 H     1 <1>   0.3700 
@<TRIPOS>BOND
  1   1   2  1   
  2   2   3  ar  
  3   2   4  ar  
  4   3   5  1   
  5   3   6  ar  
  6   4   7  ar  
  7   4  24  1   
  8   5   8  1   
  9   6   9  ar  
 10   6  25  1   
 11   7   9  ar  
 12   7  26  1   
 13   8  10  1   
 14   8  27  1   
 15   8  28  1   
 16   9  29  1   
 17  10  11  2   
 18  10  12  am  
 19  12  13  1   
 20  12  14  1   
 21  13  15  1   
 22  13  16  1   
 23  13  30  1   
 24  14  31  1   
 25  14  32  1   
 26  14  33  1   
 27  15  17  1   
 28  15  34  1   
 29  15  35  1   
 30  16  18  1   
 31  16  36  1   
 32  16  37  1   
 33  17  18  1   
 34  17  19  1   
 35  17  38  1   
 36  18  20  1   
 37  18  39  1   
 38  19  21  1   
 39  19  40  1   
 40  19  41  1   
 41  20  22  1   
 42  20  42  1   
 43  20  43  1   
 44  21  22  am  
 45  21  44  1   
 46  22  23  2   
@<TRIPOS>SUBSTRUCTURE
  1 ****  13 GROUP 4 **** **** 0

# MOE 2024.06 (io_trps.svl 2023.06)
