@<TRIPOS>MOLECULE
NONAME
57 59 1 0 0 
SMALL
USER_CHARGES


@<TRIPOS>ATOM
  1 O        1.0560     1.1680     1.0450 O.3   1 <1>  -0.5600 
  2 C        0.6240     2.0570     2.0330 C.3   1 <1>   0.1200 
  3 C        1.5090     1.7920    -0.1230 C.3   1 <1>   0.1200 
  4 C       -0.5630     2.8980     1.5240 C.3   1 <1>   0.2090 
  5 C        0.3770     2.6110    -0.7670 C.3   1 <1>   0.2090 
  6 N       -0.2300     3.5690     0.2210 N.pl3 1 <1>  -0.8380 
  7 C       -0.0220     4.9030     0.1080 C.ar  1 <1>   0.7710 
  8 N        1.1130     5.3530    -0.3680 N.ar  1 <1>  -0.6200 
  9 N       -1.0220     5.7150     0.4850 N.ar  1 <1>  -0.1790 
 10 C        1.2790     6.6720    -0.4700 C.ar  1 <1>   0.4100 
 11 C       -0.9130     7.0500     0.4080 C.ar  1 <1>   0.4610 
 12 N        2.4840     7.1030    -0.9710 N.pl3 1 <1>  -0.8380 
 13 C        0.2680     7.5440    -0.0790 C.ar  1 <1>  -0.1500 
 14 N       -1.9480     7.8330     0.8030 N.pl3 1 <1>  -0.9000 
 15 C        2.7940     8.5140    -1.3420 C.3   1 <1>   0.2090 
 16 C        3.5180     6.1080    -1.4190 C.3   1 <1>   0.1290 
 17 C        3.3550     9.2720    -0.1270 C.3   1 <1>  -0.0800 
 18 C        3.6950    10.7280    -0.4440 C.3   1 <1>   0.3430 
 19 C        4.6510     8.6990     0.4440 C.3   1 <1>  -0.1600 
 20 N        4.9420    11.0510     0.3210 N.4   1 <1>  -0.9590 
 21 C        5.2750     9.8750     1.1700 C.3   1 <1>   0.3430 
 22 C        4.8290    12.2990     1.1470 C.3   1 <1>   0.3430 
 23 C        4.6910    13.5680     0.2980 C.3   1 <1>   0.1200 
 24 O        4.4260    14.6110     1.1720 O.3   1 <1>  -0.5600 
 25 C        4.3250    15.8630     0.5670 C.3   1 <1>   0.0400 
 26 H        1.4500     2.6880     2.3130 H     1 <1>   0.0800 
 27 H        0.3290     1.4750     2.8880 H     1 <1>   0.0800 
 28 H        1.8430     1.0240    -0.7970 H     1 <1>   0.0800 
 29 H        2.3440     2.4250     0.1220 H     1 <1>   0.0800 
 30 H       -0.8160     3.6250     2.2760 H     1 <1>   0.0800 
 31 H       -1.4100     2.2480     1.3850 H     1 <1>   0.0800 
 32 H       -0.3830     1.9340    -1.1190 H     1 <1>   0.0800 
 33 H        0.7620     3.1380    -1.6230 H     1 <1>   0.0800 
 34 H       -1.8820     5.2610     0.7480 H     1 <1>   0.4570 
 35 H        0.3970     8.6020    -0.1540 H     1 <1>   0.1500 
 36 H       -1.9130     8.8590     0.7400 H     1 <1>   0.4000 
 37 H       -2.8500     7.5110     1.1740 H     1 <1>   0.4000 
 38 H        1.9040     8.9960    -1.7070 H     1 <1>   0.0800 
 39 H        3.5090     8.5260    -2.1480 H     1 <1>   0.0800 
 40 H        3.6840     5.3750    -0.6480 H     1 <1>   0.0800 
 41 H        4.4560     6.5860    -1.6360 H     1 <1>   0.0800 
 42 H        3.1730     5.6030    -2.3060 H     1 <1>   0.0800 
 43 H        2.6090     9.2790     0.6480 H     1 <1>   0.0800 
 44 H        2.8800    11.3710    -0.1520 H     1 <1>   0.0800 
 45 H        3.8760    10.8480    -1.5000 H     1 <1>   0.0800 
 46 H        5.3130     8.3790    -0.3410 H     1 <1>   0.0800 
 47 H        4.4700     7.8700     1.1080 H     1 <1>   0.0800 
 48 H        5.7140    11.1690    -0.3510 H     1 <1>   0.4500 
 49 H        6.3400     9.7530     1.2920 H     1 <1>   0.0800 
 50 H        4.8140     9.9780     2.1400 H     1 <1>   0.0800 
 51 H        5.7050    12.4030     1.7660 H     1 <1>   0.0800 
 52 H        3.9690    12.2250     1.7930 H     1 <1>   0.0800 
 53 H        3.8690    13.4960    -0.3910 H     1 <1>   0.0800 
 54 H        5.6090    13.7820    -0.2230 H     1 <1>   0.0800 
 55 H        4.1130    16.5890     1.3330 H     1 <1>   0.0800 
 56 H        3.5230    15.8530    -0.1500 H     1 <1>   0.0800 
 57 H        5.2580    16.1090     0.0910 H     1 <1>   0.0800 
@<TRIPOS>BOND
  1   1   2  1   
  2   1   3  1   
  3   2   4  1   
  4   2  26  1   
  5   2  27  1   
  6   3   5  1   
  7   3  28  1   
  8   3  29  1   
  9   4   6  1   
 10   4  30  1   
 11   4  31  1   
 12   5   6  1   
 13   5  32  1   
 14   5  33  1   
 15   6   7  1   
 16   7   8  ar  
 17   7   9  ar  
 18   8  10  ar  
 19   9  11  ar  
 20   9  34  1   
 21  10  12  1   
 22  10  13  ar  
 23  11  13  ar  
 24  11  14  1   
 25  12  15  1   
 26  12  16  1   
 27  13  35  1   
 28  14  36  1   
 29  14  37  1   
 30  15  17  1   
 31  15  38  1   
 32  15  39  1   
 33  16  40  1   
 34  16  41  1   
 35  16  42  1   
 36  17  18  1   
 37  17  19  1   
 38  17  43  1   
 39  18  20  1   
 40  18  44  1   
 41  18  45  1   
 42  19  21  1   
 43  19  46  1   
 44  19  47  1   
 45  20  21  1   
 46  20  22  1   
 47  20  48  1   
 48  21  49  1   
 49  21  50  1   
 50  22  23  1   
 51  22  51  1   
 52  22  52  1   
 53  23  24  1   
 54  23  53  1   
 55  23  54  1   
 56  24  25  1   
 57  25  55  1   
 58  25  56  1   
 59  25  57  1   
@<TRIPOS>SUBSTRUCTURE
  1 ****  10 GROUP 4 **** **** 0

# MOE 2024.06 (io_trps.svl 2023.06)
