@<TRIPOS>MOLECULE
NONAME
59 63 1 0 0 
SMALL
USER_CHARGES


@<TRIPOS>ATOM
  1 O        0.2140     0.3170    -0.7500 O.2   1 <1>  -0.5700 
  2 C       -0.1560     1.3910    -0.3160 C.2   1 <1>   0.5440 
  3 N       -1.4780     1.5540     0.0420 N.am  1 <1>  -0.6600 
  4 C        0.7960     2.4770    -0.2130 C.ar  1 <1>   0.0860 
  5 C       -2.0750     2.8640     0.4530 C.3   1 <1>   0.1400 
  6 C       -2.4580     0.4360    -0.1220 C.3   1 <1>   0.1400 
  7 C        1.3610     3.0410    -1.3540 C.ar  1 <1>  -0.1500 
  8 C        1.1640     3.0150     1.0190 C.ar  1 <1>  -0.1500 
  9 C       -3.1080     3.3510    -0.5840 C.3   1 <1>   0.1440 
 10 C       -3.9100     0.9420    -0.2020 C.3   1 <1>  -0.1600 
 11 C        2.2300     4.1120    -1.2700 C.ar  1 <1>  -0.1500 
 12 C        2.0330     4.0860     1.1030 C.ar  1 <1>  -0.1500 
 13 C       -3.8770     4.4880     0.0680 C.ar  1 <1>   0.1670 
 14 C       -4.0180     2.1960    -1.0860 C.3   1 <1>  -0.1600 
 15 C       -2.4140     4.0780    -1.7670 C.3   1 <1>  -0.1600 
 16 C        2.5880     4.6610    -0.0400 C.ar  1 <1>   0.0860 
 17 N       -4.8220     4.3540     0.9720 N.ar  1 <1>  -0.6200 
 18 C       -3.4470     5.7030    -0.3770 C.ar  1 <1>  -0.1430 
 19 C       -2.3440     5.5690    -1.3970 C.3   1 <1>  -0.0170 
 20 C        3.4930     5.7900     0.0360 C.2   1 <1>   0.5440 
 21 C       -5.3330     5.4980     1.4050 C.ar  1 <1>   0.4770 
 22 C       -4.0430     6.8240     0.1430 C.ar  1 <1>   0.1600 
 23 O        3.2850     6.7640    -0.6630 O.2   1 <1>  -0.5700 
 24 N        4.5890     5.7890     0.8730 N.am  1 <1>  -0.6600 
 25 N       -4.9990     6.7300     1.0440 N.ar  1 <1>  -0.6200 
 26 C       -6.4310     5.3900     2.4340 C.3   1 <1>  -0.0970 
 27 C        5.4070     7.0170     1.1130 C.3   1 <1>   0.1400 
 28 C        5.2310     4.5470     1.4020 C.3   1 <1>   0.1400 
 29 C        6.8650     6.7900     0.6830 C.3   1 <1>   0.1200 
 30 C        6.7020     4.4660     0.9570 C.3   1 <1>   0.1200 
 31 O        7.3850     5.6400     1.2910 O.3   1 <1>  -0.5600 
 32 H       -1.3260     3.6200     0.5910 H     1 <1>   0.0800 
 33 H       -2.5640     2.7270     1.4030 H     1 <1>   0.0800 
 34 H       -2.3530    -0.2530     0.6990 H     1 <1>   0.0800 
 35 H       -2.2250    -0.0960    -1.0300 H     1 <1>   0.0800 
 36 H        1.1060     2.6270    -2.3150 H     1 <1>   0.1500 
 37 H        0.7510     2.5840     1.9160 H     1 <1>   0.1500 
 38 H       -4.2690     1.1640     0.7880 H     1 <1>   0.0800 
 39 H       -4.5340     0.1600    -0.5990 H     1 <1>   0.0800 
 40 H        2.6450     4.5400    -2.1670 H     1 <1>   0.1500 
 41 H        2.2890     4.4940     2.0660 H     1 <1>   0.1500 
 42 H       -3.7260     1.9110    -2.0820 H     1 <1>   0.0800 
 43 H       -5.0410     2.5260    -1.1310 H     1 <1>   0.0800 
 44 H       -3.0260     3.9920    -2.6480 H     1 <1>   0.0800 
 45 H       -1.4440     3.6690    -1.9890 H     1 <1>   0.0800 
 46 H       -2.5100     6.1990    -2.2540 H     1 <1>   0.0800 
 47 H       -1.3970     5.8070    -0.9440 H     1 <1>   0.0800 
 48 H       -3.7360     7.8050    -0.1770 H     1 <1>   0.1500 
 49 H       -6.4080     4.4250     2.9070 H     1 <1>   0.0800 
 50 H       -7.3810     5.5240     1.9520 H     1 <1>   0.0800 
 51 H       -6.3050     6.1490     3.1830 H     1 <1>   0.0800 
 52 H        5.3830     7.2570     2.1610 H     1 <1>   0.0800 
 53 H        5.0050     7.8580     0.5750 H     1 <1>   0.0800 
 54 H        4.7180     3.6700     1.0520 H     1 <1>   0.0800 
 55 H        5.1880     4.5560     2.4770 H     1 <1>   0.0800 
 56 H        7.4740     7.6240     0.9810 H     1 <1>   0.0800 
 57 H        6.9290     6.6780    -0.3860 H     1 <1>   0.0800 
 58 H        6.7680     4.3190    -0.1070 H     1 <1>   0.0800 
 59 H        7.1950     3.6480     1.4510 H     1 <1>   0.0800 
@<TRIPOS>BOND
  1   1   2  2   
  2   2   3  am  
  3   2   4  1   
  4   3   5  1   
  5   3   6  1   
  6   4   7  ar  
  7   4   8  ar  
  8   5   9  1   
  9   5  32  1   
 10   5  33  1   
 11   6  10  1   
 12   6  34  1   
 13   6  35  1   
 14   7  11  ar  
 15   7  36  1   
 16   8  12  ar  
 17   8  37  1   
 18   9  13  1   
 19   9  14  1   
 20   9  15  1   
 21  10  14  1   
 22  10  38  1   
 23  10  39  1   
 24  11  16  ar  
 25  11  40  1   
 26  12  16  ar  
 27  12  41  1   
 28  13  17  ar  
 29  13  18  ar  
 30  14  42  1   
 31  14  43  1   
 32  15  19  1   
 33  15  44  1   
 34  15  45  1   
 35  16  20  1   
 36  17  21  ar  
 37  18  19  1   
 38  18  22  ar  
 39  19  46  1   
 40  19  47  1   
 41  20  23  2   
 42  20  24  am  
 43  21  25  ar  
 44  21  26  1   
 45  22  25  ar  
 46  22  48  1   
 47  24  27  1   
 48  24  28  1   
 49  26  49  1   
 50  26  50  1   
 51  26  51  1   
 52  27  29  1   
 53  27  52  1   
 54  27  53  1   
 55  28  30  1   
 56  28  54  1   
 57  28  55  1   
 58  29  31  1   
 59  29  56  1   
 60  29  57  1   
 61  30  31  1   
 62  30  58  1   
 63  30  59  1   
@<TRIPOS>SUBSTRUCTURE
  1 ****   8 GROUP 4 **** **** 0

# MOE 2024.06 (io_trps.svl 2023.06)
