@<TRIPOS>MOLECULE
NONAME
41 42 1 0 0 
SMALL
USER_CHARGES


@<TRIPOS>ATOM
  1 F       -0.3600     2.1060    -1.8690 F     1 <1>  -0.1900 
  2 C       -0.0250     2.5630    -0.6880 C.ar  1 <1>   0.1900 
  3 C       -0.8880     2.4730     0.4100 C.ar  1 <1>   0.0830 
  4 C        1.2280     3.1400    -0.5920 C.ar  1 <1>  -0.1500 
  5 O       -2.1370     1.9270     0.4360 O.3   1 <1>  -0.3630 
  6 C       -0.4410     2.9920     1.6160 C.ar  1 <1>  -0.1500 
  7 C        1.6570     3.6490     0.6260 C.ar  1 <1>  -0.1430 
  8 C       -2.7330     1.3160    -0.6860 C.3   1 <1>   0.0400 
  9 C        0.8120     3.5730     1.7250 C.ar  1 <1>  -0.1500 
 10 C        3.0280     4.2900     0.7530 C.3   1 <1>   0.3530 
 11 N        2.8620     5.7440     0.5970 N.pl3 1 <1>  -0.8690 
 12 C        3.8890     6.5940     0.2740 C.ar  1 <1>   0.4100 
 13 N        5.1090     6.1060     0.3500 N.ar  1 <1>  -0.6200 
 14 C        3.6510     7.9080    -0.1120 C.ar  1 <1>  -0.1430 
 15 C        6.0830     6.9330     0.0370 C.ar  1 <1>   0.4770 
 16 C        4.7590     8.6630    -0.4140 C.ar  1 <1>   0.1600 
 17 C        2.2160     8.4430    -0.1820 C.3   1 <1>  -0.0170 
 18 N        5.9870     8.1910    -0.3460 N.ar  1 <1>  -0.6200 
 19 C        7.4860     6.3830     0.1250 C.3   1 <1>  -0.0970 
 20 C        2.0840     9.9250    -0.5630 C.3   1 <1>  -0.1600 
 21 C        0.6160    10.3640    -0.5870 C.3   1 <1>  -0.2400 
 22 H        1.8570     3.1910    -1.4630 H     1 <1>   0.1500 
 23 H       -1.0860     2.9380     2.4750 H     1 <1>   0.1500 
 24 H       -3.7000     0.9500    -0.3940 H     1 <1>   0.0800 
 25 H       -2.1150     0.4950    -1.0080 H     1 <1>   0.0800 
 26 H       -2.8410     2.0470    -1.4670 H     1 <1>   0.0800 
 27 H        1.1310     3.9710     2.6740 H     1 <1>   0.1500 
 28 H        3.6920     3.9120    -0.0070 H     1 <1>   0.0800 
 29 H        3.4570     4.0800     1.7180 H     1 <1>   0.0800 
 30 H        1.9090     6.0170     0.3600 H     1 <1>   0.4000 
 31 H        4.6630     9.6890    -0.7220 H     1 <1>   0.1500 
 32 H        1.7570     8.2970     0.7810 H     1 <1>   0.0800 
 33 H        1.6710     7.8540    -0.8980 H     1 <1>   0.0800 
 34 H        7.4670     5.3270     0.3190 H     1 <1>   0.0800 
 35 H        8.0110     6.8770     0.9200 H     1 <1>   0.0800 
 36 H        8.0000     6.5600    -0.8010 H     1 <1>   0.0800 
 37 H        2.5110    10.0880    -1.5380 H     1 <1>   0.0800 
 38 H        2.6170    10.5310     0.1500 H     1 <1>   0.0800 
 39 H        0.0610     9.7900    -1.3080 H     1 <1>   0.0800 
 40 H        0.5480    11.4040    -0.8560 H     1 <1>   0.0800 
 41 H        0.1660    10.2340     0.3810 H     1 <1>   0.0800 
@<TRIPOS>BOND
  1   1   2  1   
  2   2   3  ar  
  3   2   4  ar  
  4   3   5  1   
  5   3   6  ar  
  6   4   7  ar  
  7   4  22  1   
  8   5   8  1   
  9   6   9  ar  
 10   6  23  1   
 11   7   9  ar  
 12   7  10  1   
 13   8  24  1   
 14   8  25  1   
 15   8  26  1   
 16   9  27  1   
 17  10  11  1   
 18  10  28  1   
 19  10  29  1   
 20  11  12  1   
 21  11  30  1   
 22  12  13  ar  
 23  12  14  ar  
 24  13  15  ar  
 25  14  16  ar  
 26  14  17  1   
 27  15  18  ar  
 28  15  19  1   
 29  16  18  ar  
 30  16  31  1   
 31  17  20  1   
 32  17  32  1   
 33  17  33  1   
 34  19  34  1   
 35  19  35  1   
 36  19  36  1   
 37  20  21  1   
 38  20  37  1   
 39  20  38  1   
 40  21  39  1   
 41  21  40  1   
 42  21  41  1   
@<TRIPOS>SUBSTRUCTURE
  1 ****  11 GROUP 4 **** **** 0

# MOE 2024.06 (io_trps.svl 2023.06)
