@<TRIPOS>MOLECULE
NONAME
45 46 1 0 0 
SMALL
USER_CHARGES


@<TRIPOS>ATOM
  1 S        1.2850    -0.6260     1.4590 S.o2  1 <1>   1.4470 
  2 O        2.5520    -1.2540     1.1530 O.2   1 <1>  -0.6500 
  3 O        1.0630    -0.0950     2.7820 O.2   1 <1>  -0.6500 
  4 N        0.1300    -1.8300     1.2860 N.am  1 <1>  -0.9140 
  5 C        0.8280     0.5670     0.1590 C.ar  1 <1>  -0.0090 
  6 C        0.3780    -2.7550     0.1880 C.3   1 <1>   0.2760 
  7 C       -0.3560     1.3130     0.1790 C.ar  1 <1>  -0.1430 
  8 C        1.6800     0.7320    -0.9300 C.ar  1 <1>  -0.1500 
  9 C       -0.9270    -3.4250    -0.2150 C.3   1 <1>  -0.0800 
 10 C        1.1610    -3.9650     0.6910 C.3   1 <1>   0.1200 
 11 C       -0.6550     2.1770    -0.8650 C.ar  1 <1>  -0.1500 
 12 C       -1.3480     1.2170     1.3320 C.3   1 <1>  -0.0970 
 13 C        1.3800     1.5950    -1.9670 C.ar  1 <1>  -0.1500 
 14 C       -1.0360    -4.6010     0.7660 C.3   1 <1>   0.1200 
 15 C       -2.1570    -2.4940    -0.2270 C.3   1 <1>  -0.0550 
 16 O        0.2190    -4.7340     1.3700 O.3   1 <1>  -0.5600 
 17 C        0.2060     2.3180    -1.9350 C.ar  1 <1>  -0.1500 
 18 S       -3.6180    -3.2710    -0.9070 S.o2  1 <1>   1.3330 
 19 O       -4.0630    -4.3120    -0.0080 O.2   1 <1>  -0.6500 
 20 O       -3.3350    -3.5900    -2.2880 O.2   1 <1>  -0.6500 
 21 N       -4.7660    -2.0210    -0.8690 N.am  1 <1>  -0.8490 
 22 C       -5.7840    -2.1730    -1.9130 C.3   1 <1>   0.1160 
 23 C       -5.4130    -1.8640     0.4380 C.3   1 <1>   0.1160 
 24 H        0.2090    -2.3870     2.1390 H     1 <1>   0.4200 
 25 H        0.8530    -2.2640    -0.6470 H     1 <1>   0.0800 
 26 H        2.6030     0.1770    -0.9710 H     1 <1>   0.1500 
 27 H       -0.8000    -3.8350    -1.2030 H     1 <1>   0.0800 
 28 H        1.9700    -3.7130     1.3530 H     1 <1>   0.0800 
 29 H        1.5350    -4.5490    -0.1330 H     1 <1>   0.0800 
 30 H       -1.5650     2.7520    -0.8510 H     1 <1>   0.1500 
 31 H       -2.2280     1.8040     1.1360 H     1 <1>   0.0800 
 32 H       -0.8990     1.5860     2.2370 H     1 <1>   0.0800 
 33 H       -1.6580     0.2010     1.4870 H     1 <1>   0.0800 
 34 H        2.0580     1.7030    -2.7970 H     1 <1>   0.1500 
 35 H       -1.2820    -5.5210     0.2630 H     1 <1>   0.0800 
 36 H       -1.7540    -4.4130     1.5460 H     1 <1>   0.0800 
 37 H       -1.9260    -1.6260    -0.8150 H     1 <1>   0.0800 
 38 H       -2.3670    -2.1640     0.7710 H     1 <1>   0.0800 
 39 H       -0.0370     2.9920    -2.7390 H     1 <1>   0.1500 
 40 H       -6.4860    -1.3570    -1.8740 H     1 <1>   0.0800 
 41 H       -6.3130    -3.1030    -1.7890 H     1 <1>   0.0800 
 42 H       -5.3190    -2.1680    -2.8850 H     1 <1>   0.0800 
 43 H       -6.0640    -1.0060     0.4280 H     1 <1>   0.0800 
 44 H       -4.6720    -1.7180     1.2050 H     1 <1>   0.0800 
 45 H       -5.9920    -2.7410     0.6800 H     1 <1>   0.0800 
@<TRIPOS>BOND
  1   1   2  2   
  2   1   3  2   
  3   1   4  am  
  4   1   5  1   
  5   4   6  1   
  6   4  24  1   
  7   5   7  ar  
  8   5   8  ar  
  9   6   9  1   
 10   6  10  1   
 11   6  25  1   
 12   7  11  ar  
 13   7  12  1   
 14   8  13  ar  
 15   8  26  1   
 16   9  14  1   
 17   9  15  1   
 18   9  27  1   
 19  10  16  1   
 20  10  28  1   
 21  10  29  1   
 22  11  17  ar  
 23  11  30  1   
 24  12  31  1   
 25  12  32  1   
 26  12  33  1   
 27  13  17  ar  
 28  13  34  1   
 29  14  16  1   
 30  14  35  1   
 31  14  36  1   
 32  15  18  1   
 33  15  37  1   
 34  15  38  1   
 35  17  39  1   
 36  18  19  2   
 37  18  20  2   
 38  18  21  am  
 39  21  22  1   
 40  21  23  1   
 41  22  40  1   
 42  22  41  1   
 43  22  42  1   
 44  23  43  1   
 45  23  44  1   
 46  23  45  1   
@<TRIPOS>SUBSTRUCTURE
  1 ****  15 GROUP 4 **** **** 0

# MOE 2024.06 (io_trps.svl 2023.06)
