@<TRIPOS>MOLECULE
NONAME
43 42 1 0 0 
SMALL
USER_CHARGES


@<TRIPOS>ATOM
  1 SI      -0.3120     0.4300    -0.5530 Si    1 <1>   0.5390 
  2 O        0.2160     1.5790     0.5100 O.3   1 <1>  -0.5770 
  3 C       -1.5070    -0.6620     0.3280 C.3   1 <1>  -0.0810 
  4 C        1.1230    -0.5230    -1.1000 C.3   1 <1>  -0.3200 
  5 C       -1.0890     1.1780    -2.0020 C.3   1 <1>  -0.3200 
  6 C        0.7470     2.8580     0.3360 C.3   1 <1>   0.2000 
  7 C       -2.0570    -1.7910    -0.5640 C.3   1 <1>  -0.2400 
  8 C       -0.8670    -1.3360     1.5560 C.3   1 <1>  -0.2400 
  9 C       -2.7230     0.1280     0.8460 C.3   1 <1>  -0.2400 
 10 C        1.9710     2.8050    -0.5830 C.3   1 <1>  -0.0990 
 11 C       -0.3300     3.8730    -0.1000 C.3   1 <1>  -0.0220 
 12 C        2.6850     4.1330    -0.5910 C.2   1 <1>   0.6590 
 13 C       -1.5860     3.8160     0.7590 C.2   1 <1>  -0.2880 
 14 O        2.6190     4.8760    -1.5350 O.2   1 <1>  -0.5700 
 15 O        3.3720     4.4330     0.5030 O.3   1 <1>  -0.4300 
 16 C       -2.8350     3.7570     0.2880 C.2   1 <1>  -0.3000 
 17 C        4.0760     5.6510     0.6250 C.3   1 <1>   0.0400 
 18 H        0.8440    -1.3450    -1.7320 H     1 <1>   0.0800 
 19 H        1.6650    -0.9370    -0.2710 H     1 <1>   0.0800 
 20 H        1.8190     0.0700    -1.6600 H     1 <1>   0.0800 
 21 H       -1.4400     0.4380    -2.6950 H     1 <1>   0.0800 
 22 H       -0.4180     1.8110    -2.5510 H     1 <1>   0.0800 
 23 H       -1.9400     1.7760    -1.7390 H     1 <1>   0.0800 
 24 H        1.0820     3.1540     1.3150 H     1 <1>   0.0800 
 25 H       -2.7490    -2.4090    -0.0180 H     1 <1>   0.0800 
 26 H       -1.2580    -2.4180    -0.9180 H     1 <1>   0.0800 
 27 H       -2.5730    -1.3850    -1.4150 H     1 <1>   0.0800 
 28 H       -1.5820    -1.9440     2.0820 H     1 <1>   0.0800 
 29 H       -0.4940    -0.5900     2.2370 H     1 <1>   0.0800 
 30 H       -0.0450    -1.9630     1.2620 H     1 <1>   0.0800 
 31 H       -3.4030    -0.5100     1.3820 H     1 <1>   0.0800 
 32 H       -3.2580     0.5820     0.0310 H     1 <1>   0.0800 
 33 H       -2.4010     0.9120     1.5100 H     1 <1>   0.0800 
 34 H        1.6780     2.5750    -1.5890 H     1 <1>   0.0800 
 35 H        2.6560     2.0570    -0.2310 H     1 <1>   0.0800 
 36 H        0.0810     4.8630    -0.0120 H     1 <1>   0.0800 
 37 H       -0.5790     3.7370    -1.1360 H     1 <1>   0.0800 
 38 H       -1.3690     3.8270     1.8140 H     1 <1>   0.1500 
 39 H       -3.7080     3.7130     0.9150 H     1 <1>   0.1500 
 40 H       -3.0900     3.7460    -0.7570 H     1 <1>   0.1500 
 41 H        4.5550     5.6740     1.5870 H     1 <1>   0.0800 
 42 H        3.3790     6.4660     0.5380 H     1 <1>   0.0800 
 43 H        4.8120     5.7070    -0.1580 H     1 <1>   0.0800 
@<TRIPOS>BOND
  1   1   2  1   
  2   1   3  1   
  3   1   4  1   
  4   1   5  1   
  5   2   6  1   
  6   3   7  1   
  7   3   8  1   
  8   3   9  1   
  9   4  18  1   
 10   4  19  1   
 11   4  20  1   
 12   5  21  1   
 13   5  22  1   
 14   5  23  1   
 15   6  10  1   
 16   6  11  1   
 17   6  24  1   
 18   7  25  1   
 19   7  26  1   
 20   7  27  1   
 21   8  28  1   
 22   8  29  1   
 23   8  30  1   
 24   9  31  1   
 25   9  32  1   
 26   9  33  1   
 27  10  12  1   
 28  10  34  1   
 29  10  35  1   
 30  11  13  1   
 31  11  36  1   
 32  11  37  1   
 33  12  14  2   
 34  12  15  1   
 35  13  16  2   
 36  13  38  1   
 37  15  17  1   
 38  16  39  1   
 39  16  40  1   
 40  17  41  1   
 41  17  42  1   
 42  17  43  1   
@<TRIPOS>SUBSTRUCTURE
  1 ****   2 GROUP 4 **** **** 0

# MOE 2024.06 (io_trps.svl 2023.06)
