@<TRIPOS>MOLECULE
NONAME
46 47 1 0 0 
SMALL
USER_CHARGES


@<TRIPOS>ATOM
  1 O        1.8100    -1.3330     1.8350 O.co2 1 <1>  -0.9000 
  2 C        1.4520    -0.1800     1.5630 C.2   1 <1>   0.9060 
  3 O        0.5960     0.4130     2.2240 O.co2 1 <1>  -0.9000 
  4 C        2.1810     0.5770     0.4380 C.3   1 <1>  -0.1060 
  5 C        3.5250    -0.1470     0.1500 C.3   1 <1>   0.2000 
  6 C        2.4830     2.0260     0.9250 C.3   1 <1>  -0.1600 
  7 C        1.3380     0.5710    -0.8760 C.3   1 <1>  -0.1600 
  8 O        4.2200    -0.3220     1.3430 O.3   1 <1>  -0.6800 
  9 C        4.4280     0.6870    -0.7670 C.3   1 <1>   0.3430 
 10 C        3.4870     2.7810     0.0580 C.3   1 <1>   0.3430 
 11 C       -0.0700     1.1840    -0.7760 C.3   1 <1>  -0.1600 
 12 N        4.7280     1.9640    -0.0570 N.4   1 <1>  -0.9590 
 13 C       -0.8030     1.0930    -2.1170 C.3   1 <1>  -0.2400 
 14 C        5.8940     2.6790    -0.6500 C.3   1 <1>   0.3430 
 15 C        6.4600     3.7440     0.2920 C.3   1 <1>   0.0960 
 16 N        7.5740     4.4230    -0.3830 N.pl3 1 <1>   0.3140 
 17 N        7.5940     4.5470    -1.7230 N.2   1 <1>  -0.7070 
 18 C        8.6620     4.9930     0.1810 C.2   1 <1>  -0.3320 
 19 C        8.6910     5.1910    -1.9820 C.2   1 <1>   0.1390 
 20 C        9.4020     5.4970    -0.8290 C.2   1 <1>  -0.1500 
 21 C        8.9640     5.0450     1.6700 C.3   1 <1>  -0.0600 
 22 H        3.3470    -1.1230    -0.2700 H     1 <1>   0.0800 
 23 H        2.8740     1.9790     1.9270 H     1 <1>   0.0800 
 24 H        1.5730     2.5920     0.9980 H     1 <1>   0.0800 
 25 H        1.8620     1.0810    -1.6620 H     1 <1>   0.0800 
 26 H        1.2170    -0.4550    -1.1830 H     1 <1>   0.0800 
 27 H        3.6020    -0.8640     1.9170 H     1 <1>   0.4000 
 28 H        3.9410     0.8770    -1.7080 H     1 <1>   0.0800 
 29 H        5.3330     0.1340    -0.9510 H     1 <1>   0.0800 
 30 H        3.7010     3.7320     0.5160 H     1 <1>   0.0800 
 31 H        3.0660     2.9570    -0.9190 H     1 <1>   0.0800 
 32 H       -0.6460     0.6580    -0.0310 H     1 <1>   0.0800 
 33 H       -0.0200     2.2160    -0.4800 H     1 <1>   0.0800 
 34 H        4.9430     1.6110     0.8970 H     1 <1>   0.4500 
 35 H       -0.9050     0.0650    -2.4180 H     1 <1>   0.0800 
 36 H       -0.2710     1.6310    -2.8810 H     1 <1>   0.0800 
 37 H       -1.7880     1.5160    -2.0220 H     1 <1>   0.0800 
 38 H        6.6770     1.9720    -0.8680 H     1 <1>   0.0800 
 39 H        5.5970     3.1450    -1.5760 H     1 <1>   0.0800 
 40 H        6.8250     3.2890     1.1920 H     1 <1>   0.0800 
 41 H        5.7190     4.4840     0.5250 H     1 <1>   0.0800 
 42 H        9.0070     5.4560    -2.9780 H     1 <1>   0.1500 
 43 H       10.3380     6.0250    -0.7880 H     1 <1>   0.1500 
 44 H        9.8830     5.5780     1.8400 H     1 <1>   0.0800 
 45 H        9.0720     4.0520     2.0680 H     1 <1>   0.0800 
 46 H        8.1760     5.5550     2.1960 H     1 <1>   0.0800 
@<TRIPOS>BOND
  1   1   2  ar  
  2   2   3  ar  
  3   2   4  1   
  4   4   5  1   
  5   4   6  1   
  6   4   7  1   
  7   5   8  1   
  8   5   9  1   
  9   5  22  1   
 10   6  10  1   
 11   6  23  1   
 12   6  24  1   
 13   7  11  1   
 14   7  25  1   
 15   7  26  1   
 16   8  27  1   
 17   9  12  1   
 18   9  28  1   
 19   9  29  1   
 20  10  12  1   
 21  10  30  1   
 22  10  31  1   
 23  11  13  1   
 24  11  32  1   
 25  11  33  1   
 26  12  14  1   
 27  12  34  1   
 28  13  35  1   
 29  13  36  1   
 30  13  37  1   
 31  14  15  1   
 32  14  38  1   
 33  14  39  1   
 34  15  16  1   
 35  15  40  1   
 36  15  41  1   
 37  16  17  1   
 38  16  18  1   
 39  17  19  2   
 40  18  20  2   
 41  18  21  1   
 42  19  20  1   
 43  19  42  1   
 44  20  43  1   
 45  21  44  1   
 46  21  45  1   
 47  21  46  1   
@<TRIPOS>SUBSTRUCTURE
  1 ****  12 GROUP 4 **** **** 0

# MOE 2024.06 (io_trps.svl 2023.06)
