@<TRIPOS>MOLECULE
NONAME
46 48 1 0 0 
SMALL
USER_CHARGES


@<TRIPOS>ATOM
  1 S        0.5400     0.1570    -0.3050 S.o2  1 <1>   1.3330 
  2 O        1.4520    -0.0400     0.8000 O.2   1 <1>  -0.6500 
  3 O        1.0130    -0.0110    -1.6600 O.2   1 <1>  -0.6500 
  4 N       -0.7870    -0.8760    -0.0730 N.am  1 <1>  -0.8490 
  5 C       -0.1880     1.7890    -0.1830 C.3   1 <1>  -0.0550 
  6 C       -0.5960    -2.1760    -0.7230 C.3   1 <1>   0.1160 
  7 C       -1.1340    -1.0710     1.3390 C.3   1 <1>   0.1160 
  8 C        0.8200     2.9250    -0.4480 C.3   1 <1>  -0.0800 
  9 C        0.1890     4.3170    -0.5290 C.3   1 <1>   0.2000 
 10 C        1.9140     3.0660     0.6210 C.3   1 <1>   0.1400 
 11 O       -0.7090     4.4700     0.5180 O.3   1 <1>  -0.6800 
 12 C        1.3690     5.2540    -0.2880 C.3   1 <1>   0.1400 
 13 N        2.2200     4.5200     0.6790 N.am  1 <1>  -0.6600 
 14 C        2.9360     5.0980     1.7060 C.2   1 <1>   0.7160 
 15 O        3.2110     4.3940     2.6620 O.2   1 <1>  -0.5700 
 16 C        3.3260     6.4820     1.7330 C.2   1 <1>  -0.0860 
 17 C        3.6030     7.4080     0.7550 C.2   1 <1>  -0.0260 
 18 C        3.5400     7.1880     2.9170 C.2   1 <1>   0.1390 
 19 N        3.6050     7.3080    -0.6190 N.2   1 <1>  -0.5760 
 20 N        3.9410     8.5680     1.4090 N.pl3 1 <1>   0.6010 
 21 N        3.8950     8.4260     2.7450 N.2   1 <1>  -0.7070 
 22 C        3.9490     8.3690    -1.2790 C.2   1 <1>   0.3760 
 23 C        4.2980     9.6860     0.6920 C.2   1 <1>  -0.1810 
 24 C        4.3090     9.6040    -0.6650 C.2   1 <1>  -0.1240 
 25 C        4.6930    10.7860    -1.5400 C.3   1 <1>  -0.1020 
 26 H       -0.9800     1.8620    -0.9030 H     1 <1>   0.0800 
 27 H       -0.6220     1.9130     0.7890 H     1 <1>   0.0800 
 28 H       -1.4610    -2.7990    -0.5730 H     1 <1>   0.0800 
 29 H        0.2730    -2.6710    -0.3220 H     1 <1>   0.0800 
 30 H       -0.4590    -2.0420    -1.7830 H     1 <1>   0.0800 
 31 H       -2.0300    -1.6640     1.4200 H     1 <1>   0.0800 
 32 H       -1.3130    -0.1210     1.8130 H     1 <1>   0.0800 
 33 H       -0.3340    -1.5720     1.8580 H     1 <1>   0.0800 
 34 H        1.3100     2.7350    -1.3890 H     1 <1>   0.0800 
 35 H       -0.3240     4.5070    -1.4570 H     1 <1>   0.0800 
 36 H        2.7960     2.5040     0.3600 H     1 <1>   0.0800 
 37 H        1.5600     2.7360     1.5840 H     1 <1>   0.0800 
 38 H       -0.2050     4.5050     1.3570 H     1 <1>   0.4000 
 39 H        1.0530     6.2120     0.0870 H     1 <1>   0.0800 
 40 H        1.9180     5.3870    -1.2040 H     1 <1>   0.0800 
 41 H        3.4230     6.7460     3.8940 H     1 <1>   0.1500 
 42 H        3.9640     8.3250    -2.3540 H     1 <1>   0.0600 
 43 H        4.5500    10.5570     1.2670 H     1 <1>   0.1500 
 44 H        5.5490    10.5370    -2.1430 H     1 <1>   0.0800 
 45 H        4.9380    11.6430    -0.9370 H     1 <1>   0.0800 
 46 H        3.8750    11.0480    -2.1880 H     1 <1>   0.0800 
@<TRIPOS>BOND
  1   1   2  2   
  2   1   3  2   
  3   1   4  am  
  4   1   5  1   
  5   4   6  1   
  6   4   7  1   
  7   5   8  1   
  8   5  26  1   
  9   5  27  1   
 10   6  28  1   
 11   6  29  1   
 12   6  30  1   
 13   7  31  1   
 14   7  32  1   
 15   7  33  1   
 16   8   9  1   
 17   8  10  1   
 18   8  34  1   
 19   9  11  1   
 20   9  12  1   
 21   9  35  1   
 22  10  13  1   
 23  10  36  1   
 24  10  37  1   
 25  11  38  1   
 26  12  13  1   
 27  12  39  1   
 28  12  40  1   
 29  13  14  am  
 30  14  15  2   
 31  14  16  1   
 32  16  17  2   
 33  16  18  1   
 34  17  19  1   
 35  17  20  1   
 36  18  21  2   
 37  18  41  1   
 38  19  22  2   
 39  20  21  1   
 40  20  23  1   
 41  22  24  1   
 42  22  42  1   
 43  23  24  2   
 44  23  43  1   
 45  24  25  1   
 46  25  44  1   
 47  25  45  1   
 48  25  46  1   
@<TRIPOS>SUBSTRUCTURE
  1 ****  13 GROUP 4 **** **** 0

# MOE 2024.06 (io_trps.svl 2023.06)
