@<TRIPOS>MOLECULE
NONAME
45 47 1 0 0 
SMALL
USER_CHARGES


@<TRIPOS>ATOM
  1 F       -0.3820     0.2880    -0.9710 F     1 <1>  -0.3400 
  2 C        0.8260     0.8070    -0.7790 C.3   1 <1>   1.1640 
  3 F        1.3030     1.0980    -1.9820 F     1 <1>  -0.3400 
  4 F        0.6270     1.9730    -0.1750 F     1 <1>  -0.3400 
  5 C        1.7440    -0.1550     0.0060 C.ar  1 <1>  -0.1440 
  6 C        2.1690    -1.3880    -0.5100 C.ar  1 <1>  -0.1440 
  7 C        2.1750     0.2160     1.2800 C.ar  1 <1>  -0.1500 
  8 C        3.0180    -2.1870     0.2460 C.ar  1 <1>  -0.1500 
  9 C        1.7570    -1.9300    -1.8890 C.3   1 <1>   0.0450 
 10 C        3.0090    -0.5960     2.0240 C.ar  1 <1>  -0.1500 
 11 C        3.4350    -1.8000     1.5040 C.ar  1 <1>  -0.1500 
 12 C        1.3590    -3.4010    -1.8720 C.2   1 <1>   0.5690 
 13 O        2.0690    -4.1860    -2.4550 O.2   1 <1>  -0.5700 
 14 N        0.2280    -3.8160    -1.2210 N.am  1 <1>  -0.6600 
 15 C       -0.6920    -2.9700    -0.4200 C.3   1 <1>   0.1400 
 16 C       -0.1490    -5.2440    -1.1160 C.3   1 <1>   0.1400 
 17 C       -1.7160    -3.9410     0.1700 C.3   1 <1>   0.2000 
 18 C       -1.0670    -5.3220     0.1040 C.3   1 <1>  -0.0800 
 19 O       -2.0190    -3.6220     1.4840 O.3   1 <1>  -0.6800 
 20 C       -2.0930    -6.4630     0.0360 C.3   1 <1>  -0.0170 
 21 C       -1.4050    -7.8170    -0.0370 C.ar  1 <1>  -0.1430 
 22 C       -0.9250    -8.4440     1.0950 C.ar  1 <1>  -0.1500 
 23 C       -1.2220    -8.4870    -1.2300 C.ar  1 <1>  -0.1500 
 24 C       -0.3010    -9.6760     0.9820 C.ar  1 <1>   0.1600 
 25 C       -0.5830    -9.7160    -1.2330 C.ar  1 <1>   0.1600 
 26 N       -0.1180   -10.3270    -0.1550 N.ar  1 <1>  -0.6200 
 27 H        1.8680     1.1510     1.7190 H     1 <1>   0.1500 
 28 H        3.3690    -3.1300    -0.1420 H     1 <1>   0.1500 
 29 H        2.5910    -1.8150    -2.5590 H     1 <1>   0.0800 
 30 H        0.9370    -1.3920    -2.3170 H     1 <1>   0.0800 
 31 H        3.3300    -0.2900     3.0050 H     1 <1>   0.1500 
 32 H        4.0910    -2.4350     2.0740 H     1 <1>   0.1500 
 33 H       -0.1410    -2.4780     0.3630 H     1 <1>   0.0800 
 34 H       -1.1790    -2.2460    -1.0490 H     1 <1>   0.0800 
 35 H       -0.6710    -5.5310    -2.0120 H     1 <1>   0.0800 
 36 H        0.7210    -5.8690    -0.9950 H     1 <1>   0.0800 
 37 H       -2.6260    -3.9050    -0.4060 H     1 <1>   0.0800 
 38 H       -0.4350    -5.4620     0.9640 H     1 <1>   0.0800 
 39 H       -1.2130    -3.6480     2.0350 H     1 <1>   0.4000 
 40 H       -2.7310    -6.3330    -0.8220 H     1 <1>   0.0800 
 41 H       -2.7200    -6.4300     0.9110 H     1 <1>   0.0800 
 42 H       -1.0310    -7.9880     2.0620 H     1 <1>   0.1500 
 43 H       -1.5670    -8.0680    -2.1570 H     1 <1>   0.1500 
 44 H        0.0670   -10.1510     1.8760 H     1 <1>   0.1500 
 45 H       -0.4470   -10.2240    -2.1720 H     1 <1>   0.1500 
@<TRIPOS>BOND
  1   1   2  1   
  2   2   3  1   
  3   2   4  1   
  4   2   5  1   
  5   5   6  ar  
  6   5   7  ar  
  7   6   8  ar  
  8   6   9  1   
  9   7  10  ar  
 10   7  27  1   
 11   8  11  ar  
 12   8  28  1   
 13   9  12  1   
 14   9  29  1   
 15   9  30  1   
 16  10  11  ar  
 17  10  31  1   
 18  11  32  1   
 19  12  13  2   
 20  12  14  am  
 21  14  15  1   
 22  14  16  1   
 23  15  17  1   
 24  15  33  1   
 25  15  34  1   
 26  16  18  1   
 27  16  35  1   
 28  16  36  1   
 29  17  18  1   
 30  17  19  1   
 31  17  37  1   
 32  18  20  1   
 33  18  38  1   
 34  19  39  1   
 35  20  21  1   
 36  20  40  1   
 37  20  41  1   
 38  21  22  ar  
 39  21  23  ar  
 40  22  24  ar  
 41  22  42  1   
 42  23  25  ar  
 43  23  43  1   
 44  24  26  ar  
 45  24  44  1   
 46  25  26  ar  
 47  25  45  1   
@<TRIPOS>SUBSTRUCTURE
  1 ****  14 GROUP 4 **** **** 0

# MOE 2024.06 (io_trps.svl 2023.06)
