@<TRIPOS>MOLECULE
NONAME
42 45 1 0 0 
SMALL
USER_CHARGES


@<TRIPOS>ATOM
  1 O        0.9640    -0.3630     2.0710 O.3   1 <1>  -0.0190 
  2 N        1.2380     0.8910     1.8800 N.2   1 <1>  -0.4100 
  3 C        1.5100    -0.9680     1.0480 C.2   1 <1>   0.2980 
  4 C        1.9110     0.9840     0.7870 C.2   1 <1>   0.5150 
  5 N        2.1090    -0.2120     0.2220 N.2   1 <1>  -0.5650 
  6 C        1.3830    -2.4840     0.9390 C.3   1 <1>   0.2900 
  7 C        2.4030     2.2230     0.2220 C.2   1 <1>   0.1410 
  8 N       -0.0070    -2.9290     0.6890 N.3   1 <1>  -0.8100 
  9 O        3.0960     2.2410    -0.9140 O.3   1 <1>  -0.2800 
 10 C        2.2800     3.5010     0.6730 C.2   1 <1>  -0.1500 
 11 C       -0.5800    -2.3660    -0.5440 C.3   1 <1>   0.1100 
 12 C       -0.1440    -4.3900     0.5830 C.3   1 <1>   0.1100 
 13 C        3.4140     3.4880    -1.1940 C.2   1 <1>  -0.0100 
 14 C        2.9370     4.3220    -0.2470 C.2   1 <1>  -0.1500 
 15 C       -1.7650    -3.2760    -0.8400 C.3   1 <1>   0.2000 
 16 C       -1.2000    -4.6590    -0.5050 C.3   1 <1>  -0.0800 
 17 O       -2.7620    -2.9510     0.0600 O.3   1 <1>  -0.6800 
 18 C       -2.2490    -5.7120    -0.1010 C.3   1 <1>   0.0200 
 19 C       -1.6570    -7.1010     0.0760 C.2   1 <1>  -0.0400 
 20 O       -2.3990    -8.0360     0.6080 O.3   1 <1>  -0.0190 
 21 C       -0.4610    -7.6430    -0.2090 C.2   1 <1>  -0.1500 
 22 N       -1.7650    -9.1690     0.6990 N.2   1 <1>  -0.4100 
 23 C       -0.5950    -8.9630     0.2120 C.2   1 <1>   0.1080 
 24 C        0.4810   -10.0210     0.1160 C.3   1 <1>  -0.0590 
 25 H        1.7330    -2.9210     1.8570 H     1 <1>   0.0800 
 26 H        2.0200    -2.8230     0.1410 H     1 <1>   0.0800 
 27 H        1.7770     3.8330     1.5640 H     1 <1>   0.1500 
 28 H       -0.8850    -1.3410    -0.4140 H     1 <1>   0.0800 
 29 H        0.1330    -2.4270    -1.3490 H     1 <1>   0.0800 
 30 H        0.7900    -4.8510     0.3060 H     1 <1>   0.0800 
 31 H       -0.4570    -4.7840     1.5360 H     1 <1>   0.0800 
 32 H        3.9810     3.6920    -2.0860 H     1 <1>   0.1500 
 33 H        3.0270     5.3920    -0.1850 H     1 <1>   0.1500 
 34 H       -2.1490    -3.1880    -1.8420 H     1 <1>   0.0800 
 35 H       -0.6860    -5.0120    -1.3810 H     1 <1>   0.0800 
 36 H       -2.3170    -2.7870     0.9200 H     1 <1>   0.4000 
 37 H       -3.0180    -5.7610    -0.8510 H     1 <1>   0.0800 
 38 H       -2.7170    -5.4240     0.8240 H     1 <1>   0.0800 
 39 H        0.4130    -7.2100    -0.6550 H     1 <1>   0.1500 
 40 H        0.8240   -10.1030    -0.8990 H     1 <1>   0.0800 
 41 H        0.0890   -10.9730     0.4280 H     1 <1>   0.0800 
 42 H        1.3070    -9.7610     0.7520 H     1 <1>   0.0800 
@<TRIPOS>BOND
  1   1   2  1   
  2   1   3  1   
  3   2   4  2   
  4   3   5  2   
  5   3   6  1   
  6   4   5  1   
  7   4   7  1   
  8   6   8  1   
  9   6  25  1   
 10   6  26  1   
 11   7   9  1   
 12   7  10  2   
 13   8  11  1   
 14   8  12  1   
 15   9  13  1   
 16  10  14  1   
 17  10  27  1   
 18  11  15  1   
 19  11  28  1   
 20  11  29  1   
 21  12  16  1   
 22  12  30  1   
 23  12  31  1   
 24  13  14  2   
 25  13  32  1   
 26  14  33  1   
 27  15  16  1   
 28  15  17  1   
 29  15  34  1   
 30  16  18  1   
 31  16  35  1   
 32  17  36  1   
 33  18  19  1   
 34  18  37  1   
 35  18  38  1   
 36  19  20  1   
 37  19  21  2   
 38  20  22  1   
 39  21  23  1   
 40  21  39  1   
 41  22  23  2   
 42  23  24  1   
 43  24  40  1   
 44  24  41  1   
 45  24  42  1   
@<TRIPOS>SUBSTRUCTURE
  1 ****   8 GROUP 4 **** **** 0

# MOE 2024.06 (io_trps.svl 2023.06)
