@<TRIPOS>MOLECULE
NONAME
46 47 1 0 0 
SMALL
USER_CHARGES


@<TRIPOS>ATOM
  1 O        1.2010    -0.9490     1.9950 O.2   1 <1>  -0.5700 
  2 C        1.5310    -1.3320     0.8980 C.2   1 <1>   0.5690 
  3 N        1.8020    -0.4840    -0.1360 N.am  1 <1>  -0.7300 
  4 C        1.6450    -2.8440     0.6550 C.3   1 <1>   0.1710 
  5 C        1.7060     0.9770    -0.1770 C.3   1 <1>   0.3000 
  6 N        0.4300    -3.5130     0.1080 N.3   1 <1>  -0.8100 
  7 C        0.2650     1.4050     0.1000 C.3   1 <1>  -0.2400 
  8 C        2.1030     1.3980    -1.5900 C.3   1 <1>  -0.2400 
  9 C        2.6760     1.5890     0.8330 C.3   1 <1>  -0.2400 
 10 C       -0.7120    -3.3270     1.0240 C.3   1 <1>   0.2900 
 11 C        0.1040    -3.0490    -1.2510 C.3   1 <1>   0.0300 
 12 C       -1.8580    -4.2270     0.6030 C.2   1 <1>  -0.3320 
 13 N       -1.6170    -5.5310     0.2800 N.pl3 1 <1>   0.0330 
 14 C       -3.1830    -3.9710     0.4660 C.2   1 <1>  -0.1810 
 15 C       -2.8030    -6.1200    -0.0710 C.ar  1 <1>  -0.1520 
 16 C       -3.8080    -5.1650     0.0370 C.ar  1 <1>   0.0000 
 17 C       -3.9320    -2.6750     0.7070 C.3   1 <1>  -0.0590 
 18 C       -3.0890    -7.4230    -0.4850 C.ar  1 <1>  -0.1500 
 19 C       -5.1270    -5.5170    -0.2700 C.ar  1 <1>  -0.1500 
 20 C       -4.3900    -7.7550    -0.7850 C.ar  1 <1>  -0.1500 
 21 C       -5.4100    -6.8010    -0.6760 C.ar  1 <1>  -0.1500 
 22 H        2.0480    -0.8920    -1.0350 H     1 <1>   0.3700 
 23 H        1.8940    -3.3060     1.5940 H     1 <1>   0.0800 
 24 H        2.4700    -3.0240    -0.0090 H     1 <1>   0.0800 
 25 H       -0.4100     0.9300    -0.5880 H     1 <1>   0.0800 
 26 H        0.1680     2.4700    -0.0060 H     1 <1>   0.0800 
 27 H       -0.0210     1.1470     1.1040 H     1 <1>   0.0800 
 28 H        1.4360     0.9680    -2.3160 H     1 <1>   0.0800 
 29 H        3.1110     1.0930    -1.8080 H     1 <1>   0.0800 
 30 H        2.0520     2.4680    -1.6830 H     1 <1>   0.0800 
 31 H        2.3930     1.3300     1.8370 H     1 <1>   0.0800 
 32 H        2.6660     2.6610     0.7540 H     1 <1>   0.0800 
 33 H        3.6780     1.2430     0.6530 H     1 <1>   0.0800 
 34 H       -1.0240    -2.2970     1.0300 H     1 <1>   0.0800 
 35 H       -0.4160    -3.5940     2.0250 H     1 <1>   0.0800 
 36 H        0.9580    -3.1590    -1.8950 H     1 <1>   0.0800 
 37 H       -0.2050    -2.0180    -1.2380 H     1 <1>   0.0800 
 38 H       -0.7000    -3.6390    -1.6600 H     1 <1>   0.0800 
 39 H       -0.6840    -5.9520     0.2380 H     1 <1>   0.2700 
 40 H       -3.2660    -1.9040     1.0440 H     1 <1>   0.0800 
 41 H       -4.6880    -2.8290     1.4560 H     1 <1>   0.0800 
 42 H       -4.4020    -2.3540    -0.2040 H     1 <1>   0.0800 
 43 H       -2.2970    -8.1460    -0.5650 H     1 <1>   0.1500 
 44 H       -5.8980    -4.7760    -0.1830 H     1 <1>   0.1500 
 45 H       -4.6360    -8.7510    -1.1060 H     1 <1>   0.1500 
 46 H       -6.4190    -7.0850    -0.9160 H     1 <1>   0.1500 
@<TRIPOS>BOND
  1   1   2  2   
  2   2   3  am  
  3   2   4  1   
  4   3   5  1   
  5   3  22  1   
  6   4   6  1   
  7   4  23  1   
  8   4  24  1   
  9   5   7  1   
 10   5   8  1   
 11   5   9  1   
 12   6  10  1   
 13   6  11  1   
 14   7  25  1   
 15   7  26  1   
 16   7  27  1   
 17   8  28  1   
 18   8  29  1   
 19   8  30  1   
 20   9  31  1   
 21   9  32  1   
 22   9  33  1   
 23  10  12  1   
 24  10  34  1   
 25  10  35  1   
 26  11  36  1   
 27  11  37  1   
 28  11  38  1   
 29  12  13  1   
 30  12  14  2   
 31  13  15  1   
 32  13  39  1   
 33  14  16  1   
 34  14  17  1   
 35  15  16  ar  
 36  15  18  ar  
 37  16  19  ar  
 38  17  40  1   
 39  17  41  1   
 40  17  42  1   
 41  18  20  ar  
 42  18  43  1   
 43  19  21  ar  
 44  19  44  1   
 45  20  21  ar  
 46  20  45  1   
 47  21  46  1   
@<TRIPOS>SUBSTRUCTURE
  1 ****  10 GROUP 4 **** **** 0

# MOE 2024.06 (io_trps.svl 2023.06)
