@<TRIPOS>MOLECULE
NONAME
51 54 1 0 0 
SMALL
USER_CHARGES


@<TRIPOS>ATOM
  1 O        2.7490    -3.0510     0.5970 O.2   1 <1>  -0.5700 
  2 C        1.6400    -3.3340     0.1990 C.2   1 <1>   0.6900 
  3 N        0.5980    -2.4160     0.1730 N.am  1 <1>  -0.4690 
  4 N        1.3900    -4.5930    -0.2380 N.am  1 <1>  -0.4900 
  5 C       -0.6500    -2.7890    -0.2780 C.2   1 <1>  -0.0410 
  6 C        0.8550    -1.0210     0.6180 C.3   1 <1>   0.0600 
  7 C        0.1760    -5.0030    -0.7020 C.2   1 <1>   0.6160 
  8 C       -0.9040    -4.0630    -0.7010 C.2   1 <1>   0.0290 
  9 O        0.0940    -6.1530    -1.0850 O.2   1 <1>  -0.5700 
 10 C       -2.1930    -4.4720    -1.1670 C.2   1 <1>   0.6160 
 11 O       -2.6730    -3.8810    -2.1180 O.2   1 <1>  -0.5700 
 12 N       -2.9420    -5.4550    -0.5470 N.am  1 <1>  -0.6600 
 13 C       -4.1810    -6.0050    -1.1630 C.3   1 <1>   0.1400 
 14 C       -2.6300    -6.0390     0.7890 C.3   1 <1>   0.1400 
 15 C       -4.0330    -7.5200    -1.3160 C.3   1 <1>  -0.1600 
 16 C       -2.4800    -7.5570     0.6630 C.3   1 <1>  -0.1600 
 17 C       -3.7180    -8.2050     0.0250 C.3   1 <1>   0.4240 
 18 O       -4.7740    -7.9320     0.9170 O.3   1 <1>  -0.5600 
 19 C       -3.5010    -9.7230    -0.1570 C.ar  1 <1>  -0.1430 
 20 C       -5.9030    -8.7460     0.8440 C.3   1 <1>   0.1200 
 21 C       -4.3530   -10.6490     0.4350 C.ar  1 <1>  -0.1430 
 22 C       -2.4450   -10.1950    -0.9310 C.ar  1 <1>  -0.1500 
 23 C       -5.5180   -10.1590     1.2710 C.3   1 <1>  -0.0170 
 24 C       -4.1480   -12.0100     0.2680 C.ar  1 <1>  -0.1500 
 25 C       -2.2420   -11.5520    -1.1020 C.ar  1 <1>  -0.1500 
 26 C       -3.0880   -12.4700    -0.5050 C.ar  1 <1>   0.0830 
 27 O       -2.8200   -13.7820    -0.7210 O.3   1 <1>  -0.3620 
 28 C       -3.6080   -14.7970    -0.1390 C.3   1 <1>   0.0400 
 29 H        2.1600    -5.2530    -0.2460 H     1 <1>   0.3700 
 30 H       -1.4280    -2.0430    -0.2910 H     1 <1>   0.1500 
 31 H        1.6220    -0.5840     0.0020 H     1 <1>   0.0800 
 32 H        1.1910    -1.0260     1.6410 H     1 <1>   0.0800 
 33 H       -0.0380    -0.4280     0.5430 H     1 <1>   0.0800 
 34 H       -4.3580    -5.5650    -2.1300 H     1 <1>   0.0800 
 35 H       -5.0220    -5.7760    -0.5310 H     1 <1>   0.0800 
 36 H       -3.4370    -5.8110     1.4650 H     1 <1>   0.0800 
 37 H       -1.7300    -5.6190     1.1980 H     1 <1>   0.0800 
 38 H       -3.2350    -7.7070    -2.0100 H     1 <1>   0.0800 
 39 H       -4.9250    -7.9370    -1.7440 H     1 <1>   0.0800 
 40 H       -2.3190    -7.9910     1.6320 H     1 <1>   0.0800 
 41 H       -1.6100    -7.7640     0.0700 H     1 <1>   0.0800 
 42 H       -6.2850    -8.7350    -0.1620 H     1 <1>   0.0800 
 43 H       -6.6460    -8.3400     1.5080 H     1 <1>   0.0800 
 44 H       -1.7690    -9.5090    -1.4100 H     1 <1>   0.1500 
 45 H       -6.3660   -10.8080     1.1480 H     1 <1>   0.0800 
 46 H       -5.2420   -10.1550     2.3110 H     1 <1>   0.0800 
 47 H       -4.8200   -12.6980     0.7420 H     1 <1>   0.1500 
 48 H       -1.4230   -11.9080    -1.7000 H     1 <1>   0.1500 
 49 H       -3.2040   -15.7460    -0.4400 H     1 <1>   0.0800 
 50 H       -4.6180   -14.7000    -0.4950 H     1 <1>   0.0800 
 51 H       -3.5630   -14.7020     0.9310 H     1 <1>   0.0800 
@<TRIPOS>BOND
  1   1   2  2   
  2   2   3  am  
  3   2   4  am  
  4   3   5  1   
  5   3   6  1   
  6   4   7  am  
  7   4  29  1   
  8   5   8  2   
  9   5  30  1   
 10   6  31  1   
 11   6  32  1   
 12   6  33  1   
 13   7   8  1   
 14   7   9  2   
 15   8  10  1   
 16  10  11  2   
 17  10  12  am  
 18  12  13  1   
 19  12  14  1   
 20  13  15  1   
 21  13  34  1   
 22  13  35  1   
 23  14  16  1   
 24  14  36  1   
 25  14  37  1   
 26  15  17  1   
 27  15  38  1   
 28  15  39  1   
 29  16  17  1   
 30  16  40  1   
 31  16  41  1   
 32  17  18  1   
 33  17  19  1   
 34  18  20  1   
 35  19  21  ar  
 36  19  22  ar  
 37  20  23  1   
 38  20  42  1   
 39  20  43  1   
 40  21  23  1   
 41  21  24  ar  
 42  22  25  ar  
 43  22  44  1   
 44  23  45  1   
 45  23  46  1   
 46  24  26  ar  
 47  24  47  1   
 48  25  26  ar  
 49  25  48  1   
 50  26  27  1   
 51  27  28  1   
 52  28  49  1   
 53  28  50  1   
 54  28  51  1   
@<TRIPOS>SUBSTRUCTURE
  1 ****  16 GROUP 4 **** **** 0

# MOE 2024.06 (io_trps.svl 2023.06)
