@<TRIPOS>MOLECULE
NONAME
43 46 1 0 0 
SMALL
USER_CHARGES


@<TRIPOS>ATOM
  1 O        0.7200     1.5590    -0.1600 O.2   1 <1>  -0.5700 
  2 C        0.4110     2.7180    -0.2680 C.2   1 <1>   0.5690 
  3 N       -0.4870     3.2760     0.5710 N.am  1 <1>  -0.7300 
  4 C        1.0030     3.5740    -1.3860 C.3   1 <1>   0.1810 
  5 C       -1.0070     4.6600     0.4280 C.3   1 <1>   0.3640 
  6 O        0.9270     4.9520    -1.0970 O.3   1 <1>  -0.5600 
  7 C       -2.5270     4.5730     0.2930 C.ar  1 <1>  -0.1440 
  8 C       -0.3750     5.4290    -0.7680 C.3   1 <1>   0.2610 
  9 C       -3.1240     3.6600    -0.5690 C.ar  1 <1>  -0.1500 
 10 C       -3.3370     5.4190     1.0370 C.ar  1 <1>  -0.1500 
 11 C       -0.3140     6.9300    -0.4490 C.2   1 <1>   0.5690 
 12 C       -4.5020     3.5930    -0.6800 C.ar  1 <1>  -0.1500 
 13 C       -4.7150     5.3540     0.9260 C.ar  1 <1>  -0.1500 
 14 O       -1.3050     7.5150    -0.0840 O.2   1 <1>  -0.5700 
 15 N        0.8650     7.5870    -0.5700 N.am  1 <1>  -0.7300 
 16 C       -5.2990     4.4400     0.0680 C.ar  1 <1>  -0.1500 
 17 C        1.1000     9.0110    -0.2210 C.3   1 <1>   0.3210 
 18 C        2.5750     9.2990     0.0590 C.2   1 <1>   0.3350 
 19 N        3.5440     8.4930    -0.1460 N.2   1 <1>  -0.4100 
 20 N        2.9600    10.4680     0.5540 N.2   1 <1>  -0.5650 
 21 O        4.6320     9.1050     0.2120 O.3   1 <1>  -0.0190 
 22 C        4.2180    10.2790     0.6200 C.2   1 <1>   0.3930 
 23 C        5.2520    11.2750     1.1210 C.3   1 <1>  -0.0150 
 24 C        5.0360    12.7550     1.0150 C.3   1 <1>  -0.2000 
 25 C        6.0600    12.0820     0.1510 C.3   1 <1>  -0.2000 
 26 H       -0.9280     2.6870     1.2780 H     1 <1>   0.3700 
 27 H        0.4790     3.3860    -2.3050 H     1 <1>   0.0800 
 28 H        2.0400     3.3230    -1.5170 H     1 <1>   0.0800 
 29 H       -0.7690     5.1900     1.3340 H     1 <1>   0.0800 
 30 H       -0.9930     5.3030    -1.6380 H     1 <1>   0.0800 
 31 H       -2.5230     2.9890    -1.1580 H     1 <1>   0.1500 
 32 H       -2.9020     6.1450     1.7030 H     1 <1>   0.1500 
 33 H       -4.9550     2.8810    -1.3480 H     1 <1>   0.1500 
 34 H       -5.3330     6.0170     1.5060 H     1 <1>   0.1500 
 35 H        1.7040     7.0520    -0.8300 H     1 <1>   0.3700 
 36 H       -6.3700     4.3900    -0.0180 H     1 <1>   0.1500 
 37 H        0.7730     9.6320    -1.0350 H     1 <1>   0.0800 
 38 H        0.5220     9.2650     0.6500 H     1 <1>   0.0800 
 39 H        5.7520    10.9160     2.0030 H     1 <1>   0.1000 
 40 H        4.1250    13.1100     0.5630 H     1 <1>   0.1000 
 41 H        5.3660    13.3820     1.8250 H     1 <1>   0.1000 
 42 H        7.1040    12.2450     0.3570 H     1 <1>   0.1000 
 43 H        5.8570    11.9800    -0.9020 H     1 <1>   0.1000 
@<TRIPOS>BOND
  1   1   2  2   
  2   2   3  am  
  3   2   4  1   
  4   3   5  1   
  5   3  26  1   
  6   4   6  1   
  7   4  27  1   
  8   4  28  1   
  9   5   7  1   
 10   5   8  1   
 11   5  29  1   
 12   6   8  1   
 13   7   9  ar  
 14   7  10  ar  
 15   8  11  1   
 16   8  30  1   
 17   9  12  ar  
 18   9  31  1   
 19  10  13  ar  
 20  10  32  1   
 21  11  14  2   
 22  11  15  am  
 23  12  16  ar  
 24  12  33  1   
 25  13  16  ar  
 26  13  34  1   
 27  15  17  1   
 28  15  35  1   
 29  16  36  1   
 30  17  18  1   
 31  17  37  1   
 32  17  38  1   
 33  18  19  2   
 34  18  20  1   
 35  19  21  1   
 36  20  22  2   
 37  21  22  1   
 38  22  23  1   
 39  23  24  1   
 40  23  25  1   
 41  23  39  1   
 42  24  25  1   
 43  24  40  1   
 44  24  41  1   
 45  25  42  1   
 46  25  43  1   
@<TRIPOS>SUBSTRUCTURE
  1 ****  11 GROUP 4 **** **** 0

# MOE 2024.06 (io_trps.svl 2023.06)
