@<TRIPOS>MOLECULE
NONAME
51 53 1 0 0 
SMALL
USER_CHARGES


@<TRIPOS>ATOM
  1 S       -0.1970     0.0860     0.5580 S.o2  1 <1>   1.3330 
  2 O       -1.5110    -0.1110     1.1200 O.2   1 <1>  -0.6500 
  3 O        0.9500    -0.6320     1.0630 O.2   1 <1>  -0.6500 
  4 N        0.1600     1.7380     0.6730 N.am  1 <1>  -0.8490 
  5 C       -0.3020    -0.2290    -1.1940 C.3   1 <1>  -0.1350 
  6 C        1.5030     2.1250     0.2310 C.3   1 <1>   0.1960 
  7 C       -0.8860     2.6460     0.1910 C.3   1 <1>   0.1960 
  8 C        1.7760     3.6080     0.5580 C.3   1 <1>   0.2000 
  9 C       -0.5220     4.1110     0.4990 C.3   1 <1>   0.1200 
 10 O        0.7590     4.4250     0.0140 O.3   1 <1>  -0.5600 
 11 C        3.1410     4.0730     0.0170 C.3   1 <1>   0.2090 
 12 N        3.1690     5.5600    -0.0710 N.pl3 1 <1>  -0.8690 
 13 C        4.2170     6.3910    -0.0050 C.ar  1 <1>   0.4610 
 14 N        4.0080     7.7040    -0.0760 N.ar  1 <1>  -0.1790 
 15 C        5.5570     5.9550     0.1350 C.ar  1 <1>  -0.1500 
 16 C        4.9990     8.6700    -0.0130 C.ar  1 <1>   0.3610 
 17 C        6.5920     6.8360     0.2050 C.ar  1 <1>  -0.1440 
 18 C        6.3320     8.2400     0.1330 C.ar  1 <1>   0.0000 
 19 C        4.6790    10.0390    -0.0920 C.ar  1 <1>  -0.1430 
 20 C        8.0210     6.3260     0.3560 C.3   1 <1>  -0.0970 
 21 C        7.3270     9.2240     0.1980 C.ar  1 <1>  -0.1500 
 22 C        5.6930    10.9790    -0.0240 C.ar  1 <1>  -0.1430 
 23 C        3.2110    10.4580    -0.2510 C.3   1 <1>  -0.0970 
 24 C        7.0130    10.5550     0.1210 C.ar  1 <1>  -0.1500 
 25 C        5.4520    12.4840    -0.1000 C.3   1 <1>  -0.0970 
 26 H       -0.5130    -1.2680    -1.3580 H     1 <1>   0.0800 
 27 H        0.6250     0.0070    -1.6770 H     1 <1>   0.0800 
 28 H       -1.0890     0.3480    -1.6350 H     1 <1>   0.0800 
 29 H        1.6040     1.9650    -0.8280 H     1 <1>   0.0800 
 30 H        2.2340     1.5160     0.7370 H     1 <1>   0.0800 
 31 H       -1.8200     2.4100     0.6740 H     1 <1>   0.0800 
 32 H       -1.0210     2.5340    -0.8710 H     1 <1>   0.0800 
 33 H        1.7680     3.7380     1.6270 H     1 <1>   0.0800 
 34 H       -0.5420     4.2810     1.5620 H     1 <1>   0.0800 
 35 H       -1.2280     4.7740     0.0310 H     1 <1>   0.0800 
 36 H        3.2930     3.6630    -0.9670 H     1 <1>   0.0800 
 37 H        3.9220     3.7090     0.6620 H     1 <1>   0.0800 
 38 H        2.1910     5.8730    -0.1940 H     1 <1>   0.4000 
 39 H        3.0550     8.0280    -0.1830 H     1 <1>   0.4570 
 40 H        5.7370     4.8980     0.1830 H     1 <1>   0.1500 
 41 H        8.0490     5.2510     0.3940 H     1 <1>   0.0800 
 42 H        8.4570     6.7020     1.2650 H     1 <1>   0.0800 
 43 H        8.6210     6.6450    -0.4780 H     1 <1>   0.0800 
 44 H        8.3590     8.9420     0.3090 H     1 <1>   0.1500 
 45 H        2.8040    10.0590    -1.1640 H     1 <1>   0.0800 
 46 H        3.0860    11.5240    -0.2950 H     1 <1>   0.0800 
 47 H        2.6290    10.1100     0.5840 H     1 <1>   0.0800 
 48 H        7.8050    11.2850     0.1750 H     1 <1>   0.1500 
 49 H        4.8190    12.8010     0.7100 H     1 <1>   0.0800 
 50 H        4.9870    12.7400    -1.0350 H     1 <1>   0.0800 
 51 H        6.3740    13.0330    -0.0300 H     1 <1>   0.0800 
@<TRIPOS>BOND
  1   1   2  2   
  2   1   3  2   
  3   1   4  am  
  4   1   5  1   
  5   4   6  1   
  6   4   7  1   
  7   5  26  1   
  8   5  27  1   
  9   5  28  1   
 10   6   8  1   
 11   6  29  1   
 12   6  30  1   
 13   7   9  1   
 14   7  31  1   
 15   7  32  1   
 16   8  10  1   
 17   8  11  1   
 18   8  33  1   
 19   9  10  1   
 20   9  34  1   
 21   9  35  1   
 22  11  12  1   
 23  11  36  1   
 24  11  37  1   
 25  12  13  1   
 26  12  38  1   
 27  13  14  ar  
 28  13  15  ar  
 29  14  16  ar  
 30  14  39  1   
 31  15  17  ar  
 32  15  40  1   
 33  16  18  ar  
 34  16  19  ar  
 35  17  18  ar  
 36  17  20  1   
 37  18  21  ar  
 38  19  22  ar  
 39  19  23  1   
 40  20  41  1   
 41  20  42  1   
 42  20  43  1   
 43  21  24  ar  
 44  21  44  1   
 45  22  24  ar  
 46  22  25  1   
 47  23  45  1   
 48  23  46  1   
 49  23  47  1   
 50  24  48  1   
 51  25  49  1   
 52  25  50  1   
 53  25  51  1   
@<TRIPOS>SUBSTRUCTURE
  1 ****  12 GROUP 4 **** **** 0

# MOE 2024.06 (io_trps.svl 2023.06)
