@<TRIPOS>MOLECULE
NONAME
36 38 1 0 0 
SMALL
USER_CHARGES


@<TRIPOS>ATOM
  1 O        0.3530    -0.1450     0.6070 O.3   1 <1>  -0.6800 
  2 C        1.6400    -0.4480     0.1840 C.3   1 <1>   0.3440 
  3 C        1.6520    -1.9100    -0.2680 C.ar  1 <1>  -0.1440 
  4 C        2.6060    -0.1890     1.3500 C.3   1 <1>   0.2090 
  5 C        2.6900    -2.7640     0.1060 C.ar  1 <1>  -0.1440 
  6 C        0.6280    -2.3950    -1.0740 C.ar  1 <1>  -0.1500 
  7 N        3.9280    -0.8260     1.0890 N.pl3 1 <1>  -0.8380 
  8 C        2.6690    -4.0860    -0.3160 C.ar  1 <1>  -0.1500 
  9 C        3.8720    -2.3060     0.9640 C.3   1 <1>   0.3530 
 10 C        0.6180    -3.7140    -1.4890 C.ar  1 <1>  -0.1500 
 11 C        4.9990    -0.1190     0.5980 C.ar  1 <1>   0.7200 
 12 C        1.6390    -4.5620    -1.1060 C.ar  1 <1>  -0.1500 
 13 N        4.7440     1.0760     0.0700 N.ar  1 <1>  -0.6200 
 14 N        6.1950    -0.6950     0.6990 N.ar  1 <1>  -0.6200 
 15 C        5.7730     1.7390    -0.3930 C.ar  1 <1>   0.1670 
 16 C        7.2090    -0.0140     0.2300 C.ar  1 <1>   0.1670 
 17 C        7.0470     1.2280    -0.3350 C.ar  1 <1>  -0.1500 
 18 C        5.4960     3.0980    -0.9980 C.3   1 <1>  -0.0970 
 19 C        8.5750    -0.6570     0.3390 C.3   1 <1>  -0.0970 
 20 H       -0.0310    -0.9560     0.9900 H     1 <1>   0.4000 
 21 H        1.8860     0.2040    -0.6360 H     1 <1>   0.0800 
 22 H        2.2000    -0.6130     2.2500 H     1 <1>   0.0800 
 23 H        2.7160     0.8710     1.4980 H     1 <1>   0.0800 
 24 H       -0.1680    -1.7400    -1.3880 H     1 <1>   0.1500 
 25 H        3.4630    -4.7550    -0.0330 H     1 <1>   0.1500 
 26 H        4.7790    -2.6830     0.5250 H     1 <1>   0.0800 
 27 H        3.7840    -2.7310     1.9490 H     1 <1>   0.0800 
 28 H       -0.1810    -4.0770    -2.1100 H     1 <1>   0.1500 
 29 H        1.6350    -5.5890    -1.4270 H     1 <1>   0.1500 
 30 H        7.8850     1.7780    -0.7170 H     1 <1>   0.1500 
 31 H        4.8200     2.9900    -1.8270 H     1 <1>   0.0800 
 32 H        6.4010     3.5600    -1.3450 H     1 <1>   0.0800 
 33 H        5.0400     3.7330    -0.2600 H     1 <1>   0.0800 
 34 H        8.7950    -0.8570     1.3720 H     1 <1>   0.0800 
 35 H        9.3380    -0.0170    -0.0620 H     1 <1>   0.0800 
 36 H        8.5780    -1.5860    -0.2010 H     1 <1>   0.0800 
@<TRIPOS>BOND
  1   1   2  1   
  2   1  20  1   
  3   2   3  1   
  4   2   4  1   
  5   2  21  1   
  6   3   5  ar  
  7   3   6  ar  
  8   4   7  1   
  9   4  22  1   
 10   4  23  1   
 11   5   8  ar  
 12   5   9  1   
 13   6  10  ar  
 14   6  24  1   
 15   7   9  1   
 16   7  11  1   
 17   8  12  ar  
 18   8  25  1   
 19   9  26  1   
 20   9  27  1   
 21  10  12  ar  
 22  10  28  1   
 23  11  13  ar  
 24  11  14  ar  
 25  12  29  1   
 26  13  15  ar  
 27  14  16  ar  
 28  15  17  ar  
 29  15  18  1   
 30  16  17  ar  
 31  16  19  1   
 32  17  30  1   
 33  18  31  1   
 34  18  32  1   
 35  18  33  1   
 36  19  34  1   
 37  19  35  1   
 38  19  36  1   
@<TRIPOS>SUBSTRUCTURE
  1 ****   7 GROUP 4 **** **** 0

# MOE 2024.06 (io_trps.svl 2023.06)
