@<TRIPOS>MOLECULE
NONAME
52 54 1 0 0 
SMALL
USER_CHARGES


@<TRIPOS>ATOM
  1 O       -1.1960    -2.0990    -0.0590 O.2   1 <1>  -0.5700 
  2 C       -0.1570    -2.6890    -0.2060 C.2   1 <1>   0.5690 
  3 N        0.1010    -3.4000    -1.3230 N.am  1 <1>  -0.7300 
  4 C        0.9070    -2.6650     0.8690 C.3   1 <1>  -0.0990 
  5 C        1.3580    -4.1470    -1.5330 C.3   1 <1>   0.1400 
  6 C        2.3000    -2.4650     0.2430 C.3   1 <1>  -0.0800 
  7 C        2.5540    -3.3130    -1.0300 C.3   1 <1>  -0.0800 
  8 C        3.4460    -2.7780     1.2150 C.3   1 <1>  -0.1600 
  9 C        3.7910    -4.1670    -0.7240 C.3   1 <1>  -0.1600 
 10 C        4.5440    -3.3660     0.3350 C.3   1 <1>   0.2200 
 11 N        5.5430    -4.1670     1.1040 N.am  1 <1>  -0.6600 
 12 C        6.8740    -3.8040     1.1490 C.2   1 <1>   0.7150 
 13 C        5.1230    -5.4890     1.6650 C.3   1 <1>   0.0600 
 14 O        7.7060    -4.6600     1.3880 O.2   1 <1>  -0.5700 
 15 C        7.2960    -2.4560     0.9030 C.2   1 <1>  -0.2370 
 16 N        8.3280    -2.1100     0.0900 N.pl3 1 <1>   0.3140 
 17 C        6.8050    -1.2780     1.3780 C.2   1 <1>  -0.1500 
 18 N        8.4780    -0.7780     0.0060 N.2   1 <1>  -0.7070 
 19 C        9.2260    -3.0100    -0.6710 C.3   1 <1>   0.0960 
 20 C        7.5650    -0.2840     0.7900 C.2   1 <1>   0.1080 
 21 C       10.5100    -3.3060     0.1140 C.3   1 <1>  -0.2400 
 22 C        7.3670     1.2100     1.0270 C.3   1 <1>   0.1010 
 23 C        6.9920     1.9210    -0.2790 C.3   1 <1>  -0.2400 
 24 C        8.6280     1.8360     1.6340 C.3   1 <1>  -0.2400 
 25 H       -0.6320    -3.4470    -2.0350 H     1 <1>   0.3700 
 26 H        0.6960    -1.8750     1.5660 H     1 <1>   0.0800 
 27 H        0.8580    -3.6010     1.3930 H     1 <1>   0.0800 
 28 H        1.2920    -5.0740    -0.9880 H     1 <1>   0.0800 
 29 H        1.4800    -4.3740    -2.5790 H     1 <1>   0.0800 
 30 H        2.3770    -1.4300    -0.0480 H     1 <1>   0.0800 
 31 H        2.8190    -2.6280    -1.8200 H     1 <1>   0.0800 
 32 H        3.1250    -3.5010     1.9420 H     1 <1>   0.0800 
 33 H        3.7780    -1.8910     1.7220 H     1 <1>   0.0800 
 34 H        4.3940    -4.3220    -1.6010 H     1 <1>   0.0800 
 35 H        3.4770    -5.1150    -0.3300 H     1 <1>   0.0800 
 36 H        5.0340    -2.5530    -0.1750 H     1 <1>   0.0800 
 37 H        4.1070    -5.4560     2.0110 H     1 <1>   0.0800 
 38 H        5.7550    -5.7540     2.4960 H     1 <1>   0.0800 
 39 H        5.2190    -6.2480     0.9080 H     1 <1>   0.0800 
 40 H        5.9970    -1.1320     2.0700 H     1 <1>   0.1500 
 41 H        8.7060    -3.9230    -0.8940 H     1 <1>   0.0800 
 42 H        9.4730    -2.5250    -1.5980 H     1 <1>   0.0800 
 43 H       10.2740    -3.8020     1.0400 H     1 <1>   0.0800 
 44 H       11.0320    -2.3890     0.3250 H     1 <1>   0.0800 
 45 H       11.1520    -3.9450    -0.4630 H     1 <1>   0.0800 
 46 H        6.5580     1.3370     1.7250 H     1 <1>   0.0800 
 47 H        7.7860     1.8150    -0.9970 H     1 <1>   0.0800 
 48 H        6.8180     2.9670    -0.1030 H     1 <1>   0.0800 
 49 H        6.1000     1.4840    -0.6910 H     1 <1>   0.0800 
 50 H        9.4560     1.7310     0.9550 H     1 <1>   0.0800 
 51 H        8.8780     1.3350     2.5520 H     1 <1>   0.0800 
 52 H        8.4730     2.8800     1.8380 H     1 <1>   0.0800 
@<TRIPOS>BOND
  1   1   2  2   
  2   2   3  am  
  3   2   4  1   
  4   3   5  1   
  5   3  25  1   
  6   4   6  1   
  7   4  26  1   
  8   4  27  1   
  9   5   7  1   
 10   5  28  1   
 11   5  29  1   
 12   6   7  1   
 13   6   8  1   
 14   6  30  1   
 15   7   9  1   
 16   7  31  1   
 17   8  10  1   
 18   8  32  1   
 19   8  33  1   
 20   9  10  1   
 21   9  34  1   
 22   9  35  1   
 23  10  11  1   
 24  10  36  1   
 25  11  12  am  
 26  11  13  1   
 27  12  14  2   
 28  12  15  1   
 29  13  37  1   
 30  13  38  1   
 31  13  39  1   
 32  15  16  1   
 33  15  17  2   
 34  16  18  1   
 35  16  19  1   
 36  17  20  1   
 37  17  40  1   
 38  18  20  2   
 39  19  21  1   
 40  19  41  1   
 41  19  42  1   
 42  20  22  1   
 43  21  43  1   
 44  21  44  1   
 45  21  45  1   
 46  22  23  1   
 47  22  24  1   
 48  22  46  1   
 49  23  47  1   
 50  23  48  1   
 51  23  49  1   
 52  24  50  1   
 53  24  51  1   
 54  24  52  1   
@<TRIPOS>SUBSTRUCTURE
  1 ****  10 GROUP 4 **** **** 0

# MOE 2024.06 (io_trps.svl 2023.06)
