@<TRIPOS>MOLECULE
NONAME
52 54 1 0 0 
SMALL
USER_CHARGES


@<TRIPOS>ATOM
  1 O       -2.7520     0.5300    -1.5300 O.2   1 <1>  -0.5700 
  2 C       -2.2510     0.6580    -0.4400 C.2   1 <1>   0.5690 
  3 N       -1.9800    -0.4140     0.3490 N.am  1 <1>  -0.7300 
  4 C       -1.9060     2.0520     0.0850 C.3   1 <1>  -0.0190 
  5 C       -2.1920    -1.8330    -0.0450 C.3   1 <1>   0.1400 
  6 C       -2.9000     3.1320    -0.3900 C.3   1 <1>  -0.1600 
  7 C       -0.4570     2.4400    -0.2920 C.3   1 <1>  -0.1600 
  8 C       -3.6820    -2.1420    -0.1960 C.3   1 <1>   0.1200 
  9 C       -2.6280     4.5040     0.2640 C.3   1 <1>   0.2000 
 10 C       -0.1850     3.9570    -0.2380 C.3   1 <1>  -0.1600 
 11 O       -3.8320    -3.5410    -0.2790 O.3   1 <1>  -0.3620 
 12 O       -2.9480     5.5110    -0.6640 O.3   1 <1>  -0.5600 
 13 C       -1.1510     4.6740     0.7090 C.3   1 <1>   0.2000 
 14 C       -5.0520    -4.1430    -0.3320 C.ar  1 <1>   0.0820 
 15 C       -4.3090     5.7750    -0.8110 C.3   1 <1>   0.0400 
 16 O       -0.8300     6.0150     0.7150 O.3   1 <1>  -0.6800 
 17 C       -5.1040    -5.5490    -0.1260 C.ar  1 <1>   0.3100 
 18 C       -6.2050    -3.4270    -0.5780 C.ar  1 <1>  -0.1500 
 19 N       -3.9630    -6.2570     0.1220 N.ar  1 <1>  -0.6200 
 20 C       -6.3670    -6.1850    -0.1800 C.ar  1 <1>   0.0000 
 21 C       -7.4430    -4.0690    -0.6260 C.ar  1 <1>  -0.1500 
 22 C       -4.0540    -7.5370     0.3030 C.ar  1 <1>   0.1670 
 23 C       -6.4250    -7.5740     0.0220 C.ar  1 <1>  -0.1500 
 24 C       -7.5210    -5.4190    -0.4310 C.ar  1 <1>  -0.1500 
 25 C       -5.2650    -8.2430     0.2630 C.ar  1 <1>  -0.1500 
 26 C       -2.7650    -8.2830     0.5730 C.3   1 <1>  -0.0970 
 27 H       -1.5300    -0.2770     1.2550 H     1 <1>   0.3700 
 28 H       -1.9740     2.0090     1.1580 H     1 <1>   0.0800 
 29 H       -1.6950    -2.0200    -0.9820 H     1 <1>   0.0800 
 30 H       -1.7710    -2.4740     0.7100 H     1 <1>   0.0800 
 31 H       -3.9040     2.8210    -0.1620 H     1 <1>   0.0800 
 32 H       -2.8120     3.2220    -1.4600 H     1 <1>   0.0800 
 33 H        0.2200     1.9310     0.3720 H     1 <1>   0.0800 
 34 H       -0.2430     2.0960    -1.2910 H     1 <1>   0.0800 
 35 H       -4.0640    -1.7010    -1.1000 H     1 <1>   0.0800 
 36 H       -4.2290    -1.7980     0.6620 H     1 <1>   0.0800 
 37 H       -3.2480     4.6290     1.1360 H     1 <1>   0.0800 
 38 H       -0.3140     4.3670    -1.2260 H     1 <1>   0.0800 
 39 H        0.8310     4.1340     0.0700 H     1 <1>   0.0800 
 40 H       -1.0150     4.2990     1.7080 H     1 <1>   0.0800 
 41 H       -4.4180     6.5730    -1.5250 H     1 <1>   0.0800 
 42 H       -4.7180     6.0800     0.1360 H     1 <1>   0.0800 
 43 H       -4.8100     4.8960    -1.1770 H     1 <1>   0.0800 
 44 H       -1.3710     6.4210    -0.0010 H     1 <1>   0.4000 
 45 H       -6.1900    -2.3660    -0.7450 H     1 <1>   0.1500 
 46 H       -8.3290    -3.4880    -0.8200 H     1 <1>   0.1500 
 47 H       -7.3730    -8.0800    -0.0150 H     1 <1>   0.1500 
 48 H       -8.4730    -5.9190    -0.4680 H     1 <1>   0.1500 
 49 H       -5.2630    -9.3050     0.4240 H     1 <1>   0.1500 
 50 H       -2.9230    -9.3450     0.5860 H     1 <1>   0.0800 
 51 H       -2.3670    -7.9750     1.5220 H     1 <1>   0.0800 
 52 H       -2.0490    -8.0480    -0.1940 H     1 <1>   0.0800 
@<TRIPOS>BOND
  1   1   2  2   
  2   2   3  am  
  3   2   4  1   
  4   3   5  1   
  5   3  27  1   
  6   4   6  1   
  7   4   7  1   
  8   4  28  1   
  9   5   8  1   
 10   5  29  1   
 11   5  30  1   
 12   6   9  1   
 13   6  31  1   
 14   6  32  1   
 15   7  10  1   
 16   7  33  1   
 17   7  34  1   
 18   8  11  1   
 19   8  35  1   
 20   8  36  1   
 21   9  12  1   
 22   9  13  1   
 23   9  37  1   
 24  10  13  1   
 25  10  38  1   
 26  10  39  1   
 27  11  14  1   
 28  12  15  1   
 29  13  16  1   
 30  13  40  1   
 31  14  17  ar  
 32  14  18  ar  
 33  15  41  1   
 34  15  42  1   
 35  15  43  1   
 36  16  44  1   
 37  17  19  ar  
 38  17  20  ar  
 39  18  21  ar  
 40  18  45  1   
 41  19  22  ar  
 42  20  23  ar  
 43  20  24  ar  
 44  21  24  ar  
 45  21  46  1   
 46  22  25  ar  
 47  22  26  1   
 48  23  25  ar  
 49  23  47  1   
 50  24  48  1   
 51  25  49  1   
 52  26  50  1   
 53  26  51  1   
 54  26  52  1   
@<TRIPOS>SUBSTRUCTURE
  1 ****   8 GROUP 4 **** **** 0

# MOE 2024.06 (io_trps.svl 2023.06)
