@<TRIPOS>MOLECULE
NONAME
47 48 1 0 0 
SMALL
USER_CHARGES


@<TRIPOS>ATOM
  1 O        1.7970     0.6530     2.2180 O.co2 1 <1>  -0.9000 
  2 C        1.7330     0.1540     1.0890 C.2   1 <1>   0.9060 
  3 O        1.3250    -1.0040     0.9110 O.co2 1 <1>  -0.9000 
  4 C        2.2670     0.9150    -0.1270 C.3   1 <1>  -0.1060 
  5 C        3.5510     0.1280    -0.4880 C.3   1 <1>   0.2000 
  6 C        2.6310     2.3990     0.1920 C.3   1 <1>  -0.1600 
  7 C        1.2150     0.9010    -1.2780 C.3   1 <1>  -0.0160 
  8 O        3.2320    -1.0020    -1.2250 O.3   1 <1>  -0.6800 
  9 C        4.5990     0.9820    -1.2110 C.3   1 <1>   0.1400 
 10 C        4.0580     2.5550     0.7180 C.3   1 <1>   0.1400 
 11 C        0.0420     1.8600    -1.0780 C.ar  1 <1>  -0.1440 
 12 N        5.0330     2.1320    -0.3410 N.am  1 <1>  -0.6600 
 13 C       -0.0850     2.9930    -1.8690 C.ar  1 <1>  -0.1500 
 14 C       -0.9140     1.6050    -0.1070 C.ar  1 <1>  -0.1500 
 15 C        6.2430     2.7350    -0.5670 C.2   1 <1>   0.5690 
 16 C       -1.1480     3.8610    -1.6890 C.ar  1 <1>  -0.1500 
 17 C       -1.9770     2.4720     0.0770 C.ar  1 <1>  -0.1500 
 18 O        6.8980     2.4770    -1.5510 O.2   1 <1>  -0.5700 
 19 C        6.7850     3.7770     0.4100 C.3   1 <1>  -0.0990 
 20 C       -2.0950     3.6010    -0.7140 C.ar  1 <1>  -0.1500 
 21 C        8.3240     3.8620     0.4880 C.3   1 <1>  -0.0800 
 22 C        8.9300     2.5630     1.0370 C.3   1 <1>  -0.2400 
 23 C        8.7450     5.0410     1.3740 C.3   1 <1>  -0.2400 
 24 H        4.0140    -0.2310     0.4180 H     1 <1>   0.0800 
 25 H        1.9350     2.7960     0.9100 H     1 <1>   0.0800 
 26 H        2.5490     3.0050    -0.6920 H     1 <1>   0.0800 
 27 H        1.7090     1.1460    -2.2000 H     1 <1>   0.0800 
 28 H        0.8140    -0.0900    -1.4010 H     1 <1>   0.0800 
 29 H        2.5260    -1.4650    -0.7030 H     1 <1>   0.4000 
 30 H        4.1860     1.3700    -2.1240 H     1 <1>   0.0800 
 31 H        5.4530     0.3710    -1.4460 H     1 <1>   0.0800 
 32 H        4.1870     1.9480     1.6000 H     1 <1>   0.0800 
 33 H        4.2120     3.5850     0.9850 H     1 <1>   0.0800 
 34 H        0.6480     3.2030    -2.6270 H     1 <1>   0.1500 
 35 H       -0.8290     0.7280     0.5150 H     1 <1>   0.1500 
 36 H       -1.2360     4.7370    -2.3050 H     1 <1>   0.1500 
 37 H       -2.7060     2.2620     0.8390 H     1 <1>   0.1500 
 38 H        6.3930     4.7290     0.1040 H     1 <1>   0.0800 
 39 H        6.4170     3.5660     1.3960 H     1 <1>   0.0800 
 40 H       -2.9210     4.2740    -0.5700 H     1 <1>   0.1500 
 41 H        8.7120     4.0300    -0.5040 H     1 <1>   0.0800 
 42 H        8.5560     2.3540     2.0240 H     1 <1>   0.0800 
 43 H       10.0020     2.6430     1.0840 H     1 <1>   0.0800 
 44 H        8.6870     1.7340     0.3950 H     1 <1>   0.0800 
 45 H        8.3810     4.9120     2.3780 H     1 <1>   0.0800 
 46 H        8.3560     5.9630     0.9800 H     1 <1>   0.0800 
 47 H        9.8180     5.1170     1.4050 H     1 <1>   0.0800 
@<TRIPOS>BOND
  1   1   2  ar  
  2   2   3  ar  
  3   2   4  1   
  4   4   5  1   
  5   4   6  1   
  6   4   7  1   
  7   5   8  1   
  8   5   9  1   
  9   5  24  1   
 10   6  10  1   
 11   6  25  1   
 12   6  26  1   
 13   7  11  1   
 14   7  27  1   
 15   7  28  1   
 16   8  29  1   
 17   9  12  1   
 18   9  30  1   
 19   9  31  1   
 20  10  12  1   
 21  10  32  1   
 22  10  33  1   
 23  11  13  ar  
 24  11  14  ar  
 25  12  15  am  
 26  13  16  ar  
 27  13  34  1   
 28  14  17  ar  
 29  14  35  1   
 30  15  18  2   
 31  15  19  1   
 32  16  20  ar  
 33  16  36  1   
 34  17  20  ar  
 35  17  37  1   
 36  19  21  1   
 37  19  38  1   
 38  19  39  1   
 39  20  40  1   
 40  21  22  1   
 41  21  23  1   
 42  21  41  1   
 43  22  42  1   
 44  22  43  1   
 45  22  44  1   
 46  23  45  1   
 47  23  46  1   
 48  23  47  1   
@<TRIPOS>SUBSTRUCTURE
  1 ****   6 GROUP 4 **** **** 0

# MOE 2024.06 (io_trps.svl 2023.06)
