@<TRIPOS>MOLECULE
NONAME
44 46 1 0 0 
SMALL
USER_CHARGES


@<TRIPOS>ATOM
  1 O       -0.1830    -0.5650     1.3910 O.3   1 <1>  -0.5600 
  2 C        0.8990     0.1060     0.8150 C.3   1 <1>   0.1200 
  3 C       -1.3660    -0.1460     0.7960 C.3   1 <1>   0.1200 
  4 C        0.3500     1.3920     0.1900 C.3   1 <1>   0.2890 
  5 C       -1.1460     1.3260     0.4710 C.3   1 <1>  -0.0800 
  6 N        0.9370     2.6020     0.8020 N.pl3 1 <1>  -0.8690 
  7 C       -2.0030     1.8460    -0.6930 C.3   1 <1>  -0.0170 
  8 C        0.9860     3.8140     0.2090 C.ar  1 <1>   0.7200 
  9 C       -3.4860     1.6630    -0.4090 C.ar  1 <1>  -0.1440 
 10 N        1.1430     4.8210     1.0500 N.ar  1 <1>  -0.6200 
 11 N        0.8600     3.8760    -1.1090 N.ar  1 <1>  -0.6200 
 12 C       -4.1590     2.4870     0.4690 C.ar  1 <1>  -0.1500 
 13 C       -4.2340     0.6690    -1.0080 C.ar  1 <1>  -0.1500 
 14 C        1.1990     6.0200     0.5190 C.ar  1 <1>   0.1670 
 15 C        0.9200     5.0810    -1.6180 C.ar  1 <1>   0.1600 
 16 C       -5.5090     2.2820     0.7040 C.ar  1 <1>   0.1600 
 17 C       -5.5800     0.5500    -0.7040 C.ar  1 <1>   0.1600 
 18 C        1.0920     6.2110    -0.8480 C.ar  1 <1>  -0.1430 
 19 C        1.3920     7.1710     1.4990 C.3   1 <1>  -0.0170 
 20 N       -6.2350     1.3310     0.1390 N.ar  1 <1>  -0.6200 
 21 C        1.1600     7.5820    -1.5120 C.3   1 <1>  -0.0970 
 22 C        2.8770     7.4050     1.8040 C.3   1 <1>  -0.2400 
 23 H        1.6290     0.3040     1.5800 H     1 <1>   0.0800 
 24 H        1.3200    -0.5320     0.0590 H     1 <1>   0.0800 
 25 H       -1.5150    -0.7310    -0.0950 H     1 <1>   0.0800 
 26 H       -2.1830    -0.2990     1.4800 H     1 <1>   0.0800 
 27 H        0.5550     1.3720    -0.8670 H     1 <1>   0.0800 
 28 H       -1.3730     1.8870     1.3600 H     1 <1>   0.0800 
 29 H        0.8840     2.6650     1.8170 H     1 <1>   0.4000 
 30 H       -1.7410     1.3320    -1.6020 H     1 <1>   0.0800 
 31 H       -1.7990     2.8920    -0.8450 H     1 <1>   0.0800 
 32 H       -3.6460     3.2860     0.9730 H     1 <1>   0.1500 
 33 H       -3.7860    -0.0120    -1.7070 H     1 <1>   0.1500 
 34 H        0.8290     5.1710    -2.6870 H     1 <1>   0.1500 
 35 H       -6.0160     2.9340     1.3930 H     1 <1>   0.1500 
 36 H       -6.1480    -0.2310    -1.1800 H     1 <1>   0.1500 
 37 H        0.9540     8.0730     1.1150 H     1 <1>   0.0800 
 38 H        0.8780     6.9350     2.4150 H     1 <1>   0.0800 
 39 H        1.1900     7.4890    -2.5830 H     1 <1>   0.0800 
 40 H        2.0450     8.1050    -1.1970 H     1 <1>   0.0800 
 41 H        0.2950     8.1630    -1.2470 H     1 <1>   0.0800 
 42 H        3.4110     7.6500     0.9040 H     1 <1>   0.0800 
 43 H        3.3070     6.5130     2.2260 H     1 <1>   0.0800 
 44 H        2.9900     8.2100     2.5080 H     1 <1>   0.0800 
@<TRIPOS>BOND
  1   1   2  1   
  2   1   3  1   
  3   2   4  1   
  4   2  23  1   
  5   2  24  1   
  6   3   5  1   
  7   3  25  1   
  8   3  26  1   
  9   4   5  1   
 10   4   6  1   
 11   4  27  1   
 12   5   7  1   
 13   5  28  1   
 14   6   8  1   
 15   6  29  1   
 16   7   9  1   
 17   7  30  1   
 18   7  31  1   
 19   8  10  ar  
 20   8  11  ar  
 21   9  12  ar  
 22   9  13  ar  
 23  10  14  ar  
 24  11  15  ar  
 25  12  16  ar  
 26  12  32  1   
 27  13  17  ar  
 28  13  33  1   
 29  14  18  ar  
 30  14  19  1   
 31  15  18  ar  
 32  15  34  1   
 33  16  20  ar  
 34  16  35  1   
 35  17  20  ar  
 36  17  36  1   
 37  18  21  1   
 38  19  22  1   
 39  19  37  1   
 40  19  38  1   
 41  21  39  1   
 42  21  40  1   
 43  21  41  1   
 44  22  42  1   
 45  22  43  1   
 46  22  44  1   
@<TRIPOS>SUBSTRUCTURE
  1 ****   5 GROUP 4 **** **** 0

# MOE 2024.06 (io_trps.svl 2023.06)
