@<TRIPOS>MOLECULE
NONAME
44 46 1 0 0 
SMALL
USER_CHARGES


@<TRIPOS>ATOM
  1 O        0.0030    -0.2320    -2.0660 O.2   1 <1>  -0.5700 
  2 C       -0.7390     0.5730    -1.5540 C.2   1 <1>   0.5690 
  3 N       -1.9590     0.1920    -1.0560 N.am  1 <1>  -0.6600 
  4 C       -0.2740     2.0250    -1.4970 C.3   1 <1>   0.0820 
  5 C       -2.8980     1.0450    -0.2820 C.3   1 <1>   0.1400 
  6 C       -2.4200    -1.2170    -1.0600 C.3   1 <1>   0.1400 
  7 C       -0.1930     2.5960    -0.0830 C.2   1 <1>  -0.1810 
  8 C       -4.0100     0.1000     0.1740 C.3   1 <1>   0.2000 
  9 C       -3.4130    -1.3030     0.1000 C.3   1 <1>  -0.0800 
 10 C        0.4380     2.0010     1.0100 C.2   1 <1>   0.1080 
 11 C       -0.7070     3.7500     0.4030 C.2   1 <1>  -0.3320 
 12 O       -4.4100     0.3750     1.4720 O.3   1 <1>  -0.6800 
 13 C       -4.4840    -2.3950    -0.0650 C.3   1 <1>  -0.0170 
 14 N        0.3190     2.7070     2.0880 N.2   1 <1>  -0.7070 
 15 C        1.1860     0.6840     1.0010 C.3   1 <1>  -0.0590 
 16 N       -0.3780     3.7920     1.7120 N.pl3 1 <1>   0.3000 
 17 C       -1.5030     4.8530    -0.2750 C.3   1 <1>  -0.0600 
 18 C       -3.8660    -3.7810    -0.1450 C.ar  1 <1>   0.1670 
 19 N       -3.5340    -4.2130    -1.3500 N.ar  1 <1>  -0.6200 
 20 C       -3.6730    -4.5220     1.0200 C.ar  1 <1>   0.1600 
 21 C       -3.0000    -5.4230    -1.3140 C.ar  1 <1>   0.1600 
 22 N       -3.1380    -5.7310     1.0580 N.ar  1 <1>  -0.6200 
 23 C       -2.8090    -6.1570    -0.1490 C.ar  1 <1>   0.1600 
 24 H        0.7000     2.0900    -1.9440 H     1 <1>   0.0800 
 25 H       -0.9430     2.6090    -2.0960 H     1 <1>   0.0800 
 26 H       -2.3920     1.4560     0.5730 H     1 <1>   0.0800 
 27 H       -3.2900     1.8320    -0.9010 H     1 <1>   0.0800 
 28 H       -2.9040    -1.4260    -1.9990 H     1 <1>   0.0800 
 29 H       -1.5970    -1.8990    -0.9270 H     1 <1>   0.0800 
 30 H       -4.8640     0.1990    -0.4750 H     1 <1>   0.0800 
 31 H       -2.8410    -1.4950     0.9900 H     1 <1>   0.0800 
 32 H       -3.6370     0.3720     2.0710 H     1 <1>   0.4000 
 33 H       -5.0590    -2.2150    -0.9570 H     1 <1>   0.0800 
 34 H       -5.1630    -2.3530     0.7680 H     1 <1>   0.0800 
 35 H        1.7730     0.5940     0.1070 H     1 <1>   0.0800 
 36 H        0.4870    -0.1300     1.0500 H     1 <1>   0.0800 
 37 H        1.8410     0.6330     1.8510 H     1 <1>   0.0800 
 38 H       -0.6110     4.5430     2.3720 H     1 <1>   0.2700 
 39 H       -1.6360     4.6460    -1.3200 H     1 <1>   0.0800 
 40 H       -0.9850     5.7910    -0.1810 H     1 <1>   0.0800 
 41 H       -2.4730     4.9440     0.1810 H     1 <1>   0.0800 
 42 H       -3.9720    -4.0950     1.9600 H     1 <1>   0.1500 
 43 H       -2.6990    -5.8560    -2.2520 H     1 <1>   0.1500 
 44 H       -2.3650    -7.1340    -0.2220 H     1 <1>   0.1500 
@<TRIPOS>BOND
  1   1   2  2   
  2   2   3  am  
  3   2   4  1   
  4   3   5  1   
  5   3   6  1   
  6   4   7  1   
  7   4  24  1   
  8   4  25  1   
  9   5   8  1   
 10   5  26  1   
 11   5  27  1   
 12   6   9  1   
 13   6  28  1   
 14   6  29  1   
 15   7  10  1   
 16   7  11  2   
 17   8   9  1   
 18   8  12  1   
 19   8  30  1   
 20   9  13  1   
 21   9  31  1   
 22  10  14  2   
 23  10  15  1   
 24  11  16  1   
 25  11  17  1   
 26  12  32  1   
 27  13  18  1   
 28  13  33  1   
 29  13  34  1   
 30  14  16  1   
 31  15  35  1   
 32  15  36  1   
 33  15  37  1   
 34  16  38  1   
 35  17  39  1   
 36  17  40  1   
 37  17  41  1   
 38  18  19  ar  
 39  18  20  ar  
 40  19  21  ar  
 41  20  22  ar  
 42  20  42  1   
 43  21  23  ar  
 44  21  43  1   
 45  22  23  ar  
 46  23  44  1   
@<TRIPOS>SUBSTRUCTURE
  1 ****   3 GROUP 4 **** **** 0

# MOE 2024.06 (io_trps.svl 2023.06)
