@<TRIPOS>MOLECULE
NONAME
47 50 1 0 0 
SMALL
USER_CHARGES


@<TRIPOS>ATOM
  1 O        3.8720    -1.5440    -2.0170 O.2   1 <1>  -0.5700 
  2 C        2.9310    -1.4730    -1.2450 C.2   1 <1>   0.5440 
  3 N        2.7970    -0.2750    -0.5880 N.am  1 <1>  -0.6600 
  4 C        2.1190    -2.6340    -0.9320 C.ar  1 <1>   0.0860 
  5 C        3.1760    -0.2590     0.8670 C.3   1 <1>   0.2200 
  6 C        2.8750     0.9970    -1.3740 C.3   1 <1>   0.1400 
  7 C        0.8290    -2.5240    -0.3630 C.ar  1 <1>   0.0000 
  8 C        2.5980    -3.9180    -1.1580 C.ar  1 <1>  -0.1500 
  9 C        2.5780     0.9270     1.6400 C.3   1 <1>   0.1200 
 10 C        4.7190    -0.3000     1.0220 C.3   1 <1>   0.3430 
 11 C        3.8670     2.0390    -0.8230 C.3   1 <1>  -0.0800 
 12 C        0.1150    -3.6670    -0.0020 C.ar  1 <1>  -0.1520 
 13 C       -0.0120    -1.4350    -0.0370 C.2   1 <1>  -0.1500 
 14 C        1.8720    -5.0580    -0.8110 C.ar  1 <1>  -0.1500 
 15 O        3.4130     2.0440     1.5520 O.3   1 <1>  -0.5600 
 16 N        5.4420     0.0940    -0.2410 N.4   1 <1>  -0.9590 
 17 C        3.2990     2.7930     0.3900 C.3   1 <1>   0.1200 
 18 C        5.3110     1.5440    -0.5860 C.3   1 <1>   0.3430 
 19 N       -1.0890    -3.2870     0.5430 N.pl3 1 <1>   0.0480 
 20 C        0.6340    -4.9420    -0.2260 C.ar  1 <1>  -0.1500 
 21 C       -1.1480    -1.9270     0.5100 C.2   1 <1>  -0.3020 
 22 C        6.8620    -0.3520    -0.2320 C.3   1 <1>   0.2630 
 23 C       -2.1440    -4.1880     1.0370 C.3   1 <1>   0.0160 
 24 H        2.7740    -1.1470     1.3240 H     1 <1>   0.0800 
 25 H        3.1470     0.7670    -2.3920 H     1 <1>   0.0800 
 26 H        1.8900     1.4300    -1.4130 H     1 <1>   0.0800 
 27 H        3.5630    -4.0500    -1.6150 H     1 <1>   0.1500 
 28 H        2.5200     0.6730     2.6840 H     1 <1>   0.0800 
 29 H        1.5860     1.1720     1.3000 H     1 <1>   0.0800 
 30 H        4.9940    -1.3090     1.2810 H     1 <1>   0.0800 
 31 H        5.0190     0.3370     1.8380 H     1 <1>   0.0800 
 32 H        3.9410     2.7910    -1.5870 H     1 <1>   0.0800 
 33 H        0.2190    -0.4010    -0.2130 H     1 <1>   0.1500 
 34 H        2.2900    -6.0310    -1.0050 H     1 <1>   0.1500 
 35 H        4.9380    -0.4260    -0.9970 H     1 <1>   0.4500 
 36 H        2.2650     3.0620     0.2450 H     1 <1>   0.0800 
 37 H        3.8580     3.6990     0.5500 H     1 <1>   0.0800 
 38 H        5.7600     2.1410     0.1920 H     1 <1>   0.0800 
 39 H        5.8690     1.7220    -1.4910 H     1 <1>   0.0800 
 40 H        0.0700    -5.8150     0.0490 H     1 <1>   0.1500 
 41 H       -2.0050    -1.3850     0.8700 H     1 <1>   0.1500 
 42 H        7.4080     0.1530     0.5470 H     1 <1>   0.0800 
 43 H        7.3250    -0.1340    -1.1810 H     1 <1>   0.0800 
 44 H        6.9160    -1.4150    -0.0640 H     1 <1>   0.0800 
 45 H       -2.9650    -3.6090     1.4170 H     1 <1>   0.0800 
 46 H       -1.7450    -4.8040     1.8210 H     1 <1>   0.0800 
 47 H       -2.4870    -4.8080     0.2280 H     1 <1>   0.0800 
@<TRIPOS>BOND
  1   1   2  2   
  2   2   3  am  
  3   2   4  1   
  4   3   5  1   
  5   3   6  1   
  6   4   7  ar  
  7   4   8  ar  
  8   5   9  1   
  9   5  10  1   
 10   5  24  1   
 11   6  11  1   
 12   6  25  1   
 13   6  26  1   
 14   7  12  ar  
 15   7  13  1   
 16   8  14  ar  
 17   8  27  1   
 18   9  15  1   
 19   9  28  1   
 20   9  29  1   
 21  10  16  1   
 22  10  30  1   
 23  10  31  1   
 24  11  17  1   
 25  11  18  1   
 26  11  32  1   
 27  12  19  1   
 28  12  20  ar  
 29  13  21  2   
 30  13  33  1   
 31  14  20  ar  
 32  14  34  1   
 33  15  17  1   
 34  16  18  1   
 35  16  22  1   
 36  16  35  1   
 37  17  36  1   
 38  17  37  1   
 39  18  38  1   
 40  18  39  1   
 41  19  21  1   
 42  19  23  1   
 43  20  40  1   
 44  21  41  1   
 45  22  42  1   
 46  22  43  1   
 47  22  44  1   
 48  23  45  1   
 49  23  46  1   
 50  23  47  1   
@<TRIPOS>SUBSTRUCTURE
  1 ****   3 GROUP 4 **** **** 0

# MOE 2024.06 (io_trps.svl 2023.06)
