@<TRIPOS>MOLECULE
NONAME
51 54 1 0 0 
SMALL
USER_CHARGES


@<TRIPOS>ATOM
  1 CL      -1.3960    -0.0090     2.4910 Cl    1 <1>  -0.1770 
  2 C       -2.6270     0.7750     1.5330 C.ar  1 <1>   0.1770 
  3 C       -3.8990     0.2370     1.4980 C.ar  1 <1>  -0.1500 
  4 C       -2.3050     1.9210     0.8280 C.ar  1 <1>  -0.1500 
  5 C       -4.8890     0.8520     0.7400 C.ar  1 <1>   0.0280 
  6 C       -3.2830     2.5400     0.0700 C.ar  1 <1>  -0.1500 
  7 C       -4.5620     2.0070     0.0220 C.ar  1 <1>   0.0830 
  8 C       -6.2390     0.3660     0.6700 C.2   1 <1>  -0.1780 
  9 O       -5.4960     2.6470    -0.7270 O.3   1 <1>  -0.3630 
 10 C       -7.1070     0.8900    -0.2090 C.2   1 <1>  -0.2760 
 11 C       -6.6540     1.9720    -1.1900 C.3   1 <1>   0.2580 
 12 C       -8.5520     0.4750    -0.3510 C.3   1 <1>   0.4810 
 13 N       -9.2630     0.8740     0.8910 N.4   1 <1>  -0.9590 
 14 C      -10.6230     0.2440     0.9890 C.3   1 <1>   0.3430 
 15 C       -9.2960     2.3650     1.0900 C.3   1 <1>   0.3430 
 16 C      -11.6500     0.7770    -0.0450 C.3   1 <1>   0.0000 
 17 C      -10.6180     3.0030     0.6370 C.3   1 <1>  -0.1600 
 18 C      -13.0490     0.6240     0.5980 C.3   1 <1>   0.2000 
 19 C      -11.3020     2.2240    -0.4930 C.3   1 <1>  -0.1600 
 20 C      -11.7470    -0.1780    -1.2490 C.3   1 <1>  -0.1600 
 21 O      -13.9850     1.3430    -0.1460 O.3   1 <1>  -0.5600 
 22 C      -13.3730    -0.8690     0.4560 C.3   1 <1>  -0.1600 
 23 C      -12.6210    -1.3520    -0.7910 C.3   1 <1>  -0.1600 
 24 C      -15.1580     1.6850     0.5260 C.3   1 <1>   0.0400 
 25 H       -4.1080    -0.6540     2.0610 H     1 <1>   0.1500 
 26 H       -1.3070     2.3180     0.8760 H     1 <1>   0.1500 
 27 H       -3.0590     3.4340    -0.4860 H     1 <1>   0.1500 
 28 H       -6.4880    -0.4240     1.3580 H     1 <1>   0.1500 
 29 H       -7.4130     2.7220    -1.3280 H     1 <1>   0.0800 
 30 H       -6.4170     1.5380    -2.1460 H     1 <1>   0.0800 
 31 H       -8.6030    -0.5960    -0.4720 H     1 <1>   0.0800 
 32 H       -9.0010     0.9380    -1.2140 H     1 <1>   0.0800 
 33 H       -8.6780     0.5000     1.6480 H     1 <1>   0.4500 
 34 H      -10.5440    -0.8270     0.8920 H     1 <1>   0.0800 
 35 H      -11.0100     0.4460     1.9740 H     1 <1>   0.0800 
 36 H       -9.1500     2.5930     2.1340 H     1 <1>   0.0800 
 37 H       -8.4810     2.8200     0.5520 H     1 <1>   0.0800 
 38 H      -11.2860     3.0660     1.4790 H     1 <1>   0.0800 
 39 H      -10.4250     4.0130     0.3190 H     1 <1>   0.0800 
 40 H      -13.0750     0.9680     1.6190 H     1 <1>   0.0800 
 41 H      -10.6420     2.1980    -1.3420 H     1 <1>   0.0800 
 42 H      -12.1780     2.7590    -0.8190 H     1 <1>   0.0800 
 43 H      -12.2630     0.3260    -2.0510 H     1 <1>   0.0800 
 44 H      -10.7960    -0.5130    -1.6200 H     1 <1>   0.0800 
 45 H      -13.0110    -1.3990     1.3190 H     1 <1>   0.0800 
 46 H      -14.4300    -1.0500     0.3720 H     1 <1>   0.0800 
 47 H      -12.0220    -2.2160    -0.5550 H     1 <1>   0.0800 
 48 H      -13.3150    -1.6200    -1.5700 H     1 <1>   0.0800 
 49 H      -15.7960     2.2090    -0.1640 H     1 <1>   0.0800 
 50 H      -14.9190     2.3290     1.3550 H     1 <1>   0.0800 
 51 H      -15.6550     0.7950     0.8690 H     1 <1>   0.0800 
@<TRIPOS>BOND
  1   1   2  1   
  2   2   3  ar  
  3   2   4  ar  
  4   3   5  ar  
  5   3  25  1   
  6   4   6  ar  
  7   4  26  1   
  8   5   7  ar  
  9   5   8  1   
 10   6   7  ar  
 11   6  27  1   
 12   7   9  1   
 13   8  10  2   
 14   8  28  1   
 15   9  11  1   
 16  10  11  1   
 17  10  12  1   
 18  11  29  1   
 19  11  30  1   
 20  12  13  1   
 21  12  31  1   
 22  12  32  1   
 23  13  14  1   
 24  13  15  1   
 25  13  33  1   
 26  14  16  1   
 27  14  34  1   
 28  14  35  1   
 29  15  17  1   
 30  15  36  1   
 31  15  37  1   
 32  16  18  1   
 33  16  19  1   
 34  16  20  1   
 35  17  19  1   
 36  17  38  1   
 37  17  39  1   
 38  18  21  1   
 39  18  22  1   
 40  18  40  1   
 41  19  41  1   
 42  19  42  1   
 43  20  23  1   
 44  20  43  1   
 45  20  44  1   
 46  21  24  1   
 47  22  23  1   
 48  22  45  1   
 49  22  46  1   
 50  23  47  1   
 51  23  48  1   
 52  24  49  1   
 53  24  50  1   
 54  24  51  1   
@<TRIPOS>SUBSTRUCTURE
  1 ****  12 GROUP 4 **** **** 0

# MOE 2024.06 (io_trps.svl 2023.06)
