@<TRIPOS>MOLECULE
NONAME
17 16 1 0 0 
SMALL
USER_CHARGES


@<TRIPOS>ATOM
  1 N        1.7890     0.1860    -0.7670 N.4   1 <1>  -0.8530 
  2 C        2.9370     0.1800     0.1130 C.3   1 <1>   0.5030 
  3 C        4.1830     0.3610    -0.7450 C.3   1 <1>  -0.2400 
  4 C        2.7780     1.3320     1.0970 C.3   1 <1>  -0.2400 
  5 C        2.9620    -1.1600     0.8380 C.3   1 <1>  -0.2400 
  6 H        1.7420     1.0750    -1.2710 H     1 <1>   0.4500 
  7 H        0.9320     0.0660    -0.2220 H     1 <1>   0.4500 
  8 H        1.8640    -0.5780    -1.4430 H     1 <1>   0.4500 
  9 H        4.1620     1.2990    -1.2720 H     1 <1>   0.0800 
 10 H        4.2910    -0.4420    -1.4530 H     1 <1>   0.0800 
 11 H        5.0590     0.3610    -0.1180 H     1 <1>   0.0800 
 12 H        2.7430     2.2790     0.5880 H     1 <1>   0.0800 
 13 H        3.6190     1.3550     1.7680 H     1 <1>   0.0800 
 14 H        1.8900     1.2170     1.6940 H     1 <1>   0.0800 
 15 H        3.0580    -1.9780     0.1460 H     1 <1>   0.0800 
 16 H        2.0760    -1.3000     1.4320 H     1 <1>   0.0800 
 17 H        3.8080    -1.1970     1.5030 H     1 <1>   0.0800 
@<TRIPOS>BOND
  1   1   2  1   
  2   1   6  1   
  3   1   7  1   
  4   1   8  1   
  5   2   3  1   
  6   2   4  1   
  7   2   5  1   
  8   3   9  1   
  9   3  10  1   
 10   3  11  1   
 11   4  12  1   
 12   4  13  1   
 13   4  14  1   
 14   5  15  1   
 15   5  16  1   
 16   5  17  1   
@<TRIPOS>SUBSTRUCTURE
  1 ****   2 GROUP 4 **** **** 0

# MOE 2024.06 (io_trps.svl 2023.06)
