@<TRIPOS>MOLECULE
NONAME
51 53 1 0 0 
SMALL
USER_CHARGES


@<TRIPOS>ATOM
  1 O       -0.5340    -1.5940     0.8850 O.2   1 <1>  -0.5700 
  2 C        0.6490    -1.7990     0.7480 C.2   1 <1>   0.5690 
  3 N        1.2710    -2.8010     1.4170 N.am  1 <1>  -0.7300 
  4 C        1.4680    -0.9430    -0.2220 C.3   1 <1>  -0.0190 
  5 C        0.5930    -3.7360     2.3690 C.3   1 <1>   0.2010 
  6 C        1.2520     0.5610     0.0160 C.3   1 <1>  -0.2400 
  7 C        1.1430    -1.2980    -1.6810 C.3   1 <1>  -0.2400 
  8 C        0.4980    -5.1720     1.8440 C.2   1 <1>   0.5690 
  9 O        1.2910    -5.9800     2.2670 O.2   1 <1>  -0.5700 
 10 N       -0.4550    -5.5260     0.9260 N.am  1 <1>  -0.6600 
 11 C       -1.4150    -4.6100     0.2560 C.3   1 <1>   0.1400 
 12 C       -0.6410    -6.9170     0.4600 C.3   1 <1>   0.1400 
 13 C       -2.2400    -5.5060    -0.6720 C.3   1 <1>   0.2000 
 14 C       -2.0310    -6.9360    -0.1740 C.3   1 <1>  -0.0800 
 15 O       -3.5890    -5.1890    -0.6270 O.3   1 <1>  -0.6800 
 16 C       -2.1830    -7.9830    -1.2890 C.3   1 <1>  -0.0160 
 17 C       -1.9930    -9.3960    -0.7470 C.ar  1 <1>  -0.1440 
 18 C       -3.0070   -10.0750    -0.0290 C.ar  1 <1>   0.0000 
 19 C       -0.8120   -10.0500    -0.9400 C.ar  1 <1>  -0.1500 
 20 C       -2.7150   -11.3750     0.4500 C.ar  1 <1>   0.3100 
 21 C       -4.2890    -9.5420     0.2400 C.ar  1 <1>  -0.1500 
 22 C       -0.6280   -11.3410    -0.4290 C.ar  1 <1>   0.1600 
 23 N       -1.5240   -11.9920     0.2410 N.ar  1 <1>  -0.6200 
 24 C       -3.6960   -12.0680     1.1760 C.ar  1 <1>  -0.1500 
 25 C       -5.2240   -10.2460     0.9500 C.ar  1 <1>  -0.1500 
 26 C       -4.9260   -11.5240     1.4270 C.ar  1 <1>  -0.1500 
 27 H        2.2550    -3.0080     1.2340 H     1 <1>   0.3700 
 28 H        2.5100    -1.1520    -0.0530 H     1 <1>   0.0800 
 29 H        1.1450    -3.7480     3.2910 H     1 <1>   0.0800 
 30 H       -0.3970    -3.3810     2.5910 H     1 <1>   0.0800 
 31 H        0.2230     0.8240    -0.1610 H     1 <1>   0.0800 
 32 H        1.8750     1.1420    -0.6410 H     1 <1>   0.0800 
 33 H        1.4960     0.8130     1.0330 H     1 <1>   0.0800 
 34 H        0.1070    -1.0940    -1.8910 H     1 <1>   0.0800 
 35 H        1.3290    -2.3420    -1.8590 H     1 <1>   0.0800 
 36 H        1.7520    -0.7210    -2.3550 H     1 <1>   0.0800 
 37 H       -2.0350    -4.1270     0.9910 H     1 <1>   0.0800 
 38 H       -0.8850    -3.8730    -0.3200 H     1 <1>   0.0800 
 39 H        0.1210    -7.1440    -0.2660 H     1 <1>   0.0800 
 40 H       -0.5700    -7.6130     1.2800 H     1 <1>   0.0800 
 41 H       -1.9000    -5.3880    -1.6870 H     1 <1>   0.0800 
 42 H       -2.7300    -7.1420     0.6160 H     1 <1>   0.0800 
 43 H       -3.9100    -5.2060     0.2950 H     1 <1>   0.4000 
 44 H       -1.4570    -7.7910    -2.0600 H     1 <1>   0.0800 
 45 H       -3.1520    -7.8940    -1.7490 H     1 <1>   0.0800 
 46 H        0.0030    -9.6010    -1.4790 H     1 <1>   0.1500 
 47 H       -4.5420    -8.5630    -0.1200 H     1 <1>   0.1500 
 48 H        0.3200   -11.8200    -0.6030 H     1 <1>   0.1500 
 49 H       -3.4450   -13.0510     1.5310 H     1 <1>   0.1500 
 50 H       -6.1970    -9.8280     1.1490 H     1 <1>   0.1500 
 51 H       -5.6690   -12.0680     1.9850 H     1 <1>   0.1500 
@<TRIPOS>BOND
  1   1   2  2   
  2   2   3  am  
  3   2   4  1   
  4   3   5  1   
  5   3  27  1   
  6   4   6  1   
  7   4   7  1   
  8   4  28  1   
  9   5   8  1   
 10   5  29  1   
 11   5  30  1   
 12   6  31  1   
 13   6  32  1   
 14   6  33  1   
 15   7  34  1   
 16   7  35  1   
 17   7  36  1   
 18   8   9  2   
 19   8  10  am  
 20  10  11  1   
 21  10  12  1   
 22  11  13  1   
 23  11  37  1   
 24  11  38  1   
 25  12  14  1   
 26  12  39  1   
 27  12  40  1   
 28  13  14  1   
 29  13  15  1   
 30  13  41  1   
 31  14  16  1   
 32  14  42  1   
 33  15  43  1   
 34  16  17  1   
 35  16  44  1   
 36  16  45  1   
 37  17  18  ar  
 38  17  19  ar  
 39  18  20  ar  
 40  18  21  ar  
 41  19  22  ar  
 42  19  46  1   
 43  20  23  ar  
 44  20  24  ar  
 45  21  25  ar  
 46  21  47  1   
 47  22  23  ar  
 48  22  48  1   
 49  24  26  ar  
 50  24  49  1   
 51  25  26  ar  
 52  25  50  1   
 53  26  51  1   
@<TRIPOS>SUBSTRUCTURE
  1 ****  12 GROUP 4 **** **** 0

# MOE 2024.06 (io_trps.svl 2023.06)
