@<TRIPOS>MOLECULE
NONAME
49 51 1 0 0 
SMALL
USER_CHARGES


@<TRIPOS>ATOM
  1 S        0.3640     0.2350    -1.1940 S.3   1 <1>  -0.2030 
  2 C        0.3410     1.8100    -0.3620 C.ar  1 <1>   0.4620 
  3 C       -1.1870    -0.5560    -0.7540 C.ar  1 <1>   0.1020 
  4 N       -0.8200     2.2190     0.1770 N.ar  1 <1>  -0.1790 
  5 C        1.4360     2.5970    -0.2730 C.ar  1 <1>  -0.1500 
  6 C       -1.4560    -0.8310     0.5800 C.ar  1 <1>  -0.1500 
  7 C       -2.0900    -0.8560    -1.7620 C.ar  1 <1>  -0.1500 
  8 C       -0.8790     3.4080     0.7930 C.ar  1 <1>   0.7710 
  9 C        1.3150     3.8210     0.4030 C.ar  1 <1>   0.4100 
 10 C       -2.6760    -1.3960     0.9170 C.ar  1 <1>  -0.1500 
 11 C       -3.3100    -1.4230    -1.4270 C.ar  1 <1>  -0.1500 
 12 N        0.1550     4.2130     0.9100 N.ar  1 <1>  -0.6200 
 13 N       -2.0240     3.8260     1.3260 N.pl3 1 <1>  -0.9000 
 14 N        2.3860     4.6410     0.5600 N.pl3 1 <1>  -0.8380 
 15 C       -3.5800    -1.6760    -0.0930 C.ar  1 <1>   0.1900 
 16 C        2.2590     6.1240     0.7110 C.3   1 <1>   0.2090 
 17 C        3.7910     4.1650     0.7240 C.3   1 <1>   0.2090 
 18 F       -4.7320    -2.1970     0.2260 F     1 <1>  -0.1900 
 19 C        3.1360     6.8410    -0.3320 C.3   1 <1>  -0.0800 
 20 C        4.6720     4.8200    -0.3400 C.3   1 <1>  -0.1600 
 21 C        4.5980     6.3520    -0.2590 C.3   1 <1>  -0.1600 
 22 C        3.0320     8.3620    -0.1390 C.3   1 <1>   0.1400 
 23 N        3.7890     9.0800    -1.1930 N.am  1 <1>  -0.7300 
 24 C        4.8530     9.9050    -1.0760 C.2   1 <1>   0.5690 
 25 O        5.3510    10.3870    -2.0600 O.2   1 <1>  -0.5700 
 26 C        5.4380    10.2340     0.2750 C.3   1 <1>  -0.1790 
 27 H       -1.6550     1.6480     0.1130 H     1 <1>   0.4570 
 28 H        2.3710     2.3100    -0.7140 H     1 <1>   0.1500 
 29 H       -0.7270    -0.6310     1.3480 H     1 <1>   0.1500 
 30 H       -1.8490    -0.6550    -2.7930 H     1 <1>   0.1500 
 31 H       -2.9260    -1.6310     1.9380 H     1 <1>   0.1500 
 32 H       -4.0390    -1.6710    -2.1800 H     1 <1>   0.1500 
 33 H       -2.0190     4.7390     1.7950 H     1 <1>   0.4000 
 34 H       -2.9350     3.3640     1.3430 H     1 <1>   0.4000 
 35 H        2.5660     6.4010     1.7050 H     1 <1>   0.0800 
 36 H        1.2350     6.4310     0.5810 H     1 <1>   0.0800 
 37 H        3.8560     3.0940     0.6530 H     1 <1>   0.0800 
 38 H        4.1430     4.4450     1.7030 H     1 <1>   0.0800 
 39 H        2.7360     6.6020    -1.3020 H     1 <1>   0.0800 
 40 H        4.3530     4.4900    -1.3140 H     1 <1>   0.0800 
 41 H        5.6910     4.5030    -0.2040 H     1 <1>   0.0800 
 42 H        5.0420     6.6780     0.6660 H     1 <1>   0.0800 
 43 H        5.1720     6.7740    -1.0670 H     1 <1>   0.0800 
 44 H        3.4050     8.6310     0.8350 H     1 <1>   0.0800 
 45 H        2.0000     8.6660    -0.1930 H     1 <1>   0.0800 
 46 H        3.4780     8.9210    -2.1540 H     1 <1>   0.3700 
 47 H        4.6960    10.7120     0.8860 H     1 <1>   0.0800 
 48 H        6.2710    10.9010     0.1550 H     1 <1>   0.0800 
 49 H        5.7800     9.3350     0.7520 H     1 <1>   0.0800 
@<TRIPOS>BOND
  1   1   2  1   
  2   1   3  1   
  3   2   4  ar  
  4   2   5  ar  
  5   3   6  ar  
  6   3   7  ar  
  7   4   8  ar  
  8   4  27  1   
  9   5   9  ar  
 10   5  28  1   
 11   6  10  ar  
 12   6  29  1   
 13   7  11  ar  
 14   7  30  1   
 15   8  12  ar  
 16   8  13  1   
 17   9  12  ar  
 18   9  14  1   
 19  10  15  ar  
 20  10  31  1   
 21  11  15  ar  
 22  11  32  1   
 23  13  33  1   
 24  13  34  1   
 25  14  16  1   
 26  14  17  1   
 27  15  18  1   
 28  16  19  1   
 29  16  35  1   
 30  16  36  1   
 31  17  20  1   
 32  17  37  1   
 33  17  38  1   
 34  19  21  1   
 35  19  22  1   
 36  19  39  1   
 37  20  21  1   
 38  20  40  1   
 39  20  41  1   
 40  21  42  1   
 41  21  43  1   
 42  22  23  1   
 43  22  44  1   
 44  22  45  1   
 45  23  24  am  
 46  23  46  1   
 47  24  25  2   
 48  24  26  1   
 49  26  47  1   
 50  26  48  1   
 51  26  49  1   
@<TRIPOS>SUBSTRUCTURE
  1 ****   9 GROUP 4 **** **** 0

# MOE 2024.06 (io_trps.svl 2023.06)
