@<TRIPOS>MOLECULE
NONAME
57 59 1 0 0 
SMALL
USER_CHARGES


@<TRIPOS>ATOM
  1 O        0.3050     0.9820    -1.5690 O.2   1 <1>  -0.5700 
  2 C        0.4320     0.2580    -0.6120 C.2   1 <1>   0.5690 
  3 N        1.2530     0.6120     0.4260 N.am  1 <1>  -0.6600 
  4 C       -0.3790    -1.0230    -0.6160 C.3   1 <1>  -0.0990 
  5 C        1.9830    -0.3500     1.3060 C.3   1 <1>   0.1400 
  6 C        1.5700     2.0460     0.6600 C.3   1 <1>   0.1400 
  7 C        0.2320    -2.1000    -1.5230 C.3   1 <1>   0.0960 
  8 C        3.4520    -0.5470     0.8660 C.3   1 <1>   0.3430 
  9 C        2.7280     2.5090    -0.2300 C.3   1 <1>  -0.1600 
 10 N        1.0750    -3.0420    -0.7610 N.pl3 1 <1>   0.3140 
 11 N        4.2300     0.7200     0.6460 N.4   1 <1>  -0.9590 
 12 C        3.7490     1.4280    -0.5790 C.3   1 <1>   0.3430 
 13 N        2.4200    -2.9490    -0.6930 N.2   1 <1>  -0.7070 
 14 C        0.6290    -4.1130    -0.0780 C.2   1 <1>  -0.3020 
 15 C        5.6790     0.3990     0.5060 C.3   1 <1>   0.5230 
 16 C        2.7900    -3.9840    -0.0030 C.2   1 <1>   0.1080 
 17 C        1.7100    -4.7450     0.4230 C.2   1 <1>  -0.1500 
 18 C        6.5300     1.6530     0.5900 C.2   1 <1>  -0.0400 
 19 C        4.2370    -4.3160     0.2820 C.3   1 <1>  -0.0590 
 20 O        7.7760     1.5550     0.1740 O.3   1 <1>  -0.2800 
 21 C        6.2810     2.9110     1.0220 C.2   1 <1>  -0.1500 
 22 C        8.3540     2.7300     0.3230 C.2   1 <1>  -0.0400 
 23 C        7.4780     3.6160     0.8440 C.2   1 <1>  -0.1500 
 24 C        9.8090     2.8680    -0.0930 C.3   1 <1>   0.0200 
 25 C       10.3560     4.2850     0.1280 C.3   1 <1>  -0.1600 
 26 C       11.8240     4.3950    -0.3000 C.3   1 <1>  -0.2400 
 27 H       -1.3430    -0.7680    -1.0170 H     1 <1>   0.0800 
 28 H       -0.5440    -1.3880     0.3800 H     1 <1>   0.0800 
 29 H        1.4960    -1.3070     1.2980 H     1 <1>   0.0800 
 30 H        1.9560     0.0030     2.3220 H     1 <1>   0.0800 
 31 H        1.8160     2.1950     1.6970 H     1 <1>   0.0800 
 32 H        0.6980     2.6440     0.4480 H     1 <1>   0.0800 
 33 H        0.8210    -1.6530    -2.3040 H     1 <1>   0.0800 
 34 H       -0.5540    -2.6690    -1.9830 H     1 <1>   0.0800 
 35 H        3.4600    -1.1040    -0.0530 H     1 <1>   0.0800 
 36 H        3.9420    -1.1530     1.6090 H     1 <1>   0.0800 
 37 H        3.2160     3.3520     0.2230 H     1 <1>   0.0800 
 38 H        2.3080     2.8630    -1.1560 H     1 <1>   0.0800 
 39 H        4.1280     1.3430     1.4520 H     1 <1>   0.4500 
 40 H        4.5760     1.8920    -1.0940 H     1 <1>   0.0800 
 41 H        3.2960     0.7190    -1.2540 H     1 <1>   0.0800 
 42 H       -0.4110    -4.3730     0.0030 H     1 <1>   0.1500 
 43 H        5.8540    -0.0810    -0.4430 H     1 <1>   0.0800 
 44 H        5.9900    -0.2760     1.2850 H     1 <1>   0.0800 
 45 H        1.7510    -5.6450     1.0120 H     1 <1>   0.1500 
 46 H        4.8350    -4.0960    -0.5830 H     1 <1>   0.0800 
 47 H        4.3360    -5.3620     0.5110 H     1 <1>   0.0800 
 48 H        4.5900    -3.7400     1.1160 H     1 <1>   0.0800 
 49 H        5.3880     3.3470     1.4300 H     1 <1>   0.1500 
 50 H        7.6340     4.6530     1.0870 H     1 <1>   0.1500 
 51 H        9.8950     2.6090    -1.1340 H     1 <1>   0.0800 
 52 H       10.3950     2.1650     0.4730 H     1 <1>   0.0800 
 53 H       10.2730     4.5410     1.1710 H     1 <1>   0.0800 
 54 H        9.7700     4.9880    -0.4390 H     1 <1>   0.0800 
 55 H       12.4350     3.7160     0.2690 H     1 <1>   0.0800 
 56 H       12.1810     5.3960    -0.1340 H     1 <1>   0.0800 
 57 H       11.9310     4.1640    -1.3460 H     1 <1>   0.0800 
@<TRIPOS>BOND
  1   1   2  2   
  2   2   3  am  
  3   2   4  1   
  4   3   5  1   
  5   3   6  1   
  6   4   7  1   
  7   4  27  1   
  8   4  28  1   
  9   5   8  1   
 10   5  29  1   
 11   5  30  1   
 12   6   9  1   
 13   6  31  1   
 14   6  32  1   
 15   7  10  1   
 16   7  33  1   
 17   7  34  1   
 18   8  11  1   
 19   8  35  1   
 20   8  36  1   
 21   9  12  1   
 22   9  37  1   
 23   9  38  1   
 24  10  13  1   
 25  10  14  1   
 26  11  12  1   
 27  11  15  1   
 28  11  39  1   
 29  12  40  1   
 30  12  41  1   
 31  13  16  2   
 32  14  17  2   
 33  14  42  1   
 34  15  18  1   
 35  15  43  1   
 36  15  44  1   
 37  16  17  1   
 38  16  19  1   
 39  17  45  1   
 40  18  20  1   
 41  18  21  2   
 42  19  46  1   
 43  19  47  1   
 44  19  48  1   
 45  20  22  1   
 46  21  23  1   
 47  21  49  1   
 48  22  23  2   
 49  22  24  1   
 50  23  50  1   
 51  24  25  1   
 52  24  51  1   
 53  24  52  1   
 54  25  26  1   
 55  25  53  1   
 56  25  54  1   
 57  26  55  1   
 58  26  56  1   
 59  26  57  1   
@<TRIPOS>SUBSTRUCTURE
  1 ****  11 GROUP 4 **** **** 0

# MOE 2024.06 (io_trps.svl 2023.06)
