@<TRIPOS>MOLECULE
NONAME
50 53 1 0 0 
SMALL
USER_CHARGES


@<TRIPOS>ATOM
  1 F       -1.1690    -1.9720    -1.6740 F     1 <1>  -0.1900 
  2 C       -0.2140    -1.9820    -0.7770 C.ar  1 <1>   0.1900 
  3 C        0.0160    -0.8440    -0.0200 C.ar  1 <1>   0.1900 
  4 C        0.5460    -3.1300    -0.5930 C.ar  1 <1>  -0.1440 
  5 F       -0.7100     0.2300    -0.2030 F     1 <1>  -0.1900 
  6 C        1.0110    -0.8160     0.9380 C.ar  1 <1>  -0.1500 
  7 C        1.5470    -3.0970     0.3720 C.ar  1 <1>  -0.1500 
  8 C        0.3180    -4.4080    -1.4020 C.3   1 <1>   0.0450 
  9 C        1.7780    -1.9550     1.1300 C.ar  1 <1>  -0.1500 
 10 C        0.0060    -5.6120    -0.5250 C.2   1 <1>   0.5690 
 11 O        0.8080    -6.5170    -0.5040 O.2   1 <1>  -0.5700 
 12 N       -1.1480    -5.6660     0.2090 N.am  1 <1>  -0.6600 
 13 C       -2.1860    -4.6130     0.2840 C.3   1 <1>   0.1400 
 14 C       -1.5300    -6.8400     1.0150 C.3   1 <1>   0.1400 
 15 C       -3.4010    -5.2710     0.9510 C.3   1 <1>  -0.0800 
 16 C       -3.0510    -6.7630     1.1490 C.3   1 <1>  -0.0800 
 17 C       -4.7530    -4.9850     0.2510 C.3   1 <1>   0.4240 
 18 C       -3.7700    -7.6810     0.1450 C.3   1 <1>  -0.1600 
 19 O       -4.6050    -5.0900    -1.1210 O.3   1 <1>  -0.6800 
 20 C       -5.2210    -3.5540     0.5880 C.ar  1 <1>  -0.1430 
 21 C       -5.7570    -6.0910     0.6230 C.3   1 <1>  -0.1600 
 22 C       -5.3030    -7.5070     0.1910 C.3   1 <1>  -0.1600 
 23 C       -4.8770    -2.4790    -0.2280 C.ar  1 <1>  -0.1500 
 24 C       -5.9660    -3.2860     1.7330 C.ar  1 <1>  -0.1500 
 25 C       -5.2660    -1.1880     0.0820 C.ar  1 <1>  -0.1500 
 26 C       -6.3600    -1.9960     2.0460 C.ar  1 <1>  -0.1500 
 27 C       -6.0100    -0.9440     1.2210 C.ar  1 <1>  -0.1500 
 28 H        1.1790     0.0740     1.5180 H     1 <1>   0.1500 
 29 H        2.1550    -3.9720     0.5420 H     1 <1>   0.1500 
 30 H        1.2090    -4.6190    -1.9660 H     1 <1>   0.0800 
 31 H       -0.4800    -4.2910    -2.1100 H     1 <1>   0.0800 
 32 H        2.5580    -1.9570     1.8730 H     1 <1>   0.1500 
 33 H       -1.8330    -3.7940     0.8870 H     1 <1>   0.0800 
 34 H       -2.4040    -4.2460    -0.7030 H     1 <1>   0.0800 
 35 H       -1.2080    -7.7540     0.5440 H     1 <1>   0.0800 
 36 H       -1.0640    -6.7590     1.9830 H     1 <1>   0.0800 
 37 H       -3.4690    -4.8470     1.9380 H     1 <1>   0.0800 
 38 H       -3.3310    -7.0770     2.1400 H     1 <1>   0.0800 
 39 H       -3.4080    -7.4660    -0.8460 H     1 <1>   0.0800 
 40 H       -3.5240    -8.7100     0.3490 H     1 <1>   0.0800 
 41 H       -4.3980    -6.0200    -1.3210 H     1 <1>   0.4000 
 42 H       -5.8720    -6.1020     1.6900 H     1 <1>   0.0800 
 43 H       -6.7210    -5.8620     0.2020 H     1 <1>   0.0800 
 44 H       -5.7220    -8.2210     0.8790 H     1 <1>   0.0800 
 45 H       -5.7070    -7.7330    -0.7820 H     1 <1>   0.0800 
 46 H       -4.2980    -2.6370    -1.1220 H     1 <1>   0.1500 
 47 H       -6.2510    -4.0730     2.4060 H     1 <1>   0.1500 
 48 H       -4.9870    -0.3750    -0.5650 H     1 <1>   0.1500 
 49 H       -6.9390    -1.8100     2.9340 H     1 <1>   0.1500 
 50 H       -6.3140     0.0590     1.4630 H     1 <1>   0.1500 
@<TRIPOS>BOND
  1   1   2  1   
  2   2   3  ar  
  3   2   4  ar  
  4   3   5  1   
  5   3   6  ar  
  6   4   7  ar  
  7   4   8  1   
  8   6   9  ar  
  9   6  28  1   
 10   7   9  ar  
 11   7  29  1   
 12   8  10  1   
 13   8  30  1   
 14   8  31  1   
 15   9  32  1   
 16  10  11  2   
 17  10  12  am  
 18  12  13  1   
 19  12  14  1   
 20  13  15  1   
 21  13  33  1   
 22  13  34  1   
 23  14  16  1   
 24  14  35  1   
 25  14  36  1   
 26  15  16  1   
 27  15  17  1   
 28  15  37  1   
 29  16  18  1   
 30  16  38  1   
 31  17  19  1   
 32  17  20  1   
 33  17  21  1   
 34  18  22  1   
 35  18  39  1   
 36  18  40  1   
 37  19  41  1   
 38  20  23  ar  
 39  20  24  ar  
 40  21  22  1   
 41  21  42  1   
 42  21  43  1   
 43  22  44  1   
 44  22  45  1   
 45  23  25  ar  
 46  23  46  1   
 47  24  26  ar  
 48  24  47  1   
 49  25  27  ar  
 50  25  48  1   
 51  26  27  ar  
 52  26  49  1   
 53  27  50  1   
@<TRIPOS>SUBSTRUCTURE
  1 ****  13 GROUP 4 **** **** 0

# MOE 2024.06 (io_trps.svl 2023.06)
