@<TRIPOS>MOLECULE
NONAME
32 34 1 0 0 
SMALL
USER_CHARGES


@<TRIPOS>ATOM
  1 CL       0.5730     0.1970    -1.5830 Cl    1 <1>  -0.1230 
  2 C        1.1820    -1.3750    -1.1000 C.2   1 <1>   0.1230 
  3 C        2.2210    -1.6190    -0.2660 C.2   1 <1>  -0.3020 
  4 C        0.6590    -2.5880    -1.5240 C.2   1 <1>  -0.1500 
  5 N        2.3680    -2.9640    -0.1540 N.pl3 1 <1>   0.0480 
  6 C        1.4080    -3.5740    -0.9290 C.2   1 <1>  -0.2370 
  7 C        3.3620    -3.6540     0.6910 C.3   1 <1>   0.0160 
  8 C        1.2810    -5.0040    -1.0390 C.2   1 <1>   0.7150 
  9 O        2.2620    -5.6710    -1.3210 O.2   1 <1>  -0.5700 
 10 N        0.0840    -5.6210    -0.8170 N.am  1 <1>  -0.6600 
 11 C       -1.0480    -4.9630    -0.1070 C.3   1 <1>   0.2350 
 12 C       -0.0270    -7.1020    -0.6960 C.3   1 <1>   0.2350 
 13 C       -2.0800    -6.0490     0.1240 C.3   1 <1>  -0.2420 
 14 C       -1.4500    -7.3720    -0.2400 C.3   1 <1>  -0.2420 
 15 C       -3.0390    -5.6460     1.2480 C.2   1 <1>   0.9470 
 16 C       -2.6160    -6.8470    -1.0370 C.3   1 <1>  -0.2000 
 17 C       -1.5590    -8.7540     0.4080 C.2   1 <1>   0.9470 
 18 O       -4.2530    -5.5650     1.0150 O.co2 1 <1>  -0.9000 
 19 O       -2.5660    -5.2360     2.3170 O.co2 1 <1>  -0.9000 
 20 O       -2.3070    -9.6040    -0.0940 O.co2 1 <1>  -0.9000 
 21 O       -0.7790    -9.0500     1.3240 O.co2 1 <1>  -0.9000 
 22 H        2.8450    -0.9090     0.2440 H     1 <1>   0.1500 
 23 H       -0.1740    -2.7090    -2.1930 H     1 <1>   0.1500 
 24 H        3.9110    -2.9350     1.2690 H     1 <1>   0.0800 
 25 H        4.0370    -4.2060     0.0630 H     1 <1>   0.0800 
 26 H        2.8530    -4.3340     1.3500 H     1 <1>   0.0800 
 27 H       -0.7000    -4.5710     0.8350 H     1 <1>   0.0800 
 28 H       -1.4710    -4.1700    -0.6960 H     1 <1>   0.0800 
 29 H        0.1700    -7.5800    -1.6390 H     1 <1>   0.0800 
 30 H        0.6750    -7.4540     0.0420 H     1 <1>   0.0800 
 31 H       -2.4570    -6.4980    -2.0400 H     1 <1>   0.1000 
 32 H       -3.5680    -7.3370    -0.9140 H     1 <1>   0.1000 
@<TRIPOS>BOND
  1   1   2  1   
  2   2   3  2   
  3   2   4  1   
  4   3   5  1   
  5   3  22  1   
  6   4   6  2   
  7   4  23  1   
  8   5   6  1   
  9   5   7  1   
 10   6   8  1   
 11   7  24  1   
 12   7  25  1   
 13   7  26  1   
 14   8   9  2   
 15   8  10  am  
 16  10  11  1   
 17  10  12  1   
 18  11  13  1   
 19  11  27  1   
 20  11  28  1   
 21  12  14  1   
 22  12  29  1   
 23  12  30  1   
 24  13  14  1   
 25  13  15  1   
 26  13  16  1   
 27  14  16  1   
 28  14  17  1   
 29  15  18  ar  
 30  15  19  ar  
 31  16  31  1   
 32  16  32  1   
 33  17  20  ar  
 34  17  21  ar  
@<TRIPOS>SUBSTRUCTURE
  1 ****  11 GROUP 4 **** **** 0

# MOE 2024.06 (io_trps.svl 2023.06)
