@<TRIPOS>MOLECULE
NONAME
39 40 1 0 0 
SMALL
USER_CHARGES


@<TRIPOS>ATOM
  1 S        0.7340    -1.1900     1.5740 S.o2  1 <1>   1.5000 
  2 O        1.9540    -1.7450     1.0300 O.2   1 <1>  -0.6500 
  3 O        0.6400    -0.9350     2.9910 O.2   1 <1>  -0.6500 
  4 N       -0.4850    -2.3000     1.2640 N.am  1 <1>  -0.9140 
  5 C        0.2470     0.2720     0.6260 C.2   1 <1>  -0.0220 
  6 C       -0.2600    -3.1600     0.1100 C.3   1 <1>   0.2760 
  7 S       -1.4720     0.6460     0.4870 S.3   1 <1>  -0.0800 
  8 C        0.9590     1.2160    -0.0260 C.2   1 <1>  -0.1500 
  9 C       -1.5780    -3.7930    -0.3130 C.3   1 <1>  -0.0800 
 10 C        0.5110    -4.4080     0.5330 C.3   1 <1>   0.1200 
 11 C       -1.1500     2.0780    -0.4720 C.2   1 <1>  -0.1100 
 12 C        0.1730     2.2360    -0.6500 C.2   1 <1>  -0.1500 
 13 C       -1.6930    -5.0130     0.6130 C.3   1 <1>   0.1200 
 14 C       -2.7980    -2.8490    -0.2740 C.3   1 <1>  -0.0550 
 15 O       -0.4330    -5.1950     1.1900 O.3   1 <1>  -0.5600 
 16 S       -4.2820    -3.5930    -0.9430 S.o2  1 <1>   1.3330 
 17 O       -4.0170    -3.9130    -2.3270 O.2   1 <1>  -0.6500 
 18 O       -4.7430    -4.6280    -0.0460 O.2   1 <1>  -0.6500 
 19 N       -5.4060    -2.3220    -0.8970 N.am  1 <1>  -0.8490 
 20 C       -6.4690    -2.4900    -1.8920 C.3   1 <1>   0.1160 
 21 C       -5.9950    -2.1140     0.4300 C.3   1 <1>   0.1160 
 22 H       -0.4750    -2.9190     2.0770 H     1 <1>   0.4200 
 23 H        0.2100    -2.6250    -0.6990 H     1 <1>   0.0800 
 24 H        2.0340     1.2340    -0.0940 H     1 <1>   0.1500 
 25 H       -1.4640    -4.1590    -1.3200 H     1 <1>   0.0800 
 26 H        1.3370    -4.2060     1.1930 H     1 <1>   0.0800 
 27 H        0.8590    -4.9540    -0.3270 H     1 <1>   0.0800 
 28 H       -1.9950     2.6570    -0.8020 H     1 <1>   0.1500 
 29 H        0.6390     3.0360    -1.2000 H     1 <1>   0.1500 
 30 H       -1.9630    -5.9040     0.0700 H     1 <1>   0.0800 
 31 H       -2.3970    -4.8500     1.4120 H     1 <1>   0.0800 
 32 H       -2.5690    -1.9710    -0.8470 H     1 <1>   0.0800 
 33 H       -2.9830    -2.5390     0.7360 H     1 <1>   0.0800 
 34 H       -7.1530    -1.6600    -1.8530 H     1 <1>   0.0800 
 35 H       -7.0090    -3.4050    -1.7130 H     1 <1>   0.0800 
 36 H       -6.0440    -2.5270    -2.8820 H     1 <1>   0.0800 
 37 H       -6.6370    -1.2500     0.4180 H     1 <1>   0.0800 
 38 H       -5.2210    -1.9480     1.1600 H     1 <1>   0.0800 
 39 H       -6.5710    -2.9750     0.7270 H     1 <1>   0.0800 
@<TRIPOS>BOND
  1   1   2  2   
  2   1   3  2   
  3   1   4  am  
  4   1   5  1   
  5   4   6  1   
  6   4  22  1   
  7   5   7  1   
  8   5   8  2   
  9   6   9  1   
 10   6  10  1   
 11   6  23  1   
 12   7  11  1   
 13   8  12  1   
 14   8  24  1   
 15   9  13  1   
 16   9  14  1   
 17   9  25  1   
 18  10  15  1   
 19  10  26  1   
 20  10  27  1   
 21  11  12  2   
 22  11  28  1   
 23  12  29  1   
 24  13  15  1   
 25  13  30  1   
 26  13  31  1   
 27  14  16  1   
 28  14  32  1   
 29  14  33  1   
 30  16  17  2   
 31  16  18  2   
 32  16  19  am  
 33  19  20  1   
 34  19  21  1   
 35  20  34  1   
 36  20  35  1   
 37  20  36  1   
 38  21  37  1   
 39  21  38  1   
 40  21  39  1   
@<TRIPOS>SUBSTRUCTURE
  1 ****  14 GROUP 4 **** **** 0

# MOE 2024.06 (io_trps.svl 2023.06)
