@<TRIPOS>MOLECULE
NONAME
52 55 1 0 0 
SMALL
USER_CHARGES


@<TRIPOS>ATOM
  1 F        1.9310    -1.8490    -0.4330 F     1 <1>  -0.3400 
  2 C        1.1650    -2.5090     0.4310 C.3   1 <1>   1.1640 
  3 F        0.9460    -1.6520     1.4230 F     1 <1>  -0.3400 
  4 F        1.9420    -3.4740     0.9110 F     1 <1>  -0.3400 
  5 C       -0.1190    -3.0290    -0.2260 C.ar  1 <1>  -0.1440 
  6 C       -1.0270    -3.7740     0.5580 C.ar  1 <1>   0.3100 
  7 C       -0.3950    -2.7750    -1.5520 C.ar  1 <1>  -0.1500 
  8 N       -0.7650    -3.9650     1.8760 N.ar  1 <1>  -0.6200 
  9 C       -2.1980    -4.2920    -0.0500 C.ar  1 <1>   0.0000 
 10 C       -1.5710    -3.2410    -2.1390 C.ar  1 <1>  -0.1500 
 11 C       -1.6230    -4.6410     2.5790 C.ar  1 <1>   0.1600 
 12 C       -3.0770    -5.0860     0.7320 C.ar  1 <1>   0.1000 
 13 C       -2.4520    -3.9760    -1.3990 C.ar  1 <1>  -0.1500 
 14 C       -2.7770    -5.2150     2.0620 C.ar  1 <1>  -0.1500 
 15 N       -4.1750    -5.7370     0.1840 N.pl3 1 <1>  -0.8380 
 16 C       -3.9770    -6.8210    -0.8140 C.3   1 <1>   0.2090 
 17 C       -5.5350    -5.6010     0.7730 C.3   1 <1>   0.2090 
 18 C       -4.4590    -8.1820    -0.2530 C.3   1 <1>   0.4230 
 19 C       -5.9740    -6.9560     1.3390 C.3   1 <1>  -0.1600 
 20 N       -4.2100    -9.3640    -1.1900 N.4   1 <1>  -0.9590 
 21 C       -5.9130    -8.1150     0.3050 C.3   1 <1>   0.0000 
 22 C       -5.0300   -10.5800    -0.8780 C.3   1 <1>   0.3430 
 23 C       -4.3050    -9.0590    -2.6560 C.3   1 <1>   0.2630 
 24 C       -6.2500    -9.4460     1.0410 C.3   1 <1>  -0.1600 
 25 C       -6.9200    -7.8600    -0.8530 C.3   1 <1>   0.1200 
 26 C       -5.3760   -10.6380     0.6070 C.3   1 <1>  -0.1600 
 27 O       -8.1930    -7.5940    -0.3760 O.3   1 <1>  -0.6800 
 28 H        0.2780    -2.2050    -2.1730 H     1 <1>   0.1500 
 29 H       -1.7720    -3.0080    -3.1710 H     1 <1>   0.1500 
 30 H       -1.4180    -4.7690     3.6290 H     1 <1>   0.1500 
 31 H       -3.3690    -4.3130    -1.8460 H     1 <1>   0.1500 
 32 H       -3.4160    -5.7710     2.7190 H     1 <1>   0.1500 
 33 H       -4.5170    -6.5560    -1.7050 H     1 <1>   0.0800 
 34 H       -2.9300    -6.8860    -1.0520 H     1 <1>   0.0800 
 35 H       -5.5230    -4.8600     1.5550 H     1 <1>   0.0800 
 36 H       -6.2240    -5.2650     0.0160 H     1 <1>   0.0800 
 37 H       -3.8410    -8.3510     0.6130 H     1 <1>   0.0800 
 38 H       -5.3360    -7.1770     2.1760 H     1 <1>   0.0800 
 39 H       -6.9710    -6.8520     1.7320 H     1 <1>   0.0800 
 40 H       -3.2330    -9.6380    -1.0080 H     1 <1>   0.4500 
 41 H       -5.9490   -10.5560    -1.4410 H     1 <1>   0.0800 
 42 H       -4.4910   -11.4700    -1.1630 H     1 <1>   0.0800 
 43 H       -5.2980    -8.7260    -2.9090 H     1 <1>   0.0800 
 44 H       -4.0810    -9.9390    -3.2360 H     1 <1>   0.0800 
 45 H       -3.6020    -8.2890    -2.9300 H     1 <1>   0.0800 
 46 H       -6.1270    -9.3320     2.1060 H     1 <1>   0.0800 
 47 H       -7.2840    -9.7000     0.8900 H     1 <1>   0.0800 
 48 H       -6.9940    -8.7090    -1.5090 H     1 <1>   0.0800 
 49 H       -6.6340    -7.0040    -1.4380 H     1 <1>   0.0800 
 50 H       -5.9040   -11.5540     0.8130 H     1 <1>   0.0800 
 51 H       -4.4660   -10.6630     1.1820 H     1 <1>   0.0800 
 52 H       -8.5840    -8.3580     0.0930 H     1 <1>   0.4000 
@<TRIPOS>BOND
  1   1   2  1   
  2   2   3  1   
  3   2   4  1   
  4   2   5  1   
  5   5   6  ar  
  6   5   7  ar  
  7   6   8  ar  
  8   6   9  ar  
  9   7  10  ar  
 10   7  28  1   
 11   8  11  ar  
 12   9  12  ar  
 13   9  13  ar  
 14  10  13  ar  
 15  10  29  1   
 16  11  14  ar  
 17  11  30  1   
 18  12  14  ar  
 19  12  15  1   
 20  13  31  1   
 21  14  32  1   
 22  15  16  1   
 23  15  17  1   
 24  16  18  1   
 25  16  33  1   
 26  16  34  1   
 27  17  19  1   
 28  17  35  1   
 29  17  36  1   
 30  18  20  1   
 31  18  21  1   
 32  18  37  1   
 33  19  21  1   
 34  19  38  1   
 35  19  39  1   
 36  20  22  1   
 37  20  23  1   
 38  20  40  1   
 39  21  24  1   
 40  21  25  1   
 41  22  26  1   
 42  22  41  1   
 43  22  42  1   
 44  23  43  1   
 45  23  44  1   
 46  23  45  1   
 47  24  26  1   
 48  24  46  1   
 49  24  47  1   
 50  25  27  1   
 51  25  48  1   
 52  25  49  1   
 53  26  50  1   
 54  26  51  1   
 55  27  52  1   
@<TRIPOS>SUBSTRUCTURE
  1 ****  12 GROUP 4 **** **** 0

# MOE 2024.06 (io_trps.svl 2023.06)
