@<TRIPOS>MOLECULE
NONAME
53 55 1 0 0 
SMALL
USER_CHARGES


@<TRIPOS>ATOM
  1 O        3.1600    -2.5010    -1.8600 O.2   1 <1>  -0.5700 
  2 C        2.5420    -1.7720    -1.1200 C.2   1 <1>   0.5690 
  3 N        3.1750    -1.2240    -0.0270 N.am  1 <1>  -0.6600 
  4 C        1.0830    -1.4830    -1.4680 C.3   1 <1>   0.0820 
  5 C        4.4570    -1.8280     0.4390 C.3   1 <1>   0.1400 
  6 C        2.6810    -0.0510     0.7410 C.3   1 <1>   0.1400 
  7 C        0.1480    -1.5410    -0.2650 C.2   1 <1>  -0.1810 
  8 C        5.6350    -1.2560    -0.3660 C.3   1 <1>   0.3430 
  9 C        3.7930     0.9830     0.9560 C.3   1 <1>  -0.1600 
 10 C        0.0590    -2.4610     0.7100 C.2   1 <1>  -0.0400 
 11 C       -0.8280    -0.6070     0.0890 C.2   1 <1>   0.1080 
 12 N        5.9300     0.1970    -0.0870 N.4   1 <1>  -0.9590 
 13 C        4.7510     1.1160    -0.2330 C.3   1 <1>   0.3430 
 14 O       -0.8590    -2.0690     1.5490 O.3   1 <1>  -0.0190 
 15 C        0.7850    -3.7660     0.9720 C.3   1 <1>  -0.0600 
 16 N       -1.4010    -0.9450     1.1860 N.2   1 <1>  -0.4100 
 17 C       -1.2010     0.6410    -0.6830 C.3   1 <1>  -0.0590 
 18 C        7.0670     0.6430    -0.9430 C.3   1 <1>   0.4860 
 19 C        7.5470     1.9970    -0.4620 C.ar  1 <1>  -0.1430 
 20 C        7.3190     3.1260    -1.2350 C.ar  1 <1>   0.1600 
 21 C        8.2080     2.1360     0.7450 C.ar  1 <1>  -0.1500 
 22 N        7.6590     4.3540    -0.8960 N.ar  1 <1>  -0.6200 
 23 C        8.5800     3.4120     1.1060 C.ar  1 <1>  -0.1500 
 24 C        8.2880     4.4780     0.2690 C.ar  1 <1>   0.3930 
 25 O        8.6710     5.7020     0.6820 O.3   1 <1>  -0.3630 
 26 C        8.4450     6.8470    -0.1170 C.3   1 <1>   0.0400 
 27 H        0.7510    -2.2060    -2.1910 H     1 <1>   0.0800 
 28 H        1.0360    -0.5170    -1.9330 H     1 <1>   0.0800 
 29 H        4.4160    -2.8920     0.2780 H     1 <1>   0.0800 
 30 H        4.5940    -1.6680     1.4940 H     1 <1>   0.0800 
 31 H        2.2830    -0.3790     1.6890 H     1 <1>   0.0800 
 32 H        1.8800     0.4220     0.2010 H     1 <1>   0.0800 
 33 H        5.4130    -1.3920    -1.4130 H     1 <1>   0.0800 
 34 H        6.5100    -1.8440    -0.1420 H     1 <1>   0.0800 
 35 H        4.3340     0.7710     1.8610 H     1 <1>   0.0800 
 36 H        3.3130     1.9340     1.1090 H     1 <1>   0.0800 
 37 H        6.2500     0.2870     0.8840 H     1 <1>   0.4500 
 38 H        5.0970     2.1370    -0.2590 H     1 <1>   0.0800 
 39 H        4.2290     0.9170    -1.1560 H     1 <1>   0.0800 
 40 H        1.4580    -4.0000     0.1690 H     1 <1>   0.0800 
 41 H        0.0690    -4.5630     1.0620 H     1 <1>   0.0800 
 42 H        1.3400    -3.6950     1.8890 H     1 <1>   0.0800 
 43 H       -1.4730     0.3810    -1.6890 H     1 <1>   0.0800 
 44 H       -0.3760     1.3280    -0.7000 H     1 <1>   0.0800 
 45 H       -2.0410     1.1220    -0.2150 H     1 <1>   0.0800 
 46 H        6.7560     0.7020    -1.9740 H     1 <1>   0.0800 
 47 H        7.8810    -0.0600    -0.8750 H     1 <1>   0.0800 
 48 H        6.8230     3.0270    -2.1870 H     1 <1>   0.1500 
 49 H        8.4380     1.3020     1.3870 H     1 <1>   0.1500 
 50 H        9.0990     3.6040     2.0270 H     1 <1>   0.1500 
 51 H        8.8360     7.7040     0.4000 H     1 <1>   0.0800 
 52 H        7.3870     6.9600    -0.2730 H     1 <1>   0.0800 
 53 H        8.9520     6.7200    -1.0580 H     1 <1>   0.0800 
@<TRIPOS>BOND
  1   1   2  2   
  2   2   3  am  
  3   2   4  1   
  4   3   5  1   
  5   3   6  1   
  6   4   7  1   
  7   4  27  1   
  8   4  28  1   
  9   5   8  1   
 10   5  29  1   
 11   5  30  1   
 12   6   9  1   
 13   6  31  1   
 14   6  32  1   
 15   7  10  2   
 16   7  11  1   
 17   8  12  1   
 18   8  33  1   
 19   8  34  1   
 20   9  13  1   
 21   9  35  1   
 22   9  36  1   
 23  10  14  1   
 24  10  15  1   
 25  11  16  2   
 26  11  17  1   
 27  12  13  1   
 28  12  18  1   
 29  12  37  1   
 30  13  38  1   
 31  13  39  1   
 32  14  16  1   
 33  15  40  1   
 34  15  41  1   
 35  15  42  1   
 36  17  43  1   
 37  17  44  1   
 38  17  45  1   
 39  18  19  1   
 40  18  46  1   
 41  18  47  1   
 42  19  20  ar  
 43  19  21  ar  
 44  20  22  ar  
 45  20  48  1   
 46  21  23  ar  
 47  21  49  1   
 48  22  24  ar  
 49  23  24  ar  
 50  23  50  1   
 51  24  25  1   
 52  25  26  1   
 53  26  51  1   
 54  26  52  1   
 55  26  53  1   
@<TRIPOS>SUBSTRUCTURE
  1 ****  13 GROUP 4 **** **** 0

# MOE 2024.06 (io_trps.svl 2023.06)
