@<TRIPOS>MOLECULE
NONAME
36 38 1 0 0 
SMALL
USER_CHARGES


@<TRIPOS>ATOM
  1 O        0.4410     0.0780     0.6770 O.2   1 <1>  -0.5700 
  2 C        1.5160    -0.4170     0.3820 C.2   1 <1>   0.7150 
  3 N        2.4690     0.3780    -0.2260 N.am  1 <1>  -0.5090 
  4 C        1.7310    -1.8220     0.6440 C.2   1 <1>  -0.2370 
  5 C        2.1600     1.7920    -0.5630 C.3   1 <1>   0.0490 
  6 C        3.6300    -0.2010    -0.9540 C.3   1 <1>   0.2840 
  7 N        0.7710    -2.7830     0.4270 N.pl3 1 <1>   0.0480 
  8 C        2.8410    -2.4650     1.1350 C.2   1 <1>  -0.1500 
  9 C        3.2070     2.8610    -0.4710 C.3   1 <1>  -0.2000 
 10 C        2.1290     2.7800     0.5600 C.3   1 <1>  -0.2000 
 11 C        4.9430    -0.0880    -0.1790 C.ar  1 <1>  -0.1440 
 12 C        1.2910    -3.9870     0.7620 C.2   1 <1>  -0.3020 
 13 C       -0.6030    -2.5750    -0.0740 C.3   1 <1>   0.0160 
 14 C        2.5650    -3.8260     1.2020 C.2   1 <1>  -0.1500 
 15 C        6.1350    -0.4220    -0.7910 C.ar  1 <1>  -0.1500 
 16 C        5.0420     0.3310     1.1370 C.ar  1 <1>  -0.1500 
 17 C        7.3250    -0.3230    -0.0890 C.ar  1 <1>   0.1600 
 18 C        6.2820     0.3950     1.7490 C.ar  1 <1>   0.1600 
 19 N        7.4270     0.0780     1.1670 N.ar  1 <1>  -0.6200 
 20 H        1.3960     1.8750    -1.3200 H     1 <1>   0.1000 
 21 H        3.7360     0.3130    -1.8940 H     1 <1>   0.0800 
 22 H        3.4420    -1.2350    -1.1820 H     1 <1>   0.0800 
 23 H        3.7770    -2.0290     1.4350 H     1 <1>   0.1500 
 24 H        3.1730     3.6790    -1.1680 H     1 <1>   0.1000 
 25 H        4.2110     2.6190    -0.1740 H     1 <1>   0.1000 
 26 H        2.3670     2.4320     1.5490 H     1 <1>   0.1000 
 27 H        1.3560     3.5270     0.5600 H     1 <1>   0.1000 
 28 H        0.7340    -4.9040     0.6780 H     1 <1>   0.1500 
 29 H       -0.5700    -1.9900    -0.9740 H     1 <1>   0.0800 
 30 H       -1.1730    -2.0510     0.6720 H     1 <1>   0.0800 
 31 H       -1.0630    -3.5240    -0.2770 H     1 <1>   0.0800 
 32 H        3.2450    -4.5870     1.5460 H     1 <1>   0.1500 
 33 H        6.1540    -0.7600    -1.8110 H     1 <1>   0.1500 
 34 H        4.1700     0.6120     1.6990 H     1 <1>   0.1500 
 35 H        8.2420    -0.5890    -0.5870 H     1 <1>   0.1500 
 36 H        6.3340     0.7260     2.7720 H     1 <1>   0.1500 
@<TRIPOS>BOND
  1   1   2  2   
  2   2   3  am  
  3   2   4  1   
  4   3   5  1   
  5   3   6  1   
  6   4   7  1   
  7   4   8  2   
  8   5   9  1   
  9   5  10  1   
 10   5  20  1   
 11   6  11  1   
 12   6  21  1   
 13   6  22  1   
 14   7  12  1   
 15   7  13  1   
 16   8  14  1   
 17   8  23  1   
 18   9  10  1   
 19   9  24  1   
 20   9  25  1   
 21  10  26  1   
 22  10  27  1   
 23  11  15  ar  
 24  11  16  ar  
 25  12  14  2   
 26  12  28  1   
 27  13  29  1   
 28  13  30  1   
 29  13  31  1   
 30  14  32  1   
 31  15  17  ar  
 32  15  33  1   
 33  16  18  ar  
 34  16  34  1   
 35  17  19  ar  
 36  17  35  1   
 37  18  19  ar  
 38  18  36  1   
@<TRIPOS>SUBSTRUCTURE
  1 ****   3 GROUP 4 **** **** 0

# MOE 2024.06 (io_trps.svl 2023.06)
