@<TRIPOS>MOLECULE
NONAME
52 54 1 0 0 
SMALL
USER_CHARGES


@<TRIPOS>ATOM
  1 O       -0.9990     0.5520    -0.6820 O.2   1 <1>  -0.5700 
  2 C       -2.0020     1.1470    -0.3660 C.2   1 <1>   0.5690 
  3 N       -3.2350     0.5610    -0.5050 N.am  1 <1>  -0.6600 
  4 C       -1.8700     2.5490     0.1990 C.3   1 <1>  -0.0990 
  5 C       -3.3670    -0.7950    -1.1080 C.3   1 <1>   0.1400 
  6 C       -4.5070     1.0930     0.0640 C.3   1 <1>   0.1400 
  7 C       -0.4160     3.0380     0.2400 C.3   1 <1>   0.0960 
  8 C       -3.8540    -1.7930    -0.0340 C.3   1 <1>   0.4230 
  9 C       -4.9890     0.1220     1.1490 C.3   1 <1>  -0.1600 
 10 N       -0.3650     4.4300     0.7250 N.pl3 1 <1>   0.3140 
 11 N       -3.8600    -3.2450    -0.4970 N.4   1 <1>  -0.9590 
 12 C       -5.1850    -1.3350     0.6360 C.3   1 <1>   0.0000 
 13 N       -0.6230     4.7220     2.0140 N.2   1 <1>  -0.7070 
 14 C       -0.1090     5.5510     0.0100 C.2   1 <1>  -0.3320 
 15 C       -4.6960    -4.1550     0.3530 C.3   1 <1>   0.3430 
 16 C       -4.1850    -3.4620    -1.9460 C.3   1 <1>   0.2630 
 17 C       -5.4890    -2.2560     1.8540 C.3   1 <1>  -0.1600 
 18 C       -6.3510    -1.3940    -0.3930 C.3   1 <1>   0.1200 
 19 C       -0.5170     6.0120     2.0920 C.2   1 <1>   0.1390 
 20 C       -0.1980     6.5880     0.8690 C.2   1 <1>  -0.1500 
 21 C        0.2130     5.5920    -1.4750 C.3   1 <1>  -0.0600 
 22 C       -4.7960    -3.6310     1.7840 C.3   1 <1>  -0.1600 
 23 O       -7.4970    -0.7890     0.0960 O.3   1 <1>  -0.6800 
 24 H       -2.4480     3.2190    -0.4110 H     1 <1>   0.0800 
 25 H       -2.2590     2.5580     1.2000 H     1 <1>   0.0800 
 26 H       -4.0580    -0.7340    -1.9290 H     1 <1>   0.0800 
 27 H       -2.4190    -1.1250    -1.4950 H     1 <1>   0.0800 
 28 H       -4.3690     2.0700     0.4930 H     1 <1>   0.0800 
 29 H       -5.2440     1.1850    -0.7170 H     1 <1>   0.0800 
 30 H        0.0260     2.9870    -0.7370 H     1 <1>   0.0800 
 31 H        0.1610     2.4260     0.9090 H     1 <1>   0.0800 
 32 H       -3.1150    -1.7330     0.7480 H     1 <1>   0.0800 
 33 H       -4.2590     0.1380     1.9410 H     1 <1>   0.0800 
 34 H       -5.9040     0.5030     1.5700 H     1 <1>   0.0800 
 35 H       -2.8860    -3.5570    -0.3670 H     1 <1>   0.4500 
 36 H       -5.6910    -4.2240    -0.0550 H     1 <1>   0.0800 
 37 H       -4.2710    -5.1470     0.3560 H     1 <1>   0.0800 
 38 H       -5.1810    -3.1170    -2.1670 H     1 <1>   0.0800 
 39 H       -4.1250    -4.5110    -2.1890 H     1 <1>   0.0800 
 40 H       -3.4870    -2.9330    -2.5750 H     1 <1>   0.0800 
 41 H       -5.1760    -1.7860     2.7720 H     1 <1>   0.0800 
 42 H       -6.5510    -2.4050     1.9470 H     1 <1>   0.0800 
 43 H       -6.6070    -2.4070    -0.6470 H     1 <1>   0.0800 
 44 H       -6.1010    -0.8720    -1.2990 H     1 <1>   0.0800 
 45 H       -0.6620     6.5640     3.0050 H     1 <1>   0.1500 
 46 H       -0.0600     7.6380     0.6830 H     1 <1>   0.1500 
 47 H        0.3570     6.6080    -1.7940 H     1 <1>   0.0800 
 48 H       -0.5950     5.1660    -2.0440 H     1 <1>   0.0800 
 49 H        1.1140     5.0410    -1.6750 H     1 <1>   0.0800 
 50 H       -5.3510    -4.3350     2.3810 H     1 <1>   0.0800 
 51 H       -3.8080    -3.5710     2.2080 H     1 <1>   0.0800 
 52 H       -7.8680    -1.2620     0.8670 H     1 <1>   0.4000 
@<TRIPOS>BOND
  1   1   2  2   
  2   2   3  am  
  3   2   4  1   
  4   3   5  1   
  5   3   6  1   
  6   4   7  1   
  7   4  24  1   
  8   4  25  1   
  9   5   8  1   
 10   5  26  1   
 11   5  27  1   
 12   6   9  1   
 13   6  28  1   
 14   6  29  1   
 15   7  10  1   
 16   7  30  1   
 17   7  31  1   
 18   8  11  1   
 19   8  12  1   
 20   8  32  1   
 21   9  12  1   
 22   9  33  1   
 23   9  34  1   
 24  10  13  1   
 25  10  14  1   
 26  11  15  1   
 27  11  16  1   
 28  11  35  1   
 29  12  17  1   
 30  12  18  1   
 31  13  19  2   
 32  14  20  2   
 33  14  21  1   
 34  15  22  1   
 35  15  36  1   
 36  15  37  1   
 37  16  38  1   
 38  16  39  1   
 39  16  40  1   
 40  17  22  1   
 41  17  41  1   
 42  17  42  1   
 43  18  23  1   
 44  18  43  1   
 45  18  44  1   
 46  19  20  1   
 47  19  45  1   
 48  20  46  1   
 49  21  47  1   
 50  21  48  1   
 51  21  49  1   
 52  22  50  1   
 53  22  51  1   
 54  23  52  1   
@<TRIPOS>SUBSTRUCTURE
  1 ****   3 GROUP 4 **** **** 0

# MOE 2024.06 (io_trps.svl 2023.06)
