@<TRIPOS>MOLECULE
NONAME
48 49 1 0 0 
SMALL
USER_CHARGES


@<TRIPOS>ATOM
  1 O       -1.4030    -0.1800     2.1020 O.2   1 <1>  -0.5700 
  2 C       -2.1790     0.6100     1.6190 C.2   1 <1>   0.5690 
  3 N       -3.4680     0.2660     1.3100 N.am  1 <1>  -0.6600 
  4 C       -1.6560     2.0110     1.3620 C.3   1 <1>  -0.0990 
  5 C       -3.9120    -1.1580     1.4230 C.3   1 <1>   0.3210 
  6 C       -4.4960     1.1990     0.7550 C.3   1 <1>   0.1400 
  7 C       -1.0980     2.1340    -0.0610 C.3   1 <1>  -0.0170 
  8 C       -3.9710    -1.8280     0.0520 C.2   1 <1>   0.0460 
  9 C       -5.2720     1.8670     1.8950 C.3   1 <1>   0.1200 
 10 C       -0.7380     3.5830    -0.3680 C.ar  1 <1>  -0.1440 
 11 N       -5.0970    -1.7840    -0.6950 N.2   1 <1>  -0.5650 
 12 C       -2.9990    -2.5230    -0.5870 C.2   1 <1>  -0.3320 
 13 O       -6.0600     2.8900     1.3880 O.3   1 <1>  -0.6800 
 14 C        0.5170     4.1210    -0.0950 C.ar  1 <1>  -0.1440 
 15 C       -1.7120     4.3890    -0.9390 C.ar  1 <1>  -0.1500 
 16 C       -4.7880    -2.4430    -1.7620 C.2   1 <1>   0.0360 
 17 N       -3.5260    -2.9190    -1.7600 N.pl3 1 <1>   0.0330 
 18 C       -1.5740    -2.8470    -0.1730 C.3   1 <1>  -0.0600 
 19 C        0.7660     5.4530    -0.3940 C.ar  1 <1>  -0.1500 
 20 C        1.6370     3.2930     0.5190 C.3   1 <1>  -0.0970 
 21 C       -1.4530     5.7150    -1.2330 C.ar  1 <1>  -0.1500 
 22 C       -0.2100     6.2550    -0.9600 C.ar  1 <1>  -0.1430 
 23 C        0.0890     7.7090    -1.2800 C.3   1 <1>  -0.0970 
 24 H       -0.8750     2.2180     2.0690 H     1 <1>   0.0800 
 25 H       -2.4270     2.7380     1.5270 H     1 <1>   0.0800 
 26 H       -4.8860    -1.1990     1.8770 H     1 <1>   0.0800 
 27 H       -3.2400    -1.7110     2.0530 H     1 <1>   0.0800 
 28 H       -5.1850     0.6590     0.1300 H     1 <1>   0.0800 
 29 H       -4.0210     1.9450     0.1470 H     1 <1>   0.0800 
 30 H       -1.8330     1.7920    -0.7680 H     1 <1>   0.0800 
 31 H       -0.2430     1.4930    -0.1710 H     1 <1>   0.0800 
 32 H       -4.6040     2.2900     2.6250 H     1 <1>   0.0800 
 33 H       -5.9230     1.1540     2.3700 H     1 <1>   0.0800 
 34 H       -5.5120     3.6340     1.0690 H     1 <1>   0.4000 
 35 H       -2.6840     3.9880    -1.1610 H     1 <1>   0.1500 
 36 H       -5.4600    -2.6090    -2.5860 H     1 <1>   0.1500 
 37 H       -3.0710    -3.4650    -2.4960 H     1 <1>   0.2700 
 38 H       -1.3690    -2.4730     0.8130 H     1 <1>   0.0800 
 39 H       -0.8780    -2.3930    -0.8560 H     1 <1>   0.0800 
 40 H       -1.4190    -3.9110    -0.1700 H     1 <1>   0.0800 
 41 H        1.7340     5.8750    -0.1880 H     1 <1>   0.1500 
 42 H        1.3140     2.8510     1.4440 H     1 <1>   0.0800 
 43 H        2.4990     3.9010     0.7240 H     1 <1>   0.0800 
 44 H        1.9300     2.5120    -0.1600 H     1 <1>   0.0800 
 45 H       -2.2210     6.3210    -1.6780 H     1 <1>   0.1500 
 46 H        0.6920     8.1440    -0.5030 H     1 <1>   0.0800 
 47 H       -0.8210     8.2760    -1.3600 H     1 <1>   0.0800 
 48 H        0.6220     7.7730    -2.2120 H     1 <1>   0.0800 
@<TRIPOS>BOND
  1   1   2  2   
  2   2   3  am  
  3   2   4  1   
  4   3   5  1   
  5   3   6  1   
  6   4   7  1   
  7   4  24  1   
  8   4  25  1   
  9   5   8  1   
 10   5  26  1   
 11   5  27  1   
 12   6   9  1   
 13   6  28  1   
 14   6  29  1   
 15   7  10  1   
 16   7  30  1   
 17   7  31  1   
 18   8  11  1   
 19   8  12  2   
 20   9  13  1   
 21   9  32  1   
 22   9  33  1   
 23  10  14  ar  
 24  10  15  ar  
 25  11  16  2   
 26  12  17  1   
 27  12  18  1   
 28  13  34  1   
 29  14  19  ar  
 30  14  20  1   
 31  15  21  ar  
 32  15  35  1   
 33  16  17  1   
 34  16  36  1   
 35  17  37  1   
 36  18  38  1   
 37  18  39  1   
 38  18  40  1   
 39  19  22  ar  
 40  19  41  1   
 41  20  42  1   
 42  20  43  1   
 43  20  44  1   
 44  21  22  ar  
 45  21  45  1   
 46  22  23  1   
 47  23  46  1   
 48  23  47  1   
 49  23  48  1   
@<TRIPOS>SUBSTRUCTURE
  1 ****   7 GROUP 4 **** **** 0

# MOE 2024.06 (io_trps.svl 2023.06)
