@<TRIPOS>MOLECULE
NONAME
52 54 1 0 0 
SMALL
USER_CHARGES


@<TRIPOS>ATOM
  1 O       -0.3450     1.0600     0.8480 O.2   1 <1>  -0.5700 
  2 C       -0.3310     2.2540     0.6970 C.2   1 <1>   0.5690 
  3 N       -1.3750     3.0140     1.0940 N.am  1 <1>  -0.7300 
  4 C        0.8620     2.9340     0.0240 C.3   1 <1>   0.1810 
  5 C       -1.4440     4.4870     0.9190 C.3   1 <1>   0.3640 
  6 O        0.9560     4.3000     0.3600 O.3   1 <1>  -0.5600 
  7 C       -2.7650     4.8230     0.2370 C.ar  1 <1>  -0.1440 
  8 C       -0.2310     5.0540     0.1280 C.3   1 <1>   0.2610 
  9 C       -3.2150     4.0970    -0.8590 C.ar  1 <1>   0.1600 
 10 C       -3.5440     5.8690     0.6950 C.ar  1 <1>  -0.1500 
 11 C       -0.0030     6.5200     0.5120 C.2   1 <1>   0.5690 
 12 N       -4.3420     4.3240    -1.5140 N.ar  1 <1>  -0.6200 
 13 C       -4.7210     6.1200     0.0250 C.ar  1 <1>  -0.1500 
 14 O       -0.8360     7.3510     0.2340 O.2   1 <1>  -0.5700 
 15 N        1.1440     6.8660     1.1570 N.am  1 <1>  -0.7300 
 16 C       -5.0680     5.3300    -1.0570 C.ar  1 <1>   0.1600 
 17 C        1.5200     8.2380     1.5420 C.3   1 <1>   0.1400 
 18 C        2.3360     8.8570     0.4020 C.3   1 <1>  -0.1600 
 19 C        2.5720    10.3710     0.5610 C.3   1 <1>  -0.0800 
 20 C        1.2550    11.1670     0.4600 C.3   1 <1>  -0.1600 
 21 C        3.5550    10.8520    -0.5200 C.3   1 <1>  -0.1600 
 22 C        1.4870    12.6780     0.4420 C.3   1 <1>   0.3430 
 23 C        3.7380    12.3690    -0.5040 C.3   1 <1>   0.3430 
 24 N        2.4130    13.0300    -0.6700 N.4   1 <1>  -0.9590 
 25 C        2.5610    14.5100    -0.7980 C.3   1 <1>   0.2630 
 26 H       -2.1730     2.5520     1.5350 H     1 <1>   0.3700 
 27 H        0.7750     2.8480    -1.0440 H     1 <1>   0.0800 
 28 H        1.7710     2.4530     0.3400 H     1 <1>   0.0800 
 29 H       -1.4400     4.9300     1.9010 H     1 <1>   0.0800 
 30 H       -0.4380     5.0160    -0.9260 H     1 <1>   0.0800 
 31 H       -2.6180     3.2780    -1.2230 H     1 <1>   0.1500 
 32 H       -3.2470     6.4780     1.5330 H     1 <1>   0.1500 
 33 H       -5.3650     6.9230     0.3340 H     1 <1>   0.1500 
 34 H        1.8420     6.1250     1.2940 H     1 <1>   0.3700 
 35 H       -5.9900     5.5380    -1.5730 H     1 <1>   0.1500 
 36 H        0.6200     8.8000     1.7190 H     1 <1>   0.0800 
 37 H        2.0920     8.2160     2.4540 H     1 <1>   0.0800 
 38 H        3.2830     8.3490     0.3580 H     1 <1>   0.0800 
 39 H        1.8210     8.6800    -0.5280 H     1 <1>   0.0800 
 40 H        3.0140    10.5510     1.5280 H     1 <1>   0.0800 
 41 H        0.6230    10.9420     1.3000 H     1 <1>   0.0800 
 42 H        0.7170    10.8820    -0.4280 H     1 <1>   0.0800 
 43 H        3.2130    10.5510    -1.4950 H     1 <1>   0.0800 
 44 H        4.5140    10.3890    -0.3610 H     1 <1>   0.0800 
 45 H        1.9110    12.9880     1.3830 H     1 <1>   0.0800 
 46 H        0.5430    13.1820     0.3120 H     1 <1>   0.0800 
 47 H        4.4000    12.6590    -1.3040 H     1 <1>   0.0800 
 48 H        4.1830    12.6700     0.4320 H     1 <1>   0.0800 
 49 H        1.9970    12.6610    -1.5370 H     1 <1>   0.4500 
 50 H        2.9950    14.9230     0.0990 H     1 <1>   0.0800 
 51 H        1.5990    14.9700    -0.9590 H     1 <1>   0.0800 
 52 H        3.2000    14.7520    -1.6320 H     1 <1>   0.0800 
@<TRIPOS>BOND
  1   1   2  2   
  2   2   3  am  
  3   2   4  1   
  4   3   5  1   
  5   3  26  1   
  6   4   6  1   
  7   4  27  1   
  8   4  28  1   
  9   5   7  1   
 10   5   8  1   
 11   5  29  1   
 12   6   8  1   
 13   7   9  ar  
 14   7  10  ar  
 15   8  11  1   
 16   8  30  1   
 17   9  12  ar  
 18   9  31  1   
 19  10  13  ar  
 20  10  32  1   
 21  11  14  2   
 22  11  15  am  
 23  12  16  ar  
 24  13  16  ar  
 25  13  33  1   
 26  15  17  1   
 27  15  34  1   
 28  16  35  1   
 29  17  18  1   
 30  17  36  1   
 31  17  37  1   
 32  18  19  1   
 33  18  38  1   
 34  18  39  1   
 35  19  20  1   
 36  19  21  1   
 37  19  40  1   
 38  20  22  1   
 39  20  41  1   
 40  20  42  1   
 41  21  23  1   
 42  21  43  1   
 43  21  44  1   
 44  22  24  1   
 45  22  45  1   
 46  22  46  1   
 47  23  24  1   
 48  23  47  1   
 49  23  48  1   
 50  24  25  1   
 51  24  49  1   
 52  25  50  1   
 53  25  51  1   
 54  25  52  1   
@<TRIPOS>SUBSTRUCTURE
  1 ****  11 GROUP 4 **** **** 0

# MOE 2024.06 (io_trps.svl 2023.06)
