@<TRIPOS>MOLECULE
NONAME
49 52 1 0 0 
SMALL
USER_CHARGES


@<TRIPOS>ATOM
  1 O       -0.3820     0.2260    -0.3680 O.2   1 <1>  -0.5700 
  2 C       -1.3940     0.8550    -0.1290 C.2   1 <1>   0.5440 
  3 N       -2.5770     0.1690     0.0280 N.am  1 <1>  -0.6600 
  4 C       -1.3310     2.3020    -0.0370 C.ar  1 <1>   0.0860 
  5 C       -3.9290     0.7750    -0.0600 C.3   1 <1>   0.1400 
  6 C       -2.6560    -1.3080    -0.1000 C.3   1 <1>   0.1400 
  7 C       -0.7220     3.0520    -1.0410 C.ar  1 <1>  -0.1500 
  8 C       -1.8590     2.9970     1.0510 C.ar  1 <1>  -0.1500 
  9 C       -4.8600    -0.3900    -0.3960 C.3   1 <1>   0.2000 
 10 C       -4.1370    -1.6450     0.0850 C.3   1 <1>  -0.0800 
 11 C       -0.6540     4.4310    -0.9740 C.ar  1 <1>  -0.1500 
 12 C       -1.7960     4.3760     1.1250 C.ar  1 <1>  -0.1500 
 13 O       -6.0830    -0.2700     0.2470 O.3   1 <1>  -0.6800 
 14 C       -4.5940    -2.9130    -0.6570 C.3   1 <1>  -0.0170 
 15 C       -1.1890     5.1050     0.1130 C.ar  1 <1>  -0.1430 
 16 C       -3.9080    -4.1580    -0.1190 C.ar  1 <1>   0.1670 
 17 C       -1.1030     6.6260     0.1980 C.3   1 <1>   0.2390 
 18 N       -2.7060    -4.4260    -0.6020 N.ar  1 <1>  -0.6200 
 19 C       -4.5470    -4.9480     0.8360 C.ar  1 <1>   0.1600 
 20 N       -0.4510     7.0720     1.4470 N.pl3 1 <1>   0.3140 
 21 C       -2.1890    -5.5210    -0.0700 C.ar  1 <1>   0.1600 
 22 N       -4.0320    -6.0420     1.3710 N.ar  1 <1>  -0.6200 
 23 N       -1.0110     7.9470     2.2540 N.2   1 <1>  -0.4180 
 24 C        0.7250     6.7480     1.9670 C.2   1 <1>   0.0060 
 25 C       -2.8300    -6.3020     0.8840 C.ar  1 <1>   0.1600 
 26 N       -0.1870     8.1290     3.2220 N.2   1 <1>   0.0000 
 27 N        0.9030     7.3890     3.0570 N.2   1 <1>  -0.3380 
 28 C        1.7260     5.7670     1.3800 C.3   1 <1>  -0.0600 
 29 H       -4.1860     1.2060     0.8910 H     1 <1>   0.0800 
 30 H       -3.9600     1.5240    -0.8320 H     1 <1>   0.0800 
 31 H       -2.3130    -1.5950    -1.0800 H     1 <1>   0.0800 
 32 H       -2.0410    -1.7910     0.6410 H     1 <1>   0.0800 
 33 H       -0.2960     2.5320    -1.8830 H     1 <1>   0.1500 
 34 H       -2.3170     2.4420     1.8510 H     1 <1>   0.1500 
 35 H       -5.0350    -0.4210    -1.4590 H     1 <1>   0.0800 
 36 H       -4.3030    -1.7700     1.1410 H     1 <1>   0.0800 
 37 H       -0.1760     4.9700    -1.7750 H     1 <1>   0.1500 
 38 H       -2.2150     4.8790     1.9830 H     1 <1>   0.1500 
 39 H       -5.9610    -0.2680     1.2160 H     1 <1>   0.4000 
 40 H       -4.3820    -2.8210    -1.7080 H     1 <1>   0.0800 
 41 H       -5.6600    -3.0180    -0.5530 H     1 <1>   0.0800 
 42 H       -2.0940     7.0410     0.1650 H     1 <1>   0.0800 
 43 H       -0.5450     7.0200    -0.6300 H     1 <1>   0.0800 
 44 H       -5.5270    -4.6610     1.1750 H     1 <1>   0.1500 
 45 H       -1.2100    -5.8140    -0.4040 H     1 <1>   0.1500 
 46 H       -2.3270    -7.1760     1.2590 H     1 <1>   0.1500 
 47 H        2.6430     5.8050     1.9400 H     1 <1>   0.0800 
 48 H        1.9380     6.0130     0.3560 H     1 <1>   0.0800 
 49 H        1.3370     4.7660     1.4330 H     1 <1>   0.0800 
@<TRIPOS>BOND
  1   1   2  2   
  2   2   3  am  
  3   2   4  1   
  4   3   5  1   
  5   3   6  1   
  6   4   7  ar  
  7   4   8  ar  
  8   5   9  1   
  9   5  29  1   
 10   5  30  1   
 11   6  10  1   
 12   6  31  1   
 13   6  32  1   
 14   7  11  ar  
 15   7  33  1   
 16   8  12  ar  
 17   8  34  1   
 18   9  10  1   
 19   9  13  1   
 20   9  35  1   
 21  10  14  1   
 22  10  36  1   
 23  11  15  ar  
 24  11  37  1   
 25  12  15  ar  
 26  12  38  1   
 27  13  39  1   
 28  14  16  1   
 29  14  40  1   
 30  14  41  1   
 31  15  17  1   
 32  16  18  ar  
 33  16  19  ar  
 34  17  20  1   
 35  17  42  1   
 36  17  43  1   
 37  18  21  ar  
 38  19  22  ar  
 39  19  44  1   
 40  20  23  1   
 41  20  24  1   
 42  21  25  ar  
 43  21  45  1   
 44  22  25  ar  
 45  23  26  2   
 46  24  27  2   
 47  24  28  1   
 48  25  46  1   
 49  26  27  1   
 50  28  47  1   
 51  28  48  1   
 52  28  49  1   
@<TRIPOS>SUBSTRUCTURE
  1 ****   2 GROUP 4 **** **** 0

# MOE 2024.06 (io_trps.svl 2023.06)
