@<TRIPOS>MOLECULE
NONAME
51 54 1 0 0 
SMALL
USER_CHARGES


@<TRIPOS>ATOM
  1 S       -2.8980    -0.5750     2.1300 S.3   1 <1>  -0.0800 
  2 C       -2.1040    -0.5060     0.5630 C.2   1 <1>  -0.1400 
  3 C       -1.4020    -0.1800     2.9550 C.2   1 <1>  -0.1100 
  4 C       -0.8020    -0.1980     0.7090 C.2   1 <1>  -0.1500 
  5 C       -2.9480    -0.7800    -0.6670 C.3   1 <1>   0.0200 
  6 C       -0.4010    -0.0140     2.0710 C.2   1 <1>  -0.1500 
  7 C       -3.3430    -2.2600    -0.7390 C.3   1 <1>  -0.1600 
  8 C       -4.2350    -2.5560    -1.9550 C.3   1 <1>  -0.0990 
  9 C       -4.6150    -4.0250    -2.0320 C.2   1 <1>   0.5690 
 10 O       -3.9580    -4.7390    -2.7500 O.2   1 <1>  -0.5700 
 11 N       -5.6650    -4.5150    -1.3050 N.am  1 <1>  -0.6600 
 12 C       -6.5800    -3.7480    -0.4230 C.3   1 <1>   0.1400 
 13 C       -6.0140    -5.9540    -1.3020 C.3   1 <1>   0.1400 
 14 C       -7.6190    -4.7660     0.0490 C.3   1 <1>   0.2000 
 15 C       -6.9610    -6.1340    -0.1160 C.3   1 <1>  -0.0800 
 16 O       -7.9650    -4.5630     1.3760 O.3   1 <1>  -0.6800 
 17 C       -7.9800    -7.2690    -0.3120 C.3   1 <1>  -0.0170 
 18 C       -7.2810    -8.6190    -0.4310 C.ar  1 <1>  -0.1430 
 19 C       -6.7850    -9.3170     0.6970 C.ar  1 <1>   0.0000 
 20 C       -7.1060    -9.1950    -1.6550 C.ar  1 <1>  -0.1500 
 21 C       -6.1310   -10.5520     0.4690 C.ar  1 <1>   0.3100 
 22 C       -6.9010    -8.8650     2.0320 C.ar  1 <1>  -0.1500 
 23 C       -6.4490   -10.4260    -1.7690 C.ar  1 <1>   0.1600 
 24 N       -5.9730   -11.0920    -0.7650 N.ar  1 <1>  -0.6200 
 25 C       -5.6170   -11.2610     1.5670 C.ar  1 <1>  -0.1500 
 26 C       -6.3910    -9.5820     3.0800 C.ar  1 <1>  -0.1500 
 27 C       -5.7390   -10.7950     2.8480 C.ar  1 <1>  -0.1500 
 28 H       -1.4310    -0.1130     4.0280 H     1 <1>   0.1500 
 29 H       -0.0910    -0.0920    -0.0920 H     1 <1>   0.1500 
 30 H       -3.8270    -0.1600    -0.6330 H     1 <1>   0.0800 
 31 H       -2.3860    -0.5150    -1.5450 H     1 <1>   0.0800 
 32 H        0.6160     0.2330     2.3170 H     1 <1>   0.1500 
 33 H       -2.4500    -2.8600    -0.8000 H     1 <1>   0.0800 
 34 H       -3.8600    -2.5370     0.1620 H     1 <1>   0.0800 
 35 H       -3.7040    -2.3020    -2.8560 H     1 <1>   0.0800 
 36 H       -5.1240    -1.9540    -1.9250 H     1 <1>   0.0800 
 37 H       -6.0260    -3.3520     0.4100 H     1 <1>   0.0800 
 38 H       -7.0540    -2.9520    -0.9700 H     1 <1>   0.0800 
 39 H       -6.5020    -6.1920    -2.2310 H     1 <1>   0.0800 
 40 H       -5.1310    -6.5640    -1.1990 H     1 <1>   0.0800 
 41 H       -8.5090    -4.6830    -0.5510 H     1 <1>   0.0800 
 42 H       -6.3470    -6.3390     0.7440 H     1 <1>   0.0800 
 43 H       -7.1780    -4.6430     1.9490 H     1 <1>   0.4000 
 44 H       -8.5560    -7.0810    -1.2010 H     1 <1>   0.0800 
 45 H       -8.6760    -7.2880     0.5090 H     1 <1>   0.0800 
 46 H       -7.4570    -8.7260    -2.5560 H     1 <1>   0.1500 
 47 H       -7.4030    -7.9380     2.2350 H     1 <1>   0.1500 
 48 H       -6.3310   -10.8440    -2.7540 H     1 <1>   0.1500 
 49 H       -5.1210   -12.1920     1.3640 H     1 <1>   0.1500 
 50 H       -6.4860    -9.2260     4.0920 H     1 <1>   0.1500 
 51 H       -5.3400   -11.3490     3.6800 H     1 <1>   0.1500 
@<TRIPOS>BOND
  1   1   2  1   
  2   1   3  1   
  3   2   4  2   
  4   2   5  1   
  5   3   6  2   
  6   3  28  1   
  7   4   6  1   
  8   4  29  1   
  9   5   7  1   
 10   5  30  1   
 11   5  31  1   
 12   6  32  1   
 13   7   8  1   
 14   7  33  1   
 15   7  34  1   
 16   8   9  1   
 17   8  35  1   
 18   8  36  1   
 19   9  10  2   
 20   9  11  am  
 21  11  12  1   
 22  11  13  1   
 23  12  14  1   
 24  12  37  1   
 25  12  38  1   
 26  13  15  1   
 27  13  39  1   
 28  13  40  1   
 29  14  15  1   
 30  14  16  1   
 31  14  41  1   
 32  15  17  1   
 33  15  42  1   
 34  16  43  1   
 35  17  18  1   
 36  17  44  1   
 37  17  45  1   
 38  18  19  ar  
 39  18  20  ar  
 40  19  21  ar  
 41  19  22  ar  
 42  20  23  ar  
 43  20  46  1   
 44  21  24  ar  
 45  21  25  ar  
 46  22  26  ar  
 47  22  47  1   
 48  23  24  ar  
 49  23  48  1   
 50  25  27  ar  
 51  25  49  1   
 52  26  27  ar  
 53  26  50  1   
 54  27  51  1   
@<TRIPOS>SUBSTRUCTURE
  1 ****  13 GROUP 4 **** **** 0

# MOE 2024.06 (io_trps.svl 2023.06)
