@<TRIPOS>MOLECULE
NONAME
44 45 1 0 0 
SMALL
USER_CHARGES


@<TRIPOS>ATOM
  1 S       -0.8910    -0.2390    -0.4960 S.o2  1 <1>   1.3330 
  2 O       -1.6410    -0.5810    -1.6790 O.2   1 <1>  -0.6500 
  3 O       -0.8170     1.1130    -0.0050 O.2   1 <1>  -0.6500 
  4 N       -1.5010    -1.1560     0.7710 N.am  1 <1>  -0.9140 
  5 C        0.7770    -0.8360    -0.6930 C.3   1 <1>  -0.1350 
  6 C       -1.6070    -2.5860     0.5330 C.3   1 <1>   0.1960 
  7 C       -2.3600    -3.2320     1.6870 C.3   1 <1>  -0.0990 
  8 C       -2.4990    -4.7090     1.4000 C.2   1 <1>   0.5690 
  9 O       -1.5400    -5.4060     1.6270 O.2   1 <1>  -0.5700 
 10 N       -3.6510    -5.2190     0.8700 N.am  1 <1>  -0.6600 
 11 C       -4.8680    -4.4660     0.4680 C.3   1 <1>   0.1400 
 12 C       -3.8010    -6.6610     0.5570 C.3   1 <1>   0.1400 
 13 C       -5.7110    -5.4730    -0.3140 C.3   1 <1>   0.2000 
 14 C       -5.2740    -6.8450     0.1910 C.3   1 <1>  -0.0800 
 15 O       -7.0660    -5.2890    -0.0910 O.3   1 <1>  -0.6800 
 16 C       -5.5190    -7.9720    -0.8240 C.3   1 <1>   0.0210 
 17 C       -4.9410    -9.2830    -0.3270 C.2   1 <1>   0.1080 
 18 N       -5.2910    -9.8230     0.7990 N.2   1 <1>  -0.7070 
 19 C       -3.9810   -10.0340    -0.9950 C.2   1 <1>  -0.1500 
 20 N       -4.5540   -10.9470     0.8790 N.pl3 1 <1>   0.3000 
 21 C       -3.7510   -11.0960    -0.1950 C.2   1 <1>  -0.3320 
 22 C       -2.7990   -12.2600    -0.3930 C.3   1 <1>  -0.0600 
 23 H       -0.9700    -0.9280     1.6080 H     1 <1>   0.4200 
 24 H        0.7770    -1.8650    -0.9900 H     1 <1>   0.0800 
 25 H        1.3230    -0.7320     0.2240 H     1 <1>   0.0800 
 26 H        1.2750    -0.2650    -1.4520 H     1 <1>   0.0800 
 27 H       -2.1470    -2.7600    -0.3840 H     1 <1>   0.0800 
 28 H       -0.6280    -3.0300     0.4460 H     1 <1>   0.0800 
 29 H       -3.3210    -2.7730     1.8110 H     1 <1>   0.0800 
 30 H       -1.8040    -3.1160     2.5980 H     1 <1>   0.0800 
 31 H       -5.3890    -4.1380     1.3500 H     1 <1>   0.0800 
 32 H       -4.6100    -3.6240    -0.1510 H     1 <1>   0.0800 
 33 H       -3.1610    -6.9080    -0.2730 H     1 <1>   0.0800 
 34 H       -3.5300    -7.2700     1.4050 H     1 <1>   0.0800 
 35 H       -5.5220    -5.3600    -1.3680 H     1 <1>   0.0800 
 36 H       -5.7950    -7.0770     1.1040 H     1 <1>   0.0800 
 37 H       -7.3060    -5.5890     0.8080 H     1 <1>   0.4000 
 38 H       -5.0730    -7.7230    -1.7690 H     1 <1>   0.0800 
 39 H       -6.5760    -8.0950    -0.9740 H     1 <1>   0.0800 
 40 H       -3.5320    -9.7960    -1.9430 H     1 <1>   0.1500 
 41 H       -4.6210   -11.5880     1.6790 H     1 <1>   0.2700 
 42 H       -2.2710   -12.1520    -1.3240 H     1 <1>   0.0800 
 43 H       -3.3430   -13.1880    -0.4140 H     1 <1>   0.0800 
 44 H       -2.0790   -12.2920     0.4060 H     1 <1>   0.0800 
@<TRIPOS>BOND
  1   1   2  2   
  2   1   3  2   
  3   1   4  am  
  4   1   5  1   
  5   4   6  1   
  6   4  23  1   
  7   5  24  1   
  8   5  25  1   
  9   5  26  1   
 10   6   7  1   
 11   6  27  1   
 12   6  28  1   
 13   7   8  1   
 14   7  29  1   
 15   7  30  1   
 16   8   9  2   
 17   8  10  am  
 18  10  11  1   
 19  10  12  1   
 20  11  13  1   
 21  11  31  1   
 22  11  32  1   
 23  12  14  1   
 24  12  33  1   
 25  12  34  1   
 26  13  14  1   
 27  13  15  1   
 28  13  35  1   
 29  14  16  1   
 30  14  36  1   
 31  15  37  1   
 32  16  17  1   
 33  16  38  1   
 34  16  39  1   
 35  17  18  2   
 36  17  19  1   
 37  18  20  1   
 38  19  21  2   
 39  19  40  1   
 40  20  21  1   
 41  20  41  1   
 42  21  22  1   
 43  22  42  1   
 44  22  43  1   
 45  22  44  1   
@<TRIPOS>SUBSTRUCTURE
  1 ****  10 GROUP 4 **** **** 0

# MOE 2024.06 (io_trps.svl 2023.06)
