@<TRIPOS>MOLECULE
NONAME
40 41 1 0 0 
SMALL
USER_CHARGES


@<TRIPOS>ATOM
  1 S        0.1740    -0.6590    -0.9000 S.o2  1 <1>   1.3330 
  2 O        0.3190    -1.7330     0.0580 O.2   1 <1>  -0.6500 
  3 O       -0.6240    -0.8670    -2.0860 O.2   1 <1>  -0.6500 
  4 N       -0.4670     0.6820    -0.0800 N.am  1 <1>  -0.8490 
  5 C        1.8170    -0.1280    -1.3860 C.3   1 <1>  -0.0550 
  6 C       -0.7770     1.8140    -0.9630 C.3   1 <1>   0.1160 
  7 C       -1.6510     0.3210     0.7020 C.3   1 <1>   0.1160 
  8 C        2.6870     0.3550    -0.2120 C.3   1 <1>  -0.0800 
  9 C        3.9610     1.0370    -0.7030 C.3   1 <1>   0.2200 
 10 C        3.1890    -0.7680     0.7000 C.3   1 <1>   0.1200 
 11 N        4.0180     2.4040    -0.1410 N.am  1 <1>  -0.7300 
 12 C        5.0730     0.1620    -0.1340 C.3   1 <1>   0.1200 
 13 O        4.5170    -0.4560     0.9780 O.3   1 <1>  -0.5600 
 14 C        3.3130     3.4610    -0.6430 C.2   1 <1>   0.5440 
 15 O        2.6480     3.2770    -1.6450 O.2   1 <1>  -0.5700 
 16 C        3.3230     4.7530     0.0150 C.ar  1 <1>   0.0860 
 17 C        2.3700     5.7180    -0.3130 C.ar  1 <1>   0.1600 
 18 C        4.2520     5.1000     0.9900 C.ar  1 <1>  -0.1500 
 19 N        2.2620     6.9230     0.2260 N.ar  1 <1>  -0.6200 
 20 C        4.1590     6.3500     1.5640 C.ar  1 <1>  -0.1500 
 21 C        3.1590     7.2130     1.1540 C.ar  1 <1>   0.1600 
 22 H        2.3130    -0.9310    -1.8950 H     1 <1>   0.0800 
 23 H        1.7160     0.6790    -2.0860 H     1 <1>   0.0800 
 24 H       -1.1460     2.6430    -0.3830 H     1 <1>   0.0800 
 25 H       -1.5230     1.5350    -1.6890 H     1 <1>   0.0800 
 26 H        0.1090     2.1390    -1.4810 H     1 <1>   0.0800 
 27 H       -2.0190     1.1790     1.2390 H     1 <1>   0.0800 
 28 H       -1.3990    -0.4420     1.4190 H     1 <1>   0.0800 
 29 H       -2.4270    -0.0540     0.0560 H     1 <1>   0.0800 
 30 H        2.1100     1.0390     0.3860 H     1 <1>   0.0800 
 31 H        4.0280     1.0870    -1.7780 H     1 <1>   0.0800 
 32 H        3.1690    -1.7260     0.2080 H     1 <1>   0.0800 
 33 H        2.6370    -0.8230     1.6230 H     1 <1>   0.0800 
 34 H        4.3650     2.4370     0.8200 H     1 <1>   0.3700 
 35 H        5.9440     0.7220     0.1580 H     1 <1>   0.0800 
 36 H        5.3480    -0.6090    -0.8340 H     1 <1>   0.0800 
 37 H        1.6490     5.4720    -1.0740 H     1 <1>   0.1500 
 38 H        5.0300     4.4210     1.2920 H     1 <1>   0.1500 
 39 H        4.8560     6.6590     2.3230 H     1 <1>   0.1500 
 40 H        3.0920     8.1870     1.6080 H     1 <1>   0.1500 
@<TRIPOS>BOND
  1   1   2  2   
  2   1   3  2   
  3   1   4  am  
  4   1   5  1   
  5   4   6  1   
  6   4   7  1   
  7   5   8  1   
  8   5  22  1   
  9   5  23  1   
 10   6  24  1   
 11   6  25  1   
 12   6  26  1   
 13   7  27  1   
 14   7  28  1   
 15   7  29  1   
 16   8   9  1   
 17   8  10  1   
 18   8  30  1   
 19   9  11  1   
 20   9  12  1   
 21   9  31  1   
 22  10  13  1   
 23  10  32  1   
 24  10  33  1   
 25  11  14  am  
 26  11  34  1   
 27  12  13  1   
 28  12  35  1   
 29  12  36  1   
 30  14  15  2   
 31  14  16  1   
 32  16  17  ar  
 33  16  18  ar  
 34  17  19  ar  
 35  17  37  1   
 36  18  20  ar  
 37  18  38  1   
 38  19  21  ar  
 39  20  21  ar  
 40  20  39  1   
 41  21  40  1   
@<TRIPOS>SUBSTRUCTURE
  1 ****  14 GROUP 4 **** **** 0

# MOE 2024.06 (io_trps.svl 2023.06)
