@<TRIPOS>MOLECULE
NONAME
18 19 1 0 0 
SMALL
USER_CHARGES


@<TRIPOS>ATOM
  1 S       -0.3340     0.0940     0.0900 S.3   1 <1>  -0.0800 
  2 C        1.2970    -0.5540     0.1710 C.2   1 <1>  -0.0450 
  3 C       -0.9630    -1.4350    -0.4990 C.2   1 <1>  -0.1100 
  4 C        1.3090    -1.8400    -0.2280 C.2   1 <1>  -0.1500 
  5 C        2.3940     0.3750     0.6550 C.3   1 <1>  -0.0150 
  6 C        0.0240    -2.3430    -0.6100 C.2   1 <1>  -0.1500 
  7 C        3.0550     1.3410    -0.2780 C.3   1 <1>  -0.2470 
  8 C        3.8120     0.1420     0.2370 C.3   1 <1>  -0.2000 
  9 C        3.3990     2.7500     0.1770 C.2   1 <1>   0.9470 
 10 O        3.6730     2.9510     1.3660 O.co2 1 <1>  -0.9000 
 11 O        3.4060     3.6520    -0.6670 O.co2 1 <1>  -0.9000 
 12 H       -2.0170    -1.4890    -0.7010 H     1 <1>   0.1500 
 13 H        2.1850    -2.4630    -0.2690 H     1 <1>   0.1500 
 14 H        2.2250     0.7220     1.6600 H     1 <1>   0.1000 
 15 H       -0.0930    -3.3570    -0.9480 H     1 <1>   0.1500 
 16 H        2.7320     1.3350    -1.3010 H     1 <1>   0.1000 
 17 H        4.5940     0.3170     0.9560 H     1 <1>   0.1000 
 18 H        4.0490    -0.6380    -0.4620 H     1 <1>   0.1000 
@<TRIPOS>BOND
  1   1   2  1   
  2   1   3  1   
  3   2   4  2   
  4   2   5  1   
  5   3   6  2   
  6   3  12  1   
  7   4   6  1   
  8   4  13  1   
  9   5   7  1   
 10   5   8  1   
 11   5  14  1   
 12   6  15  1   
 13   7   8  1   
 14   7   9  1   
 15   7  16  1   
 16   8  17  1   
 17   8  18  1   
 18   9  10  ar  
 19   9  11  ar  
@<TRIPOS>SUBSTRUCTURE
  1 ****   5 GROUP 4 **** **** 0

# MOE 2024.06 (io_trps.svl 2023.06)
