@<TRIPOS>MOLECULE
NONAME
45 47 1 0 0 
SMALL
USER_CHARGES


@<TRIPOS>ATOM
  1 CL      -1.9670    -0.1670     2.5060 Cl    1 <1>  -0.1230 
  2 C       -2.8030     0.9780     1.4710 C.2   1 <1>   0.1230 
  3 C       -3.8750     0.7040     0.6140 C.2   1 <1>   0.2030 
  4 C       -2.5300     2.2900     1.3780 C.2   1 <1>  -0.3020 
  5 N       -4.2470     1.8340     0.0230 N.2   1 <1>  -0.7070 
  6 C       -4.4350    -0.6300     0.4360 C.2   1 <1>   0.7160 
  7 N       -3.4160     2.7830     0.4930 N.pl3 1 <1>   0.3000 
  8 O       -3.6810    -1.5840     0.3200 O.2   1 <1>  -0.5700 
  9 N       -5.7960    -0.8880     0.3840 N.am  1 <1>  -0.6600 
 10 C       -6.3270    -2.2840     0.3080 C.3   1 <1>   0.1400 
 11 C       -6.8530     0.1590     0.3470 C.3   1 <1>   0.1400 
 12 C       -6.6450    -2.6920    -1.1390 C.3   1 <1>   0.1400 
 13 C       -7.1720     0.6090    -1.0880 C.3   1 <1>  -0.1600 
 14 N       -7.6000    -1.7460    -1.8020 N.am  1 <1>  -0.6600 
 15 C       -6.9860    -0.4460    -2.1860 C.3   1 <1>   0.1400 
 16 C       -8.9340    -1.9850    -2.0310 C.2   1 <1>   0.5690 
 17 O       -9.6400    -1.1590    -2.5640 O.2   1 <1>  -0.5700 
 18 C       -9.5990    -3.2920    -1.6150 C.3   1 <1>   0.0820 
 19 C       -9.6010    -3.4910    -0.1040 C.2   1 <1>  -0.1810 
 20 C       -9.1340    -4.5070     0.6410 C.2   1 <1>  -0.0400 
 21 C      -10.1030    -2.6020     0.8480 C.2   1 <1>   0.1080 
 22 O       -9.3360    -4.2100     1.8960 O.3   1 <1>  -0.0190 
 23 C       -8.4660    -5.8240     0.3000 C.3   1 <1>  -0.0600 
 24 N       -9.9200    -3.0570     2.0350 N.2   1 <1>  -0.4100 
 25 C      -10.7800    -1.2770     0.5600 C.3   1 <1>  -0.0590 
 26 H       -1.7820     2.8770     1.8760 H     1 <1>   0.1500 
 27 H       -3.4750     3.7650     0.1900 H     1 <1>   0.2700 
 28 H       -7.2130    -2.3680     0.9120 H     1 <1>   0.0800 
 29 H       -5.6070    -2.9730     0.7140 H     1 <1>   0.0800 
 30 H       -6.5590     1.0070     0.9400 H     1 <1>   0.0800 
 31 H       -7.7470    -0.2400     0.7930 H     1 <1>   0.0800 
 32 H       -7.0390    -3.6890    -1.1410 H     1 <1>   0.0800 
 33 H       -5.7250    -2.7180    -1.6980 H     1 <1>   0.0800 
 34 H       -6.5490     1.4500    -1.3310 H     1 <1>   0.0800 
 35 H       -8.1860     0.9640    -1.1180 H     1 <1>   0.0800 
 36 H       -5.9340    -0.5850    -2.3720 H     1 <1>   0.0800 
 37 H       -7.4300    -0.0900    -3.1010 H     1 <1>   0.0800 
 38 H       -9.1010    -4.1040    -2.1060 H     1 <1>   0.0800 
 39 H      -10.6170    -3.2840    -1.9600 H     1 <1>   0.0800 
 40 H       -8.3770    -5.9450    -0.7630 H     1 <1>   0.0800 
 41 H       -9.0520    -6.6360     0.6930 H     1 <1>   0.0800 
 42 H       -7.4870    -5.8600     0.7410 H     1 <1>   0.0800 
 43 H      -11.5220    -1.4010    -0.2070 H     1 <1>   0.0800 
 44 H      -10.0560    -0.5560     0.2330 H     1 <1>   0.0800 
 45 H      -11.2600    -0.9100     1.4490 H     1 <1>   0.0800 
@<TRIPOS>BOND
  1   1   2  1   
  2   2   3  1   
  3   2   4  2   
  4   3   5  2   
  5   3   6  1   
  6   4   7  1   
  7   4  26  1   
  8   5   7  1   
  9   6   8  2   
 10   6   9  am  
 11   7  27  1   
 12   9  10  1   
 13   9  11  1   
 14  10  12  1   
 15  10  28  1   
 16  10  29  1   
 17  11  13  1   
 18  11  30  1   
 19  11  31  1   
 20  12  14  1   
 21  12  32  1   
 22  12  33  1   
 23  13  15  1   
 24  13  34  1   
 25  13  35  1   
 26  14  15  1   
 27  14  16  am  
 28  15  36  1   
 29  15  37  1   
 30  16  17  2   
 31  16  18  1   
 32  18  19  1   
 33  18  38  1   
 34  18  39  1   
 35  19  20  2   
 36  19  21  1   
 37  20  22  1   
 38  20  23  1   
 39  21  24  2   
 40  21  25  1   
 41  22  24  1   
 42  23  40  1   
 43  23  41  1   
 44  23  42  1   
 45  25  43  1   
 46  25  44  1   
 47  25  45  1   
@<TRIPOS>SUBSTRUCTURE
  1 ****  10 GROUP 4 **** **** 0

# MOE 2024.06 (io_trps.svl 2023.06)
