@<TRIPOS>MOLECULE
NONAME
37 39 1 0 0 
SMALL
USER_CHARGES


@<TRIPOS>ATOM
  1 S        1.9920     0.1080     0.4610 S.3   1 <1>  -0.0800 
  2 C        0.3120    -0.1370     0.0450 C.2   1 <1>   0.4620 
  3 C        2.1720    -1.6120     0.6080 C.2   1 <1>  -0.1100 
  4 N       -0.0530    -1.3600     0.0220 N.2   1 <1>  -0.5650 
  5 N       -0.4600     0.9440    -0.2150 N.pl3 1 <1>  -0.8840 
  6 C        1.0010    -2.2350     0.3410 C.2   1 <1>   0.1410 
  7 C        0.8430    -3.6920     0.3910 C.2   1 <1>   0.7160 
  8 O        1.7610    -4.3600     0.8370 O.2   1 <1>  -0.5700 
  9 N       -0.2760    -4.3780    -0.0440 N.am  1 <1>  -0.6600 
 10 C       -1.4210    -3.8170    -0.8040 C.3   1 <1>   0.1400 
 11 C       -0.4070    -5.8490     0.0840 C.3   1 <1>   0.1400 
 12 C       -2.2180    -5.0320    -1.2780 C.3   1 <1>   0.2000 
 13 C       -1.8470    -6.1630    -0.3210 C.3   1 <1>  -0.0800 
 14 O       -3.5840    -4.8000    -1.2330 O.3   1 <1>  -0.6800 
 15 C       -2.0250    -7.5570    -0.9420 C.3   1 <1>  -0.0170 
 16 C       -1.6220    -8.6460     0.0400 C.ar  1 <1>  -0.1430 
 17 C       -0.3850    -9.2580    -0.0070 C.ar  1 <1>  -0.1500 
 18 C       -2.4780    -9.0760     1.0340 C.ar  1 <1>  -0.1500 
 19 C       -0.0720   -10.2380     0.9200 C.ar  1 <1>   0.1600 
 20 C       -2.0660   -10.0650     1.9110 C.ar  1 <1>   0.1600 
 21 N       -0.8830   -10.6550     1.8790 N.ar  1 <1>  -0.6200 
 22 H        3.1350    -2.0020     0.8820 H     1 <1>   0.1500 
 23 H       -0.1070     1.8970    -0.1330 H     1 <1>   0.4000 
 24 H       -1.4520     0.8230    -0.4200 H     1 <1>   0.4000 
 25 H       -2.0120    -3.2010    -0.1480 H     1 <1>   0.0800 
 26 H       -1.0720    -3.2390    -1.6410 H     1 <1>   0.0800 
 27 H        0.2940    -6.3190    -0.5840 H     1 <1>   0.0800 
 28 H       -0.2030    -6.1670     1.0940 H     1 <1>   0.0800 
 29 H       -1.9480    -5.2710    -2.2930 H     1 <1>   0.0800 
 30 H       -2.4490    -6.0890     0.5680 H     1 <1>   0.0800 
 31 H       -3.8550    -4.5490    -0.3290 H     1 <1>   0.4000 
 32 H       -1.4340    -7.6390    -1.8380 H     1 <1>   0.0800 
 33 H       -3.0550    -7.6940    -1.2210 H     1 <1>   0.0800 
 34 H        0.3390    -8.9840    -0.7520 H     1 <1>   0.1500 
 35 H       -3.4590    -8.6500     1.1340 H     1 <1>   0.1500 
 36 H        0.8980   -10.7040     0.8710 H     1 <1>   0.1500 
 37 H       -2.7470   -10.3880     2.6800 H     1 <1>   0.1500 
@<TRIPOS>BOND
  1   1   2  1   
  2   1   3  1   
  3   2   4  2   
  4   2   5  1   
  5   3   6  2   
  6   3  22  1   
  7   4   6  1   
  8   5  23  1   
  9   5  24  1   
 10   6   7  1   
 11   7   8  2   
 12   7   9  am  
 13   9  10  1   
 14   9  11  1   
 15  10  12  1   
 16  10  25  1   
 17  10  26  1   
 18  11  13  1   
 19  11  27  1   
 20  11  28  1   
 21  12  13  1   
 22  12  14  1   
 23  12  29  1   
 24  13  15  1   
 25  13  30  1   
 26  14  31  1   
 27  15  16  1   
 28  15  32  1   
 29  15  33  1   
 30  16  17  ar  
 31  16  18  ar  
 32  17  19  ar  
 33  17  34  1   
 34  18  20  ar  
 35  18  35  1   
 36  19  21  ar  
 37  19  36  1   
 38  20  21  ar  
 39  20  37  1   
@<TRIPOS>SUBSTRUCTURE
  1 ****  11 GROUP 4 **** **** 0

# MOE 2024.06 (io_trps.svl 2023.06)
