@<TRIPOS>MOLECULE
NONAME
46 48 1 0 0 
SMALL
USER_CHARGES


@<TRIPOS>ATOM
  1 O       -1.0180    -2.0850     1.5690 O.2   1 <1>  -0.5700 
  2 C       -0.0830    -2.6590     1.0760 C.2   1 <1>   0.5690 
  3 N       -0.1950    -3.3150    -0.0970 N.am  1 <1>  -0.7300 
  4 C        1.2660    -2.6760     1.7610 C.3   1 <1>  -0.0990 
  5 C        0.9200    -4.0600    -0.7170 C.3   1 <1>   0.1400 
  6 C        2.3930    -2.4470     0.7360 C.3   1 <1>  -0.0800 
  7 C        2.2310    -3.2580    -0.5760 C.3   1 <1>  -0.0800 
  8 C        3.7850    -2.7800     1.2910 C.3   1 <1>  -0.1600 
  9 C        3.4840    -4.1380    -0.6790 C.3   1 <1>  -0.1600 
 10 C        4.5450    -3.3690     0.1080 C.3   1 <1>   0.2200 
 11 N        5.7210    -4.1860     0.5390 N.am  1 <1>  -0.6600 
 12 C        7.0210    -3.7460     0.4430 C.2   1 <1>   0.5690 
 13 C        5.4540    -5.5480     1.1010 C.3   1 <1>   0.0600 
 14 O        7.9530    -4.4690     0.7100 O.2   1 <1>  -0.5700 
 15 C        7.3280    -2.3220    -0.0040 C.3   1 <1>  -0.0990 
 16 C        8.7960    -1.9090     0.1810 C.3   1 <1>  -0.0170 
 17 C        8.9910    -0.4660    -0.2550 C.ar  1 <1>  -0.1440 
 18 C        8.8680     0.5660     0.6630 C.ar  1 <1>  -0.1500 
 19 C        9.2870    -0.1690    -1.5760 C.ar  1 <1>  -0.1500 
 20 C        9.0370     1.8810     0.2630 C.ar  1 <1>  -0.1500 
 21 C        9.4560     1.1450    -1.9770 C.ar  1 <1>  -0.1500 
 22 C        9.3310     2.1710    -1.0570 C.ar  1 <1>  -0.1500 
 23 H       -1.1160    -3.3360    -0.5410 H     1 <1>   0.3700 
 24 H        1.2930    -1.9150     2.5200 H     1 <1>   0.0800 
 25 H        1.3760    -3.6330     2.2370 H     1 <1>   0.0800 
 26 H        1.0070    -5.0100    -0.2180 H     1 <1>   0.0800 
 27 H        0.7080    -4.2390    -1.7570 H     1 <1>   0.0800 
 28 H        2.3750    -1.4030     0.4660 H     1 <1>   0.0800 
 29 H        2.2620    -2.5520    -1.3900 H     1 <1>   0.0800 
 30 H        3.7070    -3.5090     2.0760 H     1 <1>   0.0800 
 31 H        4.2750    -1.9020     1.6730 H     1 <1>   0.0800 
 32 H        3.7840    -4.2860    -1.7010 H     1 <1>   0.0800 
 33 H        3.2810    -5.0880    -0.2210 H     1 <1>   0.0800 
 34 H        4.8650    -2.5550    -0.5190 H     1 <1>   0.0800 
 35 H        4.5700    -5.5420     1.7120 H     1 <1>   0.0800 
 36 H        6.2780    -5.8760     1.7110 H     1 <1>   0.0800 
 37 H        5.3260    -6.2510     0.2960 H     1 <1>   0.0800 
 38 H        7.0740    -2.2300    -1.0430 H     1 <1>   0.0800 
 39 H        6.7160    -1.6440     0.5600 H     1 <1>   0.0800 
 40 H        9.4330    -2.5540    -0.4000 H     1 <1>   0.0800 
 41 H        9.0780    -2.0200     1.2140 H     1 <1>   0.0800 
 42 H        8.6410     0.3500     1.6920 H     1 <1>   0.1500 
 43 H        9.3870    -0.9600    -2.2980 H     1 <1>   0.1500 
 44 H        8.9410     2.6770     0.9810 H     1 <1>   0.1500 
 45 H        9.6860     1.3680    -3.0040 H     1 <1>   0.1500 
 46 H        9.4630     3.1930    -1.3680 H     1 <1>   0.1500 
@<TRIPOS>BOND
  1   1   2  2   
  2   2   3  am  
  3   2   4  1   
  4   3   5  1   
  5   3  23  1   
  6   4   6  1   
  7   4  24  1   
  8   4  25  1   
  9   5   7  1   
 10   5  26  1   
 11   5  27  1   
 12   6   7  1   
 13   6   8  1   
 14   6  28  1   
 15   7   9  1   
 16   7  29  1   
 17   8  10  1   
 18   8  30  1   
 19   8  31  1   
 20   9  10  1   
 21   9  32  1   
 22   9  33  1   
 23  10  11  1   
 24  10  34  1   
 25  11  12  am  
 26  11  13  1   
 27  12  14  2   
 28  12  15  1   
 29  13  35  1   
 30  13  36  1   
 31  13  37  1   
 32  15  16  1   
 33  15  38  1   
 34  15  39  1   
 35  16  17  1   
 36  16  40  1   
 37  16  41  1   
 38  17  18  ar  
 39  17  19  ar  
 40  18  20  ar  
 41  18  42  1   
 42  19  21  ar  
 43  19  43  1   
 44  20  22  ar  
 45  20  44  1   
 46  21  22  ar  
 47  21  45  1   
 48  22  46  1   
@<TRIPOS>SUBSTRUCTURE
  1 ****  10 GROUP 4 **** **** 0

# MOE 2024.06 (io_trps.svl 2023.06)
