@<TRIPOS>MOLECULE
NONAME
45 46 1 0 0 
SMALL
USER_CHARGES


@<TRIPOS>ATOM
  1 O        1.8410    -0.4210    -2.1140 O.2   1 <1>  -0.5700 
  2 C        1.7380    -0.7510    -0.9560 C.2   1 <1>   0.5690 
  3 N        1.8110     0.1660     0.0500 N.am  1 <1>  -0.7300 
  4 C        1.5820    -2.2420    -0.6170 C.3   1 <1>   0.1710 
  5 C        1.9180     1.6310    -0.1500 C.3   1 <1>   0.1400 
  6 N        0.2160    -2.6920    -0.2120 N.3   1 <1>  -0.8100 
  7 C        3.3740     2.0740    -0.0090 C.3   1 <1>  -0.0170 
  8 C        0.1260    -4.1720    -0.2390 C.3   1 <1>   0.2530 
  9 C       -0.1930    -2.1600     1.0980 C.3   1 <1>   0.0300 
 10 C        3.4780     3.5860    -0.1270 C.ar  1 <1>  -0.1440 
 11 C       -1.3040    -4.6920    -0.1280 C.ar  1 <1>   0.1670 
 12 C        3.5290     4.3810     1.0080 C.ar  1 <1>  -0.1500 
 13 C        3.5170     4.1830    -1.3770 C.ar  1 <1>  -0.1500 
 14 N       -1.4950    -5.7690     0.6240 N.ar  1 <1>  -0.6200 
 15 C       -2.3290    -4.0390    -0.8100 C.ar  1 <1>   0.1600 
 16 C        3.6190     5.7580     0.8980 C.ar  1 <1>  -0.1500 
 17 C        3.6060     5.5590    -1.4900 C.ar  1 <1>  -0.1500 
 18 C       -2.7650    -6.1380     0.6460 C.ar  1 <1>   0.1600 
 19 N       -3.6010    -4.4100    -0.7880 N.ar  1 <1>  -0.6200 
 20 C        3.6580     6.3560    -0.3580 C.ar  1 <1>   0.0820 
 21 C       -3.7830    -5.4810    -0.0360 C.ar  1 <1>   0.1600 
 22 O        3.7450     7.6960    -0.5550 O.3   1 <1>  -0.3620 
 23 C        3.8150     8.5920     0.5300 C.3   1 <1>   0.0400 
 24 H        1.7140    -0.1470     1.0160 H     1 <1>   0.3700 
 25 H        2.2870    -2.4930     0.1540 H     1 <1>   0.0800 
 26 H        1.8720    -2.7800    -1.5030 H     1 <1>   0.0800 
 27 H        1.3060     2.1370     0.5760 H     1 <1>   0.0800 
 28 H        1.5570     1.8910    -1.1320 H     1 <1>   0.0800 
 29 H        3.9620     1.6130    -0.7840 H     1 <1>   0.0800 
 30 H        3.7610     1.7580     0.9430 H     1 <1>   0.0800 
 31 H        0.7150    -4.5830     0.5640 H     1 <1>   0.0800 
 32 H        0.5310    -4.5410    -1.1650 H     1 <1>   0.0800 
 33 H       -0.2660    -1.0870     1.0560 H     1 <1>   0.0800 
 34 H        0.5120    -2.4440     1.8610 H     1 <1>   0.0800 
 35 H       -1.1650    -2.5360     1.3700 H     1 <1>   0.0800 
 36 H        3.5000     3.9310     1.9850 H     1 <1>   0.1500 
 37 H        3.4770     3.5800    -2.2680 H     1 <1>   0.1500 
 38 H       -2.0810    -3.1710    -1.3960 H     1 <1>   0.1500 
 39 H        3.6580     6.3440     1.7960 H     1 <1>   0.1500 
 40 H        3.6370     6.0250    -2.4580 H     1 <1>   0.1500 
 41 H       -3.0150    -7.0030     1.2330 H     1 <1>   0.1500 
 42 H       -4.7860    -5.8590     0.0450 H     1 <1>   0.1500 
 43 H        3.8820     9.5900     0.1350 H     1 <1>   0.0800 
 44 H        4.6910     8.3690     1.1120 H     1 <1>   0.0800 
 45 H        2.9220     8.4930     1.1220 H     1 <1>   0.0800 
@<TRIPOS>BOND
  1   1   2  2   
  2   2   3  am  
  3   2   4  1   
  4   3   5  1   
  5   3  24  1   
  6   4   6  1   
  7   4  25  1   
  8   4  26  1   
  9   5   7  1   
 10   5  27  1   
 11   5  28  1   
 12   6   8  1   
 13   6   9  1   
 14   7  10  1   
 15   7  29  1   
 16   7  30  1   
 17   8  11  1   
 18   8  31  1   
 19   8  32  1   
 20   9  33  1   
 21   9  34  1   
 22   9  35  1   
 23  10  12  ar  
 24  10  13  ar  
 25  11  14  ar  
 26  11  15  ar  
 27  12  16  ar  
 28  12  36  1   
 29  13  17  ar  
 30  13  37  1   
 31  14  18  ar  
 32  15  19  ar  
 33  15  38  1   
 34  16  20  ar  
 35  16  39  1   
 36  17  20  ar  
 37  17  40  1   
 38  18  21  ar  
 39  18  41  1   
 40  19  21  ar  
 41  20  22  1   
 42  21  42  1   
 43  22  23  1   
 44  23  43  1   
 45  23  44  1   
 46  23  45  1   
@<TRIPOS>SUBSTRUCTURE
  1 ****   3 GROUP 4 **** **** 0

# MOE 2024.06 (io_trps.svl 2023.06)
