@<TRIPOS>MOLECULE
NONAME
48 50 1 0 0 
SMALL
USER_CHARGES


@<TRIPOS>ATOM
  1 O       -0.7670     0.2200     0.3180 O.2   1 <1>  -0.5700 
  2 C       -1.2020     1.2590    -0.1580 C.2   1 <1>   0.7150 
  3 N       -2.4960     1.2240    -0.6570 N.am  1 <1>  -0.6600 
  4 C       -0.3690     2.4580    -0.1650 C.2   1 <1>   0.1010 
  5 C       -3.1400    -0.0830    -0.9800 C.3   1 <1>   0.1400 
  6 C       -3.2940     2.4600    -0.9010 C.3   1 <1>   0.1400 
  7 N       -0.4520     3.4610    -1.0190 N.2   1 <1>  -0.5650 
  8 N        0.6350     2.6680     0.7430 N.pl3 1 <1>   0.0480 
  9 C       -3.9050    -0.6370     0.2300 C.3   1 <1>   0.1400 
 10 C       -4.7790     2.3260    -0.5330 C.3   1 <1>  -0.1600 
 11 C        0.5080     4.3130    -0.6470 C.2   1 <1>   0.0770 
 12 C        1.1810     3.8490     0.4250 C.2   1 <1>  -0.3020 
 13 C        1.0760     1.8160     1.8670 C.3   1 <1>   0.0160 
 14 N       -5.1860     0.1010     0.4770 N.am  1 <1>  -0.6600 
 15 C       -5.0330     1.5560     0.7670 C.3   1 <1>   0.1400 
 16 C       -6.4370    -0.4660     0.4370 C.2   1 <1>   0.5690 
 17 O       -7.4390     0.1990     0.5680 O.2   1 <1>  -0.5700 
 18 C       -6.5980    -1.9640     0.2180 C.3   1 <1>  -0.0990 
 19 C       -8.0470    -2.4640     0.3380 C.3   1 <1>  -0.0170 
 20 C       -8.1020    -3.9680     0.1220 C.ar  1 <1>  -0.1430 
 21 C       -7.8430    -4.8420     1.1680 C.ar  1 <1>   0.1600 
 22 C       -8.4050    -4.4900    -1.1190 C.ar  1 <1>  -0.1500 
 23 N       -7.8540    -6.1620     1.0760 N.ar  1 <1>  -0.6200 
 24 C       -8.4260    -5.8640    -1.2330 C.ar  1 <1>  -0.1500 
 25 C       -8.1470    -6.6410    -0.1220 C.ar  1 <1>   0.1600 
 26 H       -2.3750    -0.7890    -1.2560 H     1 <1>   0.0800 
 27 H       -3.8000     0.0210    -1.8230 H     1 <1>   0.0800 
 28 H       -3.1980     2.7440    -1.9360 H     1 <1>   0.0800 
 29 H       -2.8880     3.2610    -0.3070 H     1 <1>   0.0800 
 30 H       -3.2800    -0.5760     1.1050 H     1 <1>   0.0800 
 31 H       -4.0940    -1.6780     0.0490 H     1 <1>   0.0800 
 32 H       -5.3280     1.8750    -1.3400 H     1 <1>   0.0800 
 33 H       -5.1690     3.3210    -0.4170 H     1 <1>   0.0800 
 34 H        0.6760     5.2370    -1.1760 H     1 <1>   0.1500 
 35 H        2.0000     4.2940     0.9590 H     1 <1>   0.1500 
 36 H        0.2260     1.5490     2.4690 H     1 <1>   0.0800 
 37 H        1.7890     2.3470     2.4700 H     1 <1>   0.0800 
 38 H        1.5310     0.9230     1.4780 H     1 <1>   0.0800 
 39 H       -5.9320     1.9300     1.2260 H     1 <1>   0.0800 
 40 H       -4.2280     1.7100     1.4660 H     1 <1>   0.0800 
 41 H       -6.0010    -2.4790     0.9470 H     1 <1>   0.0800 
 42 H       -6.2300    -2.2060    -0.7610 H     1 <1>   0.0800 
 43 H       -8.6640    -1.9660    -0.3900 H     1 <1>   0.0800 
 44 H       -8.4350    -2.2220     1.3130 H     1 <1>   0.0800 
 45 H       -7.6110    -4.4330     2.1360 H     1 <1>   0.1500 
 46 H       -8.6160    -3.8580    -1.9640 H     1 <1>   0.1500 
 47 H       -8.6570    -6.3310    -2.1730 H     1 <1>   0.1500 
 48 H       -8.1670    -7.7120    -0.2240 H     1 <1>   0.1500 
@<TRIPOS>BOND
  1   1   2  2   
  2   2   3  am  
  3   2   4  1   
  4   3   5  1   
  5   3   6  1   
  6   4   7  2   
  7   4   8  1   
  8   5   9  1   
  9   5  26  1   
 10   5  27  1   
 11   6  10  1   
 12   6  28  1   
 13   6  29  1   
 14   7  11  1   
 15   8  12  1   
 16   8  13  1   
 17   9  14  1   
 18   9  30  1   
 19   9  31  1   
 20  10  15  1   
 21  10  32  1   
 22  10  33  1   
 23  11  12  2   
 24  11  34  1   
 25  12  35  1   
 26  13  36  1   
 27  13  37  1   
 28  13  38  1   
 29  14  15  1   
 30  14  16  am  
 31  15  39  1   
 32  15  40  1   
 33  16  17  2   
 34  16  18  1   
 35  18  19  1   
 36  18  41  1   
 37  18  42  1   
 38  19  20  1   
 39  19  43  1   
 40  19  44  1   
 41  20  21  ar  
 42  20  22  ar  
 43  21  23  ar  
 44  21  45  1   
 45  22  24  ar  
 46  22  46  1   
 47  23  25  ar  
 48  24  25  ar  
 49  24  47  1   
 50  25  48  1   
@<TRIPOS>SUBSTRUCTURE
  1 ****   9 GROUP 4 **** **** 0

# MOE 2024.06 (io_trps.svl 2023.06)
