@<TRIPOS>MOLECULE
NONAME
57 59 1 0 0 
SMALL
USER_CHARGES


@<TRIPOS>ATOM
  1 O       -1.4470     0.9510     2.3290 O.2   1 <1>  -0.5700 
  2 C       -2.1800     1.2010     1.3980 C.2   1 <1>   0.5690 
  3 N       -3.4330     0.6200     1.3150 N.am  1 <1>  -0.6600 
  4 C       -1.6320     2.1890     0.3400 C.3   1 <1>   0.2810 
  5 C       -4.4150     0.7550     0.2030 C.3   1 <1>   0.1400 
  6 C       -3.8700    -0.3900     2.3220 C.3   1 <1>   0.1400 
  7 N       -2.5180     3.3890     0.1900 N.am  1 <1>  -0.7300 
  8 C       -1.3340     1.5290    -1.0370 C.3   1 <1>  -0.0800 
  9 C       -4.5210    -0.5830    -0.5330 C.3   1 <1>  -0.1600 
 10 C       -3.9730    -1.7580     1.6430 C.3   1 <1>  -0.1600 
 11 C       -2.0850     4.6700     0.1860 C.2   1 <1>   0.5690 
 12 C       -0.4790     0.2580    -0.8860 C.3   1 <1>  -0.2400 
 13 C       -0.6160     2.4910    -1.9990 C.3   1 <1>  -0.2400 
 14 C       -4.9090    -1.7320     0.4210 C.3   1 <1>   0.4240 
 15 O       -0.9170     4.9650     0.1610 O.2   1 <1>  -0.5700 
 16 C       -3.1180     5.7640     0.2170 C.3   1 <1>  -0.1790 
 17 O       -6.1640    -1.3870     0.9690 O.3   1 <1>  -0.5600 
 18 C       -4.9490    -3.1130    -0.2950 C.ar  1 <1>  -0.1430 
 19 C       -7.3060    -1.7210     0.2490 C.3   1 <1>   0.1200 
 20 C       -3.8100    -3.6870    -0.8750 C.ar  1 <1>   0.0820 
 21 C       -6.1500    -3.8190    -0.3720 C.ar  1 <1>  -0.1430 
 22 C       -7.4180    -3.2370     0.2170 C.3   1 <1>  -0.0170 
 23 O       -2.6310    -3.0110    -0.8270 O.3   1 <1>  -0.3620 
 24 C       -3.8900    -4.9330    -1.4960 C.ar  1 <1>  -0.1500 
 25 C       -6.2160    -5.0580    -0.9880 C.ar  1 <1>  -0.1500 
 26 C       -1.3990    -3.6050    -1.1760 C.3   1 <1>   0.0400 
 27 C       -5.0870    -5.6160    -1.5500 C.ar  1 <1>  -0.1500 
 28 H       -0.6880     2.5340     0.7250 H     1 <1>   0.0800 
 29 H       -4.1340     1.5250    -0.4880 H     1 <1>   0.0800 
 30 H       -5.3740     1.0200     0.6150 H     1 <1>   0.0800 
 31 H       -4.8270    -0.1020     2.7220 H     1 <1>   0.0800 
 32 H       -3.1760    -0.4470     3.1420 H     1 <1>   0.0800 
 33 H       -3.5070     3.1990     0.3420 H     1 <1>   0.3700 
 34 H       -2.2570     1.2380    -1.5000 H     1 <1>   0.0800 
 35 H       -3.5730    -0.7840    -0.9870 H     1 <1>   0.0800 
 36 H       -5.2360    -0.5130    -1.3290 H     1 <1>   0.0800 
 37 H       -4.3350    -2.4870     2.3440 H     1 <1>   0.0800 
 38 H       -2.9820    -2.0540     1.3630 H     1 <1>   0.0800 
 39 H        0.4520     0.4860    -0.3970 H     1 <1>   0.0800 
 40 H       -0.2660    -0.1680    -1.8500 H     1 <1>   0.0800 
 41 H       -0.9970    -0.4860    -0.3060 H     1 <1>   0.0800 
 42 H        0.3010     2.8460    -1.5610 H     1 <1>   0.0800 
 43 H       -1.2350     3.3420    -2.2190 H     1 <1>   0.0800 
 44 H       -0.3870     1.9990    -2.9280 H     1 <1>   0.0800 
 45 H       -3.8010     5.6440    -0.6020 H     1 <1>   0.0800 
 46 H       -2.6350     6.7200     0.1320 H     1 <1>   0.0800 
 47 H       -3.6560     5.7280     1.1460 H     1 <1>   0.0800 
 48 H       -7.2370    -1.3140    -0.7440 H     1 <1>   0.0800 
 49 H       -8.1530    -1.2910     0.7530 H     1 <1>   0.0800 
 50 H       -8.2690    -3.5150    -0.3770 H     1 <1>   0.0800 
 51 H       -7.5620    -3.6100     1.2150 H     1 <1>   0.0800 
 52 H       -3.0330    -5.3900    -1.9490 H     1 <1>   0.1500 
 53 H       -7.1480    -5.5940    -1.0330 H     1 <1>   0.1500 
 54 H       -0.6150    -2.9060    -0.9480 H     1 <1>   0.0800 
 55 H       -1.4010    -3.8210    -2.2290 H     1 <1>   0.0800 
 56 H       -1.2680    -4.5020    -0.5960 H     1 <1>   0.0800 
 57 H       -5.1420    -6.5780    -2.0280 H     1 <1>   0.1500 
@<TRIPOS>BOND
  1   1   2  2   
  2   2   3  am  
  3   2   4  1   
  4   3   5  1   
  5   3   6  1   
  6   4   7  1   
  7   4   8  1   
  8   4  28  1   
  9   5   9  1   
 10   5  29  1   
 11   5  30  1   
 12   6  10  1   
 13   6  31  1   
 14   6  32  1   
 15   7  11  am  
 16   7  33  1   
 17   8  12  1   
 18   8  13  1   
 19   8  34  1   
 20   9  14  1   
 21   9  35  1   
 22   9  36  1   
 23  10  14  1   
 24  10  37  1   
 25  10  38  1   
 26  11  15  2   
 27  11  16  1   
 28  12  39  1   
 29  12  40  1   
 30  12  41  1   
 31  13  42  1   
 32  13  43  1   
 33  13  44  1   
 34  14  17  1   
 35  14  18  1   
 36  16  45  1   
 37  16  46  1   
 38  16  47  1   
 39  17  19  1   
 40  18  20  ar  
 41  18  21  ar  
 42  19  22  1   
 43  19  48  1   
 44  19  49  1   
 45  20  23  1   
 46  20  24  ar  
 47  21  22  1   
 48  21  25  ar  
 49  22  50  1   
 50  22  51  1   
 51  23  26  1   
 52  24  27  ar  
 53  24  52  1   
 54  25  27  ar  
 55  25  53  1   
 56  26  54  1   
 57  26  55  1   
 58  26  56  1   
 59  27  57  1   
@<TRIPOS>SUBSTRUCTURE
  1 ****   9 GROUP 4 **** **** 0

# MOE 2024.06 (io_trps.svl 2023.06)
