@<TRIPOS>MOLECULE
NONAME
47 49 1 0 0 
SMALL
USER_CHARGES


@<TRIPOS>ATOM
  1 O       -1.1610    -4.9710    -2.1270 O.co2 1 <1>  -0.9000 
  2 C       -0.3280    -4.4500    -1.3710 C.2   1 <1>   0.9060 
  3 O        0.8370    -4.8510    -1.3120 O.co2 1 <1>  -0.9000 
  4 C       -0.7770    -3.3550    -0.4270 C.3   1 <1>  -0.1220 
  5 C       -1.9270    -3.8690     0.4260 C.ar  1 <1>  -0.1440 
  6 C       -3.2190    -3.4170     0.2240 C.ar  1 <1>  -0.1500 
  7 C       -1.6810    -4.8730     1.3450 C.ar  1 <1>  -0.1500 
  8 C       -4.2730    -4.0190     0.8850 C.ar  1 <1>  -0.1500 
  9 C       -2.7310    -5.4820     2.0020 C.ar  1 <1>  -0.1500 
 10 C       -4.0320    -5.0820     1.7430 C.ar  1 <1>  -0.1440 
 11 C       -5.1700    -5.8860     2.3070 C.3   1 <1>   0.4870 
 12 N       -5.4010    -6.9310     1.2900 N.4   1 <1>  -0.9590 
 13 C       -6.3610    -6.5950     0.2030 C.3   1 <1>   0.3430 
 14 C       -5.6610    -8.3130     1.7320 C.3   1 <1>   0.3430 
 15 C       -6.8870    -7.9420    -0.3140 C.3   1 <1>   0.2000 
 16 C       -6.1410    -9.0310     0.4710 C.3   1 <1>  -0.0800 
 17 O       -8.2450    -8.0430    -0.0340 O.3   1 <1>  -0.6800 
 18 C       -4.9760    -9.6580    -0.3320 C.3   1 <1>   0.0210 
 19 C       -3.7610    -8.7670    -0.5560 C.2   1 <1>   0.1080 
 20 N       -3.8270    -7.5640    -1.0370 N.2   1 <1>  -0.7070 
 21 C       -2.4520    -9.1530    -0.2900 C.2   1 <1>  -0.1500 
 22 N       -2.5300    -7.1520    -1.1350 N.pl3 1 <1>   0.3000 
 23 C       -1.6940    -8.1020    -0.6670 C.2   1 <1>  -0.3320 
 24 C       -0.1880    -7.9120    -0.6510 C.3   1 <1>  -0.0600 
 25 H        0.0520    -3.0700     0.1920 H     1 <1>   0.0800 
 26 H       -1.0760    -2.5110    -1.0160 H     1 <1>   0.0800 
 27 H       -3.4030    -2.6240    -0.4790 H     1 <1>   0.1500 
 28 H       -0.6690    -5.2050     1.5110 H     1 <1>   0.1500 
 29 H       -5.2720    -3.6720     0.6910 H     1 <1>   0.1500 
 30 H       -2.5150    -6.2890     2.6800 H     1 <1>   0.1500 
 31 H       -6.0480    -5.2770     2.4500 H     1 <1>   0.0800 
 32 H       -4.8730    -6.3240     3.2450 H     1 <1>   0.0800 
 33 H       -4.5010    -6.9810     0.7510 H     1 <1>   0.4500 
 34 H       -7.1760    -5.9930     0.5660 H     1 <1>   0.0800 
 35 H       -5.8430    -6.0730    -0.5870 H     1 <1>   0.0800 
 36 H       -4.7710    -8.7700     2.1350 H     1 <1>   0.0800 
 37 H       -6.4410    -8.3180     2.4750 H     1 <1>   0.0800 
 38 H       -6.7600    -8.0290    -1.3810 H     1 <1>   0.0800 
 39 H       -6.8110    -9.8320     0.7330 H     1 <1>   0.0800 
 40 H       -8.4350    -8.0670     0.9230 H     1 <1>   0.4000 
 41 H       -5.3370    -9.9730    -1.2960 H     1 <1>   0.0800 
 42 H       -4.6450   -10.5440     0.1790 H     1 <1>   0.0800 
 43 H       -2.1230   -10.0940     0.1120 H     1 <1>   0.1500 
 44 H       -2.2120    -6.2420    -1.5390 H     1 <1>   0.2700 
 45 H        0.3090    -8.8170    -0.3560 H     1 <1>   0.0800 
 46 H        0.0820    -7.1270     0.0320 H     1 <1>   0.0800 
 47 H        0.1570    -7.6270    -1.6310 H     1 <1>   0.0800 
@<TRIPOS>BOND
  1   1   2  ar  
  2   2   3  ar  
  3   2   4  1   
  4   4   5  1   
  5   4  25  1   
  6   4  26  1   
  7   5   6  ar  
  8   5   7  ar  
  9   6   8  ar  
 10   6  27  1   
 11   7   9  ar  
 12   7  28  1   
 13   8  10  ar  
 14   8  29  1   
 15   9  10  ar  
 16   9  30  1   
 17  10  11  1   
 18  11  12  1   
 19  11  31  1   
 20  11  32  1   
 21  12  13  1   
 22  12  14  1   
 23  12  33  1   
 24  13  15  1   
 25  13  34  1   
 26  13  35  1   
 27  14  16  1   
 28  14  36  1   
 29  14  37  1   
 30  15  16  1   
 31  15  17  1   
 32  15  38  1   
 33  16  18  1   
 34  16  39  1   
 35  17  40  1   
 36  18  19  1   
 37  18  41  1   
 38  18  42  1   
 39  19  20  2   
 40  19  21  1   
 41  20  22  1   
 42  21  23  2   
 43  21  43  1   
 44  22  23  1   
 45  22  44  1   
 46  23  24  1   
 47  24  45  1   
 48  24  46  1   
 49  24  47  1   
@<TRIPOS>SUBSTRUCTURE
  1 ****  20 GROUP 4 **** **** 0

# MOE 2024.06 (io_trps.svl 2023.06)
