@<TRIPOS>MOLECULE
NONAME
46 48 1 0 0 
SMALL
USER_CHARGES


@<TRIPOS>ATOM
  1 S       -1.2650     0.1290    -1.5300 S.3   1 <1>  -0.0800 
  2 C       -0.5760     1.0950    -0.2740 C.2   1 <1>   0.1980 
  3 C       -1.4670    -1.1120    -0.3410 C.2   1 <1>   0.1980 
  4 N       -0.5390     0.5010     0.8500 N.2   1 <1>  -0.3380 
  5 C       -0.0990     2.5000    -0.6100 C.3   1 <1>   0.5230 
  6 N       -1.0480    -0.7650     0.8090 N.2   1 <1>  -0.3380 
  7 C       -2.0910    -2.4210    -0.7700 C.3   1 <1>  -0.0600 
  8 N        0.6820     3.0830     0.5340 N.4   1 <1>  -0.9590 
  9 C        0.7920     4.5770     0.4380 C.3   1 <1>   0.3430 
 10 C        2.0130     2.4160     0.6770 C.3   1 <1>   0.3430 
 11 C        1.5290     5.1840     1.6430 C.3   1 <1>   0.1000 
 12 C        2.7330     2.9650     1.9110 C.3   1 <1>  -0.1600 
 13 C        1.7050     6.6740     1.4150 C.2   1 <1>   0.2980 
 14 C        2.8880     4.4930     1.8580 C.3   1 <1>  -0.1600 
 15 O        2.1390     7.4140     2.4030 O.3   1 <1>  -0.0190 
 16 N        1.4640     7.2910     0.3280 N.2   1 <1>  -0.5650 
 17 N        2.1810     8.6080     1.9010 N.2   1 <1>  -0.4100 
 18 C        1.7910     8.5260     0.6930 C.2   1 <1>   0.3350 
 19 C        1.6880     9.7020    -0.2640 C.3   1 <1>   0.0210 
 20 C        3.0400    10.0820    -0.9000 C.3   1 <1>  -0.0800 
 21 C        2.8930    11.3530    -1.7470 C.3   1 <1>  -0.2400 
 22 C        3.6080     8.9490    -1.7680 C.3   1 <1>  -0.2400 
 23 H       -0.9650     3.1090    -0.8100 H     1 <1>   0.0800 
 24 H        0.5090     2.4710    -1.4980 H     1 <1>   0.0800 
 25 H       -1.4940    -2.8800    -1.5360 H     1 <1>   0.0800 
 26 H       -3.0820    -2.2500    -1.1470 H     1 <1>   0.0800 
 27 H       -2.1500    -3.0890     0.0710 H     1 <1>   0.0800 
 28 H        0.1470     2.8300     1.3810 H     1 <1>   0.4500 
 29 H       -0.1890     5.0200     0.3730 H     1 <1>   0.0800 
 30 H        1.3320     4.8410    -0.4580 H     1 <1>   0.0800 
 31 H        2.6140     2.6010    -0.1990 H     1 <1>   0.0800 
 32 H        1.8870     1.3490     0.7850 H     1 <1>   0.0800 
 33 H        0.9180     5.0570     2.5190 H     1 <1>   0.0800 
 34 H        3.7080     2.5120     1.9750 H     1 <1>   0.0800 
 35 H        2.1920     2.6760     2.7970 H     1 <1>   0.0800 
 36 H        3.3340     4.8440     2.7750 H     1 <1>   0.0800 
 37 H        3.5540     4.7570     1.0530 H     1 <1>   0.0800 
 38 H        1.3120    10.5440     0.2900 H     1 <1>   0.0800 
 39 H        0.9720     9.4710    -1.0320 H     1 <1>   0.0800 
 40 H        3.7410    10.2860    -0.1060 H     1 <1>   0.0800 
 41 H        2.2030    11.1930    -2.5570 H     1 <1>   0.0800 
 42 H        3.8450    11.6370    -2.1600 H     1 <1>   0.0800 
 43 H        2.5340    12.1670    -1.1440 H     1 <1>   0.0800 
 44 H        2.9220     8.6920    -2.5550 H     1 <1>   0.0800 
 45 H        3.7970     8.0730    -1.1730 H     1 <1>   0.0800 
 46 H        4.5400     9.2530    -2.2120 H     1 <1>   0.0800 
@<TRIPOS>BOND
  1   1   2  1   
  2   1   3  1   
  3   2   4  2   
  4   2   5  1   
  5   3   6  2   
  6   3   7  1   
  7   4   6  1   
  8   5   8  1   
  9   5  23  1   
 10   5  24  1   
 11   7  25  1   
 12   7  26  1   
 13   7  27  1   
 14   8   9  1   
 15   8  10  1   
 16   8  28  1   
 17   9  11  1   
 18   9  29  1   
 19   9  30  1   
 20  10  12  1   
 21  10  31  1   
 22  10  32  1   
 23  11  13  1   
 24  11  14  1   
 25  11  33  1   
 26  12  14  1   
 27  12  34  1   
 28  12  35  1   
 29  13  15  1   
 30  13  16  2   
 31  14  36  1   
 32  14  37  1   
 33  15  17  1   
 34  16  18  1   
 35  17  18  2   
 36  18  19  1   
 37  19  20  1   
 38  19  38  1   
 39  19  39  1   
 40  20  21  1   
 41  20  22  1   
 42  20  40  1   
 43  21  41  1   
 44  21  42  1   
 45  21  43  1   
 46  22  44  1   
 47  22  45  1   
 48  22  46  1   
@<TRIPOS>SUBSTRUCTURE
  1 ****   9 GROUP 4 **** **** 0

# MOE 2024.06 (io_trps.svl 2023.06)
