@<TRIPOS>MOLECULE
NONAME
50 51 1 0 0 
SMALL
USER_CHARGES


@<TRIPOS>ATOM
  1 O       -1.0220     0.1190     2.3140 O.2   1 <1>  -0.5700 
  2 C       -1.4800     0.5990     1.3010 C.2   1 <1>   0.5690 
  3 N       -1.9490    -0.2070     0.2860 N.am  1 <1>  -0.6600 
  4 C       -1.5570     2.1360     1.2240 C.3   1 <1>   0.1710 
  5 C       -1.8000    -1.6850     0.3910 C.3   1 <1>   0.3200 
  6 C       -2.6260     0.2850    -0.9500 C.3   1 <1>   0.1400 
  7 N       -0.3180     2.8380     0.7820 N.3   1 <1>  -0.8100 
  8 C       -3.1360    -2.3030     0.7510 C.2   1 <1>  -0.3320 
  9 C       -4.1260     0.5130    -0.7210 C.3   1 <1>   0.1200 
 10 C       -0.4410     4.2960     0.9630 C.3   1 <1>   0.2530 
 11 C        0.1120     2.4780    -0.5770 C.3   1 <1>   0.0300 
 12 N       -3.9870    -2.9250    -0.0920 N.pl3 1 <1>   0.0480 
 13 C       -3.7100    -2.3410     1.9730 C.2   1 <1>   0.0770 
 14 O       -4.7220     0.8150    -1.9380 O.3   1 <1>  -0.6800 
 15 C        0.8760     5.0180     0.7010 C.ar  1 <1>  -0.1430 
 16 C       -5.0290    -3.2920     0.6870 C.2   1 <1>   0.0360 
 17 C       -3.8610    -3.1470    -1.5440 C.3   1 <1>   0.0160 
 18 N       -4.9030    -2.9620     1.9310 N.2   1 <1>  -0.5650 
 19 C        2.0290     4.6270     1.3630 C.ar  1 <1>  -0.1500 
 20 C        0.9380     6.0750    -0.1940 C.ar  1 <1>  -0.1500 
 21 C        3.2270     5.2820     1.1350 C.ar  1 <1>  -0.1500 
 22 C        2.1350     6.7300    -0.4230 C.ar  1 <1>  -0.1500 
 23 C        3.2870     6.3370     0.2390 C.ar  1 <1>  -0.1430 
 24 C        4.6000     7.0570    -0.0100 C.3   1 <1>  -0.0970 
 25 H       -1.7900     2.4700     2.2200 H     1 <1>   0.0800 
 26 H       -2.3760     2.4310     0.5980 H     1 <1>   0.0800 
 27 H       -1.0830    -1.9360     1.1540 H     1 <1>   0.0800 
 28 H       -1.4270    -2.0830    -0.5360 H     1 <1>   0.0800 
 29 H       -2.4950    -0.4390    -1.7340 H     1 <1>   0.0800 
 30 H       -2.1730     1.2020    -1.2730 H     1 <1>   0.0800 
 31 H       -4.3060     1.3250    -0.0400 H     1 <1>   0.0800 
 32 H       -4.5990    -0.3740    -0.3420 H     1 <1>   0.0800 
 33 H       -0.7350     4.5030     1.9770 H     1 <1>   0.0800 
 34 H       -1.2050     4.6780     0.3080 H     1 <1>   0.0800 
 35 H        0.2130     1.4100    -0.6630 H     1 <1>   0.0800 
 36 H        1.0750     2.9120    -0.7870 H     1 <1>   0.0800 
 37 H       -0.5940     2.8350    -1.3050 H     1 <1>   0.0800 
 38 H       -3.3170    -1.9390     2.8940 H     1 <1>   0.1500 
 39 H       -4.5700     1.7480    -2.1870 H     1 <1>   0.4000 
 40 H       -5.8820    -3.8120     0.2900 H     1 <1>   0.1500 
 41 H       -2.8690    -3.4890    -1.7720 H     1 <1>   0.0800 
 42 H       -4.0600    -2.2270    -2.0630 H     1 <1>   0.0800 
 43 H       -4.5720    -3.8900    -1.8560 H     1 <1>   0.0800 
 44 H        1.9900     3.8020     2.0540 H     1 <1>   0.1500 
 45 H        0.0550     6.3950    -0.7180 H     1 <1>   0.1500 
 46 H        4.1100     4.9630     1.6580 H     1 <1>   0.1500 
 47 H        2.1670     7.5500    -1.1180 H     1 <1>   0.1500 
 48 H        5.4280     6.3870     0.1300 H     1 <1>   0.0800 
 49 H        4.6980     7.8800     0.6750 H     1 <1>   0.0800 
 50 H        4.6350     7.4350    -1.0160 H     1 <1>   0.0800 
@<TRIPOS>BOND
  1   1   2  2   
  2   2   3  am  
  3   2   4  1   
  4   3   5  1   
  5   3   6  1   
  6   4   7  1   
  7   4  25  1   
  8   4  26  1   
  9   5   8  1   
 10   5  27  1   
 11   5  28  1   
 12   6   9  1   
 13   6  29  1   
 14   6  30  1   
 15   7  10  1   
 16   7  11  1   
 17   8  12  1   
 18   8  13  2   
 19   9  14  1   
 20   9  31  1   
 21   9  32  1   
 22  10  15  1   
 23  10  33  1   
 24  10  34  1   
 25  11  35  1   
 26  11  36  1   
 27  11  37  1   
 28  12  16  1   
 29  12  17  1   
 30  13  18  1   
 31  13  38  1   
 32  14  39  1   
 33  15  19  ar  
 34  15  20  ar  
 35  16  18  2   
 36  16  40  1   
 37  17  41  1   
 38  17  42  1   
 39  17  43  1   
 40  19  21  ar  
 41  19  44  1   
 42  20  22  ar  
 43  20  45  1   
 44  21  23  ar  
 45  21  46  1   
 46  22  23  ar  
 47  22  47  1   
 48  23  24  1   
 49  24  48  1   
 50  24  49  1   
 51  24  50  1   
@<TRIPOS>SUBSTRUCTURE
  1 ****   4 GROUP 4 **** **** 0

# MOE 2024.06 (io_trps.svl 2023.06)
