@<TRIPOS>MOLECULE
NONAME
33 35 1 0 0 
SMALL
USER_CHARGES


@<TRIPOS>ATOM
  1 N        1.3370     1.1230    -2.0050 N.1   1 <1>  -0.5570 
  2 C        1.1900     2.1470    -1.5180 C.1   1 <1>   0.5380 
  3 C        1.0690     3.4360    -0.8850 C.2   1 <1>   0.3080 
  4 N       -0.0160     4.1710    -0.8470 N.2   1 <1>  -0.7070 
  5 C        2.1170     4.0720    -0.2210 C.2   1 <1>  -0.1500 
  6 N        0.3230     5.2850    -0.1760 N.pl3 1 <1>   0.3140 
  7 C        1.6090     5.2420     0.2200 C.2   1 <1>  -0.3320 
  8 C       -0.6680     6.3560     0.0780 C.3   1 <1>   0.0960 
  9 C        2.2710     6.3570     0.9950 C.3   1 <1>   0.3890 
 10 C       -0.2230     7.7280    -0.4590 C.3   1 <1>  -0.1600 
 11 N        2.1620     7.5860     0.1890 N.pl3 1 <1>  -0.8380 
 12 C        0.9160     8.3750     0.3360 C.3   1 <1>   0.2090 
 13 C        3.3200     8.1910    -0.2320 C.ar  1 <1>   0.4100 
 14 N        3.6110     9.3800     0.2530 N.ar  1 <1>  -0.6200 
 15 C        4.1600     7.5590    -1.1260 C.ar  1 <1>  -0.1500 
 16 C        4.7440     9.9100    -0.1670 C.ar  1 <1>   0.4770 
 17 C        5.3070     8.2050    -1.4900 C.ar  1 <1>   0.1600 
 18 N        5.6190     9.3940    -1.0120 N.ar  1 <1>  -0.6200 
 19 C        5.0890    11.2730     0.3800 C.3   1 <1>  -0.0970 
 20 H        3.1130     3.6820    -0.1070 H     1 <1>   0.1500 
 21 H       -0.8500     6.4080     1.1350 H     1 <1>   0.0800 
 22 H       -1.5850     6.0710    -0.4050 H     1 <1>   0.0800 
 23 H        3.3070     6.1200     1.1710 H     1 <1>   0.0800 
 24 H        1.7900     6.4940     1.9480 H     1 <1>   0.0800 
 25 H       -1.0670     8.3910    -0.4130 H     1 <1>   0.0800 
 26 H        0.0610     7.6430    -1.4940 H     1 <1>   0.0800 
 27 H        0.6560     8.4600     1.3770 H     1 <1>   0.0800 
 28 H        1.0750     9.3710    -0.0440 H     1 <1>   0.0800 
 29 H        3.8990     6.5950    -1.5160 H     1 <1>   0.1500 
 30 H        5.9900     7.7500    -2.1870 H     1 <1>   0.1500 
 31 H        4.4220    11.5400     1.1790 H     1 <1>   0.0800 
 32 H        5.0080    12.0010    -0.4040 H     1 <1>   0.0800 
 33 H        6.0960    11.2670     0.7530 H     1 <1>   0.0800 
@<TRIPOS>BOND
  1   1   2  3   
  2   2   3  1   
  3   3   4  2   
  4   3   5  1   
  5   4   6  1   
  6   5   7  2   
  7   5  20  1   
  8   6   7  1   
  9   6   8  1   
 10   7   9  1   
 11   8  10  1   
 12   8  21  1   
 13   8  22  1   
 14   9  11  1   
 15   9  23  1   
 16   9  24  1   
 17  10  12  1   
 18  10  25  1   
 19  10  26  1   
 20  11  12  1   
 21  11  13  1   
 22  12  27  1   
 23  12  28  1   
 24  13  14  ar  
 25  13  15  ar  
 26  14  16  ar  
 27  15  17  ar  
 28  15  29  1   
 29  16  18  ar  
 30  16  19  1   
 31  17  18  ar  
 32  17  30  1   
 33  19  31  1   
 34  19  32  1   
 35  19  33  1   
@<TRIPOS>SUBSTRUCTURE
  1 ****  11 GROUP 4 **** **** 0

# MOE 2024.06 (io_trps.svl 2023.06)
