@<TRIPOS>MOLECULE
NONAME
50 51 1 0 0 
SMALL
USER_CHARGES


@<TRIPOS>ATOM
  1 S        0.8240     0.4870     0.5530 S.o2  1 <1>   1.3330 
  2 O        1.5140     0.5250     1.8220 O.2   1 <1>  -0.6500 
  3 O        1.5170     0.0250    -0.6280 O.2   1 <1>  -0.6500 
  4 N       -0.5780    -0.4540     0.7340 N.am  1 <1>  -0.8490 
  5 C        0.1640     2.1230     0.2380 C.3   1 <1>  -0.0550 
  6 C       -1.1370    -0.9190    -0.5400 C.3   1 <1>   0.1160 
  7 C       -0.3690    -1.5940     1.6320 C.3   1 <1>   0.1160 
  8 C        1.2500     3.2080     0.1370 C.3   1 <1>  -0.0800 
  9 C        0.6570     4.6000    -0.0590 C.3   1 <1>   0.2000 
 10 C        2.2020     3.0450    -1.0510 C.3   1 <1>   0.1400 
 11 O        0.2620     5.1240     1.1600 O.3   1 <1>  -0.6800 
 12 C        1.7700     5.4240    -0.7000 C.3   1 <1>   0.1400 
 13 N        2.6210     4.4240    -1.3950 N.am  1 <1>  -0.6600 
 14 C        3.7420     4.6890    -2.1400 C.2   1 <1>   0.5690 
 15 O        4.4020     3.7950    -2.6140 O.2   1 <1>  -0.5700 
 16 C        4.1860     6.1210    -2.4160 C.3   1 <1>   0.0440 
 17 C        4.4760     6.9210    -1.1500 C.ar  1 <1>  -0.1440 
 18 C        3.8920     8.1620    -0.9490 C.ar  1 <1>  -0.1500 
 19 C        5.3180     6.4060    -0.1790 C.ar  1 <1>  -0.1500 
 20 C        4.1290     8.8830     0.2120 C.ar  1 <1>  -0.1440 
 21 C        5.5610     7.1200     0.9790 C.ar  1 <1>  -0.1500 
 22 C        4.9700     8.3560     1.1860 C.ar  1 <1>  -0.1440 
 23 C        3.4620    10.2390     0.3890 C.3   1 <1>  -0.0970 
 24 C        5.2630     9.1080     2.4760 C.3   1 <1>  -0.0970 
 25 H       -0.4110     2.1080    -0.6660 H     1 <1>   0.0800 
 26 H       -0.4980     2.3820     1.0420 H     1 <1>   0.0800 
 27 H       -2.0690    -1.4300    -0.3690 H     1 <1>   0.0800 
 28 H       -0.4520    -1.5920    -1.0290 H     1 <1>   0.0800 
 29 H       -1.3240    -0.0830    -1.1920 H     1 <1>   0.0800 
 30 H       -1.2790    -2.1590     1.7360 H     1 <1>   0.0800 
 31 H       -0.0770    -1.2450     2.6090 H     1 <1>   0.0800 
 32 H        0.4060    -2.2360     1.2480 H     1 <1>   0.0800 
 33 H        1.8510     3.1980     1.0310 H     1 <1>   0.0800 
 34 H       -0.1990     4.5750    -0.7120 H     1 <1>   0.0800 
 35 H        1.6990     2.6120    -1.9000 H     1 <1>   0.0800 
 36 H        3.0540     2.4350    -0.7980 H     1 <1>   0.0800 
 37 H        1.0240     5.1810     1.7700 H     1 <1>   0.4000 
 38 H        2.3510     5.9210     0.0570 H     1 <1>   0.0800 
 39 H        1.3710     6.1380    -1.3990 H     1 <1>   0.0800 
 40 H        5.0780     6.0940    -3.0150 H     1 <1>   0.0800 
 41 H        3.4230     6.6010    -2.9980 H     1 <1>   0.0800 
 42 H        3.2450     8.5720    -1.7030 H     1 <1>   0.1500 
 43 H        5.7850     5.4460    -0.3200 H     1 <1>   0.1500 
 44 H        6.2180     6.7010     1.7210 H     1 <1>   0.1500 
 45 H        2.8540    10.4870    -0.4630 H     1 <1>   0.0800 
 46 H        4.2080    11.0040     0.5040 H     1 <1>   0.0800 
 47 H        2.8320    10.2290     1.2600 H     1 <1>   0.0800 
 48 H        5.9250     8.5450     3.1100 H     1 <1>   0.0800 
 49 H        4.3500     9.2860     3.0150 H     1 <1>   0.0800 
 50 H        5.7310    10.0510     2.2550 H     1 <1>   0.0800 
@<TRIPOS>BOND
  1   1   2  2   
  2   1   3  2   
  3   1   4  am  
  4   1   5  1   
  5   4   6  1   
  6   4   7  1   
  7   5   8  1   
  8   5  25  1   
  9   5  26  1   
 10   6  27  1   
 11   6  28  1   
 12   6  29  1   
 13   7  30  1   
 14   7  31  1   
 15   7  32  1   
 16   8   9  1   
 17   8  10  1   
 18   8  33  1   
 19   9  11  1   
 20   9  12  1   
 21   9  34  1   
 22  10  13  1   
 23  10  35  1   
 24  10  36  1   
 25  11  37  1   
 26  12  13  1   
 27  12  38  1   
 28  12  39  1   
 29  13  14  am  
 30  14  15  2   
 31  14  16  1   
 32  16  17  1   
 33  16  40  1   
 34  16  41  1   
 35  17  18  ar  
 36  17  19  ar  
 37  18  20  ar  
 38  18  42  1   
 39  19  21  ar  
 40  19  43  1   
 41  20  22  ar  
 42  20  23  1   
 43  21  22  ar  
 44  21  44  1   
 45  22  24  1   
 46  23  45  1   
 47  23  46  1   
 48  23  47  1   
 49  24  48  1   
 50  24  49  1   
 51  24  50  1   
@<TRIPOS>SUBSTRUCTURE
  1 ****  13 GROUP 4 **** **** 0

# MOE 2024.06 (io_trps.svl 2023.06)
