@<TRIPOS>MOLECULE
NONAME
58 61 1 0 0 
SMALL
USER_CHARGES


@<TRIPOS>ATOM
  1 O        1.4820    -0.5800    -1.0420 O.3   1 <1>  -0.5600 
  2 C        2.2760    -1.2780    -0.1100 C.3   1 <1>   0.4240 
  3 C        0.0990    -0.6840    -0.9160 C.3   1 <1>   0.1200 
  4 C        1.6870    -2.6720     0.2000 C.ar  1 <1>  -0.1440 
  5 C        2.3900    -0.4280     1.1660 C.3   1 <1>  -0.1600 
  6 C        3.6530    -1.4120    -0.7770 C.3   1 <1>  -0.1600 
  7 C       -0.3130    -2.1230    -1.2110 C.3   1 <1>  -0.0160 
  8 C        0.4640    -3.0730    -0.3220 C.ar  1 <1>  -0.1440 
  9 C        2.3730    -3.5590     1.0210 C.ar  1 <1>  -0.1500 
 10 C        3.0610     0.9160     0.8890 C.3   1 <1>   0.2090 
 11 C        4.2960    -0.0460    -1.0150 C.3   1 <1>   0.2090 
 12 C       -0.0500    -4.3270    -0.0330 C.ar  1 <1>  -0.1500 
 13 C        1.8790    -4.8180     1.3150 C.ar  1 <1>   0.0820 
 14 N        4.3930     0.6720     0.2780 N.pl3 1 <1>  -0.8380 
 15 C        0.6380    -5.2140     0.7910 C.ar  1 <1>   0.0820 
 16 O        2.6800    -5.5700     2.1230 O.3   1 <1>  -0.3630 
 17 C        5.3280     1.6860     0.3440 C.ar  1 <1>   0.4100 
 18 O        0.1210    -6.4390     1.1060 O.3   1 <1>  -0.3630 
 19 C        2.7240    -6.9750     2.0080 C.3   1 <1>   0.0400 
 20 N        4.8840     2.9360     0.2870 N.ar  1 <1>  -0.6200 
 21 C        6.6770     1.3620     0.4520 C.ar  1 <1>  -0.1500 
 22 C       -1.1860    -6.8210     0.7380 C.3   1 <1>   0.0400 
 23 C        5.7970     3.8940     0.3330 C.ar  1 <1>   0.1670 
 24 C        7.6240     2.3560     0.5000 C.ar  1 <1>  -0.1500 
 25 C        7.1600     3.6540     0.4370 C.ar  1 <1>  -0.1500 
 26 C        5.2690     5.3290     0.2620 C.3   1 <1>   0.0630 
 27 C        5.7710     6.0500    -0.9970 C.3   1 <1>  -0.2400 
 28 C        5.6270     6.1270     1.5230 C.3   1 <1>  -0.2400 
 29 H       -0.3480    -0.0100    -1.6260 H     1 <1>   0.0800 
 30 H       -0.1920    -0.3920     0.0770 H     1 <1>   0.0800 
 31 H        2.9850    -0.9480     1.8930 H     1 <1>   0.0800 
 32 H        1.4220    -0.2740     1.6020 H     1 <1>   0.0800 
 33 H        3.5440    -1.9340    -1.7090 H     1 <1>   0.0800 
 34 H        4.3140    -1.9850    -0.1560 H     1 <1>   0.0800 
 35 H       -0.1120    -2.3470    -2.2440 H     1 <1>   0.0800 
 36 H       -1.3690    -2.2300    -1.0400 H     1 <1>   0.0800 
 37 H        3.3180    -3.2830     1.4510 H     1 <1>   0.1500 
 38 H        3.1810     1.4640     1.8080 H     1 <1>   0.0800 
 39 H        2.4610     1.5070     0.2170 H     1 <1>   0.0800 
 40 H        3.7010     0.5340    -1.7020 H     1 <1>   0.0800 
 41 H        5.2760    -0.1720    -1.4410 H     1 <1>   0.0800 
 42 H       -0.9950    -4.5950    -0.4620 H     1 <1>   0.1500 
 43 H        3.6400    -7.3190     2.4520 H     1 <1>   0.0800 
 44 H        2.6930    -7.2440     0.9670 H     1 <1>   0.0800 
 45 H        1.8850    -7.3920     2.5360 H     1 <1>   0.0800 
 46 H        6.9540     0.3280     0.5010 H     1 <1>   0.1500 
 47 H       -1.3790    -7.7930     1.1560 H     1 <1>   0.0800 
 48 H       -1.2480    -6.8680    -0.3350 H     1 <1>   0.0800 
 49 H       -1.8840    -6.1070     1.1370 H     1 <1>   0.0800 
 50 H        8.6730     2.1360     0.5840 H     1 <1>   0.1500 
 51 H        7.8560     4.4710     0.4690 H     1 <1>   0.1500 
 52 H        4.1950     5.2810     0.2020 H     1 <1>   0.0800 
 53 H        6.8390     6.1660    -0.9740 H     1 <1>   0.0800 
 54 H        5.3170     7.0210    -1.0740 H     1 <1>   0.0800 
 55 H        5.5050     5.4790    -1.8690 H     1 <1>   0.0800 
 56 H        6.6900     6.2530     1.6120 H     1 <1>   0.0800 
 57 H        5.2680     5.6060     2.3940 H     1 <1>   0.0800 
 58 H        5.1650     7.0970     1.4920 H     1 <1>   0.0800 
@<TRIPOS>BOND
  1   1   2  1   
  2   1   3  1   
  3   2   4  1   
  4   2   5  1   
  5   2   6  1   
  6   3   7  1   
  7   3  29  1   
  8   3  30  1   
  9   4   8  ar  
 10   4   9  ar  
 11   5  10  1   
 12   5  31  1   
 13   5  32  1   
 14   6  11  1   
 15   6  33  1   
 16   6  34  1   
 17   7   8  1   
 18   7  35  1   
 19   7  36  1   
 20   8  12  ar  
 21   9  13  ar  
 22   9  37  1   
 23  10  14  1   
 24  10  38  1   
 25  10  39  1   
 26  11  14  1   
 27  11  40  1   
 28  11  41  1   
 29  12  15  ar  
 30  12  42  1   
 31  13  15  ar  
 32  13  16  1   
 33  14  17  1   
 34  15  18  1   
 35  16  19  1   
 36  17  20  ar  
 37  17  21  ar  
 38  18  22  1   
 39  19  43  1   
 40  19  44  1   
 41  19  45  1   
 42  20  23  ar  
 43  21  24  ar  
 44  21  46  1   
 45  22  47  1   
 46  22  48  1   
 47  22  49  1   
 48  23  25  ar  
 49  23  26  1   
 50  24  25  ar  
 51  24  50  1   
 52  25  51  1   
 53  26  27  1   
 54  26  28  1   
 55  26  52  1   
 56  27  53  1   
 57  27  54  1   
 58  27  55  1   
 59  28  56  1   
 60  28  57  1   
 61  28  58  1   
@<TRIPOS>SUBSTRUCTURE
  1 ****   2 GROUP 4 **** **** 0

# MOE 2024.06 (io_trps.svl 2023.06)
