@<TRIPOS>MOLECULE
NONAME
51 53 1 0 0 
SMALL
USER_CHARGES


@<TRIPOS>ATOM
  1 O       -0.4550     0.8680     1.1760 O.2   1 <1>  -0.5700 
  2 C       -0.3540     1.8730     0.5200 C.2   1 <1>   0.5690 
  3 N       -0.6610     3.0770     1.0540 N.am  1 <1>  -0.7300 
  4 C        0.1000     1.7960    -0.9420 C.3   1 <1>   0.1810 
  5 C       -0.5630     4.3530     0.3060 C.3   1 <1>   0.3640 
  6 O        0.5380     3.0400    -1.4480 O.3   1 <1>  -0.5600 
  7 C       -1.7970     5.2010     0.5880 C.ar  1 <1>  -0.1440 
  8 C       -0.3640     4.1120    -1.2090 C.3   1 <1>   0.2610 
  9 C       -1.6500     6.5580     0.8410 C.ar  1 <1>  -0.1500 
 10 C       -3.0720     4.6500     0.5890 C.ar  1 <1>  -0.1500 
 11 C        0.0670     5.4130    -1.9000 C.2   1 <1>   0.5690 
 12 C       -2.7560     7.3500     1.0960 C.ar  1 <1>  -0.1500 
 13 C       -4.1790     5.4410     0.8450 C.ar  1 <1>  -0.1500 
 14 O       -0.7340     5.9020    -2.6650 O.2   1 <1>  -0.5700 
 15 N        1.2780     6.0330    -1.6550 N.am  1 <1>  -0.6600 
 16 C       -4.0210     6.7910     1.0990 C.ar  1 <1>  -0.1500 
 17 C        1.5810     7.3710    -2.2340 C.3   1 <1>   0.1400 
 18 C        2.4310     5.4410    -0.9210 C.3   1 <1>   0.1400 
 19 C        1.9850     8.3350    -1.1150 C.3   1 <1>  -0.1600 
 20 C        2.8470     6.3750     0.2180 C.3   1 <1>  -0.1600 
 21 C        3.1660     7.7940    -0.2860 C.3   1 <1>  -0.0800 
 22 C        3.5030     8.7040     0.9100 C.3   1 <1>  -0.1600 
 23 C        3.9730    10.0980     0.4930 C.3   1 <1>   0.1200 
 24 O        4.3390    10.7780     1.6460 O.3   1 <1>  -0.5600 
 25 C        4.8050    12.0690     1.4190 C.3   1 <1>   0.0400 
 26 H       -1.0000     3.1220     2.0160 H     1 <1>   0.3700 
 27 H       -0.7140     1.4500    -1.5520 H     1 <1>   0.0800 
 28 H        0.9160     1.1020    -1.0260 H     1 <1>   0.0800 
 29 H        0.2940     4.8780     0.6850 H     1 <1>   0.0800 
 30 H       -1.3100     3.8280    -1.6360 H     1 <1>   0.0800 
 31 H       -0.6740     7.0130     0.8350 H     1 <1>   0.1500 
 32 H       -3.2150     3.6010     0.3910 H     1 <1>   0.1500 
 33 H       -2.6320     8.4010     1.2900 H     1 <1>   0.1500 
 34 H       -5.1630     5.0060     0.8440 H     1 <1>   0.1500 
 35 H       -4.8820     7.4070     1.2970 H     1 <1>   0.1500 
 36 H        2.3830     7.2720    -2.9450 H     1 <1>   0.0800 
 37 H        0.7260     7.7680    -2.7540 H     1 <1>   0.0800 
 38 H        2.1970     4.4730    -0.5200 H     1 <1>   0.0800 
 39 H        3.2520     5.3170    -1.6080 H     1 <1>   0.0800 
 40 H        2.2460     9.2760    -1.5630 H     1 <1>   0.0800 
 41 H        1.1320     8.5000    -0.4800 H     1 <1>   0.0800 
 42 H        2.0560     6.4160     0.9450 H     1 <1>   0.0800 
 43 H        3.7140     5.9630     0.7040 H     1 <1>   0.0800 
 44 H        4.0320     7.7340    -0.9250 H     1 <1>   0.0800 
 45 H        4.2900     8.2480     1.4850 H     1 <1>   0.0800 
 46 H        2.6390     8.8050     1.5440 H     1 <1>   0.0800 
 47 H        3.1820    10.6460     0.0100 H     1 <1>   0.0800 
 48 H        4.8300    10.0320    -0.1560 H     1 <1>   0.0800 
 49 H        5.0580    12.5040     2.3690 H     1 <1>   0.0800 
 50 H        4.0300    12.6490     0.9490 H     1 <1>   0.0800 
 51 H        5.6810    12.0260     0.7950 H     1 <1>   0.0800 
@<TRIPOS>BOND
  1   1   2  2   
  2   2   3  am  
  3   2   4  1   
  4   3   5  1   
  5   3  26  1   
  6   4   6  1   
  7   4  27  1   
  8   4  28  1   
  9   5   7  1   
 10   5   8  1   
 11   5  29  1   
 12   6   8  1   
 13   7   9  ar  
 14   7  10  ar  
 15   8  11  1   
 16   8  30  1   
 17   9  12  ar  
 18   9  31  1   
 19  10  13  ar  
 20  10  32  1   
 21  11  14  2   
 22  11  15  am  
 23  12  16  ar  
 24  12  33  1   
 25  13  16  ar  
 26  13  34  1   
 27  15  17  1   
 28  15  18  1   
 29  16  35  1   
 30  17  19  1   
 31  17  36  1   
 32  17  37  1   
 33  18  20  1   
 34  18  38  1   
 35  18  39  1   
 36  19  21  1   
 37  19  40  1   
 38  19  41  1   
 39  20  21  1   
 40  20  42  1   
 41  20  43  1   
 42  21  22  1   
 43  21  44  1   
 44  22  23  1   
 45  22  45  1   
 46  22  46  1   
 47  23  24  1   
 48  23  47  1   
 49  23  48  1   
 50  24  25  1   
 51  25  49  1   
 52  25  50  1   
 53  25  51  1   
@<TRIPOS>SUBSTRUCTURE
  1 ****  15 GROUP 4 **** **** 0

# MOE 2024.06 (io_trps.svl 2023.06)
