@<TRIPOS>MOLECULE
NONAME
42 44 1 0 0 
SMALL
USER_CHARGES


@<TRIPOS>ATOM
  1 O       -0.1850    -0.2840     2.4000 O.2   1 <1>  -0.5700 
  2 C       -0.8380     0.5020     1.7560 C.2   1 <1>   0.5690 
  3 N       -1.7140     0.0780     0.7920 N.am  1 <1>  -0.6600 
  4 C       -0.6730     1.9820     2.0770 C.3   1 <1>   0.0440 
  5 C       -2.5270     0.9300    -0.1150 C.3   1 <1>   0.1400 
  6 C       -1.9140    -1.3530     0.4730 C.3   1 <1>   0.1400 
  7 C       -0.1930     2.8070     0.8810 C.ar  1 <1>  -0.1440 
  8 C       -3.3420    -0.0480    -0.9660 C.3   1 <1>   0.2000 
  9 C       -3.2520    -1.4040    -0.2650 C.3   1 <1>  -0.0800 
 10 C       -0.8790     3.9180     0.3940 C.ar  1 <1>   0.0820 
 11 C        0.9730     2.4160     0.2390 C.ar  1 <1>  -0.1500 
 12 O       -4.6700     0.3390    -1.0570 O.3   1 <1>  -0.6800 
 13 C       -3.3900    -2.5830    -1.2430 C.3   1 <1>  -0.0170 
 14 O       -2.0010     4.3680     0.9800 O.3   1 <1>  -0.5320 
 15 C       -0.4200     4.6020    -0.7180 C.ar  1 <1>  -0.1500 
 16 C        1.4380     3.1030    -0.8700 C.ar  1 <1>  -0.1500 
 17 C       -3.3390    -3.9220    -0.5260 C.ar  1 <1>   0.1670 
 18 C        0.7390     4.1960    -1.3520 C.ar  1 <1>  -0.1500 
 19 N       -2.1360    -4.3960    -0.2450 N.ar  1 <1>  -0.6200 
 20 C       -4.5220    -4.5830    -0.1970 C.ar  1 <1>   0.1600 
 21 C       -2.1930    -5.5580     0.3840 C.ar  1 <1>   0.1600 
 22 N       -4.5820    -5.7450     0.4320 N.ar  1 <1>  -0.6200 
 23 C       -3.3760    -6.2100     0.7110 C.ar  1 <1>   0.1600 
 24 H       -1.6100     2.3340     2.4580 H     1 <1>   0.0800 
 25 H        0.0490     2.0800     2.8670 H     1 <1>   0.0800 
 26 H       -3.1650     1.5760     0.4610 H     1 <1>   0.0800 
 27 H       -1.8830     1.5140    -0.7490 H     1 <1>   0.0800 
 28 H       -1.1100    -1.6870    -0.1620 H     1 <1>   0.0800 
 29 H       -1.9290    -1.9540     1.3670 H     1 <1>   0.0800 
 30 H       -2.9330    -0.0900    -1.9610 H     1 <1>   0.0800 
 31 H       -4.0200    -1.4720     0.4860 H     1 <1>   0.0800 
 32 H        1.5280     1.5640     0.5960 H     1 <1>   0.1500 
 33 H       -5.0660     0.4080    -0.1670 H     1 <1>   0.4000 
 34 H       -2.6020    -2.5480    -1.9750 H     1 <1>   0.0800 
 35 H       -4.3240    -2.4940    -1.7710 H     1 <1>   0.0800 
 36 H       -2.1560     3.9890     1.8610 H     1 <1>   0.4500 
 37 H       -0.9700     5.4520    -1.0800 H     1 <1>   0.1500 
 38 H        2.3420     2.7840    -1.3580 H     1 <1>   0.1500 
 39 H        1.0980     4.7290    -2.2150 H     1 <1>   0.1500 
 40 H       -5.4600    -4.1300    -0.4630 H     1 <1>   0.1500 
 41 H       -1.2590    -6.0170     0.6540 H     1 <1>   0.1500 
 42 H       -3.3200    -7.1540     1.2240 H     1 <1>   0.1500 
@<TRIPOS>BOND
  1   1   2  2   
  2   2   3  am  
  3   2   4  1   
  4   3   5  1   
  5   3   6  1   
  6   4   7  1   
  7   4  24  1   
  8   4  25  1   
  9   5   8  1   
 10   5  26  1   
 11   5  27  1   
 12   6   9  1   
 13   6  28  1   
 14   6  29  1   
 15   7  10  ar  
 16   7  11  ar  
 17   8   9  1   
 18   8  12  1   
 19   8  30  1   
 20   9  13  1   
 21   9  31  1   
 22  10  14  1   
 23  10  15  ar  
 24  11  16  ar  
 25  11  32  1   
 26  12  33  1   
 27  13  17  1   
 28  13  34  1   
 29  13  35  1   
 30  14  36  1   
 31  15  18  ar  
 32  15  37  1   
 33  16  18  ar  
 34  16  38  1   
 35  17  19  ar  
 36  17  20  ar  
 37  18  39  1   
 38  19  21  ar  
 39  20  22  ar  
 40  20  40  1   
 41  21  23  ar  
 42  21  41  1   
 43  22  23  ar  
 44  23  42  1   
@<TRIPOS>SUBSTRUCTURE
  1 ****   3 GROUP 4 **** **** 0

# MOE 2024.06 (io_trps.svl 2023.06)
