@<TRIPOS>MOLECULE
NONAME
33 34 1 0 0 
SMALL
USER_CHARGES


@<TRIPOS>ATOM
  1 O        0.0500     0.3920    -0.0820 O.2   1 <1>  -0.5700 
  2 C        0.1280     1.6040    -0.1250 C.2   1 <1>   0.6340 
  3 O       -1.0020     2.3110    -0.2640 O.3   1 <1>  -0.4300 
  4 C        1.3780     2.3280    -0.0320 C.ar  1 <1>   0.0860 
  5 C       -2.2650     1.6820    -0.3620 C.3   1 <1>   0.0400 
  6 C        2.5940     1.6550     0.1140 C.ar  1 <1>  -0.1500 
  7 C        1.4410     3.7220    -0.0880 C.ar  1 <1>  -0.1500 
  8 C        3.8000     2.3230     0.2090 C.ar  1 <1>  -0.1440 
  9 C        2.6410     4.3960     0.0070 C.ar  1 <1>  -0.1500 
 10 C        3.8480     3.7200     0.1750 C.ar  1 <1>   0.1000 
 11 C        5.0840     1.5240     0.3460 C.3   1 <1>  -0.0160 
 12 N        5.0630     4.4070     0.2860 N.pl3 1 <1>  -0.8380 
 13 C        6.2310     2.2870    -0.3160 C.3   1 <1>  -0.1600 
 14 C        6.3640     3.6790     0.2990 C.3   1 <1>   0.2090 
 15 C        5.1320     5.7740     0.8650 C.3   1 <1>   0.2090 
 16 C        5.3730     6.7730    -0.2620 C.3   1 <1>  -0.2400 
 17 H       -3.0170     2.4430    -0.4660 H     1 <1>   0.0800 
 18 H       -2.4370     1.1090     0.5330 H     1 <1>   0.0800 
 19 H       -2.2660     1.0370    -1.2230 H     1 <1>   0.0800 
 20 H        2.5790     0.5790     0.1510 H     1 <1>   0.1500 
 21 H        0.5350     4.2870    -0.2130 H     1 <1>   0.1500 
 22 H        2.6410     5.4660    -0.0590 H     1 <1>   0.1500 
 23 H        4.9770     0.5610    -0.1200 H     1 <1>   0.0800 
 24 H        5.2960     1.3770     1.3910 H     1 <1>   0.0800 
 25 H        6.0360     2.3900    -1.3690 H     1 <1>   0.0800 
 26 H        7.1520     1.7480    -0.1940 H     1 <1>   0.0800 
 27 H        6.7020     3.5890     1.3180 H     1 <1>   0.0800 
 28 H        7.0940     4.2440    -0.2540 H     1 <1>   0.0800 
 29 H        5.9340     5.8280     1.5810 H     1 <1>   0.0800 
 30 H        4.2190     6.0060     1.3830 H     1 <1>   0.0800 
 31 H        6.3090     6.5670    -0.7470 H     1 <1>   0.0800 
 32 H        5.4010     7.7700     0.1360 H     1 <1>   0.0800 
 33 H        4.5790     6.7100    -0.9840 H     1 <1>   0.0800 
@<TRIPOS>BOND
  1   1   2  2   
  2   2   3  1   
  3   2   4  1   
  4   3   5  1   
  5   4   6  ar  
  6   4   7  ar  
  7   5  17  1   
  8   5  18  1   
  9   5  19  1   
 10   6   8  ar  
 11   6  20  1   
 12   7   9  ar  
 13   7  21  1   
 14   8  10  ar  
 15   8  11  1   
 16   9  10  ar  
 17   9  22  1   
 18  10  12  1   
 19  11  13  1   
 20  11  23  1   
 21  11  24  1   
 22  12  14  1   
 23  12  15  1   
 24  13  14  1   
 25  13  25  1   
 26  13  26  1   
 27  14  27  1   
 28  14  28  1   
 29  15  16  1   
 30  15  29  1   
 31  15  30  1   
 32  16  31  1   
 33  16  32  1   
 34  16  33  1   
@<TRIPOS>SUBSTRUCTURE
  1 ****   8 GROUP 4 **** **** 0

# MOE 2024.06 (io_trps.svl 2023.06)
