@<TRIPOS>MOLECULE
NONAME
33 34 1 0 0 
SMALL
USER_CHARGES


@<TRIPOS>ATOM
  1 CL       0.4550     0.6270     1.5940 Cl    1 <1>  -0.1770 
  2 C       -1.1170     1.1800     1.0440 C.ar  1 <1>   0.1770 
  3 C       -1.2380     2.4170     0.3900 C.ar  1 <1>   0.4100 
  4 C       -2.2130     0.3840     1.2720 C.ar  1 <1>  -0.1500 
  5 N       -2.4070     2.8910    -0.0390 N.ar  1 <1>  -0.6200 
  6 N       -0.1250     3.2000     0.1600 N.pl3 1 <1>  -0.8690 
  7 C       -3.4130     0.8880     0.8190 C.ar  1 <1>   0.1770 
  8 C       -3.4630     2.1170     0.1830 C.ar  1 <1>   0.1600 
  9 C       -0.2270     4.6700    -0.0480 C.3   1 <1>   0.2090 
 10 CL      -4.8760    -0.0390     1.0540 Cl    1 <1>  -0.1770 
 11 C        1.1370     5.3500    -0.3000 C.3   1 <1>   0.0000 
 12 C        2.2330     5.0560     0.7670 C.3   1 <1>   0.0000 
 13 C        2.0430     4.6580    -1.3620 C.3   1 <1>   0.0000 
 14 C        0.9660     6.8500    -0.5830 C.3   1 <1>   0.1200 
 15 C        2.8680     4.0300    -0.2070 C.3   1 <1>   0.0000 
 16 O        0.3450     7.4520     0.5080 O.3   1 <1>  -0.5600 
 17 C        0.1460     8.8210     0.3620 C.3   1 <1>   0.0400 
 18 H       -2.1420    -0.5650     1.7700 H     1 <1>   0.1500 
 19 H        0.7130     2.9200     0.6770 H     1 <1>   0.4000 
 20 H       -4.4180     2.4780    -0.1570 H     1 <1>   0.1500 
 21 H       -0.6900     5.1110     0.8190 H     1 <1>   0.0800 
 22 H       -0.8710     4.8550    -0.8910 H     1 <1>   0.0800 
 23 H        1.8600     4.6130     1.6740 H     1 <1>   0.0000 
 24 H        2.8850     5.8940     0.9460 H     1 <1>   0.0000 
 25 H        2.6290     5.3540    -1.9370 H     1 <1>   0.0000 
 26 H        1.5370     3.9320    -1.9740 H     1 <1>   0.0000 
 27 H        0.3510     6.9970    -1.4540 H     1 <1>   0.0800 
 28 H        1.9230     7.3200    -0.7340 H     1 <1>   0.0800 
 29 H        2.5830     3.0150     0.0090 H     1 <1>   0.0000 
 30 H        3.9300     4.1540    -0.3250 H     1 <1>   0.0000 
 31 H       -0.3380     9.1850     1.2510 H     1 <1>   0.0800 
 32 H       -0.4820     9.0000    -0.4930 H     1 <1>   0.0800 
 33 H        1.0990     9.3070     0.2430 H     1 <1>   0.0800 
@<TRIPOS>BOND
  1   1   2  1   
  2   2   3  ar  
  3   2   4  ar  
  4   3   5  ar  
  5   3   6  1   
  6   4   7  ar  
  7   4  18  1   
  8   5   8  ar  
  9   6   9  1   
 10   6  19  1   
 11   7   8  ar  
 12   7  10  1   
 13   8  20  1   
 14   9  11  1   
 15   9  21  1   
 16   9  22  1   
 17  11  12  1   
 18  11  13  1   
 19  11  14  1   
 20  12  15  1   
 21  12  23  1   
 22  12  24  1   
 23  13  15  1   
 24  13  25  1   
 25  13  26  1   
 26  14  16  1   
 27  14  27  1   
 28  14  28  1   
 29  15  29  1   
 30  15  30  1   
 31  16  17  1   
 32  17  31  1   
 33  17  32  1   
 34  17  33  1   
@<TRIPOS>SUBSTRUCTURE
  1 ****   6 GROUP 4 **** **** 0

# MOE 2024.06 (io_trps.svl 2023.06)
