@<TRIPOS>MOLECULE
NONAME
52 55 1 0 0 
SMALL
USER_CHARGES


@<TRIPOS>ATOM
  1 O       -1.0090    -1.3220     0.7730 O.co2 1 <1>  -0.9000 
  2 C       -0.1420    -2.1970     0.6000 C.2   1 <1>   1.0330 
  3 O        0.2390    -2.8630     1.5780 O.co2 1 <1>  -0.9000 
  4 C        0.3960    -2.4300    -0.6970 C.2   1 <1>  -0.2330 
  5 C       -0.0680    -3.3790    -1.6080 C.2   1 <1>   0.3720 
  6 C        1.4340    -1.8400    -1.3410 C.2   1 <1>   0.0870 
  7 N        0.6320    -3.3650    -2.6860 N.2   1 <1>  -0.4100 
  8 N       -1.1470    -4.2500    -1.4350 N.pl3 1 <1>  -0.8210 
  9 O        1.5340    -2.4330    -2.5090 O.3   1 <1>  -0.0190 
 10 C        2.3460    -0.7790    -0.9840 C.ar  1 <1>   0.0530 
 11 C       -2.4460    -3.5490    -1.2810 C.3   1 <1>   0.2090 
 12 C       -0.9320    -5.2410    -0.3530 C.3   1 <1>   0.2090 
 13 C        3.5700    -0.6320    -1.6420 C.ar  1 <1>  -0.1500 
 14 C        2.0530     0.1470     0.0190 C.ar  1 <1>  -0.1500 
 15 C       -3.5790    -4.5740    -1.3830 C.3   1 <1>  -0.1600 
 16 C       -2.0250    -6.3100    -0.4270 C.3   1 <1>  -0.1600 
 17 C        4.4530     0.3790    -1.3130 C.ar  1 <1>  -0.1500 
 18 C        2.9300     1.1600     0.3560 C.ar  1 <1>  -0.1500 
 19 C       -3.4290    -5.6800    -0.3230 C.3   1 <1>  -0.0800 
 20 C        4.1450     1.2840    -0.3120 C.ar  1 <1>   0.0820 
 21 C       -4.5500    -6.7200    -0.4840 C.3   1 <1>  -0.1600 
 22 O        5.0610     2.2460    -0.0450 O.3   1 <1>  -0.3630 
 23 C       -4.5560    -7.7620     0.6440 C.3   1 <1>   0.0960 
 24 C        4.8500     3.1900     0.9810 C.3   1 <1>   0.0400 
 25 N       -5.7080    -8.6710     0.5080 N.pl3 1 <1>   0.3140 
 26 N       -6.8550    -8.4750     1.1830 N.2   1 <1>  -0.7070 
 27 C       -5.7810    -9.7710    -0.2690 C.2   1 <1>  -0.3020 
 28 C       -7.6280    -9.4530     0.8200 C.2   1 <1>   0.1390 
 29 C       -7.0100   -10.3010    -0.0910 C.2   1 <1>  -0.1500 
 30 H       -2.5470    -2.8060    -2.0530 H     1 <1>   0.0800 
 31 H       -2.4910    -3.0540    -0.3250 H     1 <1>   0.0800 
 32 H       -0.9690    -4.7570     0.6070 H     1 <1>   0.0800 
 33 H        0.0400    -5.6910    -0.4680 H     1 <1>   0.0800 
 34 H        3.8320    -1.3270    -2.4200 H     1 <1>   0.1500 
 35 H        1.1170     0.0770     0.5470 H     1 <1>   0.1500 
 36 H       -3.5640    -4.9990    -2.3710 H     1 <1>   0.0800 
 37 H       -4.5160    -4.0650    -1.2510 H     1 <1>   0.0800 
 38 H       -1.8610    -7.0040     0.3750 H     1 <1>   0.0800 
 39 H       -1.9200    -6.8380    -1.3580 H     1 <1>   0.0800 
 40 H        5.3900     0.4730    -1.8310 H     1 <1>   0.1500 
 41 H        2.6480     1.8380     1.1380 H     1 <1>   0.1500 
 42 H       -3.5210    -5.2190     0.6470 H     1 <1>   0.0800 
 43 H       -4.4470    -7.2170    -1.4330 H     1 <1>   0.0800 
 44 H       -5.4990    -6.2100    -0.4730 H     1 <1>   0.0800 
 45 H       -4.6280    -7.2720     1.5980 H     1 <1>   0.0800 
 46 H       -3.6600    -8.3520     0.6260 H     1 <1>   0.0800 
 47 H        5.7060     3.8380     1.0200 H     1 <1>   0.0800 
 48 H        4.7400     2.6700     1.9160 H     1 <1>   0.0800 
 49 H        3.9680     3.7620     0.7530 H     1 <1>   0.0800 
 50 H       -4.9730   -10.1060    -0.8920 H     1 <1>   0.1500 
 51 H       -8.6320    -9.5830     1.1890 H     1 <1>   0.1500 
 52 H       -7.4430   -11.1780    -0.5370 H     1 <1>   0.1500 
@<TRIPOS>BOND
  1   1   2  ar  
  2   2   3  ar  
  3   2   4  1   
  4   4   5  1   
  5   4   6  2   
  6   5   7  2   
  7   5   8  1   
  8   6   9  1   
  9   6  10  1   
 10   7   9  1   
 11   8  11  1   
 12   8  12  1   
 13  10  13  ar  
 14  10  14  ar  
 15  11  15  1   
 16  11  30  1   
 17  11  31  1   
 18  12  16  1   
 19  12  32  1   
 20  12  33  1   
 21  13  17  ar  
 22  13  34  1   
 23  14  18  ar  
 24  14  35  1   
 25  15  19  1   
 26  15  36  1   
 27  15  37  1   
 28  16  19  1   
 29  16  38  1   
 30  16  39  1   
 31  17  20  ar  
 32  17  40  1   
 33  18  20  ar  
 34  18  41  1   
 35  19  21  1   
 36  19  42  1   
 37  20  22  1   
 38  21  23  1   
 39  21  43  1   
 40  21  44  1   
 41  22  24  1   
 42  23  25  1   
 43  23  45  1   
 44  23  46  1   
 45  24  47  1   
 46  24  48  1   
 47  24  49  1   
 48  25  26  1   
 49  25  27  1   
 50  26  28  2   
 51  27  29  2   
 52  27  50  1   
 53  28  29  1   
 54  28  51  1   
 55  29  52  1   
@<TRIPOS>SUBSTRUCTURE
  1 ****   8 GROUP 4 **** **** 0

# MOE 2024.06 (io_trps.svl 2023.06)
