@<TRIPOS>MOLECULE
NONAME
44 47 1 0 0 
SMALL
USER_CHARGES


@<TRIPOS>ATOM
  1 O       -0.9620     0.2140    -0.8000 O.2   1 <1>  -0.5700 
  2 C       -1.6720     0.8530    -0.0440 C.2   1 <1>   0.6160 
  3 N       -2.6840     0.1870     0.6120 N.am  1 <1>  -0.6600 
  4 C       -1.4610     2.2730     0.1270 C.2   1 <1>   0.0140 
  5 C       -2.6650    -1.3050     0.7490 C.3   1 <1>   0.1400 
  6 C       -4.0690     0.7450     0.6890 C.3   1 <1>   0.1400 
  7 C       -1.7460     2.9350     1.2980 C.2   1 <1>  -0.0410 
  8 C       -0.9230     3.0540    -0.9460 C.2   1 <1>  -0.1500 
  9 C       -3.6870    -1.9620    -0.1970 C.3   1 <1>   0.3440 
 10 C       -5.0240    -0.0250    -0.2460 C.3   1 <1>   0.2950 
 11 N       -1.5520     4.2860     1.4290 N.am  1 <1>  -0.5390 
 12 C       -0.7300     4.3930    -0.8020 C.2   1 <1>  -0.1360 
 13 O       -4.9570    -1.3970     0.0070 O.3   1 <1>  -0.5600 
 14 C       -3.7460    -3.4680     0.0430 C.ar  1 <1>  -0.1430 
 15 C       -6.4780     0.4110    -0.0430 C.3   1 <1>  -0.1950 
 16 C       -1.0530     5.0530     0.4140 C.2   1 <1>   0.6160 
 17 C       -4.6240    -4.0250     0.9640 C.ar  1 <1>  -0.1500 
 18 C       -2.8930    -4.3040    -0.6640 C.ar  1 <1>  -0.1500 
 19 C       -7.5040     0.2050    -1.1110 C.3   1 <1>  -0.2000 
 20 C       -7.0390     1.5930    -0.7710 C.3   1 <1>  -0.2000 
 21 O       -0.9120     6.2490     0.5970 O.2   1 <1>  -0.5700 
 22 C       -4.6480    -5.3930     1.1740 C.ar  1 <1>  -0.1500 
 23 C       -2.9160    -5.6720    -0.4550 C.ar  1 <1>  -0.1500 
 24 C       -3.7930    -6.2170     0.4650 C.ar  1 <1>  -0.1500 
 25 H       -1.6830    -1.6910     0.5350 H     1 <1>   0.0800 
 26 H       -2.9040    -1.5730     1.7630 H     1 <1>   0.0800 
 27 H       -4.4260     0.6700     1.7020 H     1 <1>   0.0800 
 28 H       -4.0780     1.7830     0.4090 H     1 <1>   0.0800 
 29 H       -2.1290     2.4030     2.1540 H     1 <1>   0.1500 
 30 H       -0.6750     2.5460    -1.8630 H     1 <1>   0.1500 
 31 H       -3.4010    -1.7780    -1.2180 H     1 <1>   0.0800 
 32 H       -4.7410     0.1400    -1.2720 H     1 <1>   0.0800 
 33 H       -1.7460     4.8040     2.2890 H     1 <1>   0.3700 
 34 H       -0.3280     5.0080    -1.5850 H     1 <1>   0.1500 
 35 H       -6.8020     0.2640     0.9730 H     1 <1>   0.1000 
 36 H       -5.2960    -3.3920     1.5180 H     1 <1>   0.1500 
 37 H       -2.2040    -3.8930    -1.3820 H     1 <1>   0.1500 
 38 H       -7.1970    -0.2410    -2.0420 H     1 <1>   0.1000 
 39 H       -8.4920    -0.1050    -0.8160 H     1 <1>   0.1000 
 40 H       -7.7200     2.2480    -0.2540 H     1 <1>   0.1000 
 41 H       -6.4360     2.1150    -1.4940 H     1 <1>   0.1000 
 42 H       -5.3340    -5.8140     1.8880 H     1 <1>   0.1500 
 43 H       -2.2510    -6.3120    -1.0080 H     1 <1>   0.1500 
 44 H       -3.8120    -7.2810     0.6280 H     1 <1>   0.1500 
@<TRIPOS>BOND
  1   1   2  2   
  2   2   3  am  
  3   2   4  1   
  4   3   5  1   
  5   3   6  1   
  6   4   7  2   
  7   4   8  1   
  8   5   9  1   
  9   5  25  1   
 10   5  26  1   
 11   6  10  1   
 12   6  27  1   
 13   6  28  1   
 14   7  11  1   
 15   7  29  1   
 16   8  12  2   
 17   8  30  1   
 18   9  13  1   
 19   9  14  1   
 20   9  31  1   
 21  10  13  1   
 22  10  15  1   
 23  10  32  1   
 24  11  16  am  
 25  11  33  1   
 26  12  16  1   
 27  12  34  1   
 28  14  17  ar  
 29  14  18  ar  
 30  15  19  1   
 31  15  20  1   
 32  15  35  1   
 33  16  21  2   
 34  17  22  ar  
 35  17  36  1   
 36  18  23  ar  
 37  18  37  1   
 38  19  20  1   
 39  19  38  1   
 40  19  39  1   
 41  20  40  1   
 42  20  41  1   
 43  22  24  ar  
 44  22  42  1   
 45  23  24  ar  
 46  23  43  1   
 47  24  44  1   
@<TRIPOS>SUBSTRUCTURE
  1 ****   3 GROUP 4 **** **** 0

# MOE 2024.06 (io_trps.svl 2023.06)
