@<TRIPOS>MOLECULE
NONAME
43 45 1 0 0 
SMALL
USER_CHARGES


@<TRIPOS>ATOM
  1 O       -0.4460     0.1440    -0.2650 O.2   1 <1>  -0.5700 
  2 C       -1.5230     0.6980    -0.3020 C.2   1 <1>   0.5440 
  3 N       -1.4910     2.0370    -0.5030 N.am  1 <1>  -0.8000 
  4 C       -2.7570    -0.0310    -0.1210 C.ar  1 <1>   0.0860 
  5 C       -3.9670     0.4320    -0.6340 C.ar  1 <1>   0.1600 
  6 C       -2.8010    -1.2340     0.5750 C.ar  1 <1>  -0.1500 
  7 N       -5.1440    -0.1500    -0.5070 N.ar  1 <1>  -0.6200 
  8 C       -4.0160    -1.8580     0.7160 C.ar  1 <1>  -0.1500 
  9 C       -5.1690    -1.2990     0.1640 C.ar  1 <1>   0.4100 
 10 N       -6.3930    -1.9200     0.3030 N.pl3 1 <1>  -0.8380 
 11 C       -7.6570    -1.3050    -0.1890 C.3   1 <1>   0.2090 
 12 C       -6.5600    -3.3910     0.3730 C.3   1 <1>   0.2090 
 13 C       -8.6870    -2.4410    -0.2650 C.3   1 <1>   0.2000 
 14 C       -7.8220    -3.6930    -0.4340 C.3   1 <1>  -0.0800 
 15 O       -9.4050    -2.5480     0.9350 O.3   1 <1>  -0.5600 
 16 C       -8.5000    -5.0160    -0.0370 C.3   1 <1>   0.0200 
 17 C      -10.4740    -1.6640     1.0690 C.3   1 <1>   0.0400 
 18 C       -7.5520    -6.1890    -0.2020 C.2   1 <1>  -0.0400 
 19 O       -7.0400    -6.4630    -1.3720 O.3   1 <1>  -0.0190 
 20 C       -7.0780    -7.0850     0.6760 C.2   1 <1>  -0.1500 
 21 N       -6.2440    -7.4920    -1.3230 N.2   1 <1>  -0.4100 
 22 C       -6.2500    -7.8890    -0.1010 C.2   1 <1>   0.1080 
 23 C       -5.4590    -9.0720     0.4130 C.3   1 <1>  -0.0590 
 24 H       -0.5760     2.4850    -0.5810 H     1 <1>   0.3700 
 25 H       -2.2850     2.6600    -0.3600 H     1 <1>   0.3700 
 26 H       -3.9560     1.3490    -1.1950 H     1 <1>   0.1500 
 27 H       -1.9010    -1.6530     0.9910 H     1 <1>   0.1500 
 28 H       -4.0880    -2.7790     1.2610 H     1 <1>   0.1500 
 29 H       -7.9700    -0.5130     0.4660 H     1 <1>   0.0800 
 30 H       -7.4940    -0.9080    -1.1760 H     1 <1>   0.0800 
 31 H       -5.7090    -3.9080    -0.0390 H     1 <1>   0.0800 
 32 H       -6.6970    -3.6750     1.4030 H     1 <1>   0.0800 
 33 H       -9.3780    -2.3180    -1.0810 H     1 <1>   0.0800 
 34 H       -7.5280    -3.7530    -1.4670 H     1 <1>   0.0800 
 35 H       -9.3680    -5.1750    -0.6520 H     1 <1>   0.0800 
 36 H       -8.8230    -4.9780     0.9880 H     1 <1>   0.0800 
 37 H      -10.9450    -1.8530     2.0170 H     1 <1>   0.0800 
 38 H      -11.1800    -1.8350     0.2750 H     1 <1>   0.0800 
 39 H      -10.1130    -0.6510     1.0440 H     1 <1>   0.0800 
 40 H       -7.2690    -7.1860     1.7280 H     1 <1>   0.1500 
 41 H       -6.1250    -9.7950     0.8470 H     1 <1>   0.0800 
 42 H       -4.7550    -8.7450     1.1550 H     1 <1>   0.0800 
 43 H       -4.9240    -9.5350    -0.3970 H     1 <1>   0.0800 
@<TRIPOS>BOND
  1   1   2  2   
  2   2   3  am  
  3   2   4  1   
  4   3  24  1   
  5   3  25  1   
  6   4   5  ar  
  7   4   6  ar  
  8   5   7  ar  
  9   5  26  1   
 10   6   8  ar  
 11   6  27  1   
 12   7   9  ar  
 13   8   9  ar  
 14   8  28  1   
 15   9  10  1   
 16  10  11  1   
 17  10  12  1   
 18  11  13  1   
 19  11  29  1   
 20  11  30  1   
 21  12  14  1   
 22  12  31  1   
 23  12  32  1   
 24  13  14  1   
 25  13  15  1   
 26  13  33  1   
 27  14  16  1   
 28  14  34  1   
 29  15  17  1   
 30  16  18  1   
 31  16  35  1   
 32  16  36  1   
 33  17  37  1   
 34  17  38  1   
 35  17  39  1   
 36  18  19  1   
 37  18  20  2   
 38  19  21  1   
 39  20  22  1   
 40  20  40  1   
 41  21  22  2   
 42  22  23  1   
 43  23  41  1   
 44  23  42  1   
 45  23  43  1   
@<TRIPOS>SUBSTRUCTURE
  1 ****  12 GROUP 4 **** **** 0

# MOE 2024.06 (io_trps.svl 2023.06)
