@<TRIPOS>MOLECULE
NONAME
54 58 1 0 0 
SMALL
USER_CHARGES


@<TRIPOS>ATOM
  1 F       -5.2360     0.6680    -2.5370 F     1 <1>  -0.1900 
  2 C       -4.8990    -0.4200    -1.8750 C.ar  1 <1>   0.1900 
  3 C       -4.3030    -0.3530    -0.6170 C.ar  1 <1>   0.4100 
  4 C       -5.1460    -1.6420    -2.4330 C.ar  1 <1>   0.1600 
  5 N       -3.9880    -1.4700     0.0150 N.ar  1 <1>  -0.6200 
  6 N       -4.0050     0.8430     0.0260 N.pl3 1 <1>  -0.8380 
  7 N       -4.8340    -2.7610    -1.8080 N.ar  1 <1>  -0.6200 
  8 C       -4.2670    -2.5970    -0.6160 C.ar  1 <1>   0.7200 
  9 C       -3.0880     1.8180    -0.6370 C.3   1 <1>   0.2090 
 10 C       -3.9160     0.9110     1.5190 C.3   1 <1>   0.2090 
 11 N       -3.9360    -3.7070     0.0810 N.pl3 1 <1>  -0.8690 
 12 C       -1.6680     1.7310    -0.0440 C.3   1 <1>   0.1200 
 13 C       -2.4500     0.8640     1.9850 C.3   1 <1>   0.1200 
 14 C       -4.7470    -4.9410     0.0160 C.3   1 <1>   0.2890 
 15 O       -1.6930     1.8590     1.3510 O.3   1 <1>  -0.5600 
 16 C       -6.0640    -4.7450     0.7710 C.3   1 <1>  -0.0800 
 17 C       -4.0630    -6.0850     0.7640 C.3   1 <1>   0.1200 
 18 C       -6.0470    -5.8580     1.8220 C.3   1 <1>   0.1200 
 19 C       -7.2850    -4.8050    -0.1660 C.3   1 <1>  -0.0170 
 20 O       -4.7080    -6.1820     1.9940 O.3   1 <1>  -0.5600 
 21 C       -8.6570    -4.6060     0.4890 C.ar  1 <1>  -0.1440 
 22 C       -9.8370    -4.9370    -0.2230 C.ar  1 <1>   0.0000 
 23 C       -8.8180    -4.0980     1.7480 C.ar  1 <1>  -0.1500 
 24 C      -11.0810    -4.7610     0.4320 C.ar  1 <1>   0.3100 
 25 C       -9.8590    -5.4240    -1.5530 C.ar  1 <1>  -0.1500 
 26 C      -10.0970    -3.9530     2.2990 C.ar  1 <1>   0.1600 
 27 N      -11.1930    -4.2710     1.6910 N.ar  1 <1>  -0.6200 
 28 C      -12.2640    -5.0990    -0.2450 C.ar  1 <1>  -0.1500 
 29 C      -11.0300    -5.7400    -2.1860 C.ar  1 <1>  -0.1500 
 30 C      -12.2500    -5.5800    -1.5260 C.ar  1 <1>  -0.1500 
 31 H       -5.6060    -1.7060    -3.4030 H     1 <1>   0.1500 
 32 H       -3.0370     1.6280    -1.6940 H     1 <1>   0.0800 
 33 H       -3.4700     2.8140    -0.4990 H     1 <1>   0.0800 
 34 H       -4.3640     1.8290     1.8570 H     1 <1>   0.0800 
 35 H       -4.4640     0.0980     1.9640 H     1 <1>   0.0800 
 36 H       -3.6290    -3.4700     1.0240 H     1 <1>   0.4000 
 37 H       -1.0540     2.5220    -0.4360 H     1 <1>   0.0800 
 38 H       -1.2180     0.7860    -0.2940 H     1 <1>   0.0800 
 39 H       -2.0190    -0.0960     1.7600 H     1 <1>   0.0800 
 40 H       -2.3920     1.0310     3.0450 H     1 <1>   0.0800 
 41 H       -4.8950    -5.2250    -1.0130 H     1 <1>   0.0800 
 42 H       -6.0470    -3.7970     1.2780 H     1 <1>   0.0800 
 43 H       -3.0130    -5.9090     0.9220 H     1 <1>   0.0800 
 44 H       -4.2070    -7.0160     0.2450 H     1 <1>   0.0800 
 45 H       -6.5590    -6.7400     1.4760 H     1 <1>   0.0800 
 46 H       -6.4540    -5.5460     2.7670 H     1 <1>   0.0800 
 47 H       -7.2700    -5.7650    -0.6510 H     1 <1>   0.0800 
 48 H       -7.1710    -4.0530    -0.9280 H     1 <1>   0.0800 
 49 H       -7.9940    -3.7900     2.3610 H     1 <1>   0.1500 
 50 H       -8.9380    -5.5460    -2.0890 H     1 <1>   0.1500 
 51 H      -10.1710    -3.5530     3.2960 H     1 <1>   0.1500 
 52 H      -13.1900    -4.9620     0.2820 H     1 <1>   0.1500 
 53 H      -11.0290    -6.1120    -3.1970 H     1 <1>   0.1500 
 54 H      -13.1650    -5.8340    -2.0330 H     1 <1>   0.1500 
@<TRIPOS>BOND
  1   1   2  1   
  2   2   3  ar  
  3   2   4  ar  
  4   3   5  ar  
  5   3   6  1   
  6   4   7  ar  
  7   4  31  1   
  8   5   8  ar  
  9   6   9  1   
 10   6  10  1   
 11   7   8  ar  
 12   8  11  1   
 13   9  12  1   
 14   9  32  1   
 15   9  33  1   
 16  10  13  1   
 17  10  34  1   
 18  10  35  1   
 19  11  14  1   
 20  11  36  1   
 21  12  15  1   
 22  12  37  1   
 23  12  38  1   
 24  13  15  1   
 25  13  39  1   
 26  13  40  1   
 27  14  16  1   
 28  14  17  1   
 29  14  41  1   
 30  16  18  1   
 31  16  19  1   
 32  16  42  1   
 33  17  20  1   
 34  17  43  1   
 35  17  44  1   
 36  18  20  1   
 37  18  45  1   
 38  18  46  1   
 39  19  21  1   
 40  19  47  1   
 41  19  48  1   
 42  21  22  ar  
 43  21  23  ar  
 44  22  24  ar  
 45  22  25  ar  
 46  23  26  ar  
 47  23  49  1   
 48  24  27  ar  
 49  24  28  ar  
 50  25  29  ar  
 51  25  50  1   
 52  26  27  ar  
 53  26  51  1   
 54  28  30  ar  
 55  28  52  1   
 56  29  30  ar  
 57  29  53  1   
 58  30  54  1   
@<TRIPOS>SUBSTRUCTURE
  1 ****  16 GROUP 4 **** **** 0

# MOE 2024.06 (io_trps.svl 2023.06)
