@<TRIPOS>MOLECULE
NONAME
50 51 1 0 0 
SMALL
USER_CHARGES


@<TRIPOS>ATOM
  1 F       -1.5300    -1.3120    -1.4550 F     1 <1>  -0.3400 
  2 C       -0.6550    -2.1820    -1.9380 C.3   1 <1>   1.1640 
  3 F       -1.3630    -3.1020    -2.5850 F     1 <1>  -0.3400 
  4 F        0.0560    -1.5400    -2.8560 F     1 <1>  -0.3400 
  5 C        0.2010    -2.8100    -0.8240 C.ar  1 <1>  -0.1440 
  6 C       -0.3340    -3.8030    -0.0090 C.ar  1 <1>  -0.1500 
  7 C        1.5130    -2.4040    -0.6000 C.ar  1 <1>  -0.1500 
  8 C        0.4200    -4.3910     0.9980 C.ar  1 <1>  -0.1440 
  9 C        2.2660    -2.9780     0.4080 C.ar  1 <1>  -0.1500 
 10 C        1.7240    -3.9680     1.2060 C.ar  1 <1>  -0.1500 
 11 C       -0.1730    -5.4900     1.8600 C.3   1 <1>   0.4870 
 12 N       -0.2810    -6.7170     1.0300 N.4   1 <1>  -0.9590 
 13 C       -1.1850    -7.7290     1.6290 C.3   1 <1>   0.5240 
 14 C        1.0600    -7.2840     0.6780 C.3   1 <1>   0.2630 
 15 C       -1.6300    -8.6380     0.5070 C.2   1 <1>  -0.1810 
 16 C       -2.6360    -8.5150    -0.3990 C.2   1 <1>  -0.0400 
 17 C       -0.9860    -9.8410     0.2030 C.2   1 <1>  -0.1500 
 18 O       -2.6040    -9.5470    -1.2170 O.3   1 <1>  -0.2800 
 19 C       -3.7330    -7.4660    -0.6560 C.3   1 <1>   0.1800 
 20 C       -1.6180   -10.3670    -0.8780 C.2   1 <1>   0.0550 
 21 C       -3.4220    -6.7350    -1.9690 C.3   1 <1>  -0.2400 
 22 C       -5.0920    -8.1710    -0.7820 C.3   1 <1>  -0.2400 
 23 C       -3.8480    -6.4280     0.4690 C.3   1 <1>  -0.2400 
 24 C       -1.3550   -11.5820    -1.6120 C.2   1 <1>   0.7150 
 25 O       -0.4160   -12.2970    -1.3310 O.2   1 <1>  -0.5700 
 26 N       -2.1380   -11.9700    -2.6420 N.am  1 <1>  -0.8000 
 27 H       -1.3540    -4.1110    -0.1700 H     1 <1>   0.1500 
 28 H        1.9600    -1.6330    -1.2080 H     1 <1>   0.1500 
 29 H        3.2800    -2.6470     0.5700 H     1 <1>   0.1500 
 30 H        2.3320    -4.3940     1.9860 H     1 <1>   0.1500 
 31 H       -1.1480    -5.1800     2.2010 H     1 <1>   0.0800 
 32 H        0.4520    -5.6690     2.7200 H     1 <1>   0.0800 
 33 H       -0.7230    -6.4430     0.1430 H     1 <1>   0.4500 
 34 H       -2.0460    -7.2540     2.0680 H     1 <1>   0.0800 
 35 H       -0.6780    -8.2950     2.3940 H     1 <1>   0.0800 
 36 H        1.5730    -7.6220     1.5640 H     1 <1>   0.0800 
 37 H        1.6660    -6.5360     0.1910 H     1 <1>   0.0800 
 38 H        0.9490    -8.1180     0.0030 H     1 <1>   0.0800 
 39 H       -0.1500   -10.2840     0.7170 H     1 <1>   0.1500 
 40 H       -3.3850    -7.4350    -2.7850 H     1 <1>   0.0800 
 41 H       -2.4730    -6.2360    -1.9130 H     1 <1>   0.0800 
 42 H       -4.1820    -6.0060    -2.1880 H     1 <1>   0.0800 
 43 H       -5.0870    -8.8620    -1.6060 H     1 <1>   0.0800 
 44 H       -5.8810    -7.4590    -0.9500 H     1 <1>   0.0800 
 45 H       -5.3130    -8.7220     0.1150 H     1 <1>   0.0800 
 46 H       -2.9550    -5.8410     0.5480 H     1 <1>   0.0800 
 47 H       -4.0540    -6.9120     1.4060 H     1 <1>   0.0800 
 48 H       -4.6610    -5.7530     0.2640 H     1 <1>   0.0800 
 49 H       -1.9340   -12.8380    -3.1360 H     1 <1>   0.3700 
 50 H       -2.9470   -11.4250    -2.9390 H     1 <1>   0.3700 
@<TRIPOS>BOND
  1   1   2  1   
  2   2   3  1   
  3   2   4  1   
  4   2   5  1   
  5   5   6  ar  
  6   5   7  ar  
  7   6   8  ar  
  8   6  27  1   
  9   7   9  ar  
 10   7  28  1   
 11   8  10  ar  
 12   8  11  1   
 13   9  10  ar  
 14   9  29  1   
 15  10  30  1   
 16  11  12  1   
 17  11  31  1   
 18  11  32  1   
 19  12  13  1   
 20  12  14  1   
 21  12  33  1   
 22  13  15  1   
 23  13  34  1   
 24  13  35  1   
 25  14  36  1   
 26  14  37  1   
 27  14  38  1   
 28  15  16  2   
 29  15  17  1   
 30  16  18  1   
 31  16  19  1   
 32  17  20  2   
 33  17  39  1   
 34  18  20  1   
 35  19  21  1   
 36  19  22  1   
 37  19  23  1   
 38  20  24  1   
 39  21  40  1   
 40  21  41  1   
 41  21  42  1   
 42  22  43  1   
 43  22  44  1   
 44  22  45  1   
 45  23  46  1   
 46  23  47  1   
 47  23  48  1   
 48  24  25  2   
 49  24  26  am  
 50  26  49  1   
 51  26  50  1   
@<TRIPOS>SUBSTRUCTURE
  1 ****  12 GROUP 4 **** **** 0

# MOE 2024.06 (io_trps.svl 2023.06)
