@<TRIPOS>MOLECULE
NONAME
50 53 1 0 0 
SMALL
USER_CHARGES


@<TRIPOS>ATOM
  1 O       -0.2720    -0.6330     2.3680 O.2   1 <1>  -0.5700 
  2 C       -1.0940     0.1290     1.9220 C.2   1 <1>   0.5690 
  3 N       -2.0590    -0.2880     1.0480 N.am  1 <1>  -0.6600 
  4 C       -1.0130     1.5830     2.3540 C.3   1 <1>  -0.0990 
  5 C       -3.0670     0.5540     0.3560 C.3   1 <1>   0.1400 
  6 C       -2.1440    -1.6950     0.5900 C.3   1 <1>   0.1400 
  7 C       -0.1510     2.4110     1.3880 C.3   1 <1>  -0.1600 
  8 C       -3.6640    -0.3540    -0.7190 C.3   1 <1>   0.2000 
  9 C       -3.4350    -1.7810    -0.2260 C.3   1 <1>  -0.0800 
 10 C       -0.0480     3.8750     1.8360 C.3   1 <1>   0.0960 
 11 O       -5.0200    -0.1200    -0.8860 O.3   1 <1>  -0.6800 
 12 C       -3.3680    -2.8040    -1.3720 C.3   1 <1>  -0.0170 
 13 N        0.6210     4.6850     0.8010 N.pl3 1 <1>   0.3140 
 14 C       -3.1860    -4.2200    -0.8340 C.ar  1 <1>  -0.1440 
 15 N       -0.0320     5.2000    -0.2310 N.2   1 <1>  -0.7070 
 16 C        1.9110     5.0180     0.7010 C.2   1 <1>   0.0360 
 17 C       -4.2590    -4.9670    -0.2920 C.ar  1 <1>   0.0000 
 18 C       -1.9560    -4.8090    -0.8580 C.ar  1 <1>  -0.1500 
 19 C        0.9090     5.8070    -0.8780 C.2   1 <1>   0.3660 
 20 N        2.1350     5.7270    -0.3450 N.2   1 <1>  -0.5650 
 21 C       -3.9740    -6.2640     0.2010 C.ar  1 <1>   0.3100 
 22 C       -5.5940    -4.5070    -0.2100 C.ar  1 <1>  -0.1500 
 23 C       -1.7830    -6.1020    -0.3490 C.ar  1 <1>   0.1600 
 24 N       -2.7350    -6.8160     0.1630 N.ar  1 <1>  -0.6200 
 25 C       -5.0150    -7.0250     0.7560 C.ar  1 <1>  -0.1500 
 26 C       -6.5870    -5.2750     0.3350 C.ar  1 <1>  -0.1500 
 27 C       -6.2960    -6.5490     0.8270 C.ar  1 <1>  -0.1500 
 28 H       -2.0030     1.9940     2.4240 H     1 <1>   0.0800 
 29 H       -0.5790     1.6120     3.3380 H     1 <1>   0.0800 
 30 H       -3.8200     0.8560     1.0630 H     1 <1>   0.0800 
 31 H       -2.6070     1.4150    -0.0930 H     1 <1>   0.0800 
 32 H       -1.2830    -1.9120    -0.0200 H     1 <1>   0.0800 
 33 H       -2.1610    -2.3710     1.4290 H     1 <1>   0.0800 
 34 H       -0.5840     2.3730     0.4030 H     1 <1>   0.0800 
 35 H        0.8350     1.9800     1.3370 H     1 <1>   0.0800 
 36 H       -3.1700    -0.1780    -1.6590 H     1 <1>   0.0800 
 37 H       -4.2190    -2.0510     0.4590 H     1 <1>   0.0800 
 38 H        0.5060     3.9520     2.7540 H     1 <1>   0.0800 
 39 H       -1.0300     4.2860     1.9900 H     1 <1>   0.0800 
 40 H       -5.5040    -0.3050    -0.0580 H     1 <1>   0.4000 
 41 H       -2.5480    -2.5570    -2.0230 H     1 <1>   0.0800 
 42 H       -4.2620    -2.7510    -1.9680 H     1 <1>   0.0800 
 43 H        2.6530     4.7160     1.4170 H     1 <1>   0.1500 
 44 H       -1.0950    -4.3060    -1.2570 H     1 <1>   0.1500 
 45 H        0.7420     6.3500    -1.7940 H     1 <1>   0.1500 
 46 H       -5.8420    -3.5330    -0.5860 H     1 <1>   0.1500 
 47 H       -0.7950    -6.5290    -0.3860 H     1 <1>   0.1500 
 48 H       -4.7680    -8.0020     1.1260 H     1 <1>   0.1500 
 49 H       -7.5990    -4.9130     0.3910 H     1 <1>   0.1500 
 50 H       -7.0850    -7.1440     1.2550 H     1 <1>   0.1500 
@<TRIPOS>BOND
  1   1   2  2   
  2   2   3  am  
  3   2   4  1   
  4   3   5  1   
  5   3   6  1   
  6   4   7  1   
  7   4  28  1   
  8   4  29  1   
  9   5   8  1   
 10   5  30  1   
 11   5  31  1   
 12   6   9  1   
 13   6  32  1   
 14   6  33  1   
 15   7  10  1   
 16   7  34  1   
 17   7  35  1   
 18   8   9  1   
 19   8  11  1   
 20   8  36  1   
 21   9  12  1   
 22   9  37  1   
 23  10  13  1   
 24  10  38  1   
 25  10  39  1   
 26  11  40  1   
 27  12  14  1   
 28  12  41  1   
 29  12  42  1   
 30  13  15  1   
 31  13  16  1   
 32  14  17  ar  
 33  14  18  ar  
 34  15  19  2   
 35  16  20  2   
 36  16  43  1   
 37  17  21  ar  
 38  17  22  ar  
 39  18  23  ar  
 40  18  44  1   
 41  19  20  1   
 42  19  45  1   
 43  21  24  ar  
 44  21  25  ar  
 45  22  26  ar  
 46  22  46  1   
 47  23  24  ar  
 48  23  47  1   
 49  25  27  ar  
 50  25  48  1   
 51  26  27  ar  
 52  26  49  1   
 53  27  50  1   
@<TRIPOS>SUBSTRUCTURE
  1 ****   6 GROUP 4 **** **** 0

# MOE 2024.06 (io_trps.svl 2023.06)
