@<TRIPOS>MOLECULE
NONAME
53 54 1 0 0 
SMALL
USER_CHARGES


@<TRIPOS>ATOM
  1 S       -0.2440     0.4210    -0.3980 S.o2  1 <1>   1.3330 
  2 O       -0.9040     0.3300     0.8850 O.2   1 <1>  -0.6500 
  3 O       -0.6250     1.4640    -1.3230 O.2   1 <1>  -0.6500 
  4 N       -0.4210    -1.0760    -1.1790 N.am  1 <1>  -0.8490 
  5 C        1.5310     0.5290    -0.1610 C.3   1 <1>  -0.0550 
  6 C       -1.5790    -1.1020    -2.0780 C.3   1 <1>   0.1160 
  7 C       -0.4830    -2.2120    -0.2530 C.3   1 <1>   0.1160 
  8 C        1.9900     1.8630     0.4630 C.3   1 <1>  -0.0800 
  9 C        3.5040     1.9920     0.4240 C.3   1 <1>   0.2200 
 10 C        1.7000     1.9270     1.9670 C.3   1 <1>   0.1200 
 11 N        3.8710     3.4250     0.4820 N.am  1 <1>  -0.7300 
 12 C        3.9100     1.3050     1.7210 C.3   1 <1>   0.1200 
 13 O        2.8720     1.5400     2.6250 O.3   1 <1>  -0.5600 
 14 C        4.4900     4.1030    -0.5130 C.2   1 <1>   0.5690 
 15 O        4.8120     3.5690    -1.5450 O.2   1 <1>  -0.5700 
 16 C        4.7890     5.5720    -0.3200 C.3   1 <1>  -0.0990 
 17 C        6.2900     5.8100    -0.1370 C.3   1 <1>   0.0210 
 18 C        6.5580     7.2900     0.0680 C.2   1 <1>  -0.1810 
 19 C        6.6540     7.9620     1.2850 C.2   1 <1>   0.1080 
 20 C        6.7490     8.2470    -0.8660 C.2   1 <1>  -0.3320 
 21 N        6.8840     9.2260     1.1300 N.2   1 <1>  -0.7070 
 22 C        6.5160     7.3390     2.6560 C.3   1 <1>  -0.0590 
 23 N        6.9460     9.4060    -0.1980 N.pl3 1 <1>   0.3140 
 24 C        6.7530     8.1280    -2.3830 C.3   1 <1>  -0.0600 
 25 C        7.1990    10.7330    -0.7710 C.3   1 <1>   0.0160 
 26 H        1.8610    -0.2890     0.4500 H     1 <1>   0.0800 
 27 H        1.9940     0.4260    -1.1230 H     1 <1>   0.0800 
 28 H       -1.6510    -2.0580    -2.5670 H     1 <1>   0.0800 
 29 H       -1.4720    -0.3450    -2.8370 H     1 <1>   0.0800 
 30 H       -2.4850    -0.9140    -1.5270 H     1 <1>   0.0800 
 31 H       -0.5000    -3.1380    -0.8030 H     1 <1>   0.0800 
 32 H       -1.3690    -2.1520     0.3590 H     1 <1>   0.0800 
 33 H        0.3790    -2.2160     0.3910 H     1 <1>   0.0800 
 34 H        1.5180     2.6740    -0.0650 H     1 <1>   0.0800 
 35 H        3.9500     1.5250    -0.4390 H     1 <1>   0.0800 
 36 H        0.9000     1.2800     2.2820 H     1 <1>   0.0800 
 37 H        1.4780     2.9360     2.2690 H     1 <1>   0.0800 
 38 H        3.6240     3.8900     1.3570 H     1 <1>   0.3700 
 39 H        4.8330     1.6860     2.1210 H     1 <1>   0.0800 
 40 H        3.9850     0.2410     1.5810 H     1 <1>   0.0800 
 41 H        4.4480     6.1060    -1.1880 H     1 <1>   0.0800 
 42 H        4.2550     5.9480     0.5320 H     1 <1>   0.0800 
 43 H        6.8210     5.4660    -1.0070 H     1 <1>   0.0800 
 44 H        6.6550     5.2520     0.7070 H     1 <1>   0.0800 
 45 H        5.6250     6.7440     2.7030 H     1 <1>   0.0800 
 46 H        6.4590     8.1120     3.4000 H     1 <1>   0.0800 
 47 H        7.3720     6.7240     2.8590 H     1 <1>   0.0800 
 48 H        6.5410     7.1200    -2.6870 H     1 <1>   0.0800 
 49 H        7.7170     8.4040    -2.7730 H     1 <1>   0.0800 
 50 H        6.0050     8.7730    -2.8070 H     1 <1>   0.0800 
 51 H        8.0880    10.6920    -1.3710 H     1 <1>   0.0800 
 52 H        7.3350    11.4390     0.0270 H     1 <1>   0.0800 
 53 H        6.3580    11.0220    -1.3700 H     1 <1>   0.0800 
@<TRIPOS>BOND
  1   1   2  2   
  2   1   3  2   
  3   1   4  am  
  4   1   5  1   
  5   4   6  1   
  6   4   7  1   
  7   5   8  1   
  8   5  26  1   
  9   5  27  1   
 10   6  28  1   
 11   6  29  1   
 12   6  30  1   
 13   7  31  1   
 14   7  32  1   
 15   7  33  1   
 16   8   9  1   
 17   8  10  1   
 18   8  34  1   
 19   9  11  1   
 20   9  12  1   
 21   9  35  1   
 22  10  13  1   
 23  10  36  1   
 24  10  37  1   
 25  11  14  am  
 26  11  38  1   
 27  12  13  1   
 28  12  39  1   
 29  12  40  1   
 30  14  15  2   
 31  14  16  1   
 32  16  17  1   
 33  16  41  1   
 34  16  42  1   
 35  17  18  1   
 36  17  43  1   
 37  17  44  1   
 38  18  19  1   
 39  18  20  2   
 40  19  21  2   
 41  19  22  1   
 42  20  23  1   
 43  20  24  1   
 44  21  23  1   
 45  22  45  1   
 46  22  46  1   
 47  22  47  1   
 48  23  25  1   
 49  24  48  1   
 50  24  49  1   
 51  24  50  1   
 52  25  51  1   
 53  25  52  1   
 54  25  53  1   
@<TRIPOS>SUBSTRUCTURE
  1 ****  11 GROUP 4 **** **** 0

# MOE 2024.06 (io_trps.svl 2023.06)
