@<TRIPOS>MOLECULE
NONAME
49 50 1 0 0 
SMALL
USER_CHARGES


@<TRIPOS>ATOM
  1 S       -1.6380     1.4520    -0.2390 S.3   1 <1>  -0.4600 
  2 C       -2.4090     0.4540    -1.5650 C.3   1 <1>   0.1310 
  3 C       -0.2840     0.3920     0.3390 C.3   1 <1>  -0.0100 
  4 C       -2.9120    -0.8900    -1.0430 C.2   1 <1>   0.5690 
  5 O       -2.3920    -1.8840    -1.4980 O.2   1 <1>  -0.5700 
  6 N       -3.9230    -0.9890    -0.1140 N.am  1 <1>  -0.6600 
  7 C       -4.2870    -2.3270     0.4320 C.3   1 <1>   0.1400 
  8 C       -4.7040     0.1700     0.4080 C.3   1 <1>   0.1400 
  9 C       -5.3220    -3.0050    -0.4760 C.3   1 <1>   0.1400 
 10 C       -6.2230    -0.0670     0.3970 C.3   1 <1>  -0.1600 
 11 N       -6.6870    -2.3970    -0.3290 N.am  1 <1>  -0.6600 
 12 C       -6.7330    -0.9570    -0.7450 C.3   1 <1>   0.1400 
 13 C       -7.8330    -3.0000     0.1530 C.2   1 <1>   0.5690 
 14 O       -8.8910    -2.4170     0.0920 O.2   1 <1>  -0.5700 
 15 C       -7.8770    -4.4420     0.7180 C.3   1 <1>   0.0610 
 16 C       -7.6590    -5.3880    -0.4610 C.3   1 <1>   0.3430 
 17 C       -9.2980    -4.8660     1.1400 C.3   1 <1>  -0.1600 
 18 C       -6.9370    -4.6730     1.9250 C.3   1 <1>  -0.2400 
 19 N       -8.9770    -5.4680    -1.1640 N.4   1 <1>  -0.9590 
 20 C      -10.0380    -5.1620    -0.1580 C.3   1 <1>   0.3430 
 21 C       -9.1930    -6.7620    -1.8750 C.3   1 <1>   0.2630 
 22 H       -1.6560     0.3010    -2.3160 H     1 <1>   0.0800 
 23 H       -3.2130     1.0300    -1.9790 H     1 <1>   0.0800 
 24 H        0.2550     0.9320     1.0970 H     1 <1>   0.0800 
 25 H        0.3520     0.1740    -0.5010 H     1 <1>   0.0800 
 26 H       -0.7110    -0.5090     0.7420 H     1 <1>   0.0800 
 27 H       -4.6640    -2.2360     1.4360 H     1 <1>   0.0800 
 28 H       -3.4020    -2.9400     0.4720 H     1 <1>   0.0800 
 29 H       -4.5030     1.0420    -0.1870 H     1 <1>   0.0800 
 30 H       -4.3800     0.3900     1.4120 H     1 <1>   0.0800 
 31 H       -5.3380    -4.0520    -0.2580 H     1 <1>   0.0800 
 32 H       -4.9970    -2.9090    -1.4990 H     1 <1>   0.0800 
 33 H       -6.6960     0.8950     0.3130 H     1 <1>   0.0800 
 34 H       -6.5380    -0.4760     1.3410 H     1 <1>   0.0800 
 35 H       -6.1480    -0.8050    -1.6360 H     1 <1>   0.0800 
 36 H       -7.7450    -0.6710    -0.9810 H     1 <1>   0.0800 
 37 H       -7.3900    -6.3610    -0.0830 H     1 <1>   0.0800 
 38 H       -6.8860    -5.0350    -1.1230 H     1 <1>   0.0800 
 39 H       -9.8050    -4.1120     1.7190 H     1 <1>   0.0800 
 40 H       -9.2750    -5.7690     1.7250 H     1 <1>   0.0800 
 41 H       -5.9060    -4.4950     1.6990 H     1 <1>   0.0800 
 42 H       -7.0180    -5.6820     2.2910 H     1 <1>   0.0800 
 43 H       -7.2120    -4.0070     2.7260 H     1 <1>   0.0800 
 44 H       -9.0090    -4.6930    -1.8470 H     1 <1>   0.4500 
 45 H      -10.5890    -4.2860    -0.4660 H     1 <1>   0.0800 
 46 H      -10.7210    -5.9860    -0.0310 H     1 <1>   0.0800 
 47 H       -9.1780    -7.5810    -1.1750 H     1 <1>   0.0800 
 48 H       -8.4200    -6.9190    -2.6100 H     1 <1>   0.0800 
 49 H      -10.1470    -6.7560    -2.3780 H     1 <1>   0.0800 
@<TRIPOS>BOND
  1   1   2  1   
  2   1   3  1   
  3   2   4  1   
  4   2  22  1   
  5   2  23  1   
  6   3  24  1   
  7   3  25  1   
  8   3  26  1   
  9   4   5  2   
 10   4   6  am  
 11   6   7  1   
 12   6   8  1   
 13   7   9  1   
 14   7  27  1   
 15   7  28  1   
 16   8  10  1   
 17   8  29  1   
 18   8  30  1   
 19   9  11  1   
 20   9  31  1   
 21   9  32  1   
 22  10  12  1   
 23  10  33  1   
 24  10  34  1   
 25  11  12  1   
 26  11  13  am  
 27  12  35  1   
 28  12  36  1   
 29  13  14  2   
 30  13  15  1   
 31  15  16  1   
 32  15  17  1   
 33  15  18  1   
 34  16  19  1   
 35  16  37  1   
 36  16  38  1   
 37  17  20  1   
 38  17  39  1   
 39  17  40  1   
 40  18  41  1   
 41  18  42  1   
 42  18  43  1   
 43  19  20  1   
 44  19  21  1   
 45  19  44  1   
 46  20  45  1   
 47  20  46  1   
 48  21  47  1   
 49  21  48  1   
 50  21  49  1   
@<TRIPOS>SUBSTRUCTURE
  1 ****  11 GROUP 4 **** **** 0

# MOE 2024.06 (io_trps.svl 2023.06)
