@<TRIPOS>MOLECULE
NONAME
38 40 1 0 0 
SMALL
USER_CHARGES


@<TRIPOS>ATOM
  1 S        1.4210    -1.1530     1.6380 S.3   1 <1>  -0.0800 
  2 C        0.3870    -0.6710     0.3170 C.2   1 <1>   0.1980 
  3 C        1.3670    -2.7810     1.0440 C.2   1 <1>  -0.1100 
  4 N        0.0520    -1.6200    -0.4560 N.2   1 <1>  -0.5650 
  5 C        0.0040     0.7870     0.2260 C.3   1 <1>  -0.0600 
  6 C        0.6020    -2.8530    -0.0690 C.2   1 <1>   0.1410 
  7 C        0.3330    -4.0740    -0.8230 C.2   1 <1>   0.7160 
  8 O        0.0710    -4.0710    -2.0110 O.2   1 <1>  -0.5700 
  9 N        0.3620    -5.2820    -0.1850 N.am  1 <1>  -0.7300 
 10 C        0.1020    -6.5960    -0.8190 C.3   1 <1>   0.2200 
 11 C       -1.3160    -7.0770    -0.5360 C.3   1 <1>  -0.0800 
 12 C        0.9040    -7.6570    -0.0780 C.3   1 <1>   0.1200 
 13 C       -1.1900    -7.7360     0.8430 C.3   1 <1>   0.1200 
 14 C       -2.4280    -6.0150    -0.6340 C.3   1 <1>  -0.0160 
 15 O        0.1770    -7.9020     1.0870 O.3   1 <1>  -0.5600 
 16 C       -3.7950    -6.6420    -0.4100 C.ar  1 <1>  -0.1440 
 17 C       -4.4500    -6.5630     0.8020 C.ar  1 <1>  -0.1500 
 18 C       -4.4520    -7.3250    -1.4140 C.ar  1 <1>  -0.1500 
 19 C       -5.6910    -7.1590     0.9510 C.ar  1 <1>   0.1600 
 20 C       -5.6930    -7.8860    -1.1610 C.ar  1 <1>   0.1600 
 21 N       -6.3270    -7.8220    -0.0010 N.ar  1 <1>  -0.6200 
 22 H        1.9210    -3.5260     1.5850 H     1 <1>   0.1500 
 23 H       -0.6280     0.9430    -0.6290 H     1 <1>   0.0800 
 24 H        0.8860     1.3910     0.1230 H     1 <1>   0.0800 
 25 H       -0.5280     1.0810     1.1120 H     1 <1>   0.0800 
 26 H        0.4550    -5.3230     0.8310 H     1 <1>   0.3700 
 27 H        0.3330    -6.5680    -1.8710 H     1 <1>   0.0800 
 28 H       -1.5410    -7.8580    -1.2420 H     1 <1>   0.0800 
 29 H        1.8990    -7.3330     0.1720 H     1 <1>   0.0800 
 30 H        0.9450    -8.5720    -0.6430 H     1 <1>   0.0800 
 31 H       -1.6710    -8.7000     0.8690 H     1 <1>   0.0800 
 32 H       -1.5870    -7.1110     1.6230 H     1 <1>   0.0800 
 33 H       -2.4000    -5.5580    -1.6080 H     1 <1>   0.0800 
 34 H       -2.2720    -5.2360     0.0910 H     1 <1>   0.0800 
 35 H       -4.0090    -6.0420     1.6330 H     1 <1>   0.1500 
 36 H       -4.0120    -7.4240    -2.3890 H     1 <1>   0.1500 
 37 H       -6.1860    -7.0870     1.9040 H     1 <1>   0.1500 
 38 H       -6.1910    -8.4150    -1.9560 H     1 <1>   0.1500 
@<TRIPOS>BOND
  1   1   2  1   
  2   1   3  1   
  3   2   4  2   
  4   2   5  1   
  5   3   6  2   
  6   3  22  1   
  7   4   6  1   
  8   5  23  1   
  9   5  24  1   
 10   5  25  1   
 11   6   7  1   
 12   7   8  2   
 13   7   9  am  
 14   9  10  1   
 15   9  26  1   
 16  10  11  1   
 17  10  12  1   
 18  10  27  1   
 19  11  13  1   
 20  11  14  1   
 21  11  28  1   
 22  12  15  1   
 23  12  29  1   
 24  12  30  1   
 25  13  15  1   
 26  13  31  1   
 27  13  32  1   
 28  14  16  1   
 29  14  33  1   
 30  14  34  1   
 31  16  17  ar  
 32  16  18  ar  
 33  17  19  ar  
 34  17  35  1   
 35  18  20  ar  
 36  18  36  1   
 37  19  21  ar  
 38  19  37  1   
 39  20  21  ar  
 40  20  38  1   
@<TRIPOS>SUBSTRUCTURE
  1 ****  14 GROUP 4 **** **** 0

# MOE 2024.06 (io_trps.svl 2023.06)
