@<TRIPOS>MOLECULE
NONAME
54 56 1 0 0 
SMALL
USER_CHARGES


@<TRIPOS>ATOM
  1 F       -0.2170     1.1170    -0.1770 F     1 <1>  -0.1900 
  2 C       -1.5190     1.2360    -0.1130 C.ar  1 <1>   0.1900 
  3 C       -2.2210     2.1520    -0.9040 C.ar  1 <1>   0.0830 
  4 C       -2.1670     0.4090     0.7840 C.ar  1 <1>  -0.1500 
  5 O       -1.6980     3.0170    -1.8200 O.3   1 <1>  -0.3630 
  6 C       -3.5980     2.2030    -0.7590 C.ar  1 <1>  -0.1500 
  7 C       -3.5420     0.4870     0.9040 C.ar  1 <1>  -0.1500 
  8 C       -0.3230     3.0700    -2.1310 C.3   1 <1>   0.0400 
  9 C       -4.2880     1.3800     0.1330 C.ar  1 <1>   0.0530 
 10 C       -5.7210     1.4750     0.2540 C.2   1 <1>   0.0870 
 11 O       -6.2870     2.6560     0.2390 O.3   1 <1>  -0.0190 
 12 C       -6.7190     0.5590     0.4000 C.2   1 <1>  -0.0860 
 13 N       -7.5840     2.6050     0.3740 N.2   1 <1>  -0.4100 
 14 C       -7.8710     1.3560     0.4740 C.2   1 <1>   0.3720 
 15 C       -6.6820    -0.8720     0.4490 C.2   1 <1>   0.7160 
 16 N       -9.1890     0.8900     0.6150 N.pl3 1 <1>  -0.8210 
 17 O       -5.6850    -1.4970     0.1400 O.2   1 <1>  -0.5700 
 18 N       -7.7850    -1.5640     0.8350 N.am  1 <1>  -0.7300 
 19 C       -9.9790     1.6320     1.6380 C.3   1 <1>   0.1290 
 20 C       -9.9090     0.8300    -0.6850 C.3   1 <1>   0.1290 
 21 C       -7.9700    -3.0180     0.8220 C.3   1 <1>   0.2200 
 22 C       -8.7640    -3.3950    -0.4320 C.3   1 <1>  -0.1600 
 23 C       -8.7110    -3.4320     2.0950 C.3   1 <1>  -0.1600 
 24 C       -9.0810    -4.9010    -0.4670 C.3   1 <1>  -0.0800 
 25 C       -9.0360    -4.9320     2.0810 C.3   1 <1>  -0.1600 
 26 C       -9.8220    -5.3180     0.8200 C.3   1 <1>  -0.1600 
 27 C       -9.8890    -5.2290    -1.7320 C.3   1 <1>   0.1200 
 28 O      -10.1210    -6.5920    -1.8050 O.3   1 <1>  -0.6800 
 29 H       -1.6020    -0.2860     1.3790 H     1 <1>   0.1500 
 30 H       -4.1490     2.9020    -1.3610 H     1 <1>   0.1500 
 31 H       -4.0460    -0.1560     1.6050 H     1 <1>   0.1500 
 32 H       -0.1810     3.8120    -2.8950 H     1 <1>   0.0800 
 33 H       -0.0080     2.1080    -2.4950 H     1 <1>   0.0800 
 34 H        0.2260     3.3470    -1.2480 H     1 <1>   0.0800 
 35 H       -8.6270    -0.9870     0.9760 H     1 <1>   0.3700 
 36 H      -10.8850     1.0970     1.8640 H     1 <1>   0.0800 
 37 H      -10.2270     2.6160     1.2770 H     1 <1>   0.0800 
 38 H       -9.4030     1.7340     2.5420 H     1 <1>   0.0800 
 39 H      -10.8670     0.3560    -0.5570 H     1 <1>   0.0800 
 40 H       -9.3340     0.2620    -1.3970 H     1 <1>   0.0800 
 41 H      -10.0550     1.8250    -1.0730 H     1 <1>   0.0800 
 42 H       -7.0080    -3.5060     0.7960 H     1 <1>   0.0800 
 43 H       -9.6840    -2.8380    -0.4500 H     1 <1>   0.0800 
 44 H       -8.1850    -3.1310    -1.3000 H     1 <1>   0.0800 
 45 H       -8.1000    -3.2090     2.9520 H     1 <1>   0.0800 
 46 H       -9.6290    -2.8760     2.1750 H     1 <1>   0.0800 
 47 H       -8.1450    -5.4320    -0.5170 H     1 <1>   0.0800 
 48 H       -8.1190    -5.4960     2.1150 H     1 <1>   0.0800 
 49 H       -9.6110    -5.1860     2.9550 H     1 <1>   0.0800 
 50 H      -10.7890    -4.8450     0.8450 H     1 <1>   0.0800 
 51 H       -9.9840    -6.3830     0.8210 H     1 <1>   0.0800 
 52 H       -9.3520    -4.9350    -2.6180 H     1 <1>   0.0800 
 53 H      -10.8440    -4.7330    -1.7180 H     1 <1>   0.0800 
 54 H       -9.2770    -7.0830    -1.7820 H     1 <1>   0.4000 
@<TRIPOS>BOND
  1   1   2  1   
  2   2   3  ar  
  3   2   4  ar  
  4   3   5  1   
  5   3   6  ar  
  6   4   7  ar  
  7   4  29  1   
  8   5   8  1   
  9   6   9  ar  
 10   6  30  1   
 11   7   9  ar  
 12   7  31  1   
 13   8  32  1   
 14   8  33  1   
 15   8  34  1   
 16   9  10  1   
 17  10  11  1   
 18  10  12  2   
 19  11  13  1   
 20  12  14  1   
 21  12  15  1   
 22  13  14  2   
 23  14  16  1   
 24  15  17  2   
 25  15  18  am  
 26  16  19  1   
 27  16  20  1   
 28  18  21  1   
 29  18  35  1   
 30  19  36  1   
 31  19  37  1   
 32  19  38  1   
 33  20  39  1   
 34  20  40  1   
 35  20  41  1   
 36  21  22  1   
 37  21  23  1   
 38  21  42  1   
 39  22  24  1   
 40  22  43  1   
 41  22  44  1   
 42  23  25  1   
 43  23  45  1   
 44  23  46  1   
 45  24  26  1   
 46  24  27  1   
 47  24  47  1   
 48  25  26  1   
 49  25  48  1   
 50  25  49  1   
 51  26  50  1   
 52  26  51  1   
 53  27  28  1   
 54  27  52  1   
 55  27  53  1   
 56  28  54  1   
@<TRIPOS>SUBSTRUCTURE
  1 ****  15 GROUP 4 **** **** 0

# MOE 2024.06 (io_trps.svl 2023.06)
