@<TRIPOS>MOLECULE
NONAME
50 52 1 0 0 
SMALL
USER_CHARGES


@<TRIPOS>ATOM
  1 F        0.4820    -0.9760    -0.1770 F     1 <1>  -0.3400 
  2 C        1.3220    -1.0090    -1.2080 C.3   1 <1>   1.1640 
  3 F        0.6940    -1.6700    -2.1780 F     1 <1>  -0.3400 
  4 F        1.4130     0.2500    -1.6340 F     1 <1>  -0.3400 
  5 C        2.6980    -1.6280    -0.8500 C.ar  1 <1>   0.1660 
  6 N        2.7580    -2.8620    -0.3650 N.ar  1 <1>  -0.6200 
  7 C        3.8540    -0.9080    -1.0320 C.ar  1 <1>  -0.1500 
  8 C        3.9660    -3.3400    -0.0790 C.ar  1 <1>   0.7200 
  9 C        5.0570    -1.4930    -0.7050 C.ar  1 <1>   0.4100 
 10 N        5.1210    -2.7110    -0.2280 N.ar  1 <1>  -0.6200 
 11 N        4.0140    -4.6160     0.4300 N.pl3 1 <1>  -0.8380 
 12 N        6.2310    -0.7950    -0.8690 N.pl3 1 <1>  -0.8380 
 13 C        5.2800    -5.3260     0.7040 C.3   1 <1>   0.2090 
 14 C        2.8650    -5.5460     0.4230 C.3   1 <1>   0.2090 
 15 C        6.5200     0.3030     0.0890 C.3   1 <1>   0.2090 
 16 C        7.4440    -1.5440    -1.2870 C.3   1 <1>   0.2090 
 17 C        4.8500    -6.7130     1.1620 C.3   1 <1>  -0.1600 
 18 C        3.4920    -6.9340     0.5000 C.3   1 <1>  -0.1600 
 19 C        7.4970     1.3150    -0.5370 C.3   1 <1>  -0.0800 
 20 C        8.4340    -0.5780    -1.9410 C.3   1 <1>  -0.1600 
 21 C        8.7770     0.6020    -1.0190 C.3   1 <1>  -0.1600 
 22 C        7.8030     2.4380     0.4750 C.3   1 <1>  -0.1600 
 23 C        8.6620     3.5780    -0.1040 C.3   1 <1>  -0.0990 
 24 C        8.8460     4.7020     0.8960 C.2   1 <1>   0.5690 
 25 O        9.7130     4.6310     1.7250 O.2   1 <1>  -0.5700 
 26 N        8.0360     5.7730     0.8510 N.am  1 <1>  -0.8000 
 27 H        3.8650     0.0890    -1.4270 H     1 <1>   0.1500 
 28 H        5.8500    -4.8130     1.4610 H     1 <1>   0.0800 
 29 H        5.8550    -5.3860    -0.2050 H     1 <1>   0.0800 
 30 H        2.2730    -5.4320    -0.4690 H     1 <1>   0.0800 
 31 H        2.2560    -5.3540     1.2900 H     1 <1>   0.0800 
 32 H        6.9490    -0.1190     0.9820 H     1 <1>   0.0800 
 33 H        5.6030     0.7980     0.3600 H     1 <1>   0.0800 
 34 H        7.1690    -2.3170    -1.9860 H     1 <1>   0.0800 
 35 H        7.8900    -2.0100    -0.4240 H     1 <1>   0.0800 
 36 H        4.7370    -6.7030     2.2320 H     1 <1>   0.0800 
 37 H        5.5690    -7.4640     0.8900 H     1 <1>   0.0800 
 38 H        3.6290    -7.3060    -0.5000 H     1 <1>   0.0800 
 39 H        2.8720    -7.6210     1.0490 H     1 <1>   0.0800 
 40 H        7.0030     1.7510    -1.3890 H     1 <1>   0.0800 
 41 H        8.0000    -0.2110    -2.8550 H     1 <1>   0.0800 
 42 H        9.3320    -1.1120    -2.1960 H     1 <1>   0.0800 
 43 H        9.3270     0.2360    -0.1680 H     1 <1>   0.0800 
 44 H        9.4100     1.2840    -1.5570 H     1 <1>   0.0800 
 45 H        8.3080     2.0240     1.3330 H     1 <1>   0.0800 
 46 H        6.8740     2.8570     0.8210 H     1 <1>   0.0800 
 47 H        8.2080     3.9670    -0.9960 H     1 <1>   0.0800 
 48 H        9.6390     3.2120    -0.3600 H     1 <1>   0.0800 
 49 H        8.1750     6.5260     1.5260 H     1 <1>   0.3700 
 50 H        7.2810     5.8940     0.1780 H     1 <1>   0.3700 
@<TRIPOS>BOND
  1   1   2  1   
  2   2   3  1   
  3   2   4  1   
  4   2   5  1   
  5   5   6  ar  
  6   5   7  ar  
  7   6   8  ar  
  8   7   9  ar  
  9   7  27  1   
 10   8  10  ar  
 11   8  11  1   
 12   9  10  ar  
 13   9  12  1   
 14  11  13  1   
 15  11  14  1   
 16  12  15  1   
 17  12  16  1   
 18  13  17  1   
 19  13  28  1   
 20  13  29  1   
 21  14  18  1   
 22  14  30  1   
 23  14  31  1   
 24  15  19  1   
 25  15  32  1   
 26  15  33  1   
 27  16  20  1   
 28  16  34  1   
 29  16  35  1   
 30  17  18  1   
 31  17  36  1   
 32  17  37  1   
 33  18  38  1   
 34  18  39  1   
 35  19  21  1   
 36  19  22  1   
 37  19  40  1   
 38  20  21  1   
 39  20  41  1   
 40  20  42  1   
 41  21  43  1   
 42  21  44  1   
 43  22  23  1   
 44  22  45  1   
 45  22  46  1   
 46  23  24  1   
 47  23  47  1   
 48  23  48  1   
 49  24  25  2   
 50  24  26  am  
 51  26  49  1   
 52  26  50  1   
@<TRIPOS>SUBSTRUCTURE
  1 ****   9 GROUP 4 **** **** 0

# MOE 2024.06 (io_trps.svl 2023.06)
