@<TRIPOS>MOLECULE
NONAME
56 59 1 0 0 
SMALL
USER_CHARGES


@<TRIPOS>ATOM
  1 O        1.0720    -0.2880     1.3410 O.3   1 <1>  -0.6800 
  2 C        1.5790    -0.1670     0.0480 C.3   1 <1>   0.2000 
  3 C        2.5420    -1.3160    -0.2620 C.3   1 <1>  -0.0800 
  4 C        2.4600     1.0840    -0.0450 C.3   1 <1>   0.2090 
  5 C        3.8910    -0.8460     0.2850 C.3   1 <1>   0.2090 
  6 C        2.1340    -2.7070     0.2560 C.3   1 <1>   0.0210 
  7 N        3.8600     0.6370     0.2260 N.pl3 1 <1>  -0.8380 
  8 C        3.1660    -3.7490    -0.1250 C.2   1 <1>   0.1080 
  9 C        4.9540     1.3560    -0.2200 C.ar  1 <1>   0.4100 
 10 N        3.3950    -4.0910    -1.3540 N.2   1 <1>  -0.7070 
 11 C        3.9760    -4.4360     0.7730 C.2   1 <1>  -0.1500 
 12 N        4.7310     2.3670    -1.0520 N.ar  1 <1>  -0.6200 
 13 C        6.2330     1.0190     0.2200 C.ar  1 <1>  -0.1500 
 14 N        4.3680    -5.0180    -1.2730 N.pl3 1 <1>   0.3000 
 15 C        4.7380    -5.2440     0.0050 C.2   1 <1>  -0.3320 
 16 C        5.7850     3.0450    -1.4540 C.ar  1 <1>   0.1600 
 17 C        7.3280     1.7380    -0.1960 C.ar  1 <1>  -0.1500 
 18 C        5.8120    -6.2330     0.4200 C.3   1 <1>  -0.0600 
 19 C        7.0880     2.7950    -1.0550 C.ar  1 <1>  -0.1430 
 20 C        8.2110     3.6830    -1.5400 C.3   1 <1>   0.4860 
 21 N        8.6720     4.5350    -0.4080 N.4   1 <1>  -0.9590 
 22 C        7.5830     5.4230     0.1080 C.3   1 <1>   0.3430 
 23 C        9.9000     5.3010    -0.7660 C.3   1 <1>   0.3430 
 24 C        8.0700     6.1660     1.3530 C.3   1 <1>  -0.1600 
 25 C       10.4260     6.0380     0.4670 C.3   1 <1>  -0.1600 
 26 C        9.3590     6.9520     1.0820 C.3   1 <1>  -0.1600 
 27 H        0.4430    -1.0300     1.3940 H     1 <1>   0.4000 
 28 H        0.7500    -0.1190    -0.6370 H     1 <1>   0.0800 
 29 H        2.6460    -1.3730    -1.3310 H     1 <1>   0.0800 
 30 H        2.1530     1.8350     0.6610 H     1 <1>   0.0800 
 31 H        2.3940     1.4820    -1.0430 H     1 <1>   0.0800 
 32 H        4.6990    -1.2500    -0.3010 H     1 <1>   0.0800 
 33 H        4.0030    -1.1470     1.3120 H     1 <1>   0.0800 
 34 H        1.1900    -2.9900    -0.1730 H     1 <1>   0.0800 
 35 H        2.0320    -2.6960     1.3260 H     1 <1>   0.0800 
 36 H        3.9750    -4.3270     1.8430 H     1 <1>   0.1500 
 37 H        6.3460     0.1950     0.8980 H     1 <1>   0.1500 
 38 H        4.7570    -5.4750    -2.1070 H     1 <1>   0.2700 
 39 H        5.5840     3.8540    -2.1360 H     1 <1>   0.1500 
 40 H        8.3150     1.4740     0.1440 H     1 <1>   0.1500 
 41 H        5.9220    -6.2320     1.4900 H     1 <1>   0.0800 
 42 H        6.7550    -5.9640    -0.0210 H     1 <1>   0.0800 
 43 H        5.5450    -7.2260     0.1040 H     1 <1>   0.0800 
 44 H        7.8690     4.3010    -2.3550 H     1 <1>   0.0800 
 45 H        9.0210     3.0670    -1.8950 H     1 <1>   0.0800 
 46 H        8.9080     3.9000     0.3650 H     1 <1>   0.4500 
 47 H        7.3020     6.1370    -0.6500 H     1 <1>   0.0800 
 48 H        6.7120     4.8390     0.3640 H     1 <1>   0.0800 
 49 H       10.6620     4.6320    -1.1340 H     1 <1>   0.0800 
 50 H        9.6710     6.0170    -1.5400 H     1 <1>   0.0800 
 51 H        7.3000     6.8440     1.6790 H     1 <1>   0.0800 
 52 H        8.2300     5.4590     2.1490 H     1 <1>   0.0800 
 53 H       10.7600     5.3220     1.1970 H     1 <1>   0.0800 
 54 H       11.2800     6.6300     0.1850 H     1 <1>   0.0800 
 55 H        9.7270     7.3790     2.0010 H     1 <1>   0.0800 
 56 H        9.1480     7.7650     0.4070 H     1 <1>   0.0800 
@<TRIPOS>BOND
  1   1   2  1   
  2   1  27  1   
  3   2   3  1   
  4   2   4  1   
  5   2  28  1   
  6   3   5  1   
  7   3   6  1   
  8   3  29  1   
  9   4   7  1   
 10   4  30  1   
 11   4  31  1   
 12   5   7  1   
 13   5  32  1   
 14   5  33  1   
 15   6   8  1   
 16   6  34  1   
 17   6  35  1   
 18   7   9  1   
 19   8  10  2   
 20   8  11  1   
 21   9  12  ar  
 22   9  13  ar  
 23  10  14  1   
 24  11  15  2   
 25  11  36  1   
 26  12  16  ar  
 27  13  17  ar  
 28  13  37  1   
 29  14  15  1   
 30  14  38  1   
 31  15  18  1   
 32  16  19  ar  
 33  16  39  1   
 34  17  19  ar  
 35  17  40  1   
 36  18  41  1   
 37  18  42  1   
 38  18  43  1   
 39  19  20  1   
 40  20  21  1   
 41  20  44  1   
 42  20  45  1   
 43  21  22  1   
 44  21  23  1   
 45  21  46  1   
 46  22  24  1   
 47  22  47  1   
 48  22  48  1   
 49  23  25  1   
 50  23  49  1   
 51  23  50  1   
 52  24  26  1   
 53  24  51  1   
 54  24  52  1   
 55  25  26  1   
 56  25  53  1   
 57  25  54  1   
 58  26  55  1   
 59  26  56  1   
@<TRIPOS>SUBSTRUCTURE
  1 ****   9 GROUP 4 **** **** 0

# MOE 2024.06 (io_trps.svl 2023.06)
