@<TRIPOS>MOLECULE
NONAME
42 45 1 0 0 
SMALL
USER_CHARGES


@<TRIPOS>ATOM
  1 O       -2.0940     0.5700    -1.9240 O.2   1 <1>  -0.5700 
  2 C       -1.9480     0.6330    -0.7180 C.2   1 <1>   0.7150 
  3 N       -1.9850    -0.5230     0.0030 N.am  1 <1>  -0.7300 
  4 C       -1.7630     1.9000    -0.0630 C.2   1 <1>   0.0550 
  5 C       -2.2010    -1.8830    -0.5410 C.3   1 <1>   0.2200 
  6 O       -1.6680     1.9850     1.2460 O.3   1 <1>  -0.0190 
  7 C       -1.6580     3.1640    -0.5290 C.2   1 <1>  -0.1500 
  8 C       -3.6040    -2.3850    -0.2240 C.3   1 <1>  -0.0800 
  9 C       -1.3650    -2.8700     0.2620 C.3   1 <1>   0.1200 
 10 N       -1.5120     3.2030     1.6650 N.2   1 <1>  -0.4100 
 11 C       -1.4990     3.9380     0.6090 C.2   1 <1>   0.2030 
 12 C       -3.4580    -2.9510     1.1930 C.3   1 <1>   0.1200 
 13 C       -4.7400    -1.3570    -0.3810 C.3   1 <1>  -0.0160 
 14 O       -2.0870    -3.0850     1.4360 O.3   1 <1>  -0.5600 
 15 C       -1.3360     5.4480     0.6240 C.3   1 <1>  -0.0140 
 16 C       -6.0920    -1.9940    -0.1000 C.ar  1 <1>  -0.1440 
 17 C       -0.4170     6.1280    -0.3470 C.3   1 <1>  -0.2000 
 18 C       -0.0500     6.0500     1.1020 C.3   1 <1>  -0.2000 
 19 C       -6.7330    -1.8430     1.1130 C.ar  1 <1>  -0.1500 
 20 C       -6.7470    -2.7570    -1.0450 C.ar  1 <1>  -0.1500 
 21 C       -7.9610    -2.4500     1.3180 C.ar  1 <1>   0.1600 
 22 C       -7.9740    -3.3210    -0.7390 C.ar  1 <1>   0.1600 
 23 N       -8.5960    -3.1880     0.4220 N.ar  1 <1>  -0.6200 
 24 H       -1.8710    -0.4840     1.0200 H     1 <1>   0.3700 
 25 H       -1.9730    -1.9170    -1.5930 H     1 <1>   0.0800 
 26 H       -1.6890     3.5080    -1.5460 H     1 <1>   0.1500 
 27 H       -3.8100    -3.2140    -0.8790 H     1 <1>   0.0800 
 28 H       -0.3850    -2.4950     0.5000 H     1 <1>   0.0800 
 29 H       -1.2830    -3.8120    -0.2530 H     1 <1>   0.0800 
 30 H       -3.9270    -3.9160     1.2870 H     1 <1>   0.0800 
 31 H       -3.8540    -2.2800     1.9350 H     1 <1>   0.0800 
 32 H       -4.7320    -0.9650    -1.3840 H     1 <1>   0.0800 
 33 H       -4.5960    -0.5280     0.2890 H     1 <1>   0.0800 
 34 H       -2.2460     5.9520     0.8980 H     1 <1>   0.1000 
 35 H        0.1460     5.5340    -1.0460 H     1 <1>   0.1000 
 36 H       -0.7130     7.0790    -0.7560 H     1 <1>   0.1000 
 37 H       -0.0960     6.9410     1.7050 H     1 <1>   0.1000 
 38 H        0.7390     5.3850     1.4090 H     1 <1>   0.1000 
 39 H       -6.2930    -1.2600     1.9010 H     1 <1>   0.1500 
 40 H       -6.3160    -2.9170    -2.0160 H     1 <1>   0.1500 
 41 H       -8.4470    -2.3220     2.2700 H     1 <1>   0.1500 
 42 H       -8.4710    -3.9130    -1.4880 H     1 <1>   0.1500 
@<TRIPOS>BOND
  1   1   2  2   
  2   2   3  am  
  3   2   4  1   
  4   3   5  1   
  5   3  24  1   
  6   4   6  1   
  7   4   7  2   
  8   5   8  1   
  9   5   9  1   
 10   5  25  1   
 11   6  10  1   
 12   7  11  1   
 13   7  26  1   
 14   8  12  1   
 15   8  13  1   
 16   8  27  1   
 17   9  14  1   
 18   9  28  1   
 19   9  29  1   
 20  10  11  2   
 21  11  15  1   
 22  12  14  1   
 23  12  30  1   
 24  12  31  1   
 25  13  16  1   
 26  13  32  1   
 27  13  33  1   
 28  15  17  1   
 29  15  18  1   
 30  15  34  1   
 31  16  19  ar  
 32  16  20  ar  
 33  17  18  1   
 34  17  35  1   
 35  17  36  1   
 36  18  37  1   
 37  18  38  1   
 38  19  21  ar  
 39  19  39  1   
 40  20  22  ar  
 41  20  40  1   
 42  21  23  ar  
 43  21  41  1   
 44  22  23  ar  
 45  22  42  1   
@<TRIPOS>SUBSTRUCTURE
  1 ****   3 GROUP 4 **** **** 0

# MOE 2024.06 (io_trps.svl 2023.06)
