@<TRIPOS>MOLECULE
NONAME
41 42 1 0 0 
SMALL
USER_CHARGES


@<TRIPOS>ATOM
  1 O       -0.9940     0.5890    -1.4630 O.2   1 <1>  -0.5700 
  2 C       -1.6540     0.5490    -0.4580 C.2   1 <1>   0.4230 
  3 C       -2.9360    -0.0960    -0.4030 C.ar  1 <1>   0.0860 
  4 C       -1.0330     1.1560     0.7840 C.3   1 <1>  -0.1790 
  5 C       -4.0780     0.3880     0.2330 C.ar  1 <1>   0.1660 
  6 C       -3.0960    -1.3220    -1.0310 C.ar  1 <1>   0.1600 
  7 N       -5.1940    -0.2960     0.2880 N.ar  1 <1>  -0.6200 
  8 C       -4.1360     1.7570     0.8910 C.3   1 <1>  -0.0960 
  9 N       -4.2030    -2.0200    -0.9980 N.ar  1 <1>  -0.6200 
 10 C       -5.2050    -1.4710    -0.3220 C.ar  1 <1>   0.7200 
 11 N       -6.3680    -2.1400    -0.2340 N.pl3 1 <1>  -0.8690 
 12 C       -6.7000    -3.4260    -0.8700 C.3   1 <1>   0.2090 
 13 C       -7.7260    -4.1530    -0.0060 C.3   1 <1>  -0.1600 
 14 C       -8.0820    -5.5210    -0.5970 C.3   1 <1>   0.0210 
 15 C       -9.1090    -6.2250     0.2720 C.2   1 <1>  -0.1810 
 16 C       -8.9290    -7.1250     1.2520 C.2   1 <1>  -0.0400 
 17 C      -10.4970    -6.0770     0.2300 C.2   1 <1>   0.1080 
 18 O      -10.1030    -7.4560     1.7180 O.3   1 <1>  -0.0190 
 19 C       -7.6900    -7.7570     1.8530 C.3   1 <1>  -0.0600 
 20 N      -11.0630    -6.8260     1.1070 N.2   1 <1>  -0.4100 
 21 C      -11.2650    -5.1690    -0.7070 C.3   1 <1>  -0.0590 
 22 H       -1.4910     0.7650     1.6740 H     1 <1>   0.0800 
 23 H       -1.1370     2.2250     0.7600 H     1 <1>   0.0800 
 24 H        0.0150     0.9180     0.8090 H     1 <1>   0.0800 
 25 H       -2.2620    -1.7330    -1.5740 H     1 <1>   0.1500 
 26 H       -3.5430     2.4700     0.3500 H     1 <1>   0.0800 
 27 H       -3.7920     1.6920     1.9070 H     1 <1>   0.0800 
 28 H       -5.1500     2.1160     0.9020 H     1 <1>   0.0800 
 29 H       -7.1140    -1.6370     0.2420 H     1 <1>   0.4000 
 30 H       -5.8090    -4.0250    -0.9680 H     1 <1>   0.0800 
 31 H       -7.0980    -3.2410    -1.8530 H     1 <1>   0.0800 
 32 H       -8.6170    -3.5560     0.0710 H     1 <1>   0.0800 
 33 H       -7.3210    -4.2940     0.9810 H     1 <1>   0.0800 
 34 H       -7.1950    -6.1280    -0.6600 H     1 <1>   0.0800 
 35 H       -8.4720    -5.4080    -1.5930 H     1 <1>   0.0800 
 36 H       -6.8030    -7.3710     1.3870 H     1 <1>   0.0800 
 37 H       -7.7240    -8.8220     1.7160 H     1 <1>   0.0800 
 38 H       -7.6510    -7.5420     2.9060 H     1 <1>   0.0800 
 39 H      -10.9880    -4.1460    -0.5350 H     1 <1>   0.0800 
 40 H      -12.3210    -5.2750    -0.5340 H     1 <1>   0.0800 
 41 H      -11.0530    -5.4320    -1.7260 H     1 <1>   0.0800 
@<TRIPOS>BOND
  1   1   2  2   
  2   2   3  1   
  3   2   4  1   
  4   3   5  ar  
  5   3   6  ar  
  6   4  22  1   
  7   4  23  1   
  8   4  24  1   
  9   5   7  ar  
 10   5   8  1   
 11   6   9  ar  
 12   6  25  1   
 13   7  10  ar  
 14   8  26  1   
 15   8  27  1   
 16   8  28  1   
 17   9  10  ar  
 18  10  11  1   
 19  11  12  1   
 20  11  29  1   
 21  12  13  1   
 22  12  30  1   
 23  12  31  1   
 24  13  14  1   
 25  13  32  1   
 26  13  33  1   
 27  14  15  1   
 28  14  34  1   
 29  14  35  1   
 30  15  16  2   
 31  15  17  1   
 32  16  18  1   
 33  16  19  1   
 34  17  20  2   
 35  17  21  1   
 36  18  20  1   
 37  19  36  1   
 38  19  37  1   
 39  19  38  1   
 40  21  39  1   
 41  21  40  1   
 42  21  41  1   
@<TRIPOS>SUBSTRUCTURE
  1 ****  11 GROUP 4 **** **** 0

# MOE 2024.06 (io_trps.svl 2023.06)
