@<TRIPOS>MOLECULE
NONAME
39 41 1 0 0 
SMALL
USER_CHARGES


@<TRIPOS>ATOM
  1 CL       0.5980     0.0500     1.9400 Cl    1 <1>  -0.1770 
  2 C        1.5240    -0.9320     0.8190 C.ar  1 <1>   0.1770 
  3 C        1.0030    -2.1320     0.3120 C.ar  1 <1>   0.4100 
  4 C        2.7700    -0.4920     0.4450 C.ar  1 <1>  -0.1500 
  5 N        1.6720    -2.8910    -0.5590 N.ar  1 <1>  -0.6200 
  6 N       -0.2610    -2.5780     0.6730 N.pl3 1 <1>  -0.8380 
  7 C        3.4600    -1.2870    -0.4490 C.ar  1 <1>  -0.1500 
  8 C        2.8720    -2.4530    -0.9100 C.ar  1 <1>   0.1600 
  9 C       -1.3930    -2.0960    -0.1660 C.3   1 <1>   0.2090 
 10 C       -0.4660    -4.0270     0.9200 C.3   1 <1>   0.2090 
 11 C       -2.2620    -3.3220    -0.4970 C.3   1 <1>   0.2000 
 12 C       -1.3290    -4.5060    -0.2440 C.3   1 <1>  -0.0800 
 13 O       -3.3530    -3.4110     0.3800 O.3   1 <1>  -0.5600 
 14 C       -2.0300    -5.8490     0.0210 C.3   1 <1>   0.0200 
 15 C       -4.4540    -2.6300     0.0390 C.3   1 <1>   0.0400 
 16 C       -1.0560    -7.0140     0.0920 C.2   1 <1>  -0.0400 
 17 O       -1.5010    -8.1910     0.4470 O.3   1 <1>  -0.0190 
 18 C        0.2600    -7.1310    -0.1480 C.2   1 <1>  -0.1500 
 19 N       -0.5540    -9.0850     0.4610 N.2   1 <1>  -0.4100 
 20 C        0.5180    -8.4740     0.1060 C.2   1 <1>   0.1080 
 21 C        1.8730    -9.1330    -0.0150 C.3   1 <1>  -0.0590 
 22 H        3.1780     0.4240     0.8320 H     1 <1>   0.1500 
 23 H        4.4410    -1.0050    -0.7850 H     1 <1>   0.1500 
 24 H        3.4200    -3.0620    -1.6090 H     1 <1>   0.1500 
 25 H       -1.9530    -1.3470     0.3650 H     1 <1>   0.0800 
 26 H       -1.0060    -1.6740    -1.0770 H     1 <1>   0.0800 
 27 H        0.4680    -4.5590     0.9800 H     1 <1>   0.0800 
 28 H       -0.9950    -4.1450     1.8510 H     1 <1>   0.0800 
 29 H       -2.6230    -3.3090    -1.5110 H     1 <1>   0.0800 
 30 H       -0.6900    -4.6070    -1.1030 H     1 <1>   0.0800 
 31 H       -2.7380    -6.0450    -0.7650 H     1 <1>   0.0800 
 32 H       -2.5760    -5.7990     0.9470 H     1 <1>   0.0800 
 33 H       -5.2150    -2.7860     0.7830 H     1 <1>   0.0800 
 34 H       -4.8230    -2.9360    -0.9250 H     1 <1>   0.0800 
 35 H       -4.1730    -1.5920     0.0260 H     1 <1>   0.0800 
 36 H        0.9770    -6.3950    -0.4640 H     1 <1>   0.1500 
 37 H        2.5870    -8.6150     0.5980 H     1 <1>   0.0800 
 38 H        2.1990    -9.1090    -1.0390 H     1 <1>   0.0800 
 39 H        1.8140   -10.1570     0.3080 H     1 <1>   0.0800 
@<TRIPOS>BOND
  1   1   2  1   
  2   2   3  ar  
  3   2   4  ar  
  4   3   5  ar  
  5   3   6  1   
  6   4   7  ar  
  7   4  22  1   
  8   5   8  ar  
  9   6   9  1   
 10   6  10  1   
 11   7   8  ar  
 12   7  23  1   
 13   8  24  1   
 14   9  11  1   
 15   9  25  1   
 16   9  26  1   
 17  10  12  1   
 18  10  27  1   
 19  10  28  1   
 20  11  12  1   
 21  11  13  1   
 22  11  29  1   
 23  12  14  1   
 24  12  30  1   
 25  13  15  1   
 26  14  16  1   
 27  14  31  1   
 28  14  32  1   
 29  15  33  1   
 30  15  34  1   
 31  15  35  1   
 32  16  17  1   
 33  16  18  2   
 34  17  19  1   
 35  18  20  1   
 36  18  36  1   
 37  19  20  2   
 38  20  21  1   
 39  21  37  1   
 40  21  38  1   
 41  21  39  1   
@<TRIPOS>SUBSTRUCTURE
  1 ****  10 GROUP 4 **** **** 0

# MOE 2024.06 (io_trps.svl 2023.06)
