@<TRIPOS>MOLECULE
NONAME
42 43 1 0 0 
SMALL
USER_CHARGES


@<TRIPOS>ATOM
  1 CL       1.3810     1.6150    -3.1470 Cl    1 <1>  -0.1770 
  2 C        2.4910     1.9130    -1.8290 C.ar  1 <1>   0.1770 
  3 C        3.0370     3.1750    -1.6540 C.ar  1 <1>   0.1600 
  4 C        2.8140     0.8840    -0.9720 C.ar  1 <1>  -0.1500 
  5 N        3.8890     3.5060    -0.6850 N.ar  1 <1>  -0.6200 
  6 C        3.6910     1.2250     0.0270 C.ar  1 <1>   0.1900 
  7 C        4.2140     2.5230     0.1560 C.ar  1 <1>   0.4100 
  8 F        4.0430     0.2980     0.8890 F     1 <1>  -0.1900 
  9 N        5.1050     2.8360     1.1700 N.pl3 1 <1>  -0.8690 
 10 C        5.2720     4.2120     1.6720 C.3   1 <1>   0.2090 
 11 C        6.4490     4.8440     0.9300 C.3   1 <1>  -0.1600 
 12 C        6.4430     6.3570     1.1110 C.3   1 <1>   0.3430 
 13 N        7.4590     6.9830     0.2190 N.4   1 <1>  -0.9590 
 14 C        8.8580     6.7420     0.7140 C.3   1 <1>   0.3430 
 15 C        7.1790     8.4380     0.0560 C.3   1 <1>   0.3430 
 16 C        9.9090     7.3440    -0.2290 C.3   1 <1>  -0.0190 
 17 C        8.1680     9.0460    -0.9400 C.3   1 <1>  -0.1600 
 18 C       11.2840     7.1500     0.3910 C.2   1 <1>   0.5690 
 19 C        9.6230     8.8350    -0.4960 C.3   1 <1>  -0.1600 
 20 O       11.3720     6.9050     1.5650 O.2   1 <1>  -0.5700 
 21 N       12.3910     7.2550    -0.3640 N.am  1 <1>  -0.8000 
 22 H        2.7540     3.9470    -2.3480 H     1 <1>   0.1500 
 23 H        2.4090    -0.1060    -1.0780 H     1 <1>   0.1500 
 24 H        5.2070     2.0990     1.8780 H     1 <1>   0.4000 
 25 H        5.4560     4.1920     2.7340 H     1 <1>   0.0800 
 26 H        4.3650     4.7690     1.4950 H     1 <1>   0.0800 
 27 H        6.3500     4.6190    -0.1170 H     1 <1>   0.0800 
 28 H        7.3600     4.4130     1.3020 H     1 <1>   0.0800 
 29 H        6.6380     6.6130     2.1400 H     1 <1>   0.0800 
 30 H        5.4640     6.7260     0.8490 H     1 <1>   0.0800 
 31 H        7.3660     6.5420    -0.7070 H     1 <1>   0.4500 
 32 H        9.0430     5.6840     0.8110 H     1 <1>   0.0800 
 33 H        8.9760     7.1850     1.6900 H     1 <1>   0.0800 
 34 H        7.2740     8.9380     1.0070 H     1 <1>   0.0800 
 35 H        6.1720     8.5830    -0.3050 H     1 <1>   0.0800 
 36 H        9.8860     6.8000    -1.1560 H     1 <1>   0.0800 
 37 H        7.9750    10.1020    -1.0220 H     1 <1>   0.0800 
 38 H        8.0100     8.6160    -1.9140 H     1 <1>   0.0800 
 39 H       10.2920     9.2080    -1.2530 H     1 <1>   0.0800 
 40 H        9.8050     9.3980     0.4050 H     1 <1>   0.0800 
 41 H       13.3060     7.1320     0.0770 H     1 <1>   0.3700 
 42 H       12.4100     7.4770    -1.3600 H     1 <1>   0.3700 
@<TRIPOS>BOND
  1   1   2  1   
  2   2   3  ar  
  3   2   4  ar  
  4   3   5  ar  
  5   3  22  1   
  6   4   6  ar  
  7   4  23  1   
  8   5   7  ar  
  9   6   7  ar  
 10   6   8  1   
 11   7   9  1   
 12   9  10  1   
 13   9  24  1   
 14  10  11  1   
 15  10  25  1   
 16  10  26  1   
 17  11  12  1   
 18  11  27  1   
 19  11  28  1   
 20  12  13  1   
 21  12  29  1   
 22  12  30  1   
 23  13  14  1   
 24  13  15  1   
 25  13  31  1   
 26  14  16  1   
 27  14  32  1   
 28  14  33  1   
 29  15  17  1   
 30  15  34  1   
 31  15  35  1   
 32  16  18  1   
 33  16  19  1   
 34  16  36  1   
 35  17  19  1   
 36  17  37  1   
 37  17  38  1   
 38  18  20  2   
 39  18  21  am  
 40  19  39  1   
 41  19  40  1   
 42  21  41  1   
 43  21  42  1   
@<TRIPOS>SUBSTRUCTURE
  1 ****  11 GROUP 4 **** **** 0

# MOE 2024.06 (io_trps.svl 2023.06)
