@<TRIPOS>MOLECULE
NONAME
57 60 1 0 0 
SMALL
USER_CHARGES


@<TRIPOS>ATOM
  1 O       -1.1350     1.0630    -2.3880 O.2   1 <1>  -0.5700 
  2 C       -2.0200     1.3370    -1.6110 C.2   1 <1>   0.5690 
  3 N       -3.1570     0.5750    -1.5090 N.am  1 <1>  -0.6600 
  4 C       -1.8350     2.5550    -0.7240 C.3   1 <1>  -0.0990 
  5 C       -4.2830     0.8170    -0.5620 C.3   1 <1>   0.1400 
  6 C       -3.3670    -0.6220    -2.3730 C.3   1 <1>   0.1400 
  7 C       -0.5770     3.3580    -1.0770 C.3   1 <1>   0.0960 
  8 C       -4.4520    -0.4030     0.3470 C.3   1 <1>  -0.1600 
  9 C       -3.5350    -1.8660    -1.4950 C.3   1 <1>  -0.1600 
 10 N       -0.4010     4.4720    -0.1260 N.pl3 1 <1>   0.3140 
 11 C       -4.6630    -1.6990    -0.4620 C.3   1 <1>   0.4240 
 12 N       -1.1370     5.5940    -0.2280 N.2   1 <1>  -0.7070 
 13 C        0.4330     4.5270     0.9380 C.2   1 <1>  -0.3320 
 14 O       -5.8160    -1.5010    -1.2520 O.3   1 <1>  -0.5600 
 15 C       -4.8000    -2.9560     0.4460 C.ar  1 <1>  -0.1440 
 16 C       -0.7530     6.3370     0.7600 C.2   1 <1>   0.1080 
 17 C        0.2280     5.7240     1.5280 C.2   1 <1>  -0.1500 
 18 C        1.3980     3.4300     1.3530 C.3   1 <1>  -0.0600 
 19 C       -7.0550    -1.7530    -0.6740 C.3   1 <1>   0.1200 
 20 C       -3.7610    -3.3940     1.2800 C.ar  1 <1>   0.0820 
 21 C       -5.9890    -3.6860     0.4470 C.ar  1 <1>  -0.1440 
 22 C       -1.3320     7.7080     1.0130 C.3   1 <1>  -0.0590 
 23 C       -7.1560    -3.2470    -0.4130 C.3   1 <1>  -0.0170 
 24 O       -2.5990    -2.6890     1.3130 O.3   1 <1>  -0.3620 
 25 C       -3.9230    -4.5340     2.0660 C.ar  1 <1>  -0.1500 
 26 C       -6.1380    -4.8190     1.2290 C.ar  1 <1>  -0.1500 
 27 C       -1.4370    -3.1660     1.9530 C.3   1 <1>   0.0400 
 28 C       -5.1050    -5.2440     2.0380 C.ar  1 <1>  -0.1500 
 29 H       -1.7710     2.2240     0.2950 H     1 <1>   0.0800 
 30 H       -2.6880     3.1990    -0.8370 H     1 <1>   0.0800 
 31 H       -5.1850     0.9810    -1.1280 H     1 <1>   0.0800 
 32 H       -4.1110     1.6880     0.0430 H     1 <1>   0.0800 
 33 H       -2.5350    -0.7650    -3.0410 H     1 <1>   0.0800 
 34 H       -4.2490    -0.4720    -2.9740 H     1 <1>   0.0800 
 35 H       -0.6660     3.7680    -2.0670 H     1 <1>   0.0800 
 36 H        0.2930     2.7290    -1.0460 H     1 <1>   0.0800 
 37 H       -5.2750    -0.2530     1.0180 H     1 <1>   0.0800 
 38 H       -3.5700    -0.4820     0.9510 H     1 <1>   0.0800 
 39 H       -2.5960    -2.0480    -1.0140 H     1 <1>   0.0800 
 40 H       -3.7480    -2.7200    -2.1110 H     1 <1>   0.0800 
 41 H        0.7030     6.1380     2.3990 H     1 <1>   0.1500 
 42 H        0.8640     2.5170     1.5490 H     1 <1>   0.0800 
 43 H        1.9230     3.7180     2.2470 H     1 <1>   0.0800 
 44 H        2.1200     3.2560     0.5750 H     1 <1>   0.0800 
 45 H       -7.8140    -1.4380    -1.3680 H     1 <1>   0.0800 
 46 H       -7.1480    -1.1890     0.2370 H     1 <1>   0.0800 
 47 H       -1.1560     8.3330     0.1580 H     1 <1>   0.0800 
 48 H       -0.8780     8.1550     1.8780 H     1 <1>   0.0800 
 49 H       -2.3910     7.6240     1.1720 H     1 <1>   0.0800 
 50 H       -7.1410    -3.7780    -1.3480 H     1 <1>   0.0800 
 51 H       -8.0870    -3.4560     0.0830 H     1 <1>   0.0800 
 52 H       -3.1430    -4.8860     2.7120 H     1 <1>   0.1500 
 53 H       -7.0590    -5.3750     1.2120 H     1 <1>   0.1500 
 54 H       -0.6380    -2.4750     1.7520 H     1 <1>   0.0800 
 55 H       -1.1910    -4.1340     1.5540 H     1 <1>   0.0800 
 56 H       -1.6160    -3.2170     3.0120 H     1 <1>   0.0800 
 57 H       -5.2240    -6.1240     2.6460 H     1 <1>   0.1500 
@<TRIPOS>BOND
  1   1   2  2   
  2   2   3  am  
  3   2   4  1   
  4   3   5  1   
  5   3   6  1   
  6   4   7  1   
  7   4  29  1   
  8   4  30  1   
  9   5   8  1   
 10   5  31  1   
 11   5  32  1   
 12   6   9  1   
 13   6  33  1   
 14   6  34  1   
 15   7  10  1   
 16   7  35  1   
 17   7  36  1   
 18   8  11  1   
 19   8  37  1   
 20   8  38  1   
 21   9  11  1   
 22   9  39  1   
 23   9  40  1   
 24  10  12  1   
 25  10  13  1   
 26  11  14  1   
 27  11  15  1   
 28  12  16  2   
 29  13  17  2   
 30  13  18  1   
 31  14  19  1   
 32  15  20  ar  
 33  15  21  ar  
 34  16  17  1   
 35  16  22  1   
 36  17  41  1   
 37  18  42  1   
 38  18  43  1   
 39  18  44  1   
 40  19  23  1   
 41  19  45  1   
 42  19  46  1   
 43  20  24  1   
 44  20  25  ar  
 45  21  23  1   
 46  21  26  ar  
 47  22  47  1   
 48  22  48  1   
 49  22  49  1   
 50  23  50  1   
 51  23  51  1   
 52  24  27  1   
 53  25  28  ar  
 54  25  52  1   
 55  26  28  ar  
 56  26  53  1   
 57  27  54  1   
 58  27  55  1   
 59  27  56  1   
 60  28  57  1   
@<TRIPOS>SUBSTRUCTURE
  1 ****   5 GROUP 4 **** **** 0

# MOE 2024.06 (io_trps.svl 2023.06)
