@<TRIPOS>MOLECULE
NONAME
58 60 1 0 0 
SMALL
USER_CHARGES


@<TRIPOS>ATOM
  1 O        1.7280    -1.2530     0.1570 O.3   1 <1>  -0.5600 
  2 C        1.0150    -2.4410    -0.0890 C.3   1 <1>   0.2800 
  3 C        1.1430    -0.2490     0.9390 C.3   1 <1>   0.1200 
  4 C       -0.3840    -2.4550     0.5980 C.3   1 <1>   0.2000 
  5 C        0.9420    -2.5610    -1.6220 C.3   1 <1>  -0.1600 
  6 C        1.8860    -3.5770     0.4700 C.3   1 <1>  -0.1600 
  7 C       -0.2340     0.0860     0.3640 C.3   1 <1>  -0.1600 
  8 O       -1.1350    -3.5640     0.1910 O.3   1 <1>  -0.6800 
  9 C       -1.1810    -1.1230     0.4530 C.3   1 <1>   0.2800 
 10 C        2.3360    -2.6260    -2.2380 C.3   1 <1>   0.3430 
 11 C        3.2520    -3.6100    -0.2040 C.3   1 <1>   0.3430 
 12 O       -1.9150    -0.9840     1.6140 O.3   1 <1>  -0.6800 
 13 C       -2.2170    -1.0830    -0.6800 C.3   1 <1>  -0.2400 
 14 N        3.0740    -3.7920    -1.6760 N.4   1 <1>  -0.9590 
 15 C        4.4020    -4.0350    -2.3490 C.3   1 <1>   0.3430 
 16 C        5.3130    -2.8030    -2.5620 C.3   1 <1>   0.1200 
 17 O        5.2060    -1.8690    -1.5060 O.3   1 <1>  -0.3630 
 18 C        6.2100    -1.7370    -0.5980 C.ar  1 <1>   0.0830 
 19 C        6.8260    -2.8090     0.0640 C.ar  1 <1>   0.0830 
 20 C        6.6030    -0.4390    -0.3250 C.ar  1 <1>  -0.1500 
 21 O        6.3970    -4.0850    -0.1770 O.3   1 <1>  -0.3630 
 22 C        7.8510    -2.5370     0.9690 C.ar  1 <1>  -0.1500 
 23 C        7.6170    -0.1860     0.5800 C.ar  1 <1>  -0.1500 
 24 C        7.0430    -5.1990     0.4090 C.3   1 <1>   0.0400 
 25 C        8.2480    -1.2350     1.2260 C.ar  1 <1>  -0.1430 
 26 C        9.3640    -0.9570     2.2180 C.3   1 <1>  -0.0970 
 27 H        1.0760    -0.5900     1.9590 H     1 <1>   0.0800 
 28 H        1.7890     0.6110     0.9020 H     1 <1>   0.0800 
 29 H       -0.2000    -2.6000     1.6490 H     1 <1>   0.0800 
 30 H        0.3870    -3.4360    -1.9060 H     1 <1>   0.0800 
 31 H        0.4310    -1.7090    -2.0260 H     1 <1>   0.0800 
 32 H        2.0200    -3.4340     1.5270 H     1 <1>   0.0800 
 33 H        1.3950    -4.5230     0.3330 H     1 <1>   0.0800 
 34 H       -0.0920     0.3720    -0.6620 H     1 <1>   0.0800 
 35 H       -0.6490     0.9360     0.8770 H     1 <1>   0.0800 
 36 H       -1.9880    -3.5510     0.6740 H     1 <1>   0.4000 
 37 H        2.8660    -1.7140    -2.0080 H     1 <1>   0.0800 
 38 H        2.2550    -2.7160    -3.3090 H     1 <1>   0.0800 
 39 H        3.8430    -4.4140     0.2040 H     1 <1>   0.0800 
 40 H        3.7620    -2.6820    -0.0020 H     1 <1>   0.0800 
 41 H       -2.5030    -0.2090     1.5420 H     1 <1>   0.4000 
 42 H       -1.7480    -1.2620    -1.6280 H     1 <1>   0.0800 
 43 H       -2.6940    -0.1210    -0.7240 H     1 <1>   0.0800 
 44 H       -2.9710    -1.8370    -0.5380 H     1 <1>   0.0800 
 45 H        2.4870    -4.6250    -1.8010 H     1 <1>   0.4500 
 46 H        4.9500    -4.7640    -1.7780 H     1 <1>   0.0800 
 47 H        4.2280    -4.4780    -3.3160 H     1 <1>   0.0800 
 48 H        5.0230    -2.2920    -3.4620 H     1 <1>   0.0800 
 49 H        6.3410    -3.1020    -2.6680 H     1 <1>   0.0800 
 50 H        6.1140     0.3780    -0.8240 H     1 <1>   0.1500 
 51 H        8.3550    -3.3240     1.4960 H     1 <1>   0.1500 
 52 H        7.9120     0.8300     0.7770 H     1 <1>   0.1500 
 53 H        6.5680    -6.0940     0.0500 H     1 <1>   0.0800 
 54 H        6.9450    -5.1390     1.4790 H     1 <1>   0.0800 
 55 H        8.0790    -5.1960     0.1180 H     1 <1>   0.0800 
 56 H        9.8540    -0.0290     1.9840 H     1 <1>   0.0800 
 57 H       10.0970    -1.7420     2.1900 H     1 <1>   0.0800 
 58 H        8.9590    -0.8930     3.2120 H     1 <1>   0.0800 
@<TRIPOS>BOND
  1   1   2  1   
  2   1   3  1   
  3   2   4  1   
  4   2   5  1   
  5   2   6  1   
  6   3   7  1   
  7   3  27  1   
  8   3  28  1   
  9   4   8  1   
 10   4   9  1   
 11   4  29  1   
 12   5  10  1   
 13   5  30  1   
 14   5  31  1   
 15   6  11  1   
 16   6  32  1   
 17   6  33  1   
 18   7   9  1   
 19   7  34  1   
 20   7  35  1   
 21   8  36  1   
 22   9  12  1   
 23   9  13  1   
 24  10  14  1   
 25  10  37  1   
 26  10  38  1   
 27  11  14  1   
 28  11  39  1   
 29  11  40  1   
 30  12  41  1   
 31  13  42  1   
 32  13  43  1   
 33  13  44  1   
 34  14  15  1   
 35  14  45  1   
 36  15  16  1   
 37  15  46  1   
 38  15  47  1   
 39  16  17  1   
 40  16  48  1   
 41  16  49  1   
 42  17  18  1   
 43  18  19  ar  
 44  18  20  ar  
 45  19  21  1   
 46  19  22  ar  
 47  20  23  ar  
 48  20  50  1   
 49  21  24  1   
 50  22  25  ar  
 51  22  51  1   
 52  23  25  ar  
 53  23  52  1   
 54  24  53  1   
 55  24  54  1   
 56  24  55  1   
 57  25  26  1   
 58  26  56  1   
 59  26  57  1   
 60  26  58  1   
@<TRIPOS>SUBSTRUCTURE
  1 ****  11 GROUP 4 **** **** 0

# MOE 2024.06 (io_trps.svl 2023.06)
