@<TRIPOS>MOLECULE
NONAME
40 41 1 0 0 
SMALL
USER_CHARGES


@<TRIPOS>ATOM
  1 S       -0.1210    -0.0240     0.4490 S.o2  1 <1>   1.3330 
  2 O       -0.7960     1.2320     0.6840 O.2   1 <1>  -0.6500 
  3 O        0.1610    -0.9020     1.5620 O.2   1 <1>  -0.6500 
  4 N       -1.0150    -0.9050    -0.6950 N.am  1 <1>  -0.8490 
  5 C        1.3980     0.3320    -0.4360 C.3   1 <1>  -0.0550 
  6 C       -2.4600    -0.7100    -0.5430 C.3   1 <1>   0.1160 
  7 C       -0.7020    -2.3390    -0.7000 C.3   1 <1>   0.1160 
  8 C        2.3650     1.2460     0.3430 C.3   1 <1>  -0.0800 
  9 C        3.5360     1.6710    -0.5280 C.3   1 <1>   0.2200 
 10 C        3.0530     0.5120     1.5050 C.3   1 <1>   0.1200 
 11 N        4.0540     2.9680    -0.0400 N.am  1 <1>  -0.7300 
 12 C        4.5550     0.5810    -0.2310 C.3   1 <1>   0.1200 
 13 O        4.3720     0.2660     1.1140 O.3   1 <1>  -0.5600 
 14 C        4.1080     4.1230    -0.7660 C.2   1 <1>   0.5440 
 15 O        3.7020     4.1020    -1.9110 O.2   1 <1>  -0.5700 
 16 C        4.6490     5.3430    -0.1930 C.ar  1 <1>   0.0860 
 17 C        5.1010     6.3880    -0.9870 C.ar  1 <1>  -0.1500 
 18 C        4.7570     5.5680     1.1740 C.ar  1 <1>  -0.1500 
 19 C        5.6190     7.5340    -0.4150 C.ar  1 <1>   0.1600 
 20 C        5.2900     6.7520     1.6490 C.ar  1 <1>   0.1600 
 21 N        5.7280     7.7390     0.8870 N.ar  1 <1>  -0.6200 
 22 H        1.8910    -0.5870    -0.6870 H     1 <1>   0.0800 
 23 H        1.1350     0.8230    -1.3530 H     1 <1>   0.0800 
 24 H       -2.9930    -1.2700    -1.2920 H     1 <1>   0.0800 
 25 H       -2.7060     0.3320    -0.6650 H     1 <1>   0.0800 
 26 H       -2.7810    -1.0290     0.4350 H     1 <1>   0.0800 
 27 H       -1.2260    -2.8280    -1.5040 H     1 <1>   0.0800 
 28 H       -0.9920    -2.7910     0.2340 H     1 <1>   0.0800 
 29 H        0.3540    -2.4890    -0.8420 H     1 <1>   0.0800 
 30 H        1.8170     2.1040     0.6950 H     1 <1>   0.0800 
 31 H        3.2930     1.7260    -1.5770 H     1 <1>   0.0800 
 32 H        2.5920    -0.4300     1.7460 H     1 <1>   0.0800 
 33 H        3.0830     1.1280     2.3880 H     1 <1>   0.0800 
 34 H        4.5130     2.9070     0.8710 H     1 <1>   0.3700 
 35 H        5.5680     0.9010    -0.3970 H     1 <1>   0.0800 
 36 H        4.3510    -0.3040    -0.8080 H     1 <1>   0.0800 
 37 H        5.0480     6.3040    -2.0580 H     1 <1>   0.1500 
 38 H        4.4190     4.8290     1.8740 H     1 <1>   0.1500 
 39 H        5.9630     8.3250    -1.0610 H     1 <1>   0.1500 
 40 H        5.3620     6.8980     2.7140 H     1 <1>   0.1500 
@<TRIPOS>BOND
  1   1   2  2   
  2   1   3  2   
  3   1   4  am  
  4   1   5  1   
  5   4   6  1   
  6   4   7  1   
  7   5   8  1   
  8   5  22  1   
  9   5  23  1   
 10   6  24  1   
 11   6  25  1   
 12   6  26  1   
 13   7  27  1   
 14   7  28  1   
 15   7  29  1   
 16   8   9  1   
 17   8  10  1   
 18   8  30  1   
 19   9  11  1   
 20   9  12  1   
 21   9  31  1   
 22  10  13  1   
 23  10  32  1   
 24  10  33  1   
 25  11  14  am  
 26  11  34  1   
 27  12  13  1   
 28  12  35  1   
 29  12  36  1   
 30  14  15  2   
 31  14  16  1   
 32  16  17  ar  
 33  16  18  ar  
 34  17  19  ar  
 35  17  37  1   
 36  18  20  ar  
 37  18  38  1   
 38  19  21  ar  
 39  19  39  1   
 40  20  21  ar  
 41  20  40  1   
@<TRIPOS>SUBSTRUCTURE
  1 ****   9 GROUP 4 **** **** 0

# MOE 2024.06 (io_trps.svl 2023.06)
