@<TRIPOS>MOLECULE
NONAME
53 57 1 0 0 
SMALL
USER_CHARGES


@<TRIPOS>ATOM
  1 O       -0.9040     0.2050    -0.4120 O.2   1 <1>  -0.5700 
  2 C       -1.3470     0.4980     0.6850 C.2   1 <1>   0.5440 
  3 N       -2.0530    -0.4630     1.3510 N.am  1 <1>  -0.7300 
  4 C       -1.1410     1.8180     1.2660 C.ar  1 <1>   0.0860 
  5 C       -2.3380    -1.8240     0.8450 C.3   1 <1>   0.2200 
  6 C       -0.3010     2.7680     0.6480 C.ar  1 <1>  -0.1520 
  7 C       -1.7460     2.2290     2.4500 C.ar  1 <1>  -0.1500 
  8 C       -3.7610    -1.8680     0.3160 C.3   1 <1>  -0.0800 
  9 C       -2.4130    -2.7970     2.0160 C.3   1 <1>   0.1200 
 10 N        0.4200     2.6630    -0.5140 N.pl3 1 <1>   0.0330 
 11 C       -0.0800     4.0340     1.1840 C.ar  1 <1>   0.0000 
 12 C       -1.5340     3.4960     2.9980 C.ar  1 <1>  -0.1500 
 13 C       -4.5760    -2.1270     1.5890 C.3   1 <1>   0.1200 
 14 C       -3.9390    -2.9820    -0.7330 C.3   1 <1>  -0.0160 
 15 O       -3.7010    -2.6680     2.5380 O.3   1 <1>  -0.5600 
 16 C        1.0830     3.8400    -0.7130 C.2   1 <1>  -0.3320 
 17 C        0.8070     4.6880     0.3000 C.2   1 <1>  -0.1810 
 18 C       -0.7060     4.4000     2.3740 C.ar  1 <1>  -0.1500 
 19 C       -5.3590    -3.0100    -1.2790 C.ar  1 <1>  -0.1440 
 20 C        1.9940     4.1470    -1.8860 C.3   1 <1>   0.0200 
 21 C        1.3750     6.0880     0.4110 C.3   1 <1>   0.0210 
 22 C       -5.8140    -2.0530    -2.1630 C.ar  1 <1>  -0.1500 
 23 C       -6.2640    -3.9890    -0.9220 C.ar  1 <1>  -0.1500 
 24 C        2.2730     5.6610    -1.9450 C.3   1 <1>  -0.1600 
 25 C        2.5680     6.2540    -0.5510 C.3   1 <1>  -0.1600 
 26 C       -7.1160    -2.1170    -2.6300 C.ar  1 <1>   0.1600 
 27 C       -7.5450    -3.9620    -1.4470 C.ar  1 <1>   0.1600 
 28 N       -7.9940    -3.0480    -2.2920 N.ar  1 <1>  -0.6200 
 29 H       -2.4610    -0.2660     2.2660 H     1 <1>   0.3700 
 30 H       -1.6000    -2.1180     0.1170 H     1 <1>   0.0800 
 31 H       -2.4050     1.5670     2.9790 H     1 <1>   0.1500 
 32 H       -4.0350    -0.9280    -0.1320 H     1 <1>   0.0800 
 33 H       -1.6870    -2.5840     2.7800 H     1 <1>   0.0800 
 34 H       -2.2970    -3.8110     1.6760 H     1 <1>   0.0800 
 35 H        0.4160     1.8220    -1.1060 H     1 <1>   0.2700 
 36 H       -2.0260     3.7640     3.9170 H     1 <1>   0.1500 
 37 H       -5.3920    -2.8110     1.4360 H     1 <1>   0.0800 
 38 H       -4.9560    -1.2030     1.9890 H     1 <1>   0.0800 
 39 H       -3.6970    -3.9400    -0.3060 H     1 <1>   0.0800 
 40 H       -3.2610    -2.8110    -1.5510 H     1 <1>   0.0800 
 41 H       -0.5320     5.3790     2.7810 H     1 <1>   0.1500 
 42 H        2.9170     3.6100    -1.7580 H     1 <1>   0.0800 
 43 H        1.5370     3.8280    -2.8060 H     1 <1>   0.0800 
 44 H        0.6020     6.7920     0.1610 H     1 <1>   0.0800 
 45 H        1.6940     6.2740     1.4210 H     1 <1>   0.0800 
 46 H       -5.1690    -1.2590    -2.4930 H     1 <1>   0.1500 
 47 H       -5.9880    -4.7730    -0.2400 H     1 <1>   0.1500 
 48 H        3.1030     5.8440    -2.6050 H     1 <1>   0.0800 
 49 H        1.4090     6.1550    -2.3540 H     1 <1>   0.0800 
 50 H        2.8120     7.2980    -0.6400 H     1 <1>   0.0800 
 51 H        3.4210     5.7480    -0.1340 H     1 <1>   0.0800 
 52 H       -7.4540    -1.3620    -3.3200 H     1 <1>   0.1500 
 53 H       -8.2380    -4.7330    -1.1560 H     1 <1>   0.1500 
@<TRIPOS>BOND
  1   1   2  2   
  2   2   3  am  
  3   2   4  1   
  4   3   5  1   
  5   3  29  1   
  6   4   6  ar  
  7   4   7  ar  
  8   5   8  1   
  9   5   9  1   
 10   5  30  1   
 11   6  10  1   
 12   6  11  ar  
 13   7  12  ar  
 14   7  31  1   
 15   8  13  1   
 16   8  14  1   
 17   8  32  1   
 18   9  15  1   
 19   9  33  1   
 20   9  34  1   
 21  10  16  1   
 22  10  35  1   
 23  11  17  1   
 24  11  18  ar  
 25  12  18  ar  
 26  12  36  1   
 27  13  15  1   
 28  13  37  1   
 29  13  38  1   
 30  14  19  1   
 31  14  39  1   
 32  14  40  1   
 33  16  17  2   
 34  16  20  1   
 35  17  21  1   
 36  18  41  1   
 37  19  22  ar  
 38  19  23  ar  
 39  20  24  1   
 40  20  42  1   
 41  20  43  1   
 42  21  25  1   
 43  21  44  1   
 44  21  45  1   
 45  22  26  ar  
 46  22  46  1   
 47  23  27  ar  
 48  23  47  1   
 49  24  25  1   
 50  24  48  1   
 51  24  49  1   
 52  25  50  1   
 53  25  51  1   
 54  26  28  ar  
 55  26  52  1   
 56  27  28  ar  
 57  27  53  1   
@<TRIPOS>SUBSTRUCTURE
  1 ****   2 GROUP 4 **** **** 0

# MOE 2024.06 (io_trps.svl 2023.06)
