@<TRIPOS>MOLECULE
NONAME
48 51 1 0 0 
SMALL
USER_CHARGES


@<TRIPOS>ATOM
  1 F       -0.8270    -1.1090    -0.8410 F     1 <1>  -0.1900 
  2 C       -1.3190    -0.0310    -0.2820 C.ar  1 <1>   0.1900 
  3 C       -2.5420    -0.1330     0.3840 C.ar  1 <1>   0.1000 
  4 C       -0.6120     1.1440    -0.3800 C.ar  1 <1>  -0.1500 
  5 N       -3.2380    -1.3430     0.4710 N.pl3 1 <1>  -0.6000 
  6 C       -3.0700     1.0220     0.9820 C.ar  1 <1>   0.0860 
  7 C       -1.1390     2.2850     0.2120 C.ar  1 <1>  -0.1500 
  8 C       -4.4500    -1.4480     1.1230 C.2   1 <1>  -0.0380 
  9 C       -4.3300     0.9190     1.6710 C.2   1 <1>   0.4690 
 10 C       -2.3460     2.2190     0.8800 C.ar  1 <1>  -0.1500 
 11 C       -4.9770    -0.3440     1.7120 C.2   1 <1>  -0.1360 
 12 C       -5.1610    -2.7960     1.1410 C.3   1 <1>   0.4810 
 13 O       -4.8570     1.8810     2.2060 O.2   1 <1>  -0.5700 
 14 N       -5.4190    -3.1790    -0.2800 N.4   1 <1>  -0.9590 
 15 C       -6.8510    -3.2030    -0.7020 C.3   1 <1>   0.4230 
 16 C       -4.7280    -4.4570    -0.6350 C.3   1 <1>   0.2630 
 17 C       -7.7210    -4.1960     0.0670 C.3   1 <1>  -0.1600 
 18 C       -7.5660    -1.8670    -0.5300 C.3   1 <1>  -0.1600 
 19 C       -9.1560    -3.7360    -0.2230 C.3   1 <1>  -0.0800 
 20 C       -9.0580    -2.2270    -0.5650 C.3   1 <1>  -0.0800 
 21 C      -10.1580    -4.1120     0.8910 C.3   1 <1>   0.1400 
 22 C       -9.9290    -1.3150     0.3230 C.3   1 <1>  -0.0990 
 23 N      -11.3510    -3.2510     0.7930 N.am  1 <1>  -0.7300 
 24 C      -11.2970    -1.9280     0.5320 C.2   1 <1>   0.5690 
 25 O      -12.2910    -1.2550     0.4710 O.2   1 <1>  -0.5700 
 26 H        0.3280     1.1790    -0.9030 H     1 <1>   0.1500 
 27 H       -2.7210    -2.1560     0.1040 H     1 <1>   0.4000 
 28 H       -0.6030     3.2180     0.1490 H     1 <1>   0.1500 
 29 H       -2.7520     3.1070     1.3390 H     1 <1>   0.1500 
 30 H       -5.9130    -0.3570     2.2400 H     1 <1>   0.1500 
 31 H       -6.0840    -2.7150     1.6910 H     1 <1>   0.0800 
 32 H       -4.5350    -3.5270     1.6260 H     1 <1>   0.0800 
 33 H       -4.9760    -2.4160    -0.8170 H     1 <1>   0.4500 
 34 H       -6.9040    -3.4640    -1.7480 H     1 <1>   0.0800 
 35 H       -5.1460    -5.2780    -0.0760 H     1 <1>   0.0800 
 36 H       -3.6750    -4.3910    -0.4150 H     1 <1>   0.0800 
 37 H       -4.8440    -4.6640    -1.6870 H     1 <1>   0.0800 
 38 H       -7.5690    -5.2070    -0.2690 H     1 <1>   0.0800 
 39 H       -7.5330    -4.1330     1.1230 H     1 <1>   0.0800 
 40 H       -7.3350    -1.4200     0.4180 H     1 <1>   0.0800 
 41 H       -7.3170    -1.1790    -1.3200 H     1 <1>   0.0800 
 42 H       -9.4880    -4.2400    -1.1170 H     1 <1>   0.0800 
 43 H       -9.4130    -2.1110    -1.5780 H     1 <1>   0.0800 
 44 H       -9.7180    -3.9670     1.8640 H     1 <1>   0.0800 
 45 H      -10.4470    -5.1460     0.7980 H     1 <1>   0.0800 
 46 H      -10.0390    -0.3470    -0.1310 H     1 <1>   0.0800 
 47 H       -9.4860    -1.1840     1.2930 H     1 <1>   0.0800 
 48 H      -12.2740    -3.6560     0.9700 H     1 <1>   0.3700 
@<TRIPOS>BOND
  1   1   2  1   
  2   2   3  ar  
  3   2   4  ar  
  4   3   5  1   
  5   3   6  ar  
  6   4   7  ar  
  7   4  26  1   
  8   5   8  1   
  9   5  27  1   
 10   6   9  1   
 11   6  10  ar  
 12   7  10  ar  
 13   7  28  1   
 14   8  11  2   
 15   8  12  1   
 16   9  11  1   
 17   9  13  2   
 18  10  29  1   
 19  11  30  1   
 20  12  14  1   
 21  12  31  1   
 22  12  32  1   
 23  14  15  1   
 24  14  16  1   
 25  14  33  1   
 26  15  17  1   
 27  15  18  1   
 28  15  34  1   
 29  16  35  1   
 30  16  36  1   
 31  16  37  1   
 32  17  19  1   
 33  17  38  1   
 34  17  39  1   
 35  18  20  1   
 36  18  40  1   
 37  18  41  1   
 38  19  20  1   
 39  19  21  1   
 40  19  42  1   
 41  20  22  1   
 42  20  43  1   
 43  21  23  1   
 44  21  44  1   
 45  21  45  1   
 46  22  24  1   
 47  22  46  1   
 48  22  47  1   
 49  23  24  am  
 50  23  48  1   
 51  24  25  2   
@<TRIPOS>SUBSTRUCTURE
  1 ****   8 GROUP 4 **** **** 0

# MOE 2024.06 (io_trps.svl 2023.06)
