@<TRIPOS>MOLECULE
NONAME
45 47 1 0 0 
SMALL
USER_CHARGES


@<TRIPOS>ATOM
  1 F       -1.0010     0.7790    -0.8660 F     1 <1>  -0.1900 
  2 C       -2.0400     1.2790    -0.2580 C.ar  1 <1>   0.1900 
  3 C       -3.1150     0.4710     0.1020 C.ar  1 <1>  -0.1440 
  4 C       -2.0000     2.6360    -0.0070 C.ar  1 <1>  -0.1500 
  5 C       -4.2020     1.0970     0.7350 C.ar  1 <1>  -0.1440 
  6 C       -3.1170    -1.0430    -0.1770 C.3   1 <1>   1.1640 
  7 C       -3.0690     3.2310     0.6300 C.ar  1 <1>  -0.1500 
  8 C       -4.1580     2.4630     0.9990 C.ar  1 <1>  -0.1500 
  9 C       -5.4620     0.3460     1.1680 C.3   1 <1>   0.4860 
 10 F       -2.0430    -1.5670    -0.7410 F     1 <1>  -0.3400 
 11 F       -4.1390    -1.3620    -0.9640 F     1 <1>  -0.3400 
 12 F       -3.3140    -1.7240     0.9450 F     1 <1>  -0.3400 
 13 N       -6.6160     0.8000     0.3500 N.4   1 <1>  -0.9590 
 14 C       -7.9110     0.2520     0.8760 C.3   1 <1>   0.3430 
 15 C       -6.4640     0.5340    -1.1070 C.3   1 <1>   0.3430 
 16 C       -9.1130     0.5140    -0.0590 C.3   1 <1>   0.0000 
 17 C       -7.5030     1.3520    -1.8810 C.3   1 <1>  -0.1600 
 18 C      -10.3510     0.8140     0.8000 C.3   1 <1>   0.2000 
 19 C       -8.7900     1.6420    -1.0820 C.3   1 <1>  -0.1600 
 20 C       -9.5880    -0.7470    -0.8070 C.3   1 <1>  -0.1600 
 21 O      -10.3270     2.1050     1.2860 O.3   1 <1>  -0.6800 
 22 C      -11.5500     0.5680    -0.1070 C.3   1 <1>  -0.1600 
 23 C      -11.0830    -0.5200    -1.0860 C.3   1 <1>  -0.1600 
 24 H       -1.1410     3.2140    -0.3050 H     1 <1>   0.1500 
 25 H       -3.0480     4.2880     0.8400 H     1 <1>   0.1500 
 26 H       -4.9740     2.9560     1.5030 H     1 <1>   0.1500 
 27 H       -5.6500     0.5560     2.2090 H     1 <1>   0.0800 
 28 H       -5.3420    -0.7190     1.0640 H     1 <1>   0.0800 
 29 H       -6.6760     1.8230     0.4360 H     1 <1>   0.4500 
 30 H       -7.8220    -0.8090     1.0390 H     1 <1>   0.0800 
 31 H       -8.1180     0.7140     1.8280 H     1 <1>   0.0800 
 32 H       -5.4760     0.8030    -1.4460 H     1 <1>   0.0800 
 33 H       -6.6130    -0.5170    -1.2980 H     1 <1>   0.0800 
 34 H       -7.0630     2.2840    -2.1910 H     1 <1>   0.0800 
 35 H       -7.7480     0.8140    -2.7810 H     1 <1>   0.0800 
 36 H      -10.4010     0.1400     1.6400 H     1 <1>   0.0800 
 37 H       -9.6080     1.8010    -1.7630 H     1 <1>   0.0800 
 38 H       -8.6490     2.5680    -0.5500 H     1 <1>   0.0800 
 39 H       -9.0470    -0.9410    -1.7160 H     1 <1>   0.0800 
 40 H       -9.4930    -1.6100    -0.1680 H     1 <1>   0.0800 
 41 H      -11.2050     2.3470     1.6450 H     1 <1>   0.4000 
 42 H      -12.4040     0.2390     0.4590 H     1 <1>   0.0800 
 43 H      -11.8010     1.4610    -0.6550 H     1 <1>   0.0800 
 44 H      -11.6380    -1.4330    -0.9500 H     1 <1>   0.0800 
 45 H      -11.2280    -0.1820    -2.0990 H     1 <1>   0.0800 
@<TRIPOS>BOND
  1   1   2  1   
  2   2   3  ar  
  3   2   4  ar  
  4   3   5  ar  
  5   3   6  1   
  6   4   7  ar  
  7   4  24  1   
  8   5   8  ar  
  9   5   9  1   
 10   6  10  1   
 11   6  11  1   
 12   6  12  1   
 13   7   8  ar  
 14   7  25  1   
 15   8  26  1   
 16   9  13  1   
 17   9  27  1   
 18   9  28  1   
 19  13  14  1   
 20  13  15  1   
 21  13  29  1   
 22  14  16  1   
 23  14  30  1   
 24  14  31  1   
 25  15  17  1   
 26  15  32  1   
 27  15  33  1   
 28  16  18  1   
 29  16  19  1   
 30  16  20  1   
 31  17  19  1   
 32  17  34  1   
 33  17  35  1   
 34  18  21  1   
 35  18  22  1   
 36  18  36  1   
 37  19  37  1   
 38  19  38  1   
 39  20  23  1   
 40  20  39  1   
 41  20  40  1   
 42  21  41  1   
 43  22  23  1   
 44  22  42  1   
 45  22  43  1   
 46  23  44  1   
 47  23  45  1   
@<TRIPOS>SUBSTRUCTURE
  1 ****  13 GROUP 4 **** **** 0

# MOE 2024.06 (io_trps.svl 2023.06)
