@<TRIPOS>MOLECULE
NONAME
40 41 1 0 0 
SMALL
USER_CHARGES


@<TRIPOS>ATOM
  1 O       -1.1080    -1.2310    -1.5750 O.3   1 <1>  -0.3630 
  2 C       -0.7570    -2.0510    -0.5560 C.ar  1 <1>   0.0830 
  3 C       -0.2820    -0.1570    -1.9680 C.3   1 <1>   0.0400 
  4 C       -1.6820    -3.0170    -0.2000 C.ar  1 <1>  -0.1500 
  5 C        0.4510    -1.9740     0.1280 C.ar  1 <1>  -0.1500 
  6 C       -1.4160    -3.9190     0.8230 C.ar  1 <1>  -0.1430 
  7 C        0.7190    -2.8610     1.1550 C.ar  1 <1>  -0.1500 
  8 C       -0.2080    -3.8280     1.5020 C.ar  1 <1>  -0.1500 
  9 C       -2.4130    -5.0070     1.1970 C.3   1 <1>   0.5660 
 10 N       -2.6520    -5.8650    -0.0050 N.4   1 <1>  -0.9590 
 11 C       -3.7130    -4.3750     1.6920 C.3   1 <1>  -0.2400 
 12 C       -3.6740    -6.9430     0.2370 C.3   1 <1>   0.3430 
 13 C       -1.3470    -6.4210    -0.5120 C.3   1 <1>   0.2630 
 14 C       -4.0840    -7.6860    -1.0420 C.3   1 <1>   0.0960 
 15 N       -5.1810    -8.6060    -0.7110 N.pl3 1 <1>   0.0480 
 16 C       -5.1120    -9.8610    -0.2640 C.2   1 <1>   0.0360 
 17 C       -6.4940    -8.3670    -0.7110 C.2   1 <1>   0.0360 
 18 N       -6.2770   -10.3380    -0.0040 N.2   1 <1>  -0.3380 
 19 N       -7.1610    -9.3810    -0.2900 N.2   1 <1>  -0.3380 
 20 H       -0.7740     0.3700    -2.7650 H     1 <1>   0.0800 
 21 H        0.6590    -0.5460    -2.3150 H     1 <1>   0.0800 
 22 H       -0.1400     0.5020    -1.1290 H     1 <1>   0.0800 
 23 H       -2.6090    -3.0320    -0.7440 H     1 <1>   0.1500 
 24 H        1.1890    -1.2340    -0.1230 H     1 <1>   0.1500 
 25 H        1.6540    -2.7940     1.6860 H     1 <1>   0.1500 
 26 H        0.0290    -4.5030     2.3080 H     1 <1>   0.1500 
 27 H       -1.9900    -5.6040     1.9910 H     1 <1>   0.0800 
 28 H       -3.0010    -5.2060    -0.7140 H     1 <1>   0.4500 
 29 H       -4.2400    -3.8790     0.8960 H     1 <1>   0.0800 
 30 H       -3.4790    -3.6370     2.4400 H     1 <1>   0.0800 
 31 H       -4.3520    -5.1020     2.1580 H     1 <1>   0.0800 
 32 H       -4.5640    -6.5020     0.6560 H     1 <1>   0.0800 
 33 H       -3.2870    -7.6520     0.9510 H     1 <1>   0.0800 
 34 H       -0.9020    -7.0690     0.2250 H     1 <1>   0.0800 
 35 H       -0.6540    -5.6220    -0.7250 H     1 <1>   0.0800 
 36 H       -1.4970    -6.9790    -1.4210 H     1 <1>   0.0800 
 37 H       -3.2650    -8.2600    -1.4370 H     1 <1>   0.0800 
 38 H       -4.4330    -6.9950    -1.7880 H     1 <1>   0.0800 
 39 H       -4.1940   -10.4070    -0.1350 H     1 <1>   0.1500 
 40 H       -6.9380    -7.4380    -1.0230 H     1 <1>   0.1500 
@<TRIPOS>BOND
  1   1   2  1   
  2   1   3  1   
  3   2   4  ar  
  4   2   5  ar  
  5   3  20  1   
  6   3  21  1   
  7   3  22  1   
  8   4   6  ar  
  9   4  23  1   
 10   5   7  ar  
 11   5  24  1   
 12   6   8  ar  
 13   6   9  1   
 14   7   8  ar  
 15   7  25  1   
 16   8  26  1   
 17   9  10  1   
 18   9  11  1   
 19   9  27  1   
 20  10  12  1   
 21  10  13  1   
 22  10  28  1   
 23  11  29  1   
 24  11  30  1   
 25  11  31  1   
 26  12  14  1   
 27  12  32  1   
 28  12  33  1   
 29  13  34  1   
 30  13  35  1   
 31  13  36  1   
 32  14  15  1   
 33  14  37  1   
 34  14  38  1   
 35  15  16  1   
 36  15  17  1   
 37  16  18  2   
 38  16  39  1   
 39  17  19  2   
 40  17  40  1   
 41  18  19  1   
@<TRIPOS>SUBSTRUCTURE
  1 ****  10 GROUP 4 **** **** 0

# MOE 2024.06 (io_trps.svl 2023.06)
