@<TRIPOS>MOLECULE
NONAME
40 42 1 0 0 
SMALL
USER_CHARGES


@<TRIPOS>ATOM
  1 CL       2.6070     0.5830     2.4630 Cl    1 <1>  -0.1770 
  2 C        2.5630    -0.4100     1.0270 C.ar  1 <1>   0.1770 
  3 C        2.7230     0.1650    -0.2330 C.ar  1 <1>   0.0860 
  4 C        2.3680    -1.7690     1.1920 C.ar  1 <1>  -0.1500 
  5 C        2.9460     1.5820    -0.4140 C.2   1 <1>   0.5440 
  6 C        2.6570    -0.6870    -1.3350 C.ar  1 <1>  -0.1500 
  7 C        2.3200    -2.5940     0.0830 C.ar  1 <1>  -0.1500 
  8 O        2.1000     2.2340    -0.9960 O.2   1 <1>  -0.5700 
  9 N        4.1030     2.2080     0.0060 N.am  1 <1>  -0.6600 
 10 C        2.4620    -2.0490    -1.1820 C.ar  1 <1>  -0.1500 
 11 C        5.3200     1.4710     0.4670 C.3   1 <1>   0.1400 
 12 C        4.2100     3.6930     0.0030 C.3   1 <1>   0.1400 
 13 C        6.5390     1.7570    -0.4240 C.3   1 <1>   0.1400 
 14 C        4.9890     4.1500    -1.2330 C.3   1 <1>  -0.1600 
 15 N        7.0750     3.1340    -0.1970 N.am  1 <1>  -0.6600 
 16 C        6.5080     4.2370    -1.0260 C.3   1 <1>   0.1400 
 17 C        7.9710     3.3570     0.8300 C.2   1 <1>   0.7160 
 18 O        8.0850     2.5070     1.6950 O.2   1 <1>  -0.5700 
 19 C        8.7680     4.5580     0.9200 C.2   1 <1>  -0.0860 
 20 C        9.2080     5.1190     2.1220 C.2   1 <1>   0.1390 
 21 C        9.2910     5.3990    -0.0200 C.2   1 <1>  -0.3020 
 22 N        9.9100     6.1960     1.9550 N.2   1 <1>  -0.7070 
 23 N        9.9640     6.3640     0.6240 N.pl3 1 <1>   0.3000 
 24 H        2.2520    -2.1740     2.1820 H     1 <1>   0.1500 
 25 H        2.7580    -0.2660    -2.3210 H     1 <1>   0.1500 
 26 H        2.1680    -3.6530     0.2020 H     1 <1>   0.1500 
 27 H        2.4170    -2.6870    -2.0490 H     1 <1>   0.1500 
 28 H        5.1420     0.4120     0.4480 H     1 <1>   0.0800 
 29 H        5.5420     1.7410     1.4850 H     1 <1>   0.0800 
 30 H        4.6870     4.0310     0.9080 H     1 <1>   0.0800 
 31 H        3.2220     4.1220    -0.0210 H     1 <1>   0.0800 
 32 H        6.2810     1.6200    -1.4590 H     1 <1>   0.0800 
 33 H        7.3100     1.0440    -0.1850 H     1 <1>   0.0800 
 34 H        4.6450     5.1320    -1.5020 H     1 <1>   0.0800 
 35 H        4.7590     3.5080    -2.0650 H     1 <1>   0.0800 
 36 H        6.7110     5.1770    -0.5430 H     1 <1>   0.0800 
 37 H        6.9990     4.2460    -1.9840 H     1 <1>   0.0800 
 38 H        8.9860     4.6960     3.0880 H     1 <1>   0.1500 
 39 H        9.2210     5.3450    -1.0900 H     1 <1>   0.1500 
 40 H       10.4780     7.1460     0.1970 H     1 <1>   0.2700 
@<TRIPOS>BOND
  1   1   2  1   
  2   2   3  ar  
  3   2   4  ar  
  4   3   5  1   
  5   3   6  ar  
  6   4   7  ar  
  7   4  24  1   
  8   5   8  2   
  9   5   9  am  
 10   6  10  ar  
 11   6  25  1   
 12   7  10  ar  
 13   7  26  1   
 14   9  11  1   
 15   9  12  1   
 16  10  27  1   
 17  11  13  1   
 18  11  28  1   
 19  11  29  1   
 20  12  14  1   
 21  12  30  1   
 22  12  31  1   
 23  13  15  1   
 24  13  32  1   
 25  13  33  1   
 26  14  16  1   
 27  14  34  1   
 28  14  35  1   
 29  15  16  1   
 30  15  17  am  
 31  16  36  1   
 32  16  37  1   
 33  17  18  2   
 34  17  19  1   
 35  19  20  1   
 36  19  21  2   
 37  20  22  2   
 38  20  38  1   
 39  21  23  1   
 40  21  39  1   
 41  22  23  1   
 42  23  40  1   
@<TRIPOS>SUBSTRUCTURE
  1 ****  11 GROUP 4 **** **** 0

# MOE 2024.06 (io_trps.svl 2023.06)
