@<TRIPOS>MOLECULE
NONAME
64 67 1 0 0 
SMALL
USER_CHARGES


@<TRIPOS>ATOM
  1 O        2.4270     0.3750     1.9070 O.co2 1 <1>  -0.9000 
  2 C        2.1460     0.8680     0.8070 C.2   1 <1>   0.9060 
  3 O        1.7250     2.0150     0.6990 O.co2 1 <1>  -0.9000 
  4 C        2.5580     0.0980    -0.4620 C.3   1 <1>  -0.1060 
  5 C        3.8660    -0.6390    -0.1340 C.3   1 <1>   0.4230 
  6 C        2.8810     1.0800    -1.6160 C.3   1 <1>  -0.1600 
  7 C        1.4650    -0.8920    -0.9260 C.3   1 <1>  -0.1600 
  8 N        3.6070    -1.7340     0.8730 N.4   1 <1>  -0.9590 
  9 C        4.9150     0.4250     0.3240 C.3   1 <1>   0.3430 
 10 C        3.8840     2.1540    -1.1790 C.3   1 <1>   0.3430 
 11 C        1.2860    -2.0400     0.0760 C.3   1 <1>  -0.1600 
 12 C        2.6090    -2.7340     0.4010 C.3   1 <1>   0.3430 
 13 C        4.8010    -2.3970     1.4710 C.3   1 <1>   0.2630 
 14 N        5.1690     1.5570    -0.6640 N.4   1 <1>  -0.9590 
 15 C        6.0130     2.6440    -0.0530 C.3   1 <1>   0.4230 
 16 C        6.3580     3.6990    -1.1250 C.3   1 <1>  -0.1600 
 17 C        7.2850     2.0530     0.5880 C.3   1 <1>  -0.1600 
 18 C        7.3020     4.7640    -0.5780 C.3   1 <1>   0.2090 
 19 C        8.2110     3.1500     1.1040 C.3   1 <1>   0.2090 
 20 N        8.4660     4.0630    -0.0170 N.pl3 1 <1>  -0.8380 
 21 C        9.7450     4.5930    -0.1890 C.ar  1 <1>   0.1000 
 22 C       10.1830     5.7830     0.4110 C.ar  1 <1>  -0.1430 
 23 C       10.6120     3.8880    -1.0110 C.ar  1 <1>  -0.1500 
 24 C       11.4710     6.2490     0.1490 C.ar  1 <1>  -0.1430 
 25 C        9.2620     6.5700     1.3430 C.3   1 <1>  -0.0970 
 26 C       11.8900     4.3440    -1.2570 C.ar  1 <1>  -0.1500 
 27 C       12.3150     5.5240    -0.6790 C.ar  1 <1>  -0.1500 
 28 C       12.0030     7.5480     0.7410 C.3   1 <1>  -0.0970 
 29 H        4.2320    -1.1000    -1.0340 H     1 <1>   0.0800 
 30 H        1.9740     1.5840    -1.9080 H     1 <1>   0.0800 
 31 H        3.2510     0.5620    -2.4830 H     1 <1>   0.0800 
 32 H        0.5290    -0.3670    -1.0350 H     1 <1>   0.0800 
 33 H        1.7220    -1.3030    -1.8870 H     1 <1>   0.0800 
 34 H        3.1070    -1.1960     1.6350 H     1 <1>   0.4500 
 35 H        5.8430    -0.0820     0.5180 H     1 <1>   0.0800 
 36 H        4.5720     0.8550     1.2520 H     1 <1>   0.0800 
 37 H        3.4380     2.7650    -0.4090 H     1 <1>   0.0800 
 38 H        4.0850     2.7980    -2.0200 H     1 <1>   0.0800 
 39 H        0.5990    -2.7630    -0.3290 H     1 <1>   0.0800 
 40 H        0.8500    -1.6670     0.9880 H     1 <1>   0.0800 
 41 H        2.9800    -3.2360    -0.4770 H     1 <1>   0.0800 
 42 H        2.4370    -3.4720     1.1680 H     1 <1>   0.0800 
 43 H        5.3630    -2.9170     0.7140 H     1 <1>   0.0800 
 44 H        4.4890    -3.1090     2.2190 H     1 <1>   0.0800 
 45 H        5.4370    -1.6700     1.9490 H     1 <1>   0.0800 
 46 H        5.6940     1.2010    -1.4720 H     1 <1>   0.4500 
 47 H        5.4450     3.1320     0.7250 H     1 <1>   0.0800 
 48 H        6.8390     3.2330    -1.9660 H     1 <1>   0.0800 
 49 H        5.4790     4.2120    -1.4660 H     1 <1>   0.0800 
 50 H        7.0450     1.4340     1.4310 H     1 <1>   0.0800 
 51 H        7.8320     1.4730    -0.1340 H     1 <1>   0.0800 
 52 H        6.8210     5.3460     0.1900 H     1 <1>   0.0800 
 53 H        7.6220     5.4270    -1.3650 H     1 <1>   0.0800 
 54 H        9.1420     2.7300     1.4510 H     1 <1>   0.0800 
 55 H        7.7540     3.6890     1.9160 H     1 <1>   0.0800 
 56 H       10.2720     2.9760    -1.4620 H     1 <1>   0.1500 
 57 H        9.8170     7.0440     2.1300 H     1 <1>   0.0800 
 58 H        8.5440     5.9280     1.8150 H     1 <1>   0.0800 
 59 H        8.7390     7.3220     0.7820 H     1 <1>   0.0800 
 60 H       12.5510     3.7870    -1.8960 H     1 <1>   0.1500 
 61 H       13.3120     5.8740    -0.8810 H     1 <1>   0.1500 
 62 H       12.9320     7.8320     0.2790 H     1 <1>   0.0800 
 63 H       12.1740     7.4270     1.7960 H     1 <1>   0.0800 
 64 H       11.2990     8.3450     0.5850 H     1 <1>   0.0800 
@<TRIPOS>BOND
  1   1   2  ar  
  2   2   3  ar  
  3   2   4  1   
  4   4   5  1   
  5   4   6  1   
  6   4   7  1   
  7   5   8  1   
  8   5   9  1   
  9   5  29  1   
 10   6  10  1   
 11   6  30  1   
 12   6  31  1   
 13   7  11  1   
 14   7  32  1   
 15   7  33  1   
 16   8  12  1   
 17   8  13  1   
 18   8  34  1   
 19   9  14  1   
 20   9  35  1   
 21   9  36  1   
 22  10  14  1   
 23  10  37  1   
 24  10  38  1   
 25  11  12  1   
 26  11  39  1   
 27  11  40  1   
 28  12  41  1   
 29  12  42  1   
 30  13  43  1   
 31  13  44  1   
 32  13  45  1   
 33  14  15  1   
 34  14  46  1   
 35  15  16  1   
 36  15  17  1   
 37  15  47  1   
 38  16  18  1   
 39  16  48  1   
 40  16  49  1   
 41  17  19  1   
 42  17  50  1   
 43  17  51  1   
 44  18  20  1   
 45  18  52  1   
 46  18  53  1   
 47  19  20  1   
 48  19  54  1   
 49  19  55  1   
 50  20  21  1   
 51  21  22  ar  
 52  21  23  ar  
 53  22  24  ar  
 54  22  25  1   
 55  23  26  ar  
 56  23  56  1   
 57  24  27  ar  
 58  24  28  1   
 59  25  57  1   
 60  25  58  1   
 61  25  59  1   
 62  26  27  ar  
 63  26  60  1   
 64  27  61  1   
 65  28  62  1   
 66  28  63  1   
 67  28  64  1   
@<TRIPOS>SUBSTRUCTURE
  1 ****  15 GROUP 4 **** **** 0

# MOE 2024.06 (io_trps.svl 2023.06)
