@<TRIPOS>MOLECULE
NONAME
56 59 1 0 0 
SMALL
USER_CHARGES


@<TRIPOS>ATOM
  1 O       -1.3360     1.3040    -2.1940 O.2   1 <1>  -0.5700 
  2 C       -2.1230     1.4230    -1.2760 C.2   1 <1>   0.5440 
  3 N       -3.3180     0.7350    -1.3090 N.am  1 <1>  -0.6600 
  4 C       -1.7840     2.2830    -0.1690 C.ar  1 <1>   0.0860 
  5 C       -3.6870    -0.1640    -2.4390 C.3   1 <1>   0.1400 
  6 C       -4.3520     0.8020    -0.2380 C.3   1 <1>   0.1400 
  7 C       -1.1690     1.8120     0.9840 C.ar  1 <1>   0.1660 
  8 C       -2.0830     3.6370    -0.1880 C.ar  1 <1>   0.1660 
  9 C       -3.9220    -1.5780    -1.9020 C.3   1 <1>  -0.1600 
 10 C       -4.5810    -0.6030     0.3230 C.3   1 <1>  -0.1600 
 11 N       -0.9090     2.5920     2.0100 N.ar  1 <1>  -0.6200 
 12 C       -0.7560     0.3590     1.1560 C.3   1 <1>  -0.0970 
 13 N       -1.8310     4.4330     0.8280 N.ar  1 <1>  -0.6200 
 14 C       -2.7370     4.2810    -1.4000 C.3   1 <1>  -0.0970 
 15 C       -4.9710    -1.6010    -0.7810 C.3   1 <1>   0.4240 
 16 C       -1.2540     3.8600     1.8700 C.ar  1 <1>   0.4700 
 17 O       -6.1630    -1.1460    -1.3780 O.3   1 <1>  -0.5600 
 18 C       -5.1240    -3.0290    -0.2140 C.ar  1 <1>  -0.1430 
 19 C       -7.3650    -1.4790    -0.7560 C.3   1 <1>   0.1200 
 20 C       -6.3460    -3.6880    -0.2350 C.ar  1 <1>  -0.1430 
 21 C       -4.0330    -3.6880     0.3390 C.ar  1 <1>  -0.1500 
 22 C       -7.5550    -2.9910    -0.8270 C.3   1 <1>  -0.0170 
 23 C       -6.4680    -4.9680     0.2800 C.ar  1 <1>  -0.1500 
 24 C       -4.1330    -4.9700     0.8520 C.ar  1 <1>   0.0830 
 25 C       -5.3740    -5.6260     0.8370 C.ar  1 <1>   0.0830 
 26 O       -2.9670    -5.4790     1.3440 O.3   1 <1>  -0.3630 
 27 O       -5.4960    -6.8750     1.3770 O.3   1 <1>  -0.3620 
 28 C       -2.6930    -6.8620     1.2960 C.3   1 <1>   0.0400 
 29 C       -6.7460    -7.5110     1.5300 C.3   1 <1>   0.0400 
 30 H       -2.9100    -0.1860    -3.1840 H     1 <1>   0.0800 
 31 H       -4.5830     0.2070    -2.9060 H     1 <1>   0.0800 
 32 H       -5.2680     1.1810    -0.6600 H     1 <1>   0.0800 
 33 H       -4.0540     1.4630     0.5560 H     1 <1>   0.0800 
 34 H       -2.9840    -1.9570    -1.5450 H     1 <1>   0.0800 
 35 H       -4.2460    -2.2210    -2.7000 H     1 <1>   0.0800 
 36 H       -5.3390    -0.5770     1.0820 H     1 <1>   0.0800 
 37 H       -3.6740    -0.9280     0.7970 H     1 <1>   0.0800 
 38 H       -0.8150    -0.1970     0.2390 H     1 <1>   0.0800 
 39 H       -1.3870    -0.1100     1.8890 H     1 <1>   0.0800 
 40 H        0.2600     0.3170     1.5050 H     1 <1>   0.0800 
 41 H       -2.1930     4.0290    -2.2930 H     1 <1>   0.0800 
 42 H       -2.7430     5.3520    -1.3000 H     1 <1>   0.0800 
 43 H       -3.7500     3.9380    -1.4960 H     1 <1>   0.0800 
 44 H       -1.0400     4.5050     2.7060 H     1 <1>   0.1500 
 45 H       -8.1580    -0.9750    -1.2800 H     1 <1>   0.0800 
 46 H       -7.3440    -1.1380     0.2640 H     1 <1>   0.0800 
 47 H       -3.0710    -3.2130     0.3790 H     1 <1>   0.1500 
 48 H       -7.6800    -3.2880    -1.8530 H     1 <1>   0.0800 
 49 H       -8.4440    -3.2600    -0.2850 H     1 <1>   0.0800 
 50 H       -7.4300    -5.4390     0.2380 H     1 <1>   0.1500 
 51 H       -1.6310    -6.9970     1.3900 H     1 <1>   0.0800 
 52 H       -3.0340    -7.2560     0.3540 H     1 <1>   0.0800 
 53 H       -3.1940    -7.3430     2.1150 H     1 <1>   0.0800 
 54 H       -6.5850    -8.4450     2.0360 H     1 <1>   0.0800 
 55 H       -7.1680    -7.6910     0.5570 H     1 <1>   0.0800 
 56 H       -7.3880    -6.8820     2.1210 H     1 <1>   0.0800 
@<TRIPOS>BOND
  1   1   2  2   
  2   2   3  am  
  3   2   4  1   
  4   3   5  1   
  5   3   6  1   
  6   4   7  ar  
  7   4   8  ar  
  8   5   9  1   
  9   5  30  1   
 10   5  31  1   
 11   6  10  1   
 12   6  32  1   
 13   6  33  1   
 14   7  11  ar  
 15   7  12  1   
 16   8  13  ar  
 17   8  14  1   
 18   9  15  1   
 19   9  34  1   
 20   9  35  1   
 21  10  15  1   
 22  10  36  1   
 23  10  37  1   
 24  11  16  ar  
 25  12  38  1   
 26  12  39  1   
 27  12  40  1   
 28  13  16  ar  
 29  14  41  1   
 30  14  42  1   
 31  14  43  1   
 32  15  17  1   
 33  15  18  1   
 34  16  44  1   
 35  17  19  1   
 36  18  20  ar  
 37  18  21  ar  
 38  19  22  1   
 39  19  45  1   
 40  19  46  1   
 41  20  22  1   
 42  20  23  ar  
 43  21  24  ar  
 44  21  47  1   
 45  22  48  1   
 46  22  49  1   
 47  23  25  ar  
 48  23  50  1   
 49  24  25  ar  
 50  24  26  1   
 51  25  27  1   
 52  26  28  1   
 53  27  29  1   
 54  28  51  1   
 55  28  52  1   
 56  28  53  1   
 57  29  54  1   
 58  29  55  1   
 59  29  56  1   
@<TRIPOS>SUBSTRUCTURE
  1 ****  10 GROUP 4 **** **** 0

# MOE 2024.06 (io_trps.svl 2023.06)
