@<TRIPOS>MOLECULE
NONAME
52 54 1 0 0 
SMALL
USER_CHARGES


@<TRIPOS>ATOM
  1 O        1.0360    -0.8690     1.9160 O.2   1 <1>  -0.5700 
  2 C        1.4530    -1.0650     0.7980 C.2   1 <1>   0.5690 
  3 N        1.9500    -0.0790    -0.0020 N.am  1 <1>  -0.4930 
  4 C        1.4460    -2.4840     0.2530 C.3   1 <1>  -0.0190 
  5 C        2.1040     1.3060     0.2570 C.2   1 <1>   0.0630 
  6 C        0.0290    -3.0630     0.3250 C.3   1 <1>   0.2090 
  7 C        2.4460    -3.3900     1.0020 C.3   1 <1>  -0.1600 
  8 C        1.2300     2.2060     0.8770 C.2   1 <1>   0.1080 
  9 C        3.1720     2.0540    -0.0980 C.2   1 <1>  -0.3320 
 10 N        0.0380    -4.4470    -0.2290 N.pl3 1 <1>  -0.8380 
 11 C        2.3570    -4.8390     0.4930 C.3   1 <1>  -0.1600 
 12 N        1.7100     3.4100     0.9080 N.2   1 <1>  -0.7070 
 13 C       -0.1330     1.8880     1.4500 C.3   1 <1>  -0.0590 
 14 N        2.9110     3.3220     0.3120 N.pl3 1 <1>   0.3140 
 15 C        4.4540     1.6320    -0.8030 C.3   1 <1>  -0.0600 
 16 C       -1.1540    -4.9740    -0.6860 C.ar  1 <1>   0.4100 
 17 C        0.9180    -5.3670     0.5330 C.3   1 <1>   0.2090 
 18 C        3.7720     4.5150     0.1720 C.3   1 <1>   0.0960 
 19 N       -2.2650    -4.6150    -0.0530 N.ar  1 <1>  -0.6200 
 20 C       -1.1430    -5.8530    -1.7650 C.ar  1 <1>  -0.1500 
 21 C        3.5240     5.2200    -1.1700 C.3   1 <1>  -0.1600 
 22 C       -3.3870    -5.1500    -0.5050 C.ar  1 <1>   0.1600 
 23 C       -2.3160    -6.4030    -2.2260 C.ar  1 <1>  -0.1500 
 24 C        4.4220     6.4520    -1.3290 C.3   1 <1>  -0.2400 
 25 C       -3.4710    -6.0330    -1.5670 C.ar  1 <1>  -0.1500 
 26 H        2.3390    -0.3710    -0.8940 H     1 <1>   0.3700 
 27 H        1.7220    -2.4540    -0.7850 H     1 <1>   0.0800 
 28 H       -0.6490    -2.4500    -0.2450 H     1 <1>   0.0800 
 29 H       -0.3160    -3.0870     1.3460 H     1 <1>   0.0800 
 30 H        2.2180    -3.3710     2.0550 H     1 <1>   0.0800 
 31 H        3.4480    -3.0170     0.8740 H     1 <1>   0.0800 
 32 H        2.9820    -5.4730     1.0950 H     1 <1>   0.0800 
 33 H        2.7120    -4.8920    -0.5210 H     1 <1>   0.0800 
 34 H       -0.6090     1.1170     0.8740 H     1 <1>   0.0800 
 35 H       -0.7490     2.7670     1.4340 H     1 <1>   0.0800 
 36 H       -0.0240     1.5550     2.4650 H     1 <1>   0.0800 
 37 H        4.4460     0.5770    -1.0070 H     1 <1>   0.0800 
 38 H        5.3050     1.8460    -0.1820 H     1 <1>   0.0800 
 39 H        4.5580     2.1590    -1.7340 H     1 <1>   0.0800 
 40 H        0.8760    -6.3550     0.1070 H     1 <1>   0.0800 
 41 H        0.5710    -5.4220     1.5510 H     1 <1>   0.0800 
 42 H        4.7980     4.2130     0.2570 H     1 <1>   0.0800 
 43 H        3.5460     5.1830     0.9830 H     1 <1>   0.0800 
 44 H       -0.2040    -6.0870    -2.2280 H     1 <1>   0.1500 
 45 H        2.4920     5.5250    -1.2180 H     1 <1>   0.0800 
 46 H        3.7140     4.5360    -1.9780 H     1 <1>   0.0800 
 47 H       -4.2930    -4.8680     0.0020 H     1 <1>   0.1500 
 48 H       -2.3350    -7.0840    -3.0590 H     1 <1>   0.1500 
 49 H        4.2300     7.1610    -0.5420 H     1 <1>   0.0800 
 50 H        4.2240     6.9310    -2.2720 H     1 <1>   0.0800 
 51 H        5.4600     6.1710    -1.3000 H     1 <1>   0.0800 
 52 H       -4.4240    -6.4240    -1.8730 H     1 <1>   0.1500 
@<TRIPOS>BOND
  1   1   2  2   
  2   2   3  am  
  3   2   4  1   
  4   3   5  1   
  5   3  26  1   
  6   4   6  1   
  7   4   7  1   
  8   4  27  1   
  9   5   8  1   
 10   5   9  2   
 11   6  10  1   
 12   6  28  1   
 13   6  29  1   
 14   7  11  1   
 15   7  30  1   
 16   7  31  1   
 17   8  12  2   
 18   8  13  1   
 19   9  14  1   
 20   9  15  1   
 21  10  16  1   
 22  10  17  1   
 23  11  17  1   
 24  11  32  1   
 25  11  33  1   
 26  12  14  1   
 27  13  34  1   
 28  13  35  1   
 29  13  36  1   
 30  14  18  1   
 31  15  37  1   
 32  15  38  1   
 33  15  39  1   
 34  16  19  ar  
 35  16  20  ar  
 36  17  40  1   
 37  17  41  1   
 38  18  21  1   
 39  18  42  1   
 40  18  43  1   
 41  19  22  ar  
 42  20  23  ar  
 43  20  44  1   
 44  21  24  1   
 45  21  45  1   
 46  21  46  1   
 47  22  25  ar  
 48  22  47  1   
 49  23  25  ar  
 50  23  48  1   
 51  24  49  1   
 52  24  50  1   
 53  24  51  1   
 54  25  52  1   
@<TRIPOS>SUBSTRUCTURE
  1 ****   2 GROUP 4 **** **** 0

# MOE 2024.06 (io_trps.svl 2023.06)
