@<TRIPOS>MOLECULE
NONAME
51 53 1 0 0 
SMALL
USER_CHARGES


@<TRIPOS>ATOM
  1 CL       0.5820    -3.5730     2.4860 Cl    1 <1>  -0.1770 
  2 C       -0.4800    -2.7940     1.3300 C.ar  1 <1>   0.1770 
  3 C       -1.3230    -3.5320     0.4960 C.ar  1 <1>   0.0820 
  4 C       -0.4350    -1.4160     1.2540 C.ar  1 <1>  -0.1500 
  5 O       -1.4060    -4.8860     0.5410 O.3   1 <1>  -0.3630 
  6 C       -2.1090    -2.8720    -0.4450 C.ar  1 <1>  -0.1440 
  7 C       -1.2290    -0.7780     0.3210 C.ar  1 <1>   0.1770 
  8 C       -1.7800    -5.4940     1.7680 C.3   1 <1>   0.0400 
  9 C       -2.0590    -1.4870    -0.5310 C.ar  1 <1>  -0.1500 
 10 C       -3.0070    -3.6900    -1.3500 C.3   1 <1>   0.4870 
 11 CL      -1.1840     0.9620     0.2040 Cl    1 <1>  -0.1770 
 12 N       -4.2700    -3.9530    -0.6420 N.4   1 <1>  -0.9590 
 13 C       -4.8740    -5.2900    -0.9970 C.3   1 <1>   0.3430 
 14 C       -5.2570    -2.8420    -0.6440 C.3   1 <1>   0.3430 
 15 C       -6.3360    -5.4400    -0.5040 C.3   1 <1>   0.2000 
 16 C       -6.3740    -3.0960     0.3920 C.3   1 <1>  -0.1600 
 17 O       -7.1800    -4.9900    -1.5200 O.3   1 <1>  -0.6800 
 18 C       -6.5510    -4.6020     0.7790 C.3   1 <1>  -0.1060 
 19 C       -5.4340    -5.0620     1.7250 C.2   1 <1>   0.9060 
 20 C       -7.9000    -4.8760     1.4960 C.3   1 <1>  -0.0160 
 21 O       -4.5550    -4.2570     2.0570 O.co2 1 <1>  -0.9000 
 22 O       -5.2980    -6.2670     1.9340 O.co2 1 <1>  -0.9000 
 23 C       -9.1460    -4.7250     0.6300 C.ar  1 <1>  -0.1440 
 24 C       -9.6600    -5.8250    -0.0420 C.ar  1 <1>  -0.1500 
 25 C       -9.7840    -3.5000     0.5080 C.ar  1 <1>  -0.1500 
 26 C      -10.7780    -5.6970    -0.8460 C.ar  1 <1>  -0.1500 
 27 C      -10.9040    -3.3700    -0.2950 C.ar  1 <1>  -0.1500 
 28 C      -11.3990    -4.4670    -0.9760 C.ar  1 <1>  -0.1500 
 29 H        0.2090    -0.8520     1.9030 H     1 <1>   0.1500 
 30 H       -2.5560    -6.2130     1.5740 H     1 <1>   0.0800 
 31 H       -2.1520    -4.7510     2.4530 H     1 <1>   0.0800 
 32 H       -0.9200    -5.9840     2.1860 H     1 <1>   0.0800 
 33 H       -2.6520    -0.9460    -1.2460 H     1 <1>   0.1500 
 34 H       -2.5130    -4.6220    -1.5700 H     1 <1>   0.0800 
 35 H       -3.1950    -3.1730    -2.2760 H     1 <1>   0.0800 
 36 H       -4.0140    -4.0440     0.3780 H     1 <1>   0.4500 
 37 H       -4.8540    -5.4480    -2.0620 H     1 <1>   0.0800 
 38 H       -4.2840    -6.0610    -0.5270 H     1 <1>   0.0800 
 39 H       -4.7700    -1.9090    -0.4170 H     1 <1>   0.0800 
 40 H       -5.7010    -2.7720    -1.6240 H     1 <1>   0.0800 
 41 H       -6.5550    -6.4800    -0.3290 H     1 <1>   0.0800 
 42 H       -6.1770    -2.5130     1.2750 H     1 <1>   0.0800 
 43 H       -7.2790    -2.7080    -0.0330 H     1 <1>   0.0800 
 44 H       -8.1050    -4.9600    -1.1740 H     1 <1>   0.4000 
 45 H       -7.8870    -5.8790     1.8900 H     1 <1>   0.0800 
 46 H       -7.9800    -4.2230     2.3480 H     1 <1>   0.0800 
 47 H       -9.1900    -6.7890     0.0590 H     1 <1>   0.1500 
 48 H       -9.4140    -2.6420     1.0410 H     1 <1>   0.1500 
 49 H      -11.1680    -6.5540    -1.3680 H     1 <1>   0.1500 
 50 H      -11.3920    -2.4150    -0.3880 H     1 <1>   0.1500 
 51 H      -12.2690    -4.3660    -1.6020 H     1 <1>   0.1500 
@<TRIPOS>BOND
  1   1   2  1   
  2   2   3  ar  
  3   2   4  ar  
  4   3   5  1   
  5   3   6  ar  
  6   4   7  ar  
  7   4  29  1   
  8   5   8  1   
  9   6   9  ar  
 10   6  10  1   
 11   7   9  ar  
 12   7  11  1   
 13   8  30  1   
 14   8  31  1   
 15   8  32  1   
 16   9  33  1   
 17  10  12  1   
 18  10  34  1   
 19  10  35  1   
 20  12  13  1   
 21  12  14  1   
 22  12  36  1   
 23  13  15  1   
 24  13  37  1   
 25  13  38  1   
 26  14  16  1   
 27  14  39  1   
 28  14  40  1   
 29  15  17  1   
 30  15  18  1   
 31  15  41  1   
 32  16  18  1   
 33  16  42  1   
 34  16  43  1   
 35  17  44  1   
 36  18  19  1   
 37  18  20  1   
 38  19  21  ar  
 39  19  22  ar  
 40  20  23  1   
 41  20  45  1   
 42  20  46  1   
 43  23  24  ar  
 44  23  25  ar  
 45  24  26  ar  
 46  24  47  1   
 47  25  27  ar  
 48  25  48  1   
 49  26  28  ar  
 50  26  49  1   
 51  27  28  ar  
 52  27  50  1   
 53  28  51  1   
@<TRIPOS>SUBSTRUCTURE
  1 ****  12 GROUP 4 **** **** 0

# MOE 2024.06 (io_trps.svl 2023.06)
