@<TRIPOS>MOLECULE
NONAME
45 47 1 0 0 
SMALL
USER_CHARGES


@<TRIPOS>ATOM
  1 O       -0.6830    -0.2770     1.0320 O.2   1 <1>  -0.5700 
  2 C       -1.6740    -0.1910     0.3250 C.2   1 <1>   0.7160 
  3 N       -2.0470     1.0650    -0.0980 N.am  1 <1>  -0.7300 
  4 C       -2.4590    -1.3610    -0.0820 C.2   1 <1>   0.4300 
  5 C       -1.3700     2.3470     0.2260 C.3   1 <1>   0.0600 
  6 N       -3.4720    -1.3170    -0.8850 N.2   1 <1>  -0.4100 
  7 N       -2.2260    -2.6200     0.3290 N.2   1 <1>  -0.5650 
  8 O       -3.9320    -2.5180    -1.0170 O.3   1 <1>  -0.0190 
  9 C       -3.1550    -3.2520    -0.2620 C.2   1 <1>   0.2980 
 10 C       -3.4040    -4.7570    -0.1820 C.3   1 <1>   0.2900 
 11 N       -4.7040    -5.1180     0.4330 N.3   1 <1>  -0.8100 
 12 C       -5.8850    -4.7440    -0.3760 C.3   1 <1>   0.1100 
 13 C       -4.8230    -6.5480     0.7480 C.3   1 <1>   0.1100 
 14 C       -6.8420    -5.9420    -0.3770 C.3   1 <1>   0.2000 
 15 C       -5.8900    -7.1180    -0.1880 C.3   1 <1>  -0.0800 
 16 O       -7.7170    -5.8850     0.7140 O.3   1 <1>  -0.5600 
 17 C       -6.5510    -8.4010     0.3470 C.3   1 <1>   0.0200 
 18 C       -8.8320    -5.0670     0.5440 C.3   1 <1>   0.0400 
 19 C       -5.6070    -9.5920     0.3700 C.2   1 <1>  -0.0400 
 20 O       -6.0010   -10.6940     0.9510 O.3   1 <1>  -0.0190 
 21 C       -4.3680    -9.8030    -0.1040 C.2   1 <1>  -0.1500 
 22 N       -5.0950   -11.6270     0.8940 N.2   1 <1>  -0.4100 
 23 C       -4.0990   -11.1180     0.2640 C.2   1 <1>   0.1080 
 24 C       -2.8150   -11.8580    -0.0330 C.3   1 <1>  -0.0590 
 25 H       -2.8800     1.1220    -0.6900 H     1 <1>   0.3700 
 26 H       -0.5110     2.1740     0.8520 H     1 <1>   0.0800 
 27 H       -2.0510     2.9970     0.7460 H     1 <1>   0.0800 
 28 H       -1.0450     2.8260    -0.6820 H     1 <1>   0.0800 
 29 H       -2.6140    -5.1770     0.4170 H     1 <1>   0.0800 
 30 H       -3.3340    -5.1800    -1.1670 H     1 <1>   0.0800 
 31 H       -6.3470    -3.8580     0.0240 H     1 <1>   0.0800 
 32 H       -5.5870    -4.5510    -1.3910 H     1 <1>   0.0800 
 33 H       -3.8850    -7.0680     0.6580 H     1 <1>   0.0800 
 34 H       -5.1640    -6.6330     1.7670 H     1 <1>   0.0800 
 35 H       -7.4130    -6.0230    -1.2860 H     1 <1>   0.0800 
 36 H       -5.4300    -7.3290    -1.1370 H     1 <1>   0.0800 
 37 H       -7.3980    -8.6500    -0.2680 H     1 <1>   0.0800 
 38 H       -6.9140    -8.2320     1.3460 H     1 <1>   0.0800 
 39 H       -9.4260    -5.1250     1.4390 H     1 <1>   0.0800 
 40 H       -9.4080    -5.4190    -0.2950 H     1 <1>   0.0800 
 41 H       -8.5160    -4.0510     0.3900 H     1 <1>   0.0800 
 42 H       -3.7080    -9.1510    -0.6430 H     1 <1>   0.1500 
 43 H       -1.9730   -11.2810     0.3010 H     1 <1>   0.0800 
 44 H       -2.7320   -12.0330    -1.0900 H     1 <1>   0.0800 
 45 H       -2.8120   -12.8050     0.4770 H     1 <1>   0.0800 
@<TRIPOS>BOND
  1   1   2  2   
  2   2   3  am  
  3   2   4  1   
  4   3   5  1   
  5   3  25  1   
  6   4   6  2   
  7   4   7  1   
  8   5  26  1   
  9   5  27  1   
 10   5  28  1   
 11   6   8  1   
 12   7   9  2   
 13   8   9  1   
 14   9  10  1   
 15  10  11  1   
 16  10  29  1   
 17  10  30  1   
 18  11  12  1   
 19  11  13  1   
 20  12  14  1   
 21  12  31  1   
 22  12  32  1   
 23  13  15  1   
 24  13  33  1   
 25  13  34  1   
 26  14  15  1   
 27  14  16  1   
 28  14  35  1   
 29  15  17  1   
 30  15  36  1   
 31  16  18  1   
 32  17  19  1   
 33  17  37  1   
 34  17  38  1   
 35  18  39  1   
 36  18  40  1   
 37  18  41  1   
 38  19  20  1   
 39  19  21  2   
 40  20  22  1   
 41  21  23  1   
 42  21  42  1   
 43  22  23  2   
 44  23  24  1   
 45  24  43  1   
 46  24  44  1   
 47  24  45  1   
@<TRIPOS>SUBSTRUCTURE
  1 ****  11 GROUP 4 **** **** 0

# MOE 2024.06 (io_trps.svl 2023.06)
