@<TRIPOS>MOLECULE
NONAME
49 51 1 0 0 
SMALL
USER_CHARGES


@<TRIPOS>ATOM
  1 F        3.5500     2.2760    -1.7450 F     1 <1>  -0.1900 
  2 C        2.9540     3.3560    -1.3180 C.ar  1 <1>   0.1900 
  3 C        2.8430     3.5590     0.0450 C.ar  1 <1>  -0.1500 
  4 C        2.4590     4.2550    -2.2430 C.ar  1 <1>  -0.1500 
  5 C        2.2170     4.7090     0.5030 C.ar  1 <1>  -0.1440 
  6 C        1.8270     5.3960    -1.7810 C.ar  1 <1>  -0.1500 
  7 C        1.7070     5.6180    -0.4170 C.ar  1 <1>  -0.1500 
  8 C        2.0880     4.9830     1.9980 C.3   1 <1>   0.0450 
  9 C        2.6050     6.3580     2.4110 C.2   1 <1>   0.5690 
 10 O        1.7710     7.1590     2.7660 O.2   1 <1>  -0.5700 
 11 N        3.9470     6.6730     2.4040 N.am  1 <1>  -0.6600 
 12 C        5.0170     5.7600     1.8830 C.3   1 <1>   0.1400 
 13 C        4.4120     7.9720     2.9830 C.3   1 <1>   0.1400 
 14 C        5.3300     6.0290     0.4020 C.3   1 <1>   0.1400 
 15 C        5.4430     8.7270     2.1290 C.3   1 <1>  -0.1600 
 16 N        6.0590     7.3180     0.2100 N.am  1 <1>  -0.6600 
 17 C        5.2940     8.5290     0.6180 C.3   1 <1>   0.1400 
 18 C        7.3500     7.3330    -0.2580 C.2   1 <1>   0.5690 
 19 O        7.9380     6.3110    -0.5250 O.2   1 <1>  -0.5700 
 20 C        8.0830     8.6550    -0.4350 C.3   1 <1>  -0.0990 
 21 C        9.5580     8.5000    -0.8310 C.3   1 <1>   0.0210 
 22 C       10.2120     9.8640    -0.9400 C.2   1 <1>  -0.1810 
 23 C       10.6060    10.6820     0.1150 C.2   1 <1>   0.1390 
 24 C       10.5360    10.5590    -2.0500 C.2   1 <1>  -0.3020 
 25 N       11.1270    11.7970    -0.2950 N.2   1 <1>  -0.7070 
 26 N       11.0870    11.7170    -1.6380 N.pl3 1 <1>   0.3000 
 27 H        3.2430     2.8240     0.7200 H     1 <1>   0.1500 
 28 H        2.5650     4.0610    -3.2950 H     1 <1>   0.1500 
 29 H        1.4280     6.1120    -2.4790 H     1 <1>   0.1500 
 30 H        1.2110     6.5110    -0.0710 H     1 <1>   0.1500 
 31 H        2.6000     4.2330     2.5700 H     1 <1>   0.0800 
 32 H        1.0480     4.9190     2.2610 H     1 <1>   0.0800 
 33 H        4.7070     4.7370     1.9860 H     1 <1>   0.0800 
 34 H        5.9150     5.8750     2.4640 H     1 <1>   0.0800 
 35 H        4.8260     7.7890     3.9600 H     1 <1>   0.0800 
 36 H        3.5660     8.6240     3.1200 H     1 <1>   0.0800 
 37 H        4.4220     6.0490    -0.1720 H     1 <1>   0.0800 
 38 H        5.9220     5.2120     0.0280 H     1 <1>   0.0800 
 39 H        6.4360     8.4530     2.4370 H     1 <1>   0.0800 
 40 H        5.3310     9.7730     2.3480 H     1 <1>   0.0800 
 41 H        5.6670     9.3950     0.1010 H     1 <1>   0.0800 
 42 H        4.2550     8.4200     0.3500 H     1 <1>   0.0800 
 43 H        8.0330     9.2010     0.4880 H     1 <1>   0.0800 
 44 H        7.5820     9.2230    -1.1960 H     1 <1>   0.0800 
 45 H        9.6270     7.9910    -1.7770 H     1 <1>   0.0800 
 46 H       10.0780     7.9100    -0.0970 H     1 <1>   0.0800 
 47 H       10.4970    10.4300     1.1570 H     1 <1>   0.1500 
 48 H       10.4100    10.3010    -3.0860 H     1 <1>   0.1500 
 49 H       11.4430    12.4690    -2.2410 H     1 <1>   0.2700 
@<TRIPOS>BOND
  1   1   2  1   
  2   2   3  ar  
  3   2   4  ar  
  4   3   5  ar  
  5   3  27  1   
  6   4   6  ar  
  7   4  28  1   
  8   5   7  ar  
  9   5   8  1   
 10   6   7  ar  
 11   6  29  1   
 12   7  30  1   
 13   8   9  1   
 14   8  31  1   
 15   8  32  1   
 16   9  10  2   
 17   9  11  am  
 18  11  12  1   
 19  11  13  1   
 20  12  14  1   
 21  12  33  1   
 22  12  34  1   
 23  13  15  1   
 24  13  35  1   
 25  13  36  1   
 26  14  16  1   
 27  14  37  1   
 28  14  38  1   
 29  15  17  1   
 30  15  39  1   
 31  15  40  1   
 32  16  17  1   
 33  16  18  am  
 34  17  41  1   
 35  17  42  1   
 36  18  19  2   
 37  18  20  1   
 38  20  21  1   
 39  20  43  1   
 40  20  44  1   
 41  21  22  1   
 42  21  45  1   
 43  21  46  1   
 44  22  23  1   
 45  22  24  2   
 46  23  25  2   
 47  23  47  1   
 48  24  26  1   
 49  24  48  1   
 50  25  26  1   
 51  26  49  1   
@<TRIPOS>SUBSTRUCTURE
  1 ****  16 GROUP 4 **** **** 0

# MOE 2024.06 (io_trps.svl 2023.06)
