@<TRIPOS>MOLECULE
NONAME
37 38 1 0 0 
SMALL
USER_CHARGES


@<TRIPOS>ATOM
  1 S       -1.4100    -0.2380     0.8730 S.3   1 <1>  -0.0800 
  2 C       -1.6420    -0.9810    -0.6750 C.2   1 <1>   0.4420 
  3 C       -1.0060     1.2190     0.0340 C.2   1 <1>   0.1980 
  4 N       -1.4230    -0.1660    -1.6410 N.2   1 <1>  -0.3380 
  5 N       -2.0200    -2.3060    -0.6720 N.am  1 <1>  -0.4940 
  6 N       -1.0600     1.0870    -1.2300 N.2   1 <1>  -0.3380 
  7 C       -0.6480     2.4340     0.8680 C.3   1 <1>   0.0200 
  8 C       -2.2740    -3.1480    -1.7180 C.2   1 <1>   0.5690 
  9 C       -0.3160     3.6370    -0.0120 C.3   1 <1>   0.1200 
 10 O       -2.1970    -2.8220    -2.8740 O.2   1 <1>  -0.5700 
 11 C       -2.6800    -4.5840    -1.4220 C.3   1 <1>   0.1310 
 12 O        0.0000     4.7050     0.8200 O.3   1 <1>  -0.5600 
 13 S       -2.7520    -4.9220     0.4090 S.3   1 <1>  -0.3310 
 14 C        0.3240     5.8690     0.1370 C.3   1 <1>   0.1200 
 15 C       -3.2410    -6.6430     0.5850 C.ar  1 <1>   0.1010 
 16 C        0.6420     6.9360     1.1770 C.3   1 <1>  -0.2400 
 17 C       -3.4920    -7.4750    -0.4850 C.ar  1 <1>  -0.1500 
 18 C       -3.3700    -7.1580     1.8550 C.ar  1 <1>  -0.1500 
 19 C       -3.8620    -8.7830    -0.2250 C.ar  1 <1>   0.1600 
 20 C       -3.7460    -8.4810     1.9960 C.ar  1 <1>   0.1600 
 21 N       -3.9940    -9.3020     0.9860 N.ar  1 <1>  -0.6200 
 22 H       -2.1280    -2.7260     0.2500 H     1 <1>   0.3700 
 23 H        0.2030     2.1990     1.4800 H     1 <1>   0.0800 
 24 H       -1.4800     2.6790     1.5010 H     1 <1>   0.0800 
 25 H       -1.1640     3.9050    -0.6200 H     1 <1>   0.0800 
 26 H        0.5310     3.4210    -0.6420 H     1 <1>   0.0800 
 27 H       -1.9630    -5.2610    -1.8470 H     1 <1>   0.0800 
 28 H       -3.6570    -4.7770    -1.8250 H     1 <1>   0.0800 
 29 H       -0.5180     6.1660    -0.4660 H     1 <1>   0.0800 
 30 H        1.1800     5.6810    -0.4880 H     1 <1>   0.0800 
 31 H       -0.2150     7.1070     1.8040 H     1 <1>   0.0800 
 32 H        0.8980     7.8580     0.6870 H     1 <1>   0.0800 
 33 H        1.4740     6.6240     1.7820 H     1 <1>   0.0800 
 34 H       -3.4110    -7.1440    -1.5010 H     1 <1>   0.1500 
 35 H       -3.1840    -6.5440     2.7160 H     1 <1>   0.1500 
 36 H       -4.0600    -9.4400    -1.0550 H     1 <1>   0.1500 
 37 H       -3.8480    -8.8870     2.9880 H     1 <1>   0.1500 
@<TRIPOS>BOND
  1   1   2  1   
  2   1   3  1   
  3   2   4  2   
  4   2   5  1   
  5   3   6  2   
  6   3   7  1   
  7   4   6  1   
  8   5   8  am  
  9   5  22  1   
 10   7   9  1   
 11   7  23  1   
 12   7  24  1   
 13   8  10  2   
 14   8  11  1   
 15   9  12  1   
 16   9  25  1   
 17   9  26  1   
 18  11  13  1   
 19  11  27  1   
 20  11  28  1   
 21  12  14  1   
 22  13  15  1   
 23  14  16  1   
 24  14  29  1   
 25  14  30  1   
 26  15  17  ar  
 27  15  18  ar  
 28  16  31  1   
 29  16  32  1   
 30  16  33  1   
 31  17  19  ar  
 32  17  34  1   
 33  18  20  ar  
 34  18  35  1   
 35  19  21  ar  
 36  19  36  1   
 37  20  21  ar  
 38  20  37  1   
@<TRIPOS>SUBSTRUCTURE
  1 ****   5 GROUP 4 **** **** 0

# MOE 2024.06 (io_trps.svl 2023.06)
