@<TRIPOS>MOLECULE
NONAME
57 59 1 0 0 
SMALL
USER_CHARGES


@<TRIPOS>ATOM
  1 O       -1.0020     1.1100    -2.5450 O.2   1 <1>  -0.5700 
  2 C       -1.6330     1.6130    -1.6350 C.2   1 <1>   0.5440 
  3 N       -2.4710     0.8290    -0.8700 N.am  1 <1>  -0.6600 
  4 C       -1.4860     3.0320    -1.3730 C.ar  1 <1>   0.0860 
  5 C       -2.4470    -0.6680    -0.9360 C.3   1 <1>   0.1400 
  6 C       -3.3790     1.3740     0.1780 C.3   1 <1>   0.1400 
  7 C       -0.7660     3.5350    -0.2800 C.ar  1 <1>  -0.1440 
  8 C       -2.0910     3.9430    -2.2370 C.ar  1 <1>  -0.1500 
  9 C       -3.8700    -1.2260    -1.0950 C.3   1 <1>   0.2000 
 10 C       -4.7950     0.8100    -0.0010 C.3   1 <1>  -0.1600 
 11 C       -0.6810     4.9050    -0.0790 C.ar  1 <1>  -0.1500 
 12 C       -0.0450     2.6160     0.7070 C.3   1 <1>   0.1270 
 13 C       -2.0040     5.3060    -2.0290 C.ar  1 <1>  -0.1500 
 14 O       -3.8020    -2.6100    -1.1060 O.3   1 <1>  -0.6800 
 15 C       -4.8260    -0.7450     0.0300 C.3   1 <1>  -0.1060 
 16 C       -1.2980     5.7890    -0.9450 C.ar  1 <1>  -0.1500 
 17 C        1.4620     2.7070     0.5220 C.ar  1 <1>  -0.1430 
 18 C       -4.3320    -1.2830     1.3950 C.2   1 <1>   0.9060 
 19 C       -6.2670    -1.2540    -0.2700 C.3   1 <1>  -0.1600 
 20 C        2.2700     3.2750     1.4960 C.ar  1 <1>  -0.1500 
 21 C        2.0440     2.2170    -0.6370 C.ar  1 <1>  -0.1500 
 22 O       -4.3510    -0.5500     2.3920 O.co2 1 <1>  -0.9000 
 23 O       -3.9090    -2.4470     1.4690 O.co2 1 <1>  -0.9000 
 24 C       -7.3380    -0.8120     0.7420 C.3   1 <1>  -0.1600 
 25 C        3.6400     3.3510     1.3120 C.ar  1 <1>  -0.1500 
 26 C        3.4140     2.2930    -0.8200 C.ar  1 <1>  -0.1500 
 27 C       -8.6930    -1.4490     0.4200 C.3   1 <1>  -0.2400 
 28 C        4.2200     2.8590     0.1540 C.ar  1 <1>  -0.1430 
 29 C        5.7210     2.9440    -0.0500 C.3   1 <1>  -0.0970 
 30 H       -1.8490    -0.9980    -1.7660 H     1 <1>   0.0800 
 31 H       -2.0110    -1.0470    -0.0280 H     1 <1>   0.0800 
 32 H       -2.9960     1.1070     1.1480 H     1 <1>   0.0800 
 33 H       -3.4260     2.4470     0.1280 H     1 <1>   0.0800 
 34 H       -2.6360     3.5630    -3.0840 H     1 <1>   0.1500 
 35 H       -4.2450    -0.9240    -2.0560 H     1 <1>   0.0800 
 36 H       -5.4000     1.2020     0.7960 H     1 <1>   0.0800 
 37 H       -5.2000     1.1720    -0.9290 H     1 <1>   0.0800 
 38 H       -0.1210     5.2900     0.7560 H     1 <1>   0.1500 
 39 H       -0.3100     2.9030     1.7090 H     1 <1>   0.0800 
 40 H       -0.3400     1.5890     0.5960 H     1 <1>   0.0800 
 41 H       -2.4810     5.9890    -2.7110 H     1 <1>   0.1500 
 42 H       -3.7730    -2.8750    -0.1350 H     1 <1>   0.4000 
 43 H       -1.2220     6.8500    -0.7770 H     1 <1>   0.1500 
 44 H       -6.5590    -0.9320    -1.2540 H     1 <1>   0.0800 
 45 H       -6.2470    -2.3310    -0.2790 H     1 <1>   0.0800 
 46 H        1.8380     3.6610     2.4020 H     1 <1>   0.1500 
 47 H        1.4290     1.7740    -1.4040 H     1 <1>   0.1500 
 48 H       -7.0400    -1.1030     1.7360 H     1 <1>   0.0800 
 49 H       -7.4460     0.2580     0.7290 H     1 <1>   0.0800 
 50 H        4.2540     3.7950     2.0750 H     1 <1>   0.1500 
 51 H        3.8450     1.9100    -1.7270 H     1 <1>   0.1500 
 52 H       -8.6180    -2.5210     0.4620 H     1 <1>   0.0800 
 53 H       -9.0200    -1.1600    -0.5630 H     1 <1>   0.0800 
 54 H       -9.4280    -1.1290     1.1370 H     1 <1>   0.0800 
 55 H        6.2320     2.9020     0.8950 H     1 <1>   0.0800 
 56 H        5.9680     3.8690    -0.5390 H     1 <1>   0.0800 
 57 H        6.0630     2.1260    -0.6580 H     1 <1>   0.0800 
@<TRIPOS>BOND
  1   1   2  2   
  2   2   3  am  
  3   2   4  1   
  4   3   5  1   
  5   3   6  1   
  6   4   7  ar  
  7   4   8  ar  
  8   5   9  1   
  9   5  30  1   
 10   5  31  1   
 11   6  10  1   
 12   6  32  1   
 13   6  33  1   
 14   7  11  ar  
 15   7  12  1   
 16   8  13  ar  
 17   8  34  1   
 18   9  14  1   
 19   9  15  1   
 20   9  35  1   
 21  10  15  1   
 22  10  36  1   
 23  10  37  1   
 24  11  16  ar  
 25  11  38  1   
 26  12  17  1   
 27  12  39  1   
 28  12  40  1   
 29  13  16  ar  
 30  13  41  1   
 31  14  42  1   
 32  15  18  1   
 33  15  19  1   
 34  16  43  1   
 35  17  20  ar  
 36  17  21  ar  
 37  18  22  ar  
 38  18  23  ar  
 39  19  24  1   
 40  19  44  1   
 41  19  45  1   
 42  20  25  ar  
 43  20  46  1   
 44  21  26  ar  
 45  21  47  1   
 46  24  27  1   
 47  24  48  1   
 48  24  49  1   
 49  25  28  ar  
 50  25  50  1   
 51  26  28  ar  
 52  26  51  1   
 53  27  52  1   
 54  27  53  1   
 55  27  54  1   
 56  28  29  1   
 57  29  55  1   
 58  29  56  1   
 59  29  57  1   
@<TRIPOS>SUBSTRUCTURE
  1 ****   3 GROUP 4 **** **** 0

# MOE 2024.06 (io_trps.svl 2023.06)
