@<TRIPOS>MOLECULE
NONAME
55 58 1 0 0 
SMALL
USER_CHARGES


@<TRIPOS>ATOM
  1 O        0.4330     0.4240    -1.4920 O.3   1 <1>  -0.5600 
  2 C        1.6140    -0.3300    -1.6280 C.3   1 <1>   0.2000 
  3 C        0.6080     1.8090    -1.4660 C.3   1 <1>   0.1200 
  4 C        2.6400     0.0190    -0.5140 C.3   1 <1>   0.5660 
  5 C        1.2490    -1.8230    -1.5730 C.3   1 <1>   0.1200 
  6 C        1.4850     2.2060    -0.2680 C.3   1 <1>   0.3430 
  7 N        2.8040     1.4910    -0.2880 N.4   1 <1>  -0.9590 
  8 C        4.0150    -0.5560    -0.8250 C.ar  1 <1>  -0.1430 
  9 O        0.9600    -2.2010    -0.2640 O.3   1 <1>  -0.6800 
 10 C        3.6060     1.7670     0.9340 C.3   1 <1>   0.4870 
 11 C        4.5810    -1.4590     0.0640 C.ar  1 <1>  -0.1500 
 12 C        4.7190    -0.1970    -1.9690 C.ar  1 <1>  -0.1500 
 13 C        3.9070     3.2480     0.9630 C.ar  1 <1>  -0.1430 
 14 C        5.8380    -1.9880    -0.1680 C.ar  1 <1>   0.0820 
 15 C        5.9820    -0.7140    -2.2010 C.ar  1 <1>  -0.1500 
 16 C        4.8740     3.7580     0.0870 C.ar  1 <1>   0.0000 
 17 C        3.2400     4.1110     1.8080 C.ar  1 <1>  -0.1500 
 18 O        6.3050    -2.8790     0.7390 O.3   1 <1>  -0.3630 
 19 C        6.5580    -1.5920    -1.3000 C.ar  1 <1>   0.0820 
 20 C        5.1130     5.1280     0.0530 C.ar  1 <1>  -0.1520 
 21 C        5.7540     3.1820    -0.8580 C.2   1 <1>  -0.1500 
 22 C        3.5020     5.4850     1.7760 C.ar  1 <1>  -0.1500 
 23 C        6.5530    -4.1910     0.2780 C.3   1 <1>   0.0400 
 24 O        7.8120    -2.0250    -1.5700 O.3   1 <1>  -0.3630 
 25 N        6.0770     5.3790    -0.8900 N.pl3 1 <1>   0.0330 
 26 C        4.4280     6.0010     0.9000 C.ar  1 <1>  -0.1500 
 27 C        6.4570     4.1850    -1.4330 C.2   1 <1>  -0.3020 
 28 C        8.8280    -1.6240    -0.6760 C.3   1 <1>   0.0400 
 29 H        2.0210    -0.1120    -2.5990 H     1 <1>   0.0800 
 30 H        1.0460     2.1270    -2.3970 H     1 <1>   0.0800 
 31 H       -0.3660     2.2580    -1.3750 H     1 <1>   0.0800 
 32 H        2.2800    -0.4290     0.3980 H     1 <1>   0.0800 
 33 H        2.0720    -2.4270    -1.9150 H     1 <1>   0.0800 
 34 H        0.3880    -2.0170    -2.1900 H     1 <1>   0.0800 
 35 H        0.9520     1.9630     0.6370 H     1 <1>   0.0800 
 36 H        1.6460     3.2720    -0.2820 H     1 <1>   0.0800 
 37 H        3.3580     1.8620    -1.0670 H     1 <1>   0.4500 
 38 H        0.5030    -3.0690    -0.2480 H     1 <1>   0.4000 
 39 H        3.0570     1.4810     1.8170 H     1 <1>   0.0800 
 40 H        4.5340     1.2180     0.9120 H     1 <1>   0.0800 
 41 H        4.0550    -1.7760     0.9480 H     1 <1>   0.1500 
 42 H        4.3090     0.4860    -2.6940 H     1 <1>   0.1500 
 43 H        6.5360    -0.4380    -3.0820 H     1 <1>   0.1500 
 44 H        2.5050     3.7530     2.5080 H     1 <1>   0.1500 
 45 H        5.8530     2.1310    -1.0600 H     1 <1>   0.1500 
 46 H        2.9700     6.1400     2.4460 H     1 <1>   0.1500 
 47 H        6.7860    -4.8070     1.1280 H     1 <1>   0.0800 
 48 H        7.3830    -4.1820    -0.4040 H     1 <1>   0.0800 
 49 H        5.6700    -4.5600    -0.2140 H     1 <1>   0.0800 
 50 H        6.4580     6.3040    -1.1180 H     1 <1>   0.2700 
 51 H        4.6320     7.0570     0.8680 H     1 <1>   0.1500 
 52 H        7.2190     4.1250    -2.1920 H     1 <1>   0.1500 
 53 H        9.7700    -1.9700    -1.0620 H     1 <1>   0.0800 
 54 H        8.6480    -2.0590     0.2900 H     1 <1>   0.0800 
 55 H        8.8300    -0.5510    -0.6090 H     1 <1>   0.0800 
@<TRIPOS>BOND
  1   1   2  1   
  2   1   3  1   
  3   2   4  1   
  4   2   5  1   
  5   2  29  1   
  6   3   6  1   
  7   3  30  1   
  8   3  31  1   
  9   4   7  1   
 10   4   8  1   
 11   4  32  1   
 12   5   9  1   
 13   5  33  1   
 14   5  34  1   
 15   6   7  1   
 16   6  35  1   
 17   6  36  1   
 18   7  10  1   
 19   7  37  1   
 20   8  11  ar  
 21   8  12  ar  
 22   9  38  1   
 23  10  13  1   
 24  10  39  1   
 25  10  40  1   
 26  11  14  ar  
 27  11  41  1   
 28  12  15  ar  
 29  12  42  1   
 30  13  16  ar  
 31  13  17  ar  
 32  14  18  1   
 33  14  19  ar  
 34  15  19  ar  
 35  15  43  1   
 36  16  20  ar  
 37  16  21  1   
 38  17  22  ar  
 39  17  44  1   
 40  18  23  1   
 41  19  24  1   
 42  20  25  1   
 43  20  26  ar  
 44  21  27  2   
 45  21  45  1   
 46  22  26  ar  
 47  22  46  1   
 48  23  47  1   
 49  23  48  1   
 50  23  49  1   
 51  24  28  1   
 52  25  27  1   
 53  25  50  1   
 54  26  51  1   
 55  27  52  1   
 56  28  53  1   
 57  28  54  1   
 58  28  55  1   
@<TRIPOS>SUBSTRUCTURE
  1 ****   7 GROUP 4 **** **** 0

# MOE 2024.06 (io_trps.svl 2023.06)
