@<TRIPOS>MOLECULE
NONAME
53 55 1 0 0 
SMALL
USER_CHARGES


@<TRIPOS>ATOM
  1 CL       1.5690     0.7700    -2.0390 Cl    1 <1>  -0.1770 
  2 C        0.7520     1.9710    -1.0620 C.ar  1 <1>   0.1770 
  3 C        1.3190     2.4700     0.1080 C.ar  1 <1>  -0.1440 
  4 C       -0.4840     2.4040    -1.5080 C.ar  1 <1>  -0.1500 
  5 C        0.6060     3.4270     0.8210 C.ar  1 <1>  -0.1500 
  6 C        2.6790     2.0230     0.6380 C.3   1 <1>   0.3640 
  7 C       -1.1800     3.3550    -0.7840 C.ar  1 <1>  -0.1500 
  8 C       -0.6320     3.8650     0.3800 C.ar  1 <1>  -0.1500 
  9 N        2.6490     0.5660     0.9080 N.am  1 <1>  -0.7300 
 10 C        3.8550     2.4450    -0.2810 C.3   1 <1>   0.2610 
 11 C        3.6240    -0.2840     0.5130 C.2   1 <1>   0.5690 
 12 O        5.0110     1.6460    -0.0620 O.3   1 <1>  -0.5600 
 13 C        4.1160     3.9460    -0.0920 C.2   1 <1>   0.5690 
 14 O        3.5600    -1.4580     0.7770 O.2   1 <1>  -0.5700 
 15 C        4.8070     0.2670    -0.2860 C.3   1 <1>   0.1810 
 16 O        3.6440     4.6790    -0.9330 O.2   1 <1>  -0.5700 
 17 N        4.8090     4.4620     0.9870 N.am  1 <1>  -0.6600 
 18 C        5.0330     5.9310     1.1040 C.3   1 <1>   0.1400 
 19 C        5.5270     3.6420     2.0050 C.3   1 <1>   0.0600 
 20 C        6.3870     6.3020     0.4930 C.3   1 <1>  -0.1600 
 21 C        6.6310     7.8170     0.5720 C.3   1 <1>  -0.1600 
 22 C        8.0050     8.2150     0.0100 C.3   1 <1>  -0.0800 
 23 C        8.2700     9.7140     0.1210 C.3   1 <1>  -0.1600 
 24 C        8.1760     7.9350    -1.4830 C.3   1 <1>  -0.1600 
 25 C        9.3870     9.9860    -0.8860 C.3   1 <1>  -0.1600 
 26 C        9.2750     8.8920    -1.9530 C.3   1 <1>  -0.1600 
 27 H       -0.8940     1.9990    -2.4150 H     1 <1>   0.1500 
 28 H        1.0090     3.8470     1.7270 H     1 <1>   0.1500 
 29 H        2.8330     2.5050     1.5870 H     1 <1>   0.0800 
 30 H       -2.1410     3.6980    -1.1250 H     1 <1>   0.1500 
 31 H       -1.1700     4.6080     0.9430 H     1 <1>   0.1500 
 32 H        1.8320     0.1830     1.3840 H     1 <1>   0.3700 
 33 H        3.5760     2.3060    -1.3080 H     1 <1>   0.0800 
 34 H        4.6360     0.1130    -1.3360 H     1 <1>   0.0800 
 35 H        5.7050    -0.2490     0.0010 H     1 <1>   0.0800 
 36 H        4.2500     6.4630     0.5890 H     1 <1>   0.0800 
 37 H        4.9990     6.2220     2.1390 H     1 <1>   0.0800 
 38 H        5.6320     4.1920     2.9240 H     1 <1>   0.0800 
 39 H        6.5060     3.3890     1.6350 H     1 <1>   0.0800 
 40 H        4.9940     2.7330     2.2170 H     1 <1>   0.0800 
 41 H        7.1730     5.7880     1.0160 H     1 <1>   0.0800 
 42 H        6.3940     5.9890    -0.5360 H     1 <1>   0.0800 
 43 H        6.5760     8.1310     1.6000 H     1 <1>   0.0800 
 44 H        5.8570     8.3310     0.0280 H     1 <1>   0.0800 
 45 H        8.7810     7.6950     0.5480 H     1 <1>   0.0800 
 46 H        7.3910    10.2620    -0.1730 H     1 <1>   0.0800 
 47 H        8.5490    10.0030     1.1190 H     1 <1>   0.0800 
 48 H        8.4350     6.9080    -1.6710 H     1 <1>   0.0800 
 49 H        7.2620     8.1670    -2.0030 H     1 <1>   0.0800 
 50 H        9.2950    10.9700    -1.3140 H     1 <1>   0.0800 
 51 H       10.3420     9.9080    -0.3940 H     1 <1>   0.0800 
 52 H       10.2120     8.3670    -2.0350 H     1 <1>   0.0800 
 53 H        9.0250     9.3090    -2.9140 H     1 <1>   0.0800 
@<TRIPOS>BOND
  1   1   2  1   
  2   2   3  ar  
  3   2   4  ar  
  4   3   5  ar  
  5   3   6  1   
  6   4   7  ar  
  7   4  27  1   
  8   5   8  ar  
  9   5  28  1   
 10   6   9  1   
 11   6  10  1   
 12   6  29  1   
 13   7   8  ar  
 14   7  30  1   
 15   8  31  1   
 16   9  11  am  
 17   9  32  1   
 18  10  12  1   
 19  10  13  1   
 20  10  33  1   
 21  11  14  2   
 22  11  15  1   
 23  12  15  1   
 24  13  16  2   
 25  13  17  am  
 26  15  34  1   
 27  15  35  1   
 28  17  18  1   
 29  17  19  1   
 30  18  20  1   
 31  18  36  1   
 32  18  37  1   
 33  19  38  1   
 34  19  39  1   
 35  19  40  1   
 36  20  21  1   
 37  20  41  1   
 38  20  42  1   
 39  21  22  1   
 40  21  43  1   
 41  21  44  1   
 42  22  23  1   
 43  22  24  1   
 44  22  45  1   
 45  23  25  1   
 46  23  46  1   
 47  23  47  1   
 48  24  26  1   
 49  24  48  1   
 50  24  49  1   
 51  25  26  1   
 52  25  50  1   
 53  25  51  1   
 54  26  52  1   
 55  26  53  1   
@<TRIPOS>SUBSTRUCTURE
  1 ****  13 GROUP 4 **** **** 0

# MOE 2024.06 (io_trps.svl 2023.06)
