@<TRIPOS>MOLECULE
NONAME
55 56 1 0 0 
SMALL
USER_CHARGES


@<TRIPOS>ATOM
  1 F       -1.2810     0.1400     1.9740 F     1 <1>  -0.1900 
  2 C       -2.4550     0.4130     1.4650 C.ar  1 <1>   0.1900 
  3 C       -2.6070     0.8580     0.1470 C.ar  1 <1>   0.0830 
  4 C       -3.5420     0.2360     2.2990 C.ar  1 <1>  -0.1500 
  5 O       -1.6180     1.0750    -0.7660 O.3   1 <1>  -0.3630 
  6 C       -3.8940     1.1120    -0.3010 C.ar  1 <1>  -0.1500 
  7 C       -4.8130     0.4990     1.8210 C.ar  1 <1>  -0.1500 
  8 C       -0.2460     0.9840    -0.4490 C.3   1 <1>   0.0400 
  9 C       -5.0160     0.9370     0.5110 C.ar  1 <1>   0.0530 
 10 C       -6.3330     1.2210     0.0030 C.2   1 <1>   0.0870 
 11 O       -6.5400     2.3380    -0.6460 O.3   1 <1>  -0.0190 
 12 C       -7.5190     0.5510     0.0280 C.2   1 <1>  -0.0860 
 13 N       -7.7750     2.4770    -1.0440 N.2   1 <1>  -0.4100 
 14 C       -8.3870     1.4200    -0.6470 C.2   1 <1>   0.3720 
 15 C       -7.8620    -0.7350     0.5560 C.2   1 <1>   0.7160 
 16 N       -9.7570     1.2020    -0.8680 N.pl3 1 <1>  -0.8210 
 17 O       -7.0780    -1.4040     1.2010 O.2   1 <1>  -0.5700 
 18 N       -9.0910    -1.2770     0.3190 N.am  1 <1>  -0.7300 
 19 C      -10.6010     2.0750    -0.0020 C.3   1 <1>   0.1290 
 20 C      -10.1430     1.3740    -2.3000 C.3   1 <1>   0.1290 
 21 C       -9.7250    -2.3810     1.1030 C.3   1 <1>   0.1400 
 22 C       -8.9180    -3.6970     1.0370 C.3   1 <1>   0.3430 
 23 N       -8.3200    -3.8970    -0.3240 N.4   1 <1>  -0.9590 
 24 C       -9.0430    -4.8460    -1.2160 C.3   1 <1>   0.4230 
 25 C       -6.8670    -4.2260    -0.1630 C.3   1 <1>   0.2630 
 26 C       -8.4140    -4.8130    -2.6090 C.3   1 <1>  -0.2400 
 27 C      -10.5190    -4.4650    -1.3280 C.3   1 <1>  -0.2400 
 28 H       -3.3920    -0.1030     3.3090 H     1 <1>   0.1500 
 29 H       -4.0250     1.4580    -1.3100 H     1 <1>   0.1500 
 30 H       -5.6590     0.3680     2.4720 H     1 <1>   0.1500 
 31 H        0.3180     1.2630    -1.3210 H     1 <1>   0.0800 
 32 H       -0.0160    -0.0310    -0.1770 H     1 <1>   0.0800 
 33 H       -0.0270     1.6600     0.3580 H     1 <1>   0.0800 
 34 H       -9.7390    -0.5990    -0.1270 H     1 <1>   0.3700 
 35 H      -10.3160     1.9570     1.0300 H     1 <1>   0.0800 
 36 H      -11.6400     1.8100    -0.1070 H     1 <1>   0.0800 
 37 H      -10.4720     3.1090    -0.2770 H     1 <1>   0.0800 
 38 H       -9.4780     0.8090    -2.9310 H     1 <1>   0.0800 
 39 H      -10.0800     2.4130    -2.5820 H     1 <1>   0.0800 
 40 H      -11.1500     1.0280    -2.4570 H     1 <1>   0.0800 
 41 H      -10.7180    -2.5480     0.7270 H     1 <1>   0.0800 
 42 H       -9.8180    -2.0770     2.1320 H     1 <1>   0.0800 
 43 H       -9.5370    -4.5340     1.3140 H     1 <1>   0.0800 
 44 H       -8.1260    -3.6220     1.7650 H     1 <1>   0.0800 
 45 H       -8.3700    -2.9570    -0.7510 H     1 <1>   0.4500 
 46 H       -8.9680    -5.8470    -0.8190 H     1 <1>   0.0800 
 47 H       -6.7480    -5.2140     0.2500 H     1 <1>   0.0800 
 48 H       -6.3940    -3.5170     0.4980 H     1 <1>   0.0800 
 49 H       -6.3610    -4.1840    -1.1130 H     1 <1>   0.0800 
 50 H       -8.3980    -3.8120    -3.0030 H     1 <1>   0.0800 
 51 H       -8.9890    -5.4250    -3.2820 H     1 <1>   0.0800 
 52 H       -7.4180    -5.2140    -2.6010 H     1 <1>   0.0800 
 53 H      -10.6320    -3.4450    -1.6500 H     1 <1>   0.0800 
 54 H      -11.0330    -4.6170    -0.3970 H     1 <1>   0.0800 
 55 H      -11.0010    -5.0970    -2.0540 H     1 <1>   0.0800 
@<TRIPOS>BOND
  1   1   2  1   
  2   2   3  ar  
  3   2   4  ar  
  4   3   5  1   
  5   3   6  ar  
  6   4   7  ar  
  7   4  28  1   
  8   5   8  1   
  9   6   9  ar  
 10   6  29  1   
 11   7   9  ar  
 12   7  30  1   
 13   8  31  1   
 14   8  32  1   
 15   8  33  1   
 16   9  10  1   
 17  10  11  1   
 18  10  12  2   
 19  11  13  1   
 20  12  14  1   
 21  12  15  1   
 22  13  14  2   
 23  14  16  1   
 24  15  17  2   
 25  15  18  am  
 26  16  19  1   
 27  16  20  1   
 28  18  21  1   
 29  18  34  1   
 30  19  35  1   
 31  19  36  1   
 32  19  37  1   
 33  20  38  1   
 34  20  39  1   
 35  20  40  1   
 36  21  22  1   
 37  21  41  1   
 38  21  42  1   
 39  22  23  1   
 40  22  43  1   
 41  22  44  1   
 42  23  24  1   
 43  23  25  1   
 44  23  45  1   
 45  24  26  1   
 46  24  27  1   
 47  24  46  1   
 48  25  47  1   
 49  25  48  1   
 50  25  49  1   
 51  26  50  1   
 52  26  51  1   
 53  26  52  1   
 54  27  53  1   
 55  27  54  1   
 56  27  55  1   
@<TRIPOS>SUBSTRUCTURE
  1 ****  12 GROUP 4 **** **** 0

# MOE 2024.06 (io_trps.svl 2023.06)
