@<TRIPOS>MOLECULE
NONAME
54 56 1 0 0 
SMALL
USER_CHARGES


@<TRIPOS>ATOM
  1 S        0.0560    -0.0180    -0.8680 S.o2  1 <1>   1.4470 
  2 O        0.5520     1.0660    -1.6940 O.2   1 <1>  -0.6500 
  3 O       -0.6340    -1.1040    -1.5380 O.2   1 <1>  -0.6500 
  4 N       -0.9950     0.6060     0.3160 N.am  1 <1>  -0.8490 
  5 C        1.4100    -0.7310     0.1040 C.ar  1 <1>  -0.0090 
  6 C       -2.3290    -0.0060     0.4270 C.3   1 <1>   0.1960 
  7 C       -1.0720     2.0620     0.4150 C.3   1 <1>   0.1960 
  8 C        2.3220     0.0710     0.7840 C.ar  1 <1>   0.0830 
  9 C        1.5690    -2.1100     0.2010 C.ar  1 <1>  -0.1500 
 10 C       -3.4040     0.6140    -0.5240 C.3   1 <1>   0.0000 
 11 C       -1.9130     2.6850    -0.7150 C.3   1 <1>  -0.1600 
 12 O        2.2190     1.4140     0.7380 O.3   1 <1>  -0.3630 
 13 C        3.3460    -0.4870     1.5360 C.ar  1 <1>  -0.1500 
 14 C        2.5940    -2.6790     0.9400 C.ar  1 <1>  -0.1430 
 15 C       -4.6130     1.1660     0.2610 C.3   1 <1>   0.2000 
 16 C       -2.8040     1.6810    -1.4680 C.3   1 <1>  -0.1600 
 17 C       -4.0720    -0.5030    -1.3410 C.3   1 <1>  -0.1600 
 18 C        3.1490     2.0880    -0.0750 C.3   1 <1>   0.1200 
 19 C        3.4840    -1.8590     1.6110 C.ar  1 <1>  -0.1500 
 20 C        2.7320    -4.1890     1.0170 C.3   1 <1>  -0.0970 
 21 O       -4.2310     1.8760     1.4030 O.3   1 <1>  -0.5600 
 22 C       -5.4600    -0.0570     0.6260 C.3   1 <1>  -0.1600 
 23 C       -5.1050    -1.1370    -0.4040 C.3   1 <1>  -0.1600 
 24 C        2.7440     3.5570    -0.1440 C.3   1 <1>  -0.2400 
 25 C       -5.2250     2.6780     1.9570 C.3   1 <1>   0.0400 
 26 H       -2.2480    -1.0670     0.2660 H     1 <1>   0.0800 
 27 H       -2.6480     0.1020     1.4480 H     1 <1>   0.0800 
 28 H       -1.5310     2.3070     1.3580 H     1 <1>   0.0800 
 29 H       -0.0840     2.4870     0.4200 H     1 <1>   0.0800 
 30 H        0.8740    -2.7510    -0.3140 H     1 <1>   0.1500 
 31 H       -2.5270     3.4550    -0.2830 H     1 <1>   0.0800 
 32 H       -1.2540     3.1630    -1.4180 H     1 <1>   0.0800 
 33 H        4.0270     0.1560     2.0630 H     1 <1>   0.1500 
 34 H       -5.1790     1.8190    -0.3820 H     1 <1>   0.0800 
 35 H       -2.2030     1.1840    -2.2090 H     1 <1>   0.0800 
 36 H       -3.5780     2.2080    -1.9970 H     1 <1>   0.0800 
 37 H       -4.5870    -0.0750    -2.1840 H     1 <1>   0.0800 
 38 H       -3.3630    -1.2240    -1.7130 H     1 <1>   0.0800 
 39 H        4.1280     1.9770     0.3580 H     1 <1>   0.0800 
 40 H        3.1300     1.6440    -1.0570 H     1 <1>   0.0800 
 41 H        4.2820    -2.2840     2.1960 H     1 <1>   0.1500 
 42 H        3.7520    -4.4670     1.2140 H     1 <1>   0.0800 
 43 H        2.4310    -4.6410     0.0890 H     1 <1>   0.0800 
 44 H        2.1090    -4.5710     1.8070 H     1 <1>   0.0800 
 45 H       -5.2070    -0.4030     1.6140 H     1 <1>   0.0800 
 46 H       -6.5070     0.1840     0.5840 H     1 <1>   0.0800 
 47 H       -4.6730    -1.9870     0.0970 H     1 <1>   0.0800 
 48 H       -5.9720    -1.4630    -0.9530 H     1 <1>   0.0800 
 49 H        2.7140     3.9810     0.8440 H     1 <1>   0.0800 
 50 H        1.7780     3.6470    -0.6070 H     1 <1>   0.0800 
 51 H        3.4560     4.1020    -0.7350 H     1 <1>   0.0800 
 52 H       -4.8110     3.1770     2.8140 H     1 <1>   0.0800 
 53 H       -6.0540     2.0640     2.2620 H     1 <1>   0.0800 
 54 H       -5.5390     3.4070     1.2300 H     1 <1>   0.0800 
@<TRIPOS>BOND
  1   1   2  2   
  2   1   3  2   
  3   1   4  am  
  4   1   5  1   
  5   4   6  1   
  6   4   7  1   
  7   5   8  ar  
  8   5   9  ar  
  9   6  10  1   
 10   6  26  1   
 11   6  27  1   
 12   7  11  1   
 13   7  28  1   
 14   7  29  1   
 15   8  12  1   
 16   8  13  ar  
 17   9  14  ar  
 18   9  30  1   
 19  10  15  1   
 20  10  16  1   
 21  10  17  1   
 22  11  16  1   
 23  11  31  1   
 24  11  32  1   
 25  12  18  1   
 26  13  19  ar  
 27  13  33  1   
 28  14  19  ar  
 29  14  20  1   
 30  15  21  1   
 31  15  22  1   
 32  15  34  1   
 33  16  35  1   
 34  16  36  1   
 35  17  23  1   
 36  17  37  1   
 37  17  38  1   
 38  18  24  1   
 39  18  39  1   
 40  18  40  1   
 41  19  41  1   
 42  20  42  1   
 43  20  43  1   
 44  20  44  1   
 45  21  25  1   
 46  22  23  1   
 47  22  45  1   
 48  22  46  1   
 49  23  47  1   
 50  23  48  1   
 51  24  49  1   
 52  24  50  1   
 53  24  51  1   
 54  25  52  1   
 55  25  53  1   
 56  25  54  1   
@<TRIPOS>SUBSTRUCTURE
  1 ****   4 GROUP 4 **** **** 0

# MOE 2024.06 (io_trps.svl 2023.06)
