@<TRIPOS>MOLECULE
NONAME
49 51 1 0 0 
SMALL
USER_CHARGES


@<TRIPOS>ATOM
  1 O       -2.8220     0.5210    -3.0840 O.2   1 <1>  -0.5700 
  2 C       -2.2030     0.7890    -2.0830 C.2   1 <1>   0.5690 
  3 N       -1.7540    -0.1790    -1.2450 N.am  1 <1>  -0.7300 
  4 C       -1.9350     2.2510    -1.7480 C.3   1 <1>   0.1810 
  5 C       -1.9540    -1.6360    -1.4060 C.3   1 <1>   0.2200 
  6 O       -1.4340     2.3850    -0.4240 O.3   1 <1>  -0.3630 
  7 C       -3.0190    -2.1550    -0.4500 C.3   1 <1>  -0.0800 
  8 C       -0.7250    -2.3640    -0.8770 C.3   1 <1>   0.1200 
  9 C       -1.0810     3.5890     0.0980 C.ar  1 <1>   0.0820 
 10 C       -2.2380    -2.3770     0.8490 C.3   1 <1>   0.1200 
 11 C       -4.2710    -1.2720    -0.2920 C.3   1 <1>  -0.0160 
 12 O       -0.8810    -2.3920     0.5100 O.3   1 <1>  -0.5600 
 13 C       -0.5000     3.6040     1.3680 C.ar  1 <1>  -0.1440 
 14 C       -1.2750     4.7810    -0.5940 C.ar  1 <1>  -0.1500 
 15 C       -5.2890    -1.9340     0.6240 C.ar  1 <1>  -0.1440 
 16 C       -0.1000     4.8180     1.9240 C.ar  1 <1>  -0.1440 
 17 C       -0.3000     2.2880     2.1240 C.3   1 <1>  -0.0970 
 18 C       -0.8870     5.9800    -0.0310 C.ar  1 <1>  -0.1500 
 19 C       -5.4240    -1.5750     1.9500 C.ar  1 <1>  -0.1500 
 20 C       -6.1320    -2.9290     0.1740 C.ar  1 <1>  -0.1500 
 21 C       -0.3010     5.9960     1.2200 C.ar  1 <1>  -0.1500 
 22 C        0.5640     4.9060     3.2920 C.3   1 <1>  -0.0970 
 23 C       -6.3630    -2.2170     2.7410 C.ar  1 <1>   0.1600 
 24 C       -7.0390    -3.5070     1.0480 C.ar  1 <1>   0.1600 
 25 N       -7.1730    -3.1760     2.3220 N.ar  1 <1>  -0.6200 
 26 H       -1.2620     0.1010    -0.3900 H     1 <1>   0.3700 
 27 H       -2.8520     2.8060    -1.8230 H     1 <1>   0.0800 
 28 H       -1.2040     2.6450    -2.4300 H     1 <1>   0.0800 
 29 H       -2.1630    -1.8780    -2.4350 H     1 <1>   0.0800 
 30 H       -3.3330    -3.1220    -0.8040 H     1 <1>   0.0800 
 31 H        0.1950    -1.8690    -1.1310 H     1 <1>   0.0800 
 32 H       -0.7050    -3.3810    -1.2270 H     1 <1>   0.0800 
 33 H       -2.4950    -3.3130     1.3160 H     1 <1>   0.0800 
 34 H       -2.3880    -1.5700     1.5450 H     1 <1>   0.0800 
 35 H       -4.7150    -1.1060    -1.2580 H     1 <1>   0.0800 
 36 H       -4.0060    -0.3100     0.1100 H     1 <1>   0.0800 
 37 H       -1.7250     4.8030    -1.5670 H     1 <1>   0.1500 
 38 H       -0.3370     2.4320     3.1860 H     1 <1>   0.0800 
 39 H        0.6520     1.8650     1.8620 H     1 <1>   0.0800 
 40 H       -1.0700     1.5800     1.8780 H     1 <1>   0.0800 
 41 H       -1.0380     6.9030    -0.5640 H     1 <1>   0.1500 
 42 H       -4.8090    -0.8040     2.3770 H     1 <1>   0.1500 
 43 H       -6.0930    -3.2610    -0.8480 H     1 <1>   0.1500 
 44 H       -0.0010     6.9380     1.6430 H     1 <1>   0.1500 
 45 H        0.9500     5.8930     3.4730 H     1 <1>   0.0800 
 46 H        1.3840     4.2130     3.3510 H     1 <1>   0.0800 
 47 H       -0.1500     4.6750     4.0610 H     1 <1>   0.0800 
 48 H       -6.4540    -1.9240     3.7730 H     1 <1>   0.1500 
 49 H       -7.6880    -4.2820     0.6790 H     1 <1>   0.1500 
@<TRIPOS>BOND
  1   1   2  2   
  2   2   3  am  
  3   2   4  1   
  4   3   5  1   
  5   3  26  1   
  6   4   6  1   
  7   4  27  1   
  8   4  28  1   
  9   5   7  1   
 10   5   8  1   
 11   5  29  1   
 12   6   9  1   
 13   7  10  1   
 14   7  11  1   
 15   7  30  1   
 16   8  12  1   
 17   8  31  1   
 18   8  32  1   
 19   9  13  ar  
 20   9  14  ar  
 21  10  12  1   
 22  10  33  1   
 23  10  34  1   
 24  11  15  1   
 25  11  35  1   
 26  11  36  1   
 27  13  16  ar  
 28  13  17  1   
 29  14  18  ar  
 30  14  37  1   
 31  15  19  ar  
 32  15  20  ar  
 33  16  21  ar  
 34  16  22  1   
 35  17  38  1   
 36  17  39  1   
 37  17  40  1   
 38  18  21  ar  
 39  18  41  1   
 40  19  23  ar  
 41  19  42  1   
 42  20  24  ar  
 43  20  43  1   
 44  21  44  1   
 45  22  45  1   
 46  22  46  1   
 47  22  47  1   
 48  23  25  ar  
 49  23  48  1   
 50  24  25  ar  
 51  24  49  1   
@<TRIPOS>SUBSTRUCTURE
  1 ****   3 GROUP 4 **** **** 0

# MOE 2024.06 (io_trps.svl 2023.06)
