@<TRIPOS>MOLECULE
NONAME
49 52 1 0 0 
SMALL
USER_CHARGES


@<TRIPOS>ATOM
  1 O       -0.0210     0.0650     0.7760 O.2   1 <1>  -0.5700 
  2 C        0.9590    -0.6260     0.6140 C.2   1 <1>   0.5690 
  3 N        2.2040    -0.0880     0.3110 N.am  1 <1>  -0.4770 
  4 C        0.8220    -2.1620     0.7570 C.3   1 <1>   0.1710 
  5 C        2.4360     1.2780    -0.0420 C.ar  1 <1>   0.1170 
  6 C        3.4220    -0.8910     0.6610 C.3   1 <1>   0.1400 
  7 N       -0.5420    -2.7380     0.9160 N.3   1 <1>  -0.8100 
  8 C        3.6800     1.8750     0.2160 C.ar  1 <1>   0.0820 
  9 C        1.4690     2.0760    -0.6540 C.ar  1 <1>  -0.1500 
 10 C        4.7380    -0.1980     0.2900 C.3   1 <1>   0.1200 
 11 C       -1.4570    -2.4450    -0.1960 C.3   1 <1>   0.1100 
 12 C       -0.5540    -4.1970     1.1000 C.3   1 <1>   0.1100 
 13 O        4.7110     1.1460     0.7070 O.3   1 <1>  -0.3630 
 14 C        3.9130     3.2120    -0.0520 C.ar  1 <1>  -0.1500 
 15 C        1.7040     3.4110    -0.9380 C.ar  1 <1>  -0.1500 
 16 C       -2.5790    -3.4610    -0.0180 C.3   1 <1>   0.2000 
 17 C       -1.8380    -4.7210     0.4280 C.3   1 <1>  -0.0800 
 18 C        2.9230     3.9850    -0.6280 C.ar  1 <1>  -0.1500 
 19 O       -3.3580    -3.0310     1.0370 O.3   1 <1>  -0.6800 
 20 C       -1.5380    -5.6370    -0.7730 C.3   1 <1>   0.0200 
 21 C       -0.7040    -6.8420    -0.3770 C.2   1 <1>  -0.0400 
 22 O       -1.1150    -7.6430     0.5700 O.3   1 <1>  -0.0190 
 23 C        0.4720    -7.3050    -0.8270 C.2   1 <1>  -0.1500 
 24 N       -0.2740    -8.6140     0.7810 N.2   1 <1>  -0.4100 
 25 C        0.6910    -8.4380    -0.0490 C.2   1 <1>   0.1080 
 26 C        1.8940    -9.3480    -0.1570 C.3   1 <1>  -0.0590 
 27 H        1.3920    -2.4530     1.6200 H     1 <1>   0.0800 
 28 H        1.2750    -2.6110    -0.1080 H     1 <1>   0.0800 
 29 H        3.4230    -1.0700     1.7220 H     1 <1>   0.0800 
 30 H        3.3930    -1.8400     0.1570 H     1 <1>   0.0800 
 31 H        0.5120     1.6630    -0.9120 H     1 <1>   0.1500 
 32 H        4.8870    -0.2120    -0.7760 H     1 <1>   0.0800 
 33 H        5.5730    -0.6780     0.7670 H     1 <1>   0.0800 
 34 H       -1.8280    -1.4350    -0.1540 H     1 <1>   0.0800 
 35 H       -0.9620    -2.6070    -1.1370 H     1 <1>   0.0800 
 36 H        0.3220    -4.6420     0.6590 H     1 <1>   0.0800 
 37 H       -0.5620    -4.4230     2.1530 H     1 <1>   0.0800 
 38 H        4.8720     3.6380     0.1830 H     1 <1>   0.1500 
 39 H        0.9310     4.0020    -1.3980 H     1 <1>   0.1500 
 40 H       -3.2050    -3.5870    -0.8850 H     1 <1>   0.0800 
 41 H       -2.4280    -5.2770     1.1360 H     1 <1>   0.0800 
 42 H        3.1020     5.0250    -0.8400 H     1 <1>   0.1500 
 43 H       -2.7360    -2.6660     1.7040 H     1 <1>   0.4000 
 44 H       -1.0160    -5.0880    -1.5360 H     1 <1>   0.0800 
 45 H       -2.4660    -5.9870    -1.1900 H     1 <1>   0.0800 
 46 H        1.1160    -6.9260    -1.5980 H     1 <1>   0.1500 
 47 H        1.9580    -9.7520    -1.1500 H     1 <1>   0.0800 
 48 H        1.8040   -10.1590     0.5430 H     1 <1>   0.0800 
 49 H        2.7900    -8.7970     0.0620 H     1 <1>   0.0800 
@<TRIPOS>BOND
  1   1   2  2   
  2   2   3  am  
  3   2   4  1   
  4   3   5  1   
  5   3   6  1   
  6   4   7  1   
  7   4  27  1   
  8   4  28  1   
  9   5   8  ar  
 10   5   9  ar  
 11   6  10  1   
 12   6  29  1   
 13   6  30  1   
 14   7  11  1   
 15   7  12  1   
 16   8  13  1   
 17   8  14  ar  
 18   9  15  ar  
 19   9  31  1   
 20  10  13  1   
 21  10  32  1   
 22  10  33  1   
 23  11  16  1   
 24  11  34  1   
 25  11  35  1   
 26  12  17  1   
 27  12  36  1   
 28  12  37  1   
 29  14  18  ar  
 30  14  38  1   
 31  15  18  ar  
 32  15  39  1   
 33  16  17  1   
 34  16  19  1   
 35  16  40  1   
 36  17  20  1   
 37  17  41  1   
 38  18  42  1   
 39  19  43  1   
 40  20  21  1   
 41  20  44  1   
 42  20  45  1   
 43  21  22  1   
 44  21  23  2   
 45  22  24  1   
 46  23  25  1   
 47  23  46  1   
 48  24  25  2   
 49  25  26  1   
 50  26  47  1   
 51  26  48  1   
 52  26  49  1   
@<TRIPOS>SUBSTRUCTURE
  1 ****   4 GROUP 4 **** **** 0

# MOE 2024.06 (io_trps.svl 2023.06)
