@<TRIPOS>MOLECULE
NONAME
47 48 1 0 0 
SMALL
USER_CHARGES


@<TRIPOS>ATOM
  1 O       -1.8250    -0.8400     1.9310 O.2   1 <1>  -0.5700 
  2 C       -1.0610    -1.3520     1.1450 C.2   1 <1>   0.5440 
  3 N       -0.0160    -0.5900     0.7460 N.am  1 <1>  -0.8000 
  4 C       -1.2490    -2.7110     0.6690 C.ar  1 <1>   0.0860 
  5 C       -1.9100    -3.6570     1.4510 C.ar  1 <1>  -0.1500 
  6 C       -0.7870    -3.1300    -0.5800 C.ar  1 <1>  -0.1500 
  7 C       -2.0970    -4.9560     1.0180 C.ar  1 <1>  -0.1500 
  8 C       -0.9710    -4.4280    -1.0230 C.ar  1 <1>  -0.1500 
  9 C       -1.6300    -5.3520    -0.2270 C.ar  1 <1>  -0.1430 
 10 C       -1.8500    -6.7730    -0.7200 C.3   1 <1>   0.4860 
 11 N       -3.2900    -7.0880    -0.7100 N.4   1 <1>  -0.9590 
 12 C       -3.6100    -8.5270    -1.0420 C.3   1 <1>   0.3430 
 13 C       -4.1800    -6.1240    -1.4090 C.3   1 <1>   0.3430 
 14 C       -5.1250    -8.7580    -1.2910 C.3   1 <1>   0.2000 
 15 C       -5.6360    -6.3180    -0.9360 C.3   1 <1>  -0.1600 
 16 O       -5.3730    -8.5570    -2.6490 O.3   1 <1>  -0.6800 
 17 C       -5.9580    -7.7690    -0.4380 C.3   1 <1>  -0.1060 
 18 C       -5.4220    -7.9970     0.9920 C.2   1 <1>   0.9060 
 19 C       -7.4920    -8.0420    -0.4240 C.3   1 <1>  -0.1600 
 20 O       -4.7610    -7.1070     1.5460 O.co2 1 <1>  -0.9000 
 21 O       -5.4410    -9.1410     1.4430 O.co2 1 <1>  -0.9000 
 22 C       -8.2350    -8.0990    -1.7730 C.3   1 <1>  -0.1600 
 23 C       -9.7470    -8.1890    -1.5500 C.3   1 <1>  -0.2400 
 24 H        0.0800     0.3430     1.1490 H     1 <1>   0.3700 
 25 H        0.7800    -0.9460     0.2210 H     1 <1>   0.3700 
 26 H       -2.2870    -3.3620     2.4170 H     1 <1>   0.1500 
 27 H       -0.2830    -2.4260    -1.2180 H     1 <1>   0.1500 
 28 H       -2.6190    -5.6480     1.6630 H     1 <1>   0.1500 
 29 H       -0.6000    -4.7080    -1.9950 H     1 <1>   0.1500 
 30 H       -1.3260    -7.4570    -0.0730 H     1 <1>   0.0800 
 31 H       -1.4620    -6.8780    -1.7190 H     1 <1>   0.0800 
 32 H       -3.6000    -6.9830     0.2920 H     1 <1>   0.4500 
 33 H       -3.0650    -8.8500    -1.9120 H     1 <1>   0.0800 
 34 H       -3.3150    -9.1410    -0.2060 H     1 <1>   0.0800 
 35 H       -3.8750    -5.1090    -1.2080 H     1 <1>   0.0800 
 36 H       -4.1240    -6.2990    -2.4700 H     1 <1>   0.0800 
 37 H       -5.3800    -9.7790    -1.0560 H     1 <1>   0.0800 
 38 H       -5.8480    -5.6130    -0.1500 H     1 <1>   0.0800 
 39 H       -6.2680    -6.0470    -1.7580 H     1 <1>   0.0800 
 40 H       -6.3360    -8.6360    -2.8040 H     1 <1>   0.4000 
 41 H       -7.6630    -8.9800     0.0800 H     1 <1>   0.0800 
 42 H       -7.9480    -7.2830     0.1890 H     1 <1>   0.0800 
 43 H       -8.0300    -7.2260    -2.3650 H     1 <1>   0.0800 
 44 H       -7.9320    -8.9720    -2.3220 H     1 <1>   0.0800 
 45 H      -10.1030    -7.3200    -1.0240 H     1 <1>   0.0800 
 46 H       -9.9910    -9.0640    -0.9730 H     1 <1>   0.0800 
 47 H      -10.2580    -8.2480    -2.4940 H     1 <1>   0.0800 
@<TRIPOS>BOND
  1   1   2  2   
  2   2   3  am  
  3   2   4  1   
  4   3  24  1   
  5   3  25  1   
  6   4   5  ar  
  7   4   6  ar  
  8   5   7  ar  
  9   5  26  1   
 10   6   8  ar  
 11   6  27  1   
 12   7   9  ar  
 13   7  28  1   
 14   8   9  ar  
 15   8  29  1   
 16   9  10  1   
 17  10  11  1   
 18  10  30  1   
 19  10  31  1   
 20  11  12  1   
 21  11  13  1   
 22  11  32  1   
 23  12  14  1   
 24  12  33  1   
 25  12  34  1   
 26  13  15  1   
 27  13  35  1   
 28  13  36  1   
 29  14  16  1   
 30  14  17  1   
 31  14  37  1   
 32  15  17  1   
 33  15  38  1   
 34  15  39  1   
 35  16  40  1   
 36  17  18  1   
 37  17  19  1   
 38  18  20  ar  
 39  18  21  ar  
 40  19  22  1   
 41  19  41  1   
 42  19  42  1   
 43  22  23  1   
 44  22  43  1   
 45  22  44  1   
 46  23  45  1   
 47  23  46  1   
 48  23  47  1   
@<TRIPOS>SUBSTRUCTURE
  1 ****  13 GROUP 4 **** **** 0

# MOE 2024.06 (io_trps.svl 2023.06)
