@<TRIPOS>MOLECULE
NONAME
46 48 1 0 0 
SMALL
USER_CHARGES


@<TRIPOS>ATOM
  1 O       -4.7440     2.2310     0.0130 O.2   1 <1>  -0.5700 
  2 C       -3.7730     1.5240     0.2060 C.2   1 <1>   0.5440 
  3 N       -3.8830     0.1680    -0.0110 N.am  1 <1>  -0.6600 
  4 C       -2.5410     2.1270     0.6660 C.ar  1 <1>   0.0860 
  5 C       -2.7030    -0.7560     0.1480 C.3   1 <1>   0.3640 
  6 C       -5.2250    -0.4190    -0.3090 C.3   1 <1>   0.1400 
  7 C       -1.6540     2.7490    -0.1960 C.ar  1 <1>  -0.1500 
  8 C       -2.1540     2.1040     1.9960 C.ar  1 <1>  -0.1500 
  9 C       -1.6440    -0.4080    -0.9030 C.ar  1 <1>  -0.1440 
 10 C       -3.0090    -2.2850     0.0710 C.3   1 <1>   0.2000 
 11 C       -5.1540    -1.8740    -0.7710 C.3   1 <1>   0.1200 
 12 C       -0.4660     3.2690     0.2800 C.ar  1 <1>   0.1660 
 13 C       -0.9470     2.6570     2.3810 C.ar  1 <1>   0.1660 
 14 C       -0.3210    -0.2330    -0.5200 C.ar  1 <1>  -0.1500 
 15 C       -1.9810    -0.2530    -2.2410 C.ar  1 <1>  -0.1500 
 16 O       -4.3750    -2.5990     0.1230 O.3   1 <1>  -0.5600 
 17 C       -2.3420    -3.0720     1.2090 C.3   1 <1>   0.1200 
 18 N       -0.0970     3.2310     1.5490 N.ar  1 <1>  -0.6200 
 19 C        0.5110     3.9230    -0.6730 C.3   1 <1>  -0.0970 
 20 C       -0.5220     2.6270     3.8340 C.3   1 <1>  -0.0970 
 21 C        0.6470     0.0870    -1.4550 C.ar  1 <1>  -0.1500 
 22 C       -1.0140     0.0660    -3.1790 C.ar  1 <1>  -0.1500 
 23 O       -0.9690    -2.8450     1.2440 O.3   1 <1>  -0.6800 
 24 C        0.3020     0.2360    -2.7860 C.ar  1 <1>  -0.1500 
 25 H       -2.2800    -0.5640     1.1190 H     1 <1>   0.0800 
 26 H       -5.8280    -0.3640     0.5810 H     1 <1>   0.0800 
 27 H       -5.7110     0.1690    -1.0680 H     1 <1>   0.0800 
 28 H       -1.8980     2.8050    -1.2410 H     1 <1>   0.1500 
 29 H       -2.8040     1.6500     2.7210 H     1 <1>   0.1500 
 30 H       -2.6440    -2.6730    -0.8640 H     1 <1>   0.0800 
 31 H       -4.7330    -1.9520    -1.7580 H     1 <1>   0.0800 
 32 H       -6.1390    -2.3060    -0.7790 H     1 <1>   0.0800 
 33 H       -0.0350    -0.3380     0.5140 H     1 <1>   0.1500 
 34 H       -3.0020    -0.3730    -2.5580 H     1 <1>   0.1500 
 35 H       -2.5040    -4.1280     1.0800 H     1 <1>   0.0800 
 36 H       -2.7470    -2.7620     2.1560 H     1 <1>   0.0800 
 37 H        0.1480     3.8910    -1.6830 H     1 <1>   0.0800 
 38 H        1.4530     3.4080    -0.6260 H     1 <1>   0.0800 
 39 H        0.6600     4.9470    -0.3850 H     1 <1>   0.0800 
 40 H       -1.2620     2.1460     4.4460 H     1 <1>   0.0800 
 41 H       -0.3780     3.6320     4.1840 H     1 <1>   0.0800 
 42 H        0.4060     2.0930     3.9240 H     1 <1>   0.0800 
 43 H        1.6680     0.2230    -1.1430 H     1 <1>   0.1500 
 44 H       -1.2860     0.1840    -4.2130 H     1 <1>   0.1500 
 45 H       -0.5330    -3.2020     0.4440 H     1 <1>   0.4000 
 46 H        1.0540     0.4840    -3.5140 H     1 <1>   0.1500 
@<TRIPOS>BOND
  1   1   2  2   
  2   2   3  am  
  3   2   4  1   
  4   3   5  1   
  5   3   6  1   
  6   4   7  ar  
  7   4   8  ar  
  8   5   9  1   
  9   5  10  1   
 10   5  25  1   
 11   6  11  1   
 12   6  26  1   
 13   6  27  1   
 14   7  12  ar  
 15   7  28  1   
 16   8  13  ar  
 17   8  29  1   
 18   9  14  ar  
 19   9  15  ar  
 20  10  16  1   
 21  10  17  1   
 22  10  30  1   
 23  11  16  1   
 24  11  31  1   
 25  11  32  1   
 26  12  18  ar  
 27  12  19  1   
 28  13  18  ar  
 29  13  20  1   
 30  14  21  ar  
 31  14  33  1   
 32  15  22  ar  
 33  15  34  1   
 34  17  23  1   
 35  17  35  1   
 36  17  36  1   
 37  19  37  1   
 38  19  38  1   
 39  19  39  1   
 40  20  40  1   
 41  20  41  1   
 42  20  42  1   
 43  21  24  ar  
 44  21  43  1   
 45  22  24  ar  
 46  22  44  1   
 47  23  45  1   
 48  24  46  1   
@<TRIPOS>SUBSTRUCTURE
  1 ****   9 GROUP 4 **** **** 0

# MOE 2024.06 (io_trps.svl 2023.06)
