@<TRIPOS>MOLECULE
NONAME
39 40 1 0 0 
SMALL
USER_CHARGES


@<TRIPOS>ATOM
  1 S        0.4300     0.1020     0.5560 S.o2  1 <1>   1.3330 
  2 O        0.0550     0.2700     1.9410 O.2   1 <1>  -0.6500 
  3 O        1.8300     0.0930     0.1930 O.2   1 <1>  -0.6500 
  4 N       -0.2760    -1.3270    -0.0290 N.am  1 <1>  -0.8490 
  5 C       -0.3940     1.3820    -0.3890 C.3   1 <1>  -0.0550 
  6 C        0.3510    -1.8290    -1.2570 C.3   1 <1>   0.1160 
  7 C       -0.3110    -2.3870     0.9830 C.3   1 <1>   0.1160 
  8 C        0.0200     2.8020     0.0340 C.3   1 <1>  -0.0800 
  9 C       -0.6850     3.8820    -0.7780 C.3   1 <1>   0.2000 
 10 C        1.5070     3.1090    -0.1560 C.3   1 <1>   0.2090 
 11 O       -1.9560     4.1010    -0.2700 O.3   1 <1>  -0.6800 
 12 C        0.2130     5.1120    -0.6610 C.3   1 <1>   0.2090 
 13 N        1.5830     4.5690    -0.4220 N.pl3 1 <1>  -0.8380 
 14 C        2.5870     5.3440     0.1370 C.ar  1 <1>   0.4100 
 15 N        2.2460     6.5450     0.5820 N.ar  1 <1>  -0.6200 
 16 C        3.8910     4.8560     0.2030 C.ar  1 <1>  -0.1500 
 17 C        3.2080     7.2910     1.1230 C.ar  1 <1>   0.3830 
 18 C        4.8890     5.6170     0.7600 C.ar  1 <1>  -0.1500 
 19 C        2.8660     8.5970     1.6220 C.1   1 <1>   0.4840 
 20 C        4.5260     6.8610     1.2280 C.ar  1 <1>  -0.1500 
 21 N        2.6440     9.6400     2.0360 N.1   1 <1>  -0.5570 
 22 H       -0.1850     1.2450    -1.4320 H     1 <1>   0.0800 
 23 H       -1.4540     1.2810    -0.2520 H     1 <1>   0.0800 
 24 H       -0.1930    -2.6810    -1.6280 H     1 <1>   0.0800 
 25 H        1.3720    -2.1200    -1.0670 H     1 <1>   0.0800 
 26 H        0.3460    -1.0660    -2.0160 H     1 <1>   0.0800 
 27 H       -0.7820    -3.2690     0.5850 H     1 <1>   0.0800 
 28 H       -0.8800    -2.0610     1.8380 H     1 <1>   0.0800 
 29 H        0.6880    -2.6310     1.3060 H     1 <1>   0.0800 
 30 H       -0.2000     2.9420     1.0790 H     1 <1>   0.0800 
 31 H       -0.7750     3.5990    -1.8130 H     1 <1>   0.0800 
 32 H        1.9030     2.5810    -1.0070 H     1 <1>   0.0800 
 33 H        2.0700     2.8410     0.7240 H     1 <1>   0.0800 
 34 H       -1.9040     4.3950     0.6610 H     1 <1>   0.4000 
 35 H       -0.0930     5.7200     0.1730 H     1 <1>   0.0800 
 36 H        0.1980     5.6930    -1.5670 H     1 <1>   0.0800 
 37 H        4.1100     3.8830    -0.1910 H     1 <1>   0.1500 
 38 H        5.9030     5.2610     0.8240 H     1 <1>   0.1500 
 39 H        5.2650     7.5020     1.6750 H     1 <1>   0.1500 
@<TRIPOS>BOND
  1   1   2  2   
  2   1   3  2   
  3   1   4  am  
  4   1   5  1   
  5   4   6  1   
  6   4   7  1   
  7   5   8  1   
  8   5  22  1   
  9   5  23  1   
 10   6  24  1   
 11   6  25  1   
 12   6  26  1   
 13   7  27  1   
 14   7  28  1   
 15   7  29  1   
 16   8   9  1   
 17   8  10  1   
 18   8  30  1   
 19   9  11  1   
 20   9  12  1   
 21   9  31  1   
 22  10  13  1   
 23  10  32  1   
 24  10  33  1   
 25  11  34  1   
 26  12  13  1   
 27  12  35  1   
 28  12  36  1   
 29  13  14  1   
 30  14  15  ar  
 31  14  16  ar  
 32  15  17  ar  
 33  16  18  ar  
 34  16  37  1   
 35  17  19  1   
 36  17  20  ar  
 37  18  20  ar  
 38  18  38  1   
 39  19  21  3   
 40  20  39  1   
@<TRIPOS>SUBSTRUCTURE
  1 ****  10 GROUP 4 **** **** 0

# MOE 2024.06 (io_trps.svl 2023.06)
