@<TRIPOS>MOLECULE
NONAME
53 55 1 0 0 
SMALL
USER_CHARGES


@<TRIPOS>ATOM
  1 O       -0.6390    -0.2370    -0.7300 O.3   1 <1>  -0.3630 
  2 C       -0.2740     1.0460    -0.4890 C.ar  1 <1>   0.0820 
  3 C       -1.9070    -0.7200    -0.3650 C.3   1 <1>   0.1200 
  4 C        1.0270     1.3930    -0.8160 C.ar  1 <1>  -0.1500 
  5 C       -1.1240     2.0060     0.0570 C.ar  1 <1>  -0.1500 
  6 C       -1.9440    -2.2080    -0.7250 C.3   1 <1>   0.3430 
  7 C        1.4850     2.6810    -0.6000 C.ar  1 <1>  -0.1500 
  8 C       -0.6630     3.2940     0.2710 C.ar  1 <1>  -0.1500 
  9 N       -3.2760    -2.8600    -0.4660 N.4   1 <1>  -0.9590 
 10 C        0.6390     3.6320    -0.0560 C.ar  1 <1>  -0.1500 
 11 C       -3.2200    -4.2500    -1.0600 C.3   1 <1>   0.3430 
 12 C       -3.6260    -2.8180     0.9870 C.3   1 <1>   0.3430 
 13 C       -3.6440    -5.4080    -0.1280 C.3   1 <1>   0.0000 
 14 C       -4.8800    -3.6310     1.3050 C.3   1 <1>  -0.1600 
 15 C       -4.9660    -4.9540     0.5320 C.3   1 <1>   0.2000 
 16 C       -3.9780    -6.6180    -1.0320 C.3   1 <1>   0.1200 
 17 C       -2.5440    -5.8300     0.9120 C.3   1 <1>  -0.0170 
 18 O       -5.4690    -5.9370     1.3620 O.3   1 <1>  -0.6800 
 19 O       -2.9350    -6.8420    -1.9180 O.3   1 <1>  -0.6800 
 20 C       -1.1930    -5.1200     0.8160 C.ar  1 <1>  -0.1430 
 21 C       -0.3700    -5.3130    -0.2850 C.ar  1 <1>  -0.1500 
 22 C       -0.7570    -4.2900     1.8400 C.ar  1 <1>  -0.1500 
 23 C        0.8350    -4.6410    -0.3900 C.ar  1 <1>  -0.1500 
 24 C        0.4480    -3.6170     1.7380 C.ar  1 <1>  -0.1500 
 25 C        1.2410    -3.7850     0.6180 C.ar  1 <1>  -0.1500 
 26 H       -2.0220    -0.5710     0.6940 H     1 <1>   0.0800 
 27 H       -2.6440    -0.1680    -0.9200 H     1 <1>   0.0800 
 28 H        1.6820     0.6530    -1.2390 H     1 <1>   0.1500 
 29 H       -2.1380     1.7800     0.3190 H     1 <1>   0.1500 
 30 H       -1.1790    -2.7160    -0.1610 H     1 <1>   0.0800 
 31 H       -1.7000    -2.3030    -1.7700 H     1 <1>   0.0800 
 32 H        2.4970     2.9440    -0.8560 H     1 <1>   0.1500 
 33 H       -1.3170     4.0380     0.6930 H     1 <1>   0.1500 
 34 H       -3.9940    -2.3370    -0.9860 H     1 <1>   0.4500 
 35 H        0.9940     4.6340     0.1120 H     1 <1>   0.1500 
 36 H       -3.8720    -4.2710    -1.9180 H     1 <1>   0.0800 
 37 H       -2.2330    -4.4540    -1.4360 H     1 <1>   0.0800 
 38 H       -2.8080    -3.2200     1.5540 H     1 <1>   0.0800 
 39 H       -3.7710    -1.7990     1.3070 H     1 <1>   0.0800 
 40 H       -5.7470    -3.0380     1.0700 H     1 <1>   0.0800 
 41 H       -4.8970    -3.8090     2.3660 H     1 <1>   0.0800 
 42 H       -5.7000    -4.8240    -0.2470 H     1 <1>   0.0800 
 43 H       -4.8660    -6.4370    -1.6160 H     1 <1>   0.0800 
 44 H       -4.1320    -7.5100    -0.4460 H     1 <1>   0.0800 
 45 H       -2.9160    -5.7000     1.9120 H     1 <1>   0.0800 
 46 H       -2.3470    -6.8850     0.8220 H     1 <1>   0.0800 
 47 H       -4.9380    -6.0530     2.1740 H     1 <1>   0.4000 
 48 H       -3.0720    -7.6800    -2.4110 H     1 <1>   0.4000 
 49 H       -0.6570    -5.9910    -1.0700 H     1 <1>   0.1500 
 50 H       -1.3430    -4.1630     2.7340 H     1 <1>   0.1500 
 51 H        1.4640    -4.7920    -1.2510 H     1 <1>   0.1500 
 52 H        0.7790    -2.9700     2.5330 H     1 <1>   0.1500 
 53 H        2.1800    -3.2630     0.5370 H     1 <1>   0.1500 
@<TRIPOS>BOND
  1   1   2  1   
  2   1   3  1   
  3   2   4  ar  
  4   2   5  ar  
  5   3   6  1   
  6   3  26  1   
  7   3  27  1   
  8   4   7  ar  
  9   4  28  1   
 10   5   8  ar  
 11   5  29  1   
 12   6   9  1   
 13   6  30  1   
 14   6  31  1   
 15   7  10  ar  
 16   7  32  1   
 17   8  10  ar  
 18   8  33  1   
 19   9  11  1   
 20   9  12  1   
 21   9  34  1   
 22  10  35  1   
 23  11  13  1   
 24  11  36  1   
 25  11  37  1   
 26  12  14  1   
 27  12  38  1   
 28  12  39  1   
 29  13  15  1   
 30  13  16  1   
 31  13  17  1   
 32  14  15  1   
 33  14  40  1   
 34  14  41  1   
 35  15  18  1   
 36  15  42  1   
 37  16  19  1   
 38  16  43  1   
 39  16  44  1   
 40  17  20  1   
 41  17  45  1   
 42  17  46  1   
 43  18  47  1   
 44  19  48  1   
 45  20  21  ar  
 46  20  22  ar  
 47  21  23  ar  
 48  21  49  1   
 49  22  24  ar  
 50  22  50  1   
 51  23  25  ar  
 52  23  51  1   
 53  24  25  ar  
 54  24  52  1   
 55  25  53  1   
@<TRIPOS>SUBSTRUCTURE
  1 ****   6 GROUP 4 **** **** 0

# MOE 2024.06 (io_trps.svl 2023.06)
