@<TRIPOS>MOLECULE
NONAME
53 55 1 0 0 
SMALL
USER_CHARGES


@<TRIPOS>ATOM
  1 O       -0.0240     0.8420    -0.2080 O.2   1 <1>  -0.5700 
  2 C       -0.0900     2.0440    -0.3070 C.2   1 <1>   0.5690 
  3 N       -0.9690     2.7940     0.4290 N.am  1 <1>  -0.6600 
  4 C        0.8330     2.7370    -1.3100 C.3   1 <1>   0.1810 
  5 C       -1.0420     4.2830     0.2690 C.3   1 <1>   0.3640 
  6 C       -1.8540     2.1970     1.4710 C.3   1 <1>   0.0600 
  7 O        1.0840     4.0780    -0.9720 O.3   1 <1>  -0.5600 
  8 C       -2.4860     4.7580     0.0410 C.ar  1 <1>  -0.1430 
  9 C       -0.0850     4.8620    -0.8050 C.3   1 <1>   0.2610 
 10 C       -3.3540     4.2390    -0.9250 C.ar  1 <1>  -0.1430 
 11 C       -2.9390     5.7820     0.8660 C.ar  1 <1>  -0.1500 
 12 C        0.2470     6.3220    -0.4610 C.2   1 <1>   0.5690 
 13 C       -4.6410     4.7480    -1.0300 C.ar  1 <1>  -0.1500 
 14 C       -2.9760     3.1200    -1.8900 C.3   1 <1>  -0.0960 
 15 C       -4.2220     6.2830     0.7500 C.ar  1 <1>  -0.1500 
 16 O       -0.3380     7.1670    -1.0990 O.2   1 <1>  -0.5700 
 17 N        1.1360     6.6860     0.5300 N.am  1 <1>  -0.6600 
 18 C       -5.0760     5.7630    -0.2000 C.ar  1 <1>  -0.1500 
 19 C        1.3860     8.1390     0.7900 C.3   1 <1>   0.3200 
 20 C        1.9220     5.7450     1.3810 C.3   1 <1>   0.1400 
 21 C        2.4830     8.7010    -0.1000 C.2   1 <1>  -0.0400 
 22 C        3.3610     5.6370     0.8830 C.3   1 <1>  -0.2400 
 23 O        3.0790     9.8180     0.2750 O.3   1 <1>  -0.2800 
 24 C        3.0020     8.2630    -1.2680 C.2   1 <1>  -0.1500 
 25 C        3.9850    10.1140    -0.6340 C.2   1 <1>  -0.0400 
 26 C        3.9900     9.1910    -1.6180 C.2   1 <1>  -0.1500 
 27 C        4.8200    11.3610    -0.4450 C.3   1 <1>  -0.0600 
 28 H        0.3960     2.7050    -2.2910 H     1 <1>   0.0800 
 29 H        1.7780     2.2260    -1.3340 H     1 <1>   0.0800 
 30 H       -0.7250     4.6900     1.2120 H     1 <1>   0.0800 
 31 H       -1.6880     2.6830     2.4160 H     1 <1>   0.0800 
 32 H       -1.6520     1.1460     1.5860 H     1 <1>   0.0800 
 33 H       -2.8860     2.3170     1.1900 H     1 <1>   0.0800 
 34 H       -0.5890     4.8740    -1.7530 H     1 <1>   0.0800 
 35 H       -2.2930     6.2120     1.6110 H     1 <1>   0.1500 
 36 H       -5.3220     4.3560    -1.7650 H     1 <1>   0.1500 
 37 H       -3.6990     3.0330    -2.6810 H     1 <1>   0.0800 
 38 H       -2.9420     2.1790    -1.3700 H     1 <1>   0.0800 
 39 H       -2.0230     3.3050    -2.3440 H     1 <1>   0.0800 
 40 H       -4.5530     7.0780     1.3950 H     1 <1>   0.1500 
 41 H       -6.0770     6.1480    -0.2960 H     1 <1>   0.1500 
 42 H        0.4860     8.7060     0.6290 H     1 <1>   0.0800 
 43 H        1.6720     8.2720     1.8180 H     1 <1>   0.0800 
 44 H        1.9170     6.0910     2.4000 H     1 <1>   0.0800 
 45 H        1.4800     4.7650     1.3740 H     1 <1>   0.0800 
 46 H        3.8770     6.5730     0.9950 H     1 <1>   0.0800 
 47 H        3.3760     5.3420    -0.1510 H     1 <1>   0.0800 
 48 H        3.8860     4.8940     1.4550 H     1 <1>   0.0800 
 49 H        2.7290     7.3890    -1.8320 H     1 <1>   0.1500 
 50 H        4.6040     9.1440    -2.4990 H     1 <1>   0.1500 
 51 H        5.5110    11.4720    -1.2600 H     1 <1>   0.0800 
 52 H        5.3700    11.2910     0.4760 H     1 <1>   0.0800 
 53 H        4.1790    12.2220    -0.4060 H     1 <1>   0.0800 
@<TRIPOS>BOND
  1   1   2  2   
  2   2   3  am  
  3   2   4  1   
  4   3   5  1   
  5   3   6  1   
  6   4   7  1   
  7   4  28  1   
  8   4  29  1   
  9   5   8  1   
 10   5   9  1   
 11   5  30  1   
 12   6  31  1   
 13   6  32  1   
 14   6  33  1   
 15   7   9  1   
 16   8  10  ar  
 17   8  11  ar  
 18   9  12  1   
 19   9  34  1   
 20  10  13  ar  
 21  10  14  1   
 22  11  15  ar  
 23  11  35  1   
 24  12  16  2   
 25  12  17  am  
 26  13  18  ar  
 27  13  36  1   
 28  14  37  1   
 29  14  38  1   
 30  14  39  1   
 31  15  18  ar  
 32  15  40  1   
 33  17  19  1   
 34  17  20  1   
 35  18  41  1   
 36  19  21  1   
 37  19  42  1   
 38  19  43  1   
 39  20  22  1   
 40  20  44  1   
 41  20  45  1   
 42  21  23  1   
 43  21  24  2   
 44  22  46  1   
 45  22  47  1   
 46  22  48  1   
 47  23  25  1   
 48  24  26  1   
 49  24  49  1   
 50  25  26  2   
 51  25  27  1   
 52  26  50  1   
 53  27  51  1   
 54  27  52  1   
 55  27  53  1   
@<TRIPOS>SUBSTRUCTURE
  1 ****  12 GROUP 4 **** **** 0

# MOE 2024.06 (io_trps.svl 2023.06)
