@<TRIPOS>MOLECULE
NONAME
52 55 1 0 0 
SMALL
USER_CHARGES


@<TRIPOS>ATOM
  1 O       -1.5160     2.2820    -2.4450 O.co2 1 <1>  -0.9000 
  2 C       -0.7240     2.1590    -1.4950 C.2   1 <1>   0.9060 
  3 O        0.4700     1.8830    -1.6790 O.co2 1 <1>  -0.9000 
  4 C       -1.2440     2.2000    -0.0320 C.3   1 <1>   0.2280 
  5 N       -2.4820     1.3960     0.1850 N.3   1 <1>  -0.6890 
  6 C       -1.5400     3.6140     0.4680 C.ar  1 <1>  -0.1440 
  7 C       -2.6770     0.8530     1.5500 C.3   1 <1>   0.2100 
  8 C       -2.3210    -0.0130    -0.2670 C.3   1 <1>   0.2100 
  9 C       -2.5660     4.3460    -0.1080 C.ar  1 <1>  -0.1500 
 10 C       -0.8090     4.1760     1.5030 C.ar  1 <1>  -0.1500 
 11 C       -3.4040    -0.3140     0.8080 C.3   1 <1>   0.4720 
 12 C       -2.8980     5.6210     0.3360 C.ar  1 <1>   0.0000 
 13 C       -1.1140     5.4480     1.9560 C.ar  1 <1>  -0.1500 
 14 N       -4.7830     0.0650     0.3370 N.4   1 <1>  -0.9280 
 15 C       -3.9890     6.3520    -0.2730 C.ar  1 <1>   0.0000 
 16 C       -2.1490     6.1600     1.3780 C.ar  1 <1>  -0.1500 
 17 C       -5.7540     0.2350     1.4470 C.3   1 <1>   0.3430 
 18 C       -5.2740    -0.7980    -0.7680 C.3   1 <1>   0.3430 
 19 C       -4.0770     6.4830    -1.6560 C.ar  1 <1>  -0.1500 
 20 C       -4.9880     6.9350     0.5010 C.ar  1 <1>  -0.1500 
 21 C       -7.0530     0.8340     0.9030 C.3   1 <1>  -0.1600 
 22 C       -6.5690    -0.2130    -1.3370 C.3   1 <1>  -0.1600 
 23 C       -5.1230     7.1680    -2.2460 C.ar  1 <1>  -0.1500 
 24 C       -6.0380     7.6220    -0.0820 C.ar  1 <1>  -0.1500 
 25 C       -7.6300    -0.0010    -0.2480 C.3   1 <1>  -0.1600 
 26 C       -6.1080     7.7390    -1.4590 C.ar  1 <1>  -0.1500 
 27 H       -0.4520     1.7860     0.5620 H     1 <1>   0.0800 
 28 H       -3.3090     1.4760     2.1570 H     1 <1>   0.0000 
 29 H       -1.7510     0.5660     2.0230 H     1 <1>   0.0000 
 30 H       -1.3490    -0.4180    -0.0360 H     1 <1>   0.0000 
 31 H       -2.6280    -0.1590    -1.2870 H     1 <1>   0.0000 
 32 H       -3.1180     3.9090    -0.9230 H     1 <1>   0.1500 
 33 H       -0.0010     3.6270     1.9530 H     1 <1>   0.1500 
 34 H       -3.3480    -1.2800     1.2750 H     1 <1>   0.0000 
 35 H       -0.5410     5.8830     2.7550 H     1 <1>   0.1500 
 36 H       -4.5920     1.0010    -0.0720 H     1 <1>   0.4500 
 37 H       -2.3760     7.1500     1.7300 H     1 <1>   0.1500 
 38 H       -5.3470     0.8910     2.1990 H     1 <1>   0.0800 
 39 H       -5.9590    -0.7210     1.9000 H     1 <1>   0.0800 
 40 H       -5.4570    -1.7940    -0.3990 H     1 <1>   0.0800 
 41 H       -4.5370    -0.8530    -1.5530 H     1 <1>   0.0800 
 42 H       -3.3120     6.0400    -2.2730 H     1 <1>   0.1500 
 43 H       -4.9420     6.8430     1.5710 H     1 <1>   0.1500 
 44 H       -6.8630     1.8390     0.5660 H     1 <1>   0.0800 
 45 H       -7.7750     0.8930     1.6990 H     1 <1>   0.0800 
 46 H       -6.9550    -0.8780    -2.0900 H     1 <1>   0.0800 
 47 H       -6.3470     0.7230    -1.8200 H     1 <1>   0.0800 
 48 H       -5.1700     7.2550    -3.3180 H     1 <1>   0.1500 
 49 H       -6.8010     8.0640     0.5340 H     1 <1>   0.1500 
 50 H       -8.4880     0.4990    -0.6670 H     1 <1>   0.0800 
 51 H       -7.9570    -0.9560     0.1280 H     1 <1>   0.0800 
 52 H       -6.9230     8.2720    -1.9160 H     1 <1>   0.1500 
@<TRIPOS>BOND
  1   1   2  ar  
  2   2   3  ar  
  3   2   4  1   
  4   4   5  1   
  5   4   6  1   
  6   4  27  1   
  7   5   7  1   
  8   5   8  1   
  9   6   9  ar  
 10   6  10  ar  
 11   7  11  1   
 12   7  28  1   
 13   7  29  1   
 14   8  11  1   
 15   8  30  1   
 16   8  31  1   
 17   9  12  ar  
 18   9  32  1   
 19  10  13  ar  
 20  10  33  1   
 21  11  14  1   
 22  11  34  1   
 23  12  15  1   
 24  12  16  ar  
 25  13  16  ar  
 26  13  35  1   
 27  14  17  1   
 28  14  18  1   
 29  14  36  1   
 30  15  19  ar  
 31  15  20  ar  
 32  16  37  1   
 33  17  21  1   
 34  17  38  1   
 35  17  39  1   
 36  18  22  1   
 37  18  40  1   
 38  18  41  1   
 39  19  23  ar  
 40  19  42  1   
 41  20  24  ar  
 42  20  43  1   
 43  21  25  1   
 44  21  44  1   
 45  21  45  1   
 46  22  25  1   
 47  22  46  1   
 48  22  47  1   
 49  23  26  ar  
 50  23  48  1   
 51  24  26  ar  
 52  24  49  1   
 53  25  50  1   
 54  25  51  1   
 55  26  52  1   
@<TRIPOS>SUBSTRUCTURE
  1 ****   9 GROUP 4 **** **** 0

# MOE 2024.06 (io_trps.svl 2023.06)
