@<TRIPOS>MOLECULE
NONAME
50 52 1 0 0 
SMALL
USER_CHARGES


@<TRIPOS>ATOM
  1 O        4.4470     0.4260     1.1070 O.2   1 <1>  -0.5700 
  2 C        3.6020    -0.2070     0.5040 C.2   1 <1>   0.5440 
  3 N        3.0780     0.3950    -0.6130 N.am  1 <1>  -0.6600 
  4 C        3.2640    -1.5700     0.8590 C.ar  1 <1>   0.0860 
  5 C        3.5190    -0.0650    -1.9650 C.3   1 <1>   0.1400 
  6 C        2.5000     1.7700    -0.5560 C.3   1 <1>   0.1400 
  7 C        4.2340    -2.5530     1.0380 C.ar  1 <1>   0.1660 
  8 C        1.9490    -1.9930     1.0240 C.ar  1 <1>   0.1660 
  9 C        4.9920     0.3220    -2.2380 C.3   1 <1>   0.3430 
 10 C        3.5660     2.8760    -0.6040 C.3   1 <1>  -0.1600 
 11 N        3.9340    -3.8040     1.3010 N.ar  1 <1>  -0.6200 
 12 C        5.7240    -2.2630     0.9430 C.3   1 <1>  -0.0960 
 13 N        1.6340    -3.2420     1.2830 N.ar  1 <1>  -0.6200 
 14 C        0.7650    -1.0450     0.9290 C.3   1 <1>  -0.0970 
 15 N        5.4260     1.5010    -1.4190 N.4   1 <1>  -0.9590 
 16 C        4.6280     2.7250    -1.6940 C.3   1 <1>   0.3430 
 17 C        2.6470    -4.0790     1.4080 C.ar  1 <1>   0.4700 
 18 C        6.8960     1.7250    -1.4360 C.3   1 <1>   0.4860 
 19 C        7.2560     2.7820    -0.4050 C.ar  1 <1>  -0.1440 
 20 C        7.1100     2.5250     0.9500 C.ar  1 <1>  -0.1500 
 21 C        7.7350     4.0210    -0.8080 C.ar  1 <1>  -0.1500 
 22 C        7.4280     3.4950     1.8840 C.ar  1 <1>  -0.1500 
 23 C        8.0520     4.9860     0.1320 C.ar  1 <1>  -0.1500 
 24 C        7.9020     4.7410     1.4920 C.ar  1 <1>   0.0730 
 25 C        8.2290     5.7460     2.4640 C.1   1 <1>   0.4840 
 26 N        8.4850     6.5480     3.2330 N.1   1 <1>  -0.5570 
 27 H        2.8870     0.3740    -2.7180 H     1 <1>   0.0800 
 28 H        3.4090    -1.1340    -2.0420 H     1 <1>   0.0800 
 29 H        1.9360     1.8740     0.3570 H     1 <1>   0.0800 
 30 H        1.8080     1.8940    -1.3730 H     1 <1>   0.0800 
 31 H        5.1250     0.5210    -3.2890 H     1 <1>   0.0800 
 32 H        5.6080    -0.5250    -1.9880 H     1 <1>   0.0800 
 33 H        4.0490     2.9500     0.3550 H     1 <1>   0.0800 
 34 H        3.0600     3.8130    -0.7560 H     1 <1>   0.0800 
 35 H        5.9450    -1.6630     0.0830 H     1 <1>   0.0800 
 36 H        6.2810    -3.1810     0.8670 H     1 <1>   0.0800 
 37 H        6.0450    -1.7470     1.8300 H     1 <1>   0.0800 
 38 H        0.9820    -0.1150     1.4190 H     1 <1>   0.0800 
 39 H       -0.0970    -1.4760     1.4080 H     1 <1>   0.0800 
 40 H        0.5220    -0.8630    -0.1020 H     1 <1>   0.0800 
 41 H        5.1760     1.2570    -0.4350 H     1 <1>   0.4500 
 42 H        5.2650     3.5950    -1.6750 H     1 <1>   0.0800 
 43 H        4.1650     2.6680    -2.6650 H     1 <1>   0.0800 
 44 H        2.3950    -5.1050     1.6240 H     1 <1>   0.1500 
 45 H        7.2110     2.0460    -2.4160 H     1 <1>   0.0800 
 46 H        7.4110     0.8100    -1.1940 H     1 <1>   0.0800 
 47 H        6.7500     1.5710     1.3000 H     1 <1>   0.1500 
 48 H        7.8700     4.2500    -1.8530 H     1 <1>   0.1500 
 49 H        7.3070     3.2800     2.9340 H     1 <1>   0.1500 
 50 H        8.4230     5.9450    -0.1930 H     1 <1>   0.1500 
@<TRIPOS>BOND
  1   1   2  2   
  2   2   3  am  
  3   2   4  1   
  4   3   5  1   
  5   3   6  1   
  6   4   7  ar  
  7   4   8  ar  
  8   5   9  1   
  9   5  27  1   
 10   5  28  1   
 11   6  10  1   
 12   6  29  1   
 13   6  30  1   
 14   7  11  ar  
 15   7  12  1   
 16   8  13  ar  
 17   8  14  1   
 18   9  15  1   
 19   9  31  1   
 20   9  32  1   
 21  10  16  1   
 22  10  33  1   
 23  10  34  1   
 24  11  17  ar  
 25  12  35  1   
 26  12  36  1   
 27  12  37  1   
 28  13  17  ar  
 29  14  38  1   
 30  14  39  1   
 31  14  40  1   
 32  15  16  1   
 33  15  18  1   
 34  15  41  1   
 35  16  42  1   
 36  16  43  1   
 37  17  44  1   
 38  18  19  1   
 39  18  45  1   
 40  18  46  1   
 41  19  20  ar  
 42  19  21  ar  
 43  20  22  ar  
 44  20  47  1   
 45  21  23  ar  
 46  21  48  1   
 47  22  24  ar  
 48  22  49  1   
 49  23  24  ar  
 50  23  50  1   
 51  24  25  1   
 52  25  26  3   
@<TRIPOS>SUBSTRUCTURE
  1 ****   1 GROUP 4 **** **** 0

# MOE 2024.06 (io_trps.svl 2023.06)
