@<TRIPOS>MOLECULE
NONAME
61 64 1 0 0 
SMALL
USER_CHARGES


@<TRIPOS>ATOM
  1 O        0.2470    -0.3200    -1.7510 O.2   1 <1>  -0.5700 
  2 C        1.0790    -0.8280    -1.0130 C.2   1 <1>   0.6300 
  3 N        1.9850     0.0520    -0.4090 N.am  1 <1>  -0.6600 
  4 C        1.0610    -2.2930    -0.8620 C.2   1 <1>   0.4360 
  5 C        1.9650     1.5110    -0.7580 C.3   1 <1>   0.2200 
  6 C        2.9290    -0.3530     0.6880 C.3   1 <1>   0.1400 
  7 N        1.4680    -2.9060     0.2270 N.2   1 <1>  -0.5760 
  8 C        0.5650    -3.0690    -1.9670 C.2   1 <1>  -0.1360 
  9 C        3.3640     2.0670    -1.0490 C.3   1 <1>  -0.1600 
 10 C        1.2680     2.3090     0.3470 C.3   1 <1>  -0.1600 
 11 C        4.1970    -1.0050     0.1250 C.3   1 <1>  -0.0160 
 12 C        1.4080    -4.2760     0.2600 C.2   1 <1>  -0.0260 
 13 C        0.5060    -4.4260    -1.9330 C.2   1 <1>  -0.1690 
 14 C        3.2910     3.5560    -1.3670 C.3   1 <1>   0.3430 
 15 C        1.2480     3.7940     0.0010 C.3   1 <1>   0.3430 
 16 C        5.3380    -0.8490     1.1130 C.ar  1 <1>   0.1660 
 17 N        0.9450    -5.0520    -0.7770 N.pl3 1 <1>   0.6010 
 18 C        1.7600    -5.1480     1.2400 C.2   1 <1>  -0.1500 
 19 C       -0.0120    -5.2910    -3.0750 C.3   1 <1>  -0.1020 
 20 N        2.6410     4.2790    -0.2320 N.4   1 <1>  -0.9590 
 21 N        5.8240     0.3770     1.2560 N.ar  1 <1>  -0.6200 
 22 C        5.8050    -1.9590     1.8010 C.ar  1 <1>  -0.1500 
 23 N        1.0020    -6.3670    -0.4800 N.2   1 <1>  -0.7070 
 24 C        1.4890    -6.4040     0.7280 C.2   1 <1>   0.1080 
 25 C        2.6530     5.7530    -0.4240 C.3   1 <1>   0.3430 
 26 C        6.8250     0.4930     2.1170 C.ar  1 <1>   0.1600 
 27 C        6.8430    -1.8180     2.6970 C.ar  1 <1>  -0.1500 
 28 C        1.7140    -7.7110     1.4520 C.3   1 <1>  -0.0590 
 29 C        4.0670     6.2860    -0.2250 C.3   1 <1>  -0.2400 
 30 C        7.3620    -0.5510     2.8500 C.ar  1 <1>  -0.1500 
 31 H        1.3950     1.6520    -1.6620 H     1 <1>   0.0800 
 32 H        2.4480    -1.0130     1.3870 H     1 <1>   0.0800 
 33 H        3.2080     0.5130     1.2580 H     1 <1>   0.0800 
 34 H        0.2350    -2.5310    -2.8380 H     1 <1>   0.1500 
 35 H        3.7800     1.5530    -1.8970 H     1 <1>   0.0800 
 36 H        4.0300     1.9360    -0.2170 H     1 <1>   0.0800 
 37 H        1.7570     2.1750     1.2940 H     1 <1>   0.0800 
 38 H        0.2550     1.9610     0.4410 H     1 <1>   0.0800 
 39 H        4.4880    -0.5350    -0.7950 H     1 <1>   0.0800 
 40 H        4.0180    -2.0450    -0.0740 H     1 <1>   0.0800 
 41 H        2.7240     3.7060    -2.2720 H     1 <1>   0.0800 
 42 H        4.2900     3.9300    -1.5270 H     1 <1>   0.0800 
 43 H        0.7960     4.3420     0.8120 H     1 <1>   0.0800 
 44 H        0.6530     3.9490    -0.8860 H     1 <1>   0.0800 
 45 H        2.1620    -4.9110     2.2070 H     1 <1>   0.1500 
 46 H       -0.8510    -5.8760    -2.7400 H     1 <1>   0.0800 
 47 H        0.7600    -5.9630    -3.4050 H     1 <1>   0.0800 
 48 H       -0.3240    -4.6860    -3.9070 H     1 <1>   0.0800 
 49 H        3.1870     4.0710     0.6160 H     1 <1>   0.4500 
 50 H        5.3640    -2.9260     1.6420 H     1 <1>   0.1500 
 51 H        2.0040     6.2180     0.3010 H     1 <1>   0.0800 
 52 H        2.2930     6.0060    -1.4090 H     1 <1>   0.0800 
 53 H        7.2450     1.4760     2.2480 H     1 <1>   0.1500 
 54 H        7.2310    -2.6580     3.2480 H     1 <1>   0.1500 
 55 H        2.1270    -7.5350     2.4280 H     1 <1>   0.0800 
 56 H        2.3920    -8.3230     0.8860 H     1 <1>   0.0800 
 57 H        0.7790    -8.2300     1.5530 H     1 <1>   0.0800 
 58 H        4.4440     6.0210     0.7470 H     1 <1>   0.0800 
 59 H        4.0490     7.3600    -0.2910 H     1 <1>   0.0800 
 60 H        4.7370     5.9270    -0.9850 H     1 <1>   0.0800 
 61 H        8.1750    -0.3720     3.5300 H     1 <1>   0.1500 
@<TRIPOS>BOND
  1   1   2  2   
  2   2   3  am  
  3   2   4  1   
  4   3   5  1   
  5   3   6  1   
  6   4   7  2   
  7   4   8  1   
  8   5   9  1   
  9   5  10  1   
 10   5  31  1   
 11   6  11  1   
 12   6  32  1   
 13   6  33  1   
 14   7  12  1   
 15   8  13  2   
 16   8  34  1   
 17   9  14  1   
 18   9  35  1   
 19   9  36  1   
 20  10  15  1   
 21  10  37  1   
 22  10  38  1   
 23  11  16  1   
 24  11  39  1   
 25  11  40  1   
 26  12  17  1   
 27  12  18  2   
 28  13  17  1   
 29  13  19  1   
 30  14  20  1   
 31  14  41  1   
 32  14  42  1   
 33  15  20  1   
 34  15  43  1   
 35  15  44  1   
 36  16  21  ar  
 37  16  22  ar  
 38  17  23  1   
 39  18  24  1   
 40  18  45  1   
 41  19  46  1   
 42  19  47  1   
 43  19  48  1   
 44  20  25  1   
 45  20  49  1   
 46  21  26  ar  
 47  22  27  ar  
 48  22  50  1   
 49  23  24  2   
 50  24  28  1   
 51  25  29  1   
 52  25  51  1   
 53  25  52  1   
 54  26  30  ar  
 55  26  53  1   
 56  27  30  ar  
 57  27  54  1   
 58  28  55  1   
 59  28  56  1   
 60  28  57  1   
 61  29  58  1   
 62  29  59  1   
 63  29  60  1   
 64  30  61  1   
@<TRIPOS>SUBSTRUCTURE
  1 ****   6 GROUP 4 **** **** 0

# MOE 2024.06 (io_trps.svl 2023.06)
