@<TRIPOS>MOLECULE
NONAME
44 46 1 0 0 
SMALL
USER_CHARGES


@<TRIPOS>ATOM
  1 F       -0.0270    -3.7320    -1.4410 F     1 <1>  -0.1900 
  2 C       -1.1640    -3.3980    -0.8920 C.ar  1 <1>   0.1900 
  3 C       -1.7930    -4.2680    -0.0100 C.ar  1 <1>  -0.1440 
  4 C       -1.6710    -2.1610    -1.2330 C.ar  1 <1>  -0.1500 
  5 C       -3.0040    -3.8360     0.5610 C.ar  1 <1>  -0.1440 
  6 C       -1.0890    -5.6090     0.2650 C.3   1 <1>   1.1640 
  7 C       -2.8600    -1.7520    -0.6650 C.ar  1 <1>  -0.1500 
  8 C       -3.5120    -2.5840     0.2260 C.ar  1 <1>  -0.1500 
  9 C       -3.8260    -4.6410     1.5660 C.3   1 <1>   0.4860 
 10 F       -0.7840    -6.2740    -0.8410 F     1 <1>  -0.3400 
 11 F        0.0330    -5.4590     0.9510 F     1 <1>  -0.3400 
 12 F       -1.8330    -6.4470     0.9770 F     1 <1>  -0.3400 
 13 N       -4.6700    -5.6360     0.8570 N.4   1 <1>  -0.9590 
 14 C       -5.6150    -5.0500    -0.1470 C.3   1 <1>   0.3430 
 15 C       -5.4820    -6.4830     1.7680 C.3   1 <1>   0.3430 
 16 C       -6.9560    -5.7700     0.0330 C.3   1 <1>   0.2000 
 17 C       -6.6620    -6.9740     0.9300 C.3   1 <1>  -0.0800 
 18 O       -7.7900    -4.9160     0.7440 O.3   1 <1>  -0.6800 
 19 C       -6.3730    -8.2820     0.1520 C.3   1 <1>  -0.0160 
 20 C       -4.9630    -8.4490    -0.4060 C.ar  1 <1>   0.1670 
 21 N       -4.5850    -7.5990    -1.3500 N.ar  1 <1>  -0.6200 
 22 C       -4.1590    -9.4720     0.0770 C.ar  1 <1>  -0.1500 
 23 C       -3.3800    -7.8060    -1.8650 C.ar  1 <1>   0.1600 
 24 C       -2.8980    -9.6570    -0.4470 C.ar  1 <1>  -0.1500 
 25 C       -2.5110    -8.7990    -1.4520 C.ar  1 <1>  -0.1500 
 26 H       -1.1400    -1.5300    -1.9250 H     1 <1>   0.1500 
 27 H       -3.2710    -0.7860    -0.9130 H     1 <1>   0.1500 
 28 H       -4.4330    -2.2290     0.6630 H     1 <1>   0.1500 
 29 H       -4.4590    -3.9710     2.1260 H     1 <1>   0.0800 
 30 H       -3.1740    -5.1370     2.2660 H     1 <1>   0.0800 
 31 H       -4.0760    -6.2870     0.3090 H     1 <1>   0.4500 
 32 H       -5.7520    -3.9920     0.0030 H     1 <1>   0.0800 
 33 H       -5.2370    -5.2210    -1.1420 H     1 <1>   0.0800 
 34 H       -4.9060    -7.3010     2.1690 H     1 <1>   0.0800 
 35 H       -5.8610    -5.8790     2.5770 H     1 <1>   0.0800 
 36 H       -7.4240    -6.0120    -0.9070 H     1 <1>   0.0800 
 37 H       -7.5050    -7.1690     1.5710 H     1 <1>   0.0800 
 38 H       -8.7250    -5.2100     0.6950 H     1 <1>   0.4000 
 39 H       -7.0720    -8.3770    -0.6620 H     1 <1>   0.0800 
 40 H       -6.5720    -9.1080     0.8120 H     1 <1>   0.0800 
 41 H       -4.5080   -10.1350     0.8480 H     1 <1>   0.1500 
 42 H       -3.0620    -7.1510    -2.6610 H     1 <1>   0.1500 
 43 H       -2.2480   -10.4410    -0.0970 H     1 <1>   0.1500 
 44 H       -1.5440    -8.9000    -1.9140 H     1 <1>   0.1500 
@<TRIPOS>BOND
  1   1   2  1   
  2   2   3  ar  
  3   2   4  ar  
  4   3   5  ar  
  5   3   6  1   
  6   4   7  ar  
  7   4  26  1   
  8   5   8  ar  
  9   5   9  1   
 10   6  10  1   
 11   6  11  1   
 12   6  12  1   
 13   7   8  ar  
 14   7  27  1   
 15   8  28  1   
 16   9  13  1   
 17   9  29  1   
 18   9  30  1   
 19  13  14  1   
 20  13  15  1   
 21  13  31  1   
 22  14  16  1   
 23  14  32  1   
 24  14  33  1   
 25  15  17  1   
 26  15  34  1   
 27  15  35  1   
 28  16  17  1   
 29  16  18  1   
 30  16  36  1   
 31  17  19  1   
 32  17  37  1   
 33  18  38  1   
 34  19  20  1   
 35  19  39  1   
 36  19  40  1   
 37  20  21  ar  
 38  20  22  ar  
 39  21  23  ar  
 40  22  24  ar  
 41  22  41  1   
 42  23  25  ar  
 43  23  42  1   
 44  24  25  ar  
 45  24  43  1   
 46  25  44  1   
@<TRIPOS>SUBSTRUCTURE
  1 ****  13 GROUP 4 **** **** 0

# MOE 2024.06 (io_trps.svl 2023.06)
