@<TRIPOS>MOLECULE
NONAME
48 51 1 0 0 
SMALL
USER_CHARGES


@<TRIPOS>ATOM
  1 O       -2.7680     1.1750     2.7350 O.2   1 <1>  -0.5700 
  2 C       -2.6770     1.4500     1.5600 C.2   1 <1>   0.6300 
  3 N       -3.0900     0.5700     0.5960 N.am  1 <1>  -0.6600 
  4 C       -2.0880     2.8110     1.1600 C.3   1 <1>   0.0320 
  5 C       -2.9770     0.7640    -0.8680 C.3   1 <1>   0.1400 
  6 C       -3.5260    -0.8130     0.9070 C.3   1 <1>   0.1400 
  7 C       -0.7140     2.6830     0.5090 C.ar  1 <1>  -0.0320 
  8 C       -2.2780     3.9910     2.0740 C.3   1 <1>  -0.2000 
  9 C       -3.0250     3.9290     0.7820 C.3   1 <1>  -0.2000 
 10 C       -3.7510    -0.4090    -1.4650 C.3   1 <1>   0.2000 
 11 C       -3.5780    -1.5400    -0.4470 C.3   1 <1>  -0.0800 
 12 C       -0.4820     3.0860    -0.7980 C.ar  1 <1>  -0.1500 
 13 C        0.3280     2.1330     1.2370 C.ar  1 <1>  -0.1500 
 14 O       -5.0940    -0.0710    -1.5050 O.3   1 <1>  -0.6800 
 15 C       -2.2860    -2.3340    -0.7280 C.3   1 <1>  -0.0170 
 16 C        0.7710     2.9370    -1.3670 C.ar  1 <1>  -0.1500 
 17 C        1.5820     1.9840     0.6700 C.ar  1 <1>  -0.1500 
 18 C       -2.1560    -3.5510     0.1750 C.ar  1 <1>   0.1670 
 19 C        1.8090     2.3830    -0.6370 C.ar  1 <1>  -0.1440 
 20 N       -1.4100    -3.4110     1.2570 N.ar  1 <1>  -0.6200 
 21 C       -2.8080    -4.7370    -0.1610 C.ar  1 <1>   0.1600 
 22 C        3.1850     2.2200    -1.2560 C.3   1 <1>  -0.0970 
 23 C       -1.3610    -4.5200     1.9770 C.ar  1 <1>   0.1600 
 24 N       -2.7610    -5.8480     0.5570 N.ar  1 <1>  -0.6200 
 25 C       -2.0150    -5.6980     1.6380 C.ar  1 <1>   0.1600 
 26 H       -3.3790     1.7110    -1.1820 H     1 <1>   0.0800 
 27 H       -1.9400     0.6970    -1.1500 H     1 <1>   0.0800 
 28 H       -2.8460    -1.2740     1.6030 H     1 <1>   0.0800 
 29 H       -4.5050    -0.7770     1.3530 H     1 <1>   0.0800 
 30 H       -2.8120     3.8420     2.9970 H     1 <1>   0.1000 
 31 H       -1.4660     4.6890     2.1760 H     1 <1>   0.1000 
 32 H       -2.7530     4.6360     0.0190 H     1 <1>   0.1000 
 33 H       -4.0850     3.7460     0.8160 H     1 <1>   0.1000 
 34 H       -3.4370    -0.6620    -2.4640 H     1 <1>   0.0800 
 35 H       -4.4130    -2.2180    -0.4850 H     1 <1>   0.0800 
 36 H       -1.2740     3.5160    -1.3830 H     1 <1>   0.1500 
 37 H        0.1610     1.8160     2.2530 H     1 <1>   0.1500 
 38 H       -5.3530     0.2840    -0.6310 H     1 <1>   0.4000 
 39 H       -1.4240    -1.7030    -0.5960 H     1 <1>   0.0800 
 40 H       -2.2870    -2.6690    -1.7500 H     1 <1>   0.0800 
 41 H        0.9360     3.2570    -2.3810 H     1 <1>   0.1500 
 42 H        2.3780     1.5550     1.2520 H     1 <1>   0.1500 
 43 H       -3.3950    -4.7690    -1.0610 H     1 <1>   0.1500 
 44 H        3.1100     2.1180    -2.3240 H     1 <1>   0.0800 
 45 H        3.6700     1.3430    -0.8650 H     1 <1>   0.0800 
 46 H        3.7890     3.0800    -1.0300 H     1 <1>   0.0800 
 47 H       -0.7750    -4.4940     2.8780 H     1 <1>   0.1500 
 48 H       -1.9150    -6.5490     2.2880 H     1 <1>   0.1500 
@<TRIPOS>BOND
  1   1   2  2   
  2   2   3  am  
  3   2   4  1   
  4   3   5  1   
  5   3   6  1   
  6   4   7  1   
  7   4   8  1   
  8   4   9  1   
  9   5  10  1   
 10   5  26  1   
 11   5  27  1   
 12   6  11  1   
 13   6  28  1   
 14   6  29  1   
 15   7  12  ar  
 16   7  13  ar  
 17   8   9  1   
 18   8  30  1   
 19   8  31  1   
 20   9  32  1   
 21   9  33  1   
 22  10  11  1   
 23  10  14  1   
 24  10  34  1   
 25  11  15  1   
 26  11  35  1   
 27  12  16  ar  
 28  12  36  1   
 29  13  17  ar  
 30  13  37  1   
 31  14  38  1   
 32  15  18  1   
 33  15  39  1   
 34  15  40  1   
 35  16  19  ar  
 36  16  41  1   
 37  17  19  ar  
 38  17  42  1   
 39  18  20  ar  
 40  18  21  ar  
 41  19  22  1   
 42  20  23  ar  
 43  21  24  ar  
 44  21  43  1   
 45  22  44  1   
 46  22  45  1   
 47  22  46  1   
 48  23  25  ar  
 49  23  47  1   
 50  24  25  ar  
 51  25  48  1   
@<TRIPOS>SUBSTRUCTURE
  1 ****   3 GROUP 4 **** **** 0

# MOE 2024.06 (io_trps.svl 2023.06)
