@<TRIPOS>MOLECULE
NONAME
48 50 1 0 0 
SMALL
USER_CHARGES


@<TRIPOS>ATOM
  1 F        1.3020     2.8230     1.4000 F     1 <1>  -0.1900 
  2 C        2.3650     3.0560     0.6610 C.ar  1 <1>   0.1900 
  3 C        3.4610     2.1870     0.6200 C.ar  1 <1>   0.4100 
  4 C        2.3910     4.2030    -0.0860 C.ar  1 <1>   0.1600 
  5 N        4.4890     2.4950    -0.1550 N.ar  1 <1>  -0.6200 
  6 N        3.5840     1.0060     1.3490 N.pl3 1 <1>  -0.8380 
  7 N        3.4260     4.5130    -0.8500 N.ar  1 <1>  -0.6200 
  8 C        4.3880     3.6040    -0.8490 C.ar  1 <1>   0.7200 
  9 C        2.5450     0.4270     2.2350 C.3   1 <1>   0.2090 
 10 C        4.6630     0.0160     1.1000 C.3   1 <1>   0.2090 
 11 N        5.4600     3.8880    -1.6190 N.pl3 1 <1>  -0.8690 
 12 C        3.1540    -0.8650     2.7630 C.3   1 <1>  -0.1600 
 13 C        4.1440    -1.2910     1.6850 C.3   1 <1>  -0.1600 
 14 C        5.2870     3.8860    -3.0940 C.3   1 <1>   0.2090 
 15 C        5.8200     5.1850    -3.7050 C.3   1 <1>  -0.1600 
 16 C        4.9330     6.4010    -3.4100 C.3   1 <1>   0.2090 
 17 N        5.7030     7.4480    -2.6900 N.pl3 1 <1>  -0.8690 
 18 C        5.9560     7.5360    -1.3680 C.ar  1 <1>   0.4610 
 19 N        5.6360     6.5230    -0.5520 N.ar  1 <1>  -0.1790 
 20 C        6.5590     8.6690    -0.7980 C.ar  1 <1>  -0.1500 
 21 C        5.8580     6.5520     0.7890 C.ar  1 <1>   0.2110 
 22 C        6.7990     8.7360     0.5510 C.ar  1 <1>  -0.1500 
 23 C        6.4370     7.6520     1.3670 C.ar  1 <1>  -0.1440 
 24 C        6.7060     7.7350     2.8620 C.3   1 <1>  -0.0970 
 25 H        1.5520     4.8770    -0.0520 H     1 <1>   0.1500 
 26 H        1.6620     0.2130     1.6570 H     1 <1>   0.0800 
 27 H        2.3030     1.0990     3.0410 H     1 <1>   0.0800 
 28 H        5.5540     0.3330     1.6160 H     1 <1>   0.0800 
 29 H        4.8700    -0.0840     0.0480 H     1 <1>   0.0800 
 30 H        6.1850     3.2040    -1.3690 H     1 <1>   0.4000 
 31 H        2.4050    -1.6120     2.9540 H     1 <1>   0.0800 
 32 H        3.6800    -0.6520     3.6780 H     1 <1>   0.0800 
 33 H        4.9410    -1.8990     2.0740 H     1 <1>   0.0800 
 34 H        3.6300    -1.8360     0.9120 H     1 <1>   0.0800 
 35 H        4.2480     3.7530    -3.3540 H     1 <1>   0.0800 
 36 H        5.8340     3.0520    -3.5030 H     1 <1>   0.0800 
 37 H        5.8420     5.0510    -4.7710 H     1 <1>   0.0800 
 38 H        6.8350     5.3490    -3.3870 H     1 <1>   0.0800 
 39 H        4.0670     6.1200    -2.8340 H     1 <1>   0.0800 
 40 H        4.5720     6.8150    -4.3380 H     1 <1>   0.0800 
 41 H        6.0130     8.2140    -3.3020 H     1 <1>   0.4000 
 42 H        5.2340     5.6790    -0.9950 H     1 <1>   0.4570 
 43 H        6.8280     9.4870    -1.4420 H     1 <1>   0.1500 
 44 H        5.5680     5.6890     1.3660 H     1 <1>   0.1500 
 45 H        7.2590     9.6070     0.9900 H     1 <1>   0.1500 
 46 H        6.3860     6.8410     3.3670 H     1 <1>   0.0800 
 47 H        6.1790     8.5720     3.2860 H     1 <1>   0.0800 
 48 H        7.7590     7.8680     3.0410 H     1 <1>   0.0800 
@<TRIPOS>BOND
  1   1   2  1   
  2   2   3  ar  
  3   2   4  ar  
  4   3   5  ar  
  5   3   6  1   
  6   4   7  ar  
  7   4  25  1   
  8   5   8  ar  
  9   6   9  1   
 10   6  10  1   
 11   7   8  ar  
 12   8  11  1   
 13   9  12  1   
 14   9  26  1   
 15   9  27  1   
 16  10  13  1   
 17  10  28  1   
 18  10  29  1   
 19  11  14  1   
 20  11  30  1   
 21  12  13  1   
 22  12  31  1   
 23  12  32  1   
 24  13  33  1   
 25  13  34  1   
 26  14  15  1   
 27  14  35  1   
 28  14  36  1   
 29  15  16  1   
 30  15  37  1   
 31  15  38  1   
 32  16  17  1   
 33  16  39  1   
 34  16  40  1   
 35  17  18  1   
 36  17  41  1   
 37  18  19  ar  
 38  18  20  ar  
 39  19  21  ar  
 40  19  42  1   
 41  20  22  ar  
 42  20  43  1   
 43  21  23  ar  
 44  21  44  1   
 45  22  23  ar  
 46  22  45  1   
 47  23  24  1   
 48  24  46  1   
 49  24  47  1   
 50  24  48  1   
@<TRIPOS>SUBSTRUCTURE
  1 ****   8 GROUP 4 **** **** 0

# MOE 2024.06 (io_trps.svl 2023.06)
