@<TRIPOS>MOLECULE
NONAME
46 48 1 0 0 
SMALL
USER_CHARGES


@<TRIPOS>ATOM
  1 F        1.5180     0.2470     2.4530 F     1 <1>  -0.1900 
  2 C        2.1380     0.6930     1.3920 C.ar  1 <1>   0.1900 
  3 C        2.6250    -0.2100     0.4590 C.ar  1 <1>  -0.1440 
  4 C        2.2750     2.0620     1.2540 C.ar  1 <1>  -0.1500 
  5 C        3.2750     0.3380    -0.6360 C.ar  1 <1>   0.1900 
  6 C        2.4640    -1.7150     0.6270 C.3   1 <1>   0.2540 
  7 C        2.9270     2.5750     0.1430 C.ar  1 <1>   0.0830 
  8 F        3.7750    -0.4520    -1.5500 F     1 <1>  -0.1900 
  9 C        3.4350     1.7010    -0.8160 C.ar  1 <1>  -0.1500 
 10 N        1.3740    -2.2350    -0.2240 N.3   1 <1>  -0.8100 
 11 O        3.0290     3.9230     0.0620 O.3   1 <1>  -0.3630 
 12 C        1.3110    -3.7210    -0.1970 C.3   1 <1>   0.3330 
 13 C        0.0620    -1.6720     0.1640 C.3   1 <1>   0.1100 
 14 C        3.6790     4.5470    -1.0250 C.3   1 <1>   0.0400 
 15 C        2.6270    -4.3310    -0.6840 C.ar  1 <1>  -0.1430 
 16 C        0.1160    -4.2420    -1.0440 C.3   1 <1>   0.2000 
 17 C       -1.0800    -2.2660    -0.6760 C.3   1 <1>   0.1200 
 18 C        3.1960    -3.9240    -1.8830 C.ar  1 <1>  -0.1500 
 19 C        3.2590    -5.3150     0.0640 C.ar  1 <1>  -0.1500 
 20 O       -1.0780    -3.6610    -0.5850 O.3   1 <1>  -0.5600 
 21 C       -0.0680    -5.7680    -0.9820 C.3   1 <1>   0.1200 
 22 C        4.3720    -4.4950    -2.3320 C.ar  1 <1>  -0.1500 
 23 C        4.4360    -5.8880    -0.3850 C.ar  1 <1>  -0.1500 
 24 O        0.8860    -6.4270    -1.7550 O.3   1 <1>  -0.6800 
 25 C        4.9930    -5.4800    -1.5840 C.ar  1 <1>  -0.1500 
 26 H        1.8820     2.7260     2.0010 H     1 <1>   0.1500 
 27 H        2.2740    -1.9640     1.6570 H     1 <1>   0.0800 
 28 H        3.3970    -2.1760     0.3520 H     1 <1>   0.0800 
 29 H        3.9480     2.0480    -1.6910 H     1 <1>   0.1500 
 30 H        1.1460    -4.0360     0.8190 H     1 <1>   0.0800 
 31 H       -0.1310    -1.8640     1.2060 H     1 <1>   0.0800 
 32 H        0.0670    -0.6060     0.0160 H     1 <1>   0.0800 
 33 H        3.6370     5.6100    -0.8730 H     1 <1>   0.0800 
 34 H        3.1670     4.2880    -1.9340 H     1 <1>   0.0800 
 35 H        4.7040     4.2220    -1.0520 H     1 <1>   0.0800 
 36 H        0.2430    -3.9540    -2.0730 H     1 <1>   0.0800 
 37 H       -0.9750    -1.9840    -1.7100 H     1 <1>   0.0800 
 38 H       -2.0300    -1.9140    -0.3150 H     1 <1>   0.0800 
 39 H        2.7200    -3.1510    -2.4650 H     1 <1>   0.1500 
 40 H        2.8400    -5.6450     0.9990 H     1 <1>   0.1500 
 41 H       -1.0330    -6.0350    -1.3740 H     1 <1>   0.0800 
 42 H        0.0160    -6.1200     0.0310 H     1 <1>   0.0800 
 43 H        4.8040    -4.1710    -3.2630 H     1 <1>   0.1500 
 44 H        4.9210    -6.6530     0.1970 H     1 <1>   0.1500 
 45 H        1.7900    -6.0940    -1.5560 H     1 <1>   0.4000 
 46 H        5.9070    -5.9250    -1.9350 H     1 <1>   0.1500 
@<TRIPOS>BOND
  1   1   2  1   
  2   2   3  ar  
  3   2   4  ar  
  4   3   5  ar  
  5   3   6  1   
  6   4   7  ar  
  7   4  26  1   
  8   5   8  1   
  9   5   9  ar  
 10   6  10  1   
 11   6  27  1   
 12   6  28  1   
 13   7   9  ar  
 14   7  11  1   
 15   9  29  1   
 16  10  12  1   
 17  10  13  1   
 18  11  14  1   
 19  12  15  1   
 20  12  16  1   
 21  12  30  1   
 22  13  17  1   
 23  13  31  1   
 24  13  32  1   
 25  14  33  1   
 26  14  34  1   
 27  14  35  1   
 28  15  18  ar  
 29  15  19  ar  
 30  16  20  1   
 31  16  21  1   
 32  16  36  1   
 33  17  20  1   
 34  17  37  1   
 35  17  38  1   
 36  18  22  ar  
 37  18  39  1   
 38  19  23  ar  
 39  19  40  1   
 40  21  24  1   
 41  21  41  1   
 42  21  42  1   
 43  22  25  ar  
 44  22  43  1   
 45  23  25  ar  
 46  23  44  1   
 47  24  45  1   
 48  25  46  1   
@<TRIPOS>SUBSTRUCTURE
  1 ****  10 GROUP 4 **** **** 0

# MOE 2024.06 (io_trps.svl 2023.06)
