@<TRIPOS>MOLECULE
NONAME
56 58 1 0 0 
SMALL
USER_CHARGES


@<TRIPOS>ATOM
  1 O       -1.8420     0.1920     2.7860 O.2   1 <1>  -0.5700 
  2 C       -1.9980     0.7860     1.7450 C.2   1 <1>   0.5690 
  3 N       -2.2730     0.1300     0.5750 N.am  1 <1>  -0.6600 
  4 C       -1.8680     2.3020     1.7830 C.3   1 <1>   0.0440 
  5 C       -2.2640    -1.3710     0.5220 C.3   1 <1>   0.3640 
  6 C       -2.5410     0.8290    -0.7230 C.3   1 <1>   0.1400 
  7 C       -0.6220     2.7940     1.0420 C.ar  1 <1>  -0.1440 
  8 C       -0.9010    -1.9160     0.0530 C.ar  1 <1>  -0.1440 
  9 C       -3.4380    -1.9120    -0.3570 C.3   1 <1>   0.2000 
 10 C       -2.9010    -0.1470    -1.8530 C.3   1 <1>   0.1200 
 11 C       -0.6960     3.6770    -0.0350 C.ar  1 <1>   0.0820 
 12 C        0.6160     2.3340     1.4630 C.ar  1 <1>  -0.1500 
 13 C       -0.7080    -3.2930     0.0620 C.ar  1 <1>  -0.1500 
 14 C        0.1550    -1.1090    -0.3630 C.ar  1 <1>  -0.1500 
 15 O       -3.8550    -1.0540    -1.3990 O.3   1 <1>  -0.5600 
 16 C       -4.6810    -2.1950     0.4960 C.3   1 <1>   0.1200 
 17 O       -1.9260     4.0990    -0.4330 O.3   1 <1>  -0.3630 
 18 C        0.4750     4.0860    -0.6700 C.ar  1 <1>  -0.1500 
 19 C        1.7750     2.7420     0.8260 C.ar  1 <1>  -0.1500 
 20 C        0.4830    -3.8590    -0.3590 C.ar  1 <1>   0.0820 
 21 C        1.3580    -1.6620    -0.7680 C.ar  1 <1>  -0.1500 
 22 O       -4.4780    -3.3280     1.2810 O.3   1 <1>  -0.6800 
 23 C       -2.0820     5.1480    -1.3640 C.3   1 <1>   0.0400 
 24 C        1.7030     3.6190    -0.2400 C.ar  1 <1>  -0.1500 
 25 O        0.5590    -5.2140    -0.3630 O.3   1 <1>  -0.3620 
 26 C        1.5370    -3.0330    -0.7570 C.ar  1 <1>   0.0820 
 27 C        0.7530    -5.8330    -1.6160 C.3   1 <1>   0.0400 
 28 O        2.7510    -3.5100    -1.1270 O.3   1 <1>  -0.3630 
 29 C        3.5150    -4.1100    -0.1050 C.3   1 <1>   0.0400 
 30 H       -2.7690     2.7330     1.3940 H     1 <1>   0.0800 
 31 H       -1.7940     2.6120     2.8090 H     1 <1>   0.0800 
 32 H       -2.4040    -1.7550     1.5190 H     1 <1>   0.0800 
 33 H       -3.3540     1.5210    -0.5920 H     1 <1>   0.0800 
 34 H       -1.6730     1.3880    -1.0210 H     1 <1>   0.0800 
 35 H       -3.1430    -2.8300    -0.8300 H     1 <1>   0.0800 
 36 H       -2.0350    -0.6890    -2.1930 H     1 <1>   0.0800 
 37 H       -3.3200     0.3880    -2.6860 H     1 <1>   0.0800 
 38 H        0.6840     1.6490     2.2920 H     1 <1>   0.1500 
 39 H       -1.4880    -3.9520     0.4000 H     1 <1>   0.1500 
 40 H        0.0690    -0.0370    -0.3680 H     1 <1>   0.1500 
 41 H       -5.5380    -2.3730    -0.1290 H     1 <1>   0.0800 
 42 H       -4.8770    -1.3650     1.1520 H     1 <1>   0.0800 
 43 H        0.4530     4.7630    -1.5020 H     1 <1>   0.1500 
 44 H        2.7290     2.3760     1.1630 H     1 <1>   0.1500 
 45 H        2.1670    -1.0280    -1.0830 H     1 <1>   0.1500 
 46 H       -4.5790    -4.1420     0.7490 H     1 <1>   0.4000 
 47 H       -3.1320     5.3660    -1.4490 H     1 <1>   0.0800 
 48 H       -1.6960     4.8330    -2.3160 H     1 <1>   0.0800 
 49 H       -1.5580     6.0160    -1.0030 H     1 <1>   0.0800 
 50 H        2.6050     3.9370    -0.7340 H     1 <1>   0.1500 
 51 H        0.6330    -6.8930    -1.4890 H     1 <1>   0.0800 
 52 H        1.7440    -5.6180    -1.9720 H     1 <1>   0.0800 
 53 H        0.0190    -5.4580    -2.3070 H     1 <1>   0.0800 
 54 H        4.4750    -4.3720    -0.5110 H     1 <1>   0.0800 
 55 H        3.0110    -4.9920     0.2460 H     1 <1>   0.0800 
 56 H        3.6330    -3.4040     0.6990 H     1 <1>   0.0800 
@<TRIPOS>BOND
  1   1   2  2   
  2   2   3  am  
  3   2   4  1   
  4   3   5  1   
  5   3   6  1   
  6   4   7  1   
  7   4  30  1   
  8   4  31  1   
  9   5   8  1   
 10   5   9  1   
 11   5  32  1   
 12   6  10  1   
 13   6  33  1   
 14   6  34  1   
 15   7  11  ar  
 16   7  12  ar  
 17   8  13  ar  
 18   8  14  ar  
 19   9  15  1   
 20   9  16  1   
 21   9  35  1   
 22  10  15  1   
 23  10  36  1   
 24  10  37  1   
 25  11  17  1   
 26  11  18  ar  
 27  12  19  ar  
 28  12  38  1   
 29  13  20  ar  
 30  13  39  1   
 31  14  21  ar  
 32  14  40  1   
 33  16  22  1   
 34  16  41  1   
 35  16  42  1   
 36  17  23  1   
 37  18  24  ar  
 38  18  43  1   
 39  19  24  ar  
 40  19  44  1   
 41  20  25  1   
 42  20  26  ar  
 43  21  26  ar  
 44  21  45  1   
 45  22  46  1   
 46  23  47  1   
 47  23  48  1   
 48  23  49  1   
 49  24  50  1   
 50  25  27  1   
 51  26  28  1   
 52  27  51  1   
 53  27  52  1   
 54  27  53  1   
 55  28  29  1   
 56  29  54  1   
 57  29  55  1   
 58  29  56  1   
@<TRIPOS>SUBSTRUCTURE
  1 ****  14 GROUP 4 **** **** 0

# MOE 2024.06 (io_trps.svl 2023.06)
