@<TRIPOS>MOLECULE
NONAME
51 53 1 0 0 
SMALL
USER_CHARGES


@<TRIPOS>ATOM
  1 O        0.1550     0.4710    -0.1460 O.3   1 <1>  -0.5600 
  2 C        1.5180     0.1270    -0.0840 C.3   1 <1>   0.2000 
  3 C       -0.3510     1.2600     0.8920 C.3   1 <1>   0.1200 
  4 C        2.3490     1.1440    -0.8880 C.3   1 <1>   0.1100 
  5 C        1.6690    -1.2850    -0.6790 C.3   1 <1>   0.3430 
  6 C        0.5010     2.4970     1.2180 C.3   1 <1>  -0.1600 
  7 N        2.5090     2.4290    -0.1920 N.3   1 <1>  -0.8100 
  8 N        0.5000    -2.1410    -0.3080 N.4   1 <1>  -0.9590 
  9 C        1.2300     3.1240     0.0300 C.3   1 <1>   0.1100 
 10 C        3.4820     3.3060    -0.9070 C.3   1 <1>   0.2910 
 11 C        0.5700    -2.6220     1.1000 C.3   1 <1>   0.3430 
 12 C        0.2570    -3.2390    -1.2840 C.3   1 <1>   0.3430 
 13 C        4.0000     4.4850    -0.0770 C.2   1 <1>   0.3350 
 14 C       -0.7440    -3.3110     1.4720 C.3   1 <1>  -0.1600 
 15 C       -1.0610    -3.9410    -0.9480 C.3   1 <1>  -0.1600 
 16 N        4.9820     4.4280     0.7340 N.2   1 <1>  -0.4100 
 17 N        3.4610     5.6970    -0.1650 N.2   1 <1>  -0.5650 
 18 C       -1.0850    -4.4480     0.5000 C.3   1 <1>  -0.1600 
 19 O        5.1310     5.6130     1.2400 O.3   1 <1>  -0.0190 
 20 C        4.1930     6.3240     0.6640 C.2   1 <1>   0.2980 
 21 C        4.0650     7.7940     1.0210 C.3   1 <1>   0.0200 
 22 C        3.6160     7.9950     2.4740 C.3   1 <1>  -0.2400 
 23 H        1.8460     0.1130     0.9410 H     1 <1>   0.0800 
 24 H       -0.4610     0.6460     1.7690 H     1 <1>   0.0800 
 25 H       -1.3310     1.5800     0.5820 H     1 <1>   0.0800 
 26 H        1.8990     1.3000    -1.8550 H     1 <1>   0.0800 
 27 H        3.3300     0.7270    -1.0400 H     1 <1>   0.0800 
 28 H        2.5930    -1.7320    -0.3520 H     1 <1>   0.0800 
 29 H        1.7090    -1.1880    -1.7510 H     1 <1>   0.0800 
 30 H        1.2140     2.2650     1.9890 H     1 <1>   0.0800 
 31 H       -0.1590     3.2360     1.6340 H     1 <1>   0.0800 
 32 H       -0.2980    -1.4800    -0.3560 H     1 <1>   0.4500 
 33 H        1.4170     4.1540     0.2810 H     1 <1>   0.0800 
 34 H        0.6180     3.1060    -0.8570 H     1 <1>   0.0800 
 35 H        3.0360     3.6850    -1.8100 H     1 <1>   0.0800 
 36 H        4.3420     2.7230    -1.1840 H     1 <1>   0.0800 
 37 H        0.7390    -1.7920     1.7670 H     1 <1>   0.0800 
 38 H        1.3850    -3.3200     1.2080 H     1 <1>   0.0800 
 39 H        1.0650    -3.9520    -1.2400 H     1 <1>   0.0800 
 40 H        0.2060    -2.8410    -2.2850 H     1 <1>   0.0800 
 41 H       -1.5370    -2.5830     1.4780 H     1 <1>   0.0800 
 42 H       -0.6640    -3.7070     2.4700 H     1 <1>   0.0800 
 43 H       -1.1980    -4.7710    -1.6190 H     1 <1>   0.0800 
 44 H       -1.8770    -3.2590    -1.1120 H     1 <1>   0.0800 
 45 H       -2.0600    -4.8460     0.7310 H     1 <1>   0.0800 
 46 H       -0.3700    -5.2460     0.6140 H     1 <1>   0.0800 
 47 H        3.3480     8.2490     0.3600 H     1 <1>   0.0800 
 48 H        5.0150     8.2730     0.8620 H     1 <1>   0.0800 
 49 H        2.6650     7.5180     2.6350 H     1 <1>   0.0800 
 50 H        3.5180     9.0440     2.6900 H     1 <1>   0.0800 
 51 H        4.3360     7.5680     3.1500 H     1 <1>   0.0800 
@<TRIPOS>BOND
  1   1   2  1   
  2   1   3  1   
  3   2   4  1   
  4   2   5  1   
  5   2  23  1   
  6   3   6  1   
  7   3  24  1   
  8   3  25  1   
  9   4   7  1   
 10   4  26  1   
 11   4  27  1   
 12   5   8  1   
 13   5  28  1   
 14   5  29  1   
 15   6   9  1   
 16   6  30  1   
 17   6  31  1   
 18   7   9  1   
 19   7  10  1   
 20   8  11  1   
 21   8  12  1   
 22   8  32  1   
 23   9  33  1   
 24   9  34  1   
 25  10  13  1   
 26  10  35  1   
 27  10  36  1   
 28  11  14  1   
 29  11  37  1   
 30  11  38  1   
 31  12  15  1   
 32  12  39  1   
 33  12  40  1   
 34  13  16  2   
 35  13  17  1   
 36  14  18  1   
 37  14  41  1   
 38  14  42  1   
 39  15  18  1   
 40  15  43  1   
 41  15  44  1   
 42  16  19  1   
 43  17  20  2   
 44  18  45  1   
 45  18  46  1   
 46  19  20  1   
 47  20  21  1   
 48  21  22  1   
 49  21  47  1   
 50  21  48  1   
 51  22  49  1   
 52  22  50  1   
 53  22  51  1   
@<TRIPOS>SUBSTRUCTURE
  1 ****   7 GROUP 4 **** **** 0

# MOE 2024.06 (io_trps.svl 2023.06)
