@<TRIPOS>MOLECULE
NONAME
45 46 1 0 0 
SMALL
USER_CHARGES


@<TRIPOS>ATOM
  1 O       -0.3720     1.1990     1.8360 O.2   1 <1>  -0.5700 
  2 C       -1.3150     1.1010     1.0870 C.2   1 <1>   0.5690 
  3 N       -1.2190     1.3910    -0.2400 N.am  1 <1>  -0.7300 
  4 C       -2.6410     0.6560     1.6600 C.3   1 <1>   0.1570 
  5 C        0.0020     1.8360    -0.9530 C.3   1 <1>   0.0600 
  6 N       -3.2610    -0.3440     0.7780 N.pl3 1 <1>   0.3140 
  7 N       -3.9200     0.0130    -0.3430 N.2   1 <1>  -0.7070 
  8 C       -3.2500    -1.6860     0.9370 C.2   1 <1>  -0.3020 
  9 C       -4.3140    -1.1120    -0.8650 C.2   1 <1>   0.1390 
 10 C       -3.9210    -2.2150    -0.1060 C.2   1 <1>   0.0630 
 11 N       -4.1490    -3.5940    -0.3380 N.am  1 <1>  -0.4930 
 12 C       -4.8020    -4.1860    -1.3770 C.2   1 <1>   0.5690 
 13 O       -5.2960    -3.5700    -2.2900 O.2   1 <1>  -0.5700 
 14 C       -4.9140    -5.6980    -1.3760 C.3   1 <1>  -0.0990 
 15 C       -6.0460    -6.1880    -0.4580 C.3   1 <1>  -0.1600 
 16 C       -6.1390    -7.7190    -0.4590 C.3   1 <1>  -0.1600 
 17 C       -7.2800    -8.2150     0.4350 C.3   1 <1>  -0.0160 
 18 C       -7.3340    -9.7340     0.4270 C.ar  1 <1>  -0.1440 
 19 C       -6.6470   -10.4650     1.3840 C.ar  1 <1>  -0.1500 
 20 C       -8.0670   -10.4020    -0.5420 C.ar  1 <1>  -0.1500 
 21 C       -6.6940   -11.8490     1.3740 C.ar  1 <1>  -0.1500 
 22 C       -8.1150   -11.7850    -0.5540 C.ar  1 <1>  -0.1500 
 23 C       -7.4280   -12.5100     0.4040 C.ar  1 <1>  -0.1500 
 24 H       -2.0500     1.1990    -0.8230 H     1 <1>   0.3700 
 25 H       -3.2960     1.5010     1.7410 H     1 <1>   0.0800 
 26 H       -2.4910     0.2270     2.6320 H     1 <1>   0.0800 
 27 H        0.8120     1.9740    -0.2560 H     1 <1>   0.0800 
 28 H       -0.1900     2.7690    -1.4530 H     1 <1>   0.0800 
 29 H        0.2890     1.0960    -1.6790 H     1 <1>   0.0800 
 30 H       -2.7710    -2.1740     1.7650 H     1 <1>   0.1500 
 31 H       -4.8790    -1.1790    -1.7800 H     1 <1>   0.1500 
 32 H       -3.7740    -4.2160     0.3740 H     1 <1>   0.3700 
 33 H       -3.9760    -6.1200    -1.0660 H     1 <1>   0.0800 
 34 H       -5.1040    -6.0240    -2.3840 H     1 <1>   0.0800 
 35 H       -6.9790    -5.7710    -0.8020 H     1 <1>   0.0800 
 36 H       -5.8770    -5.8380     0.5460 H     1 <1>   0.0800 
 37 H       -5.2110    -8.1400    -0.1100 H     1 <1>   0.0800 
 38 H       -6.3030    -8.0720    -1.4630 H     1 <1>   0.0800 
 39 H       -8.2180    -7.8220     0.0840 H     1 <1>   0.0800 
 40 H       -7.1360    -7.8660     1.4420 H     1 <1>   0.0800 
 41 H       -6.0730    -9.9610     2.1410 H     1 <1>   0.1500 
 42 H       -8.6030    -9.8470    -1.2920 H     1 <1>   0.1500 
 43 H       -6.1600   -12.4110     2.1190 H     1 <1>   0.1500 
 44 H       -8.6860   -12.2980    -1.3080 H     1 <1>   0.1500 
 45 H       -7.4650   -13.5850     0.3960 H     1 <1>   0.1500 
@<TRIPOS>BOND
  1   1   2  2   
  2   2   3  am  
  3   2   4  1   
  4   3   5  1   
  5   3  24  1   
  6   4   6  1   
  7   4  25  1   
  8   4  26  1   
  9   5  27  1   
 10   5  28  1   
 11   5  29  1   
 12   6   7  1   
 13   6   8  1   
 14   7   9  2   
 15   8  10  2   
 16   8  30  1   
 17   9  10  1   
 18   9  31  1   
 19  10  11  1   
 20  11  12  am  
 21  11  32  1   
 22  12  13  2   
 23  12  14  1   
 24  14  15  1   
 25  14  33  1   
 26  14  34  1   
 27  15  16  1   
 28  15  35  1   
 29  15  36  1   
 30  16  17  1   
 31  16  37  1   
 32  16  38  1   
 33  17  18  1   
 34  17  39  1   
 35  17  40  1   
 36  18  19  ar  
 37  18  20  ar  
 38  19  21  ar  
 39  19  41  1   
 40  20  22  ar  
 41  20  42  1   
 42  21  23  ar  
 43  21  43  1   
 44  22  23  ar  
 45  22  44  1   
 46  23  45  1   
@<TRIPOS>SUBSTRUCTURE
  1 ****  11 GROUP 4 **** **** 0

# MOE 2024.06 (io_trps.svl 2023.06)
