@<TRIPOS>MOLECULE
NONAME
41 43 1 0 0 
SMALL
USER_CHARGES


@<TRIPOS>ATOM
  1 O       -0.1010     0.9920    -0.2530 O.2   1 <1>  -0.5700 
  2 C       -0.2910     2.1830    -0.3350 C.2   1 <1>   0.5690 
  3 N       -1.1070     2.8600     0.5290 N.am  1 <1>  -0.6600 
  4 C        0.3920     2.9460    -1.4680 C.3   1 <1>   0.1810 
  5 C       -1.3700     4.3290     0.3700 C.3   1 <1>   0.3640 
  6 C       -1.7610     2.1980     1.6950 C.3   1 <1>   0.0600 
  7 O        0.5740     4.3060    -1.1620 O.3   1 <1>  -0.5600 
  8 C       -2.8830     4.6070     0.3150 C.ar  1 <1>  -0.1430 
  9 C       -0.6200     4.9990    -0.8160 C.3   1 <1>   0.2610 
 10 C       -3.7830     3.9760    -0.5510 C.ar  1 <1>  -0.1430 
 11 C       -3.3710     5.5590     1.2030 C.ar  1 <1>  -0.1500 
 12 C       -0.2850     6.4510    -0.4570 C.2   1 <1>   0.5690 
 13 C       -5.1300     4.3070    -0.4960 C.ar  1 <1>  -0.1500 
 14 C       -3.3780     2.9180    -1.5710 C.3   1 <1>  -0.0960 
 15 C       -4.7130     5.8820     1.2480 C.ar  1 <1>  -0.1500 
 16 O       -1.1770     7.2470    -0.2800 O.2   1 <1>  -0.5700 
 17 N        1.0250     6.8010    -0.3380 N.am  1 <1>  -0.5790 
 18 C       -5.5970     5.2520     0.3960 C.ar  1 <1>  -0.1500 
 19 C        1.5510     8.1290     0.0040 C.3   1 <1>   0.0490 
 20 C        2.8240     8.5650    -0.6410 C.3   1 <1>  -0.2000 
 21 C        2.8030     8.1970     0.8130 C.3   1 <1>  -0.2000 
 22 H       -0.1910     2.8680    -2.3670 H     1 <1>   0.0800 
 23 H        1.3620     2.5190    -1.6460 H     1 <1>   0.0800 
 24 H       -0.9880     4.7910     1.2640 H     1 <1>   0.0800 
 25 H       -1.5290     2.7350     2.5980 H     1 <1>   0.0800 
 26 H       -1.4160     1.1840     1.8000 H     1 <1>   0.0800 
 27 H       -2.8280     2.1850     1.5580 H     1 <1>   0.0800 
 28 H       -1.2520     5.0160    -1.6840 H     1 <1>   0.0800 
 29 H       -2.7030     6.0740     1.8720 H     1 <1>   0.1500 
 30 H       -5.8350     3.8270    -1.1520 H     1 <1>   0.1500 
 31 H       -4.1830     2.7140    -2.2550 H     1 <1>   0.0800 
 32 H       -3.1310     1.9990    -1.0710 H     1 <1>   0.0800 
 33 H       -2.5380     3.2440    -2.1510 H     1 <1>   0.0800 
 34 H       -5.0670     6.6250     1.9410 H     1 <1>   0.1500 
 35 H        1.7180     6.0780    -0.5510 H     1 <1>   0.3700 
 36 H       -6.6440     5.4990     0.4250 H     1 <1>   0.1500 
 37 H        0.7790     8.8630     0.1760 H     1 <1>   0.1000 
 38 H        3.3040     7.9060    -1.3420 H     1 <1>   0.1000 
 39 H        2.9400     9.6020    -0.9020 H     1 <1>   0.1000 
 40 H        2.9060     8.9860     1.5370 H     1 <1>   0.1000 
 41 H        3.2700     7.2810     1.1280 H     1 <1>   0.1000 
@<TRIPOS>BOND
  1   1   2  2   
  2   2   3  am  
  3   2   4  1   
  4   3   5  1   
  5   3   6  1   
  6   4   7  1   
  7   4  22  1   
  8   4  23  1   
  9   5   8  1   
 10   5   9  1   
 11   5  24  1   
 12   6  25  1   
 13   6  26  1   
 14   6  27  1   
 15   7   9  1   
 16   8  10  ar  
 17   8  11  ar  
 18   9  12  1   
 19   9  28  1   
 20  10  13  ar  
 21  10  14  1   
 22  11  15  ar  
 23  11  29  1   
 24  12  16  2   
 25  12  17  am  
 26  13  18  ar  
 27  13  30  1   
 28  14  31  1   
 29  14  32  1   
 30  14  33  1   
 31  15  18  ar  
 32  15  34  1   
 33  17  19  1   
 34  17  35  1   
 35  18  36  1   
 36  19  20  1   
 37  19  21  1   
 38  19  37  1   
 39  20  21  1   
 40  20  38  1   
 41  20  39  1   
 42  21  40  1   
 43  21  41  1   
@<TRIPOS>SUBSTRUCTURE
  1 ****   5 GROUP 4 **** **** 0

# MOE 2024.06 (io_trps.svl 2023.06)
