@<TRIPOS>MOLECULE
NONAME
51 53 1 0 0 
SMALL
USER_CHARGES


@<TRIPOS>ATOM
  1 O       -0.6180     0.3610     1.0840 O.2   1 <1>  -0.5700 
  2 C       -1.4500     0.8670     0.3680 C.2   1 <1>   0.5690 
  3 N       -2.4480     0.1160    -0.1860 N.am  1 <1>  -0.6600 
  4 C       -1.3940     2.3650     0.0920 C.3   1 <1>  -0.0990 
  5 C       -3.6380     0.6110    -0.9240 C.3   1 <1>   0.1400 
  6 C       -2.5610    -1.3460     0.0410 C.3   1 <1>   0.1400 
  7 C       -0.0400     3.0170     0.4290 C.3   1 <1>  -0.1600 
  8 C       -4.7000    -0.4580    -0.6740 C.3   1 <1>   0.2000 
  9 C       -3.8910    -1.7580    -0.6030 C.3   1 <1>  -0.0800 
 10 C       -0.0430     4.5160     0.0970 C.3   1 <1>  -0.1600 
 11 O       -5.2800    -0.2040     0.5590 O.3   1 <1>  -0.6800 
 12 C       -4.5890    -2.9330     0.1070 C.3   1 <1>  -0.0170 
 13 C        1.3030     5.1680     0.4330 C.3   1 <1>  -0.0170 
 14 C       -3.7410    -4.1930     0.0380 C.ar  1 <1>  -0.1440 
 15 C        1.2730     6.6490     0.0900 C.ar  1 <1>  -0.1440 
 16 C       -2.8980    -4.5680     1.0650 C.ar  1 <1>  -0.1500 
 17 C       -3.7690    -5.0270    -1.0620 C.ar  1 <1>  -0.1500 
 18 C        0.8770     7.5790     1.0380 C.ar  1 <1>  -0.1500 
 19 C        1.6380     7.0810    -1.1750 C.ar  1 <1>  -0.1500 
 20 C       -2.1430    -5.7230     0.9450 C.ar  1 <1>   0.1600 
 21 C       -2.9730    -6.1610    -1.0820 C.ar  1 <1>   0.1600 
 22 C        0.8460     8.9270     0.7260 C.ar  1 <1>  -0.1500 
 23 C        1.6080     8.4290    -1.4900 C.ar  1 <1>  -0.1500 
 24 N       -2.1600    -6.5280    -0.1050 N.ar  1 <1>  -0.6200 
 25 C        1.2120     9.3530    -0.5390 C.ar  1 <1>  -0.1500 
 26 H       -1.6020     2.5270    -0.9490 H     1 <1>   0.0800 
 27 H       -2.1660     2.8380     0.6700 H     1 <1>   0.0800 
 28 H       -3.9630     1.5780    -0.5790 H     1 <1>   0.0800 
 29 H       -3.4050     0.6580    -1.9730 H     1 <1>   0.0800 
 30 H       -1.7290    -1.8660    -0.4040 H     1 <1>   0.0800 
 31 H       -2.5670    -1.5350     1.1020 H     1 <1>   0.0800 
 32 H        0.1680     2.8810     1.4770 H     1 <1>   0.0800 
 33 H        0.7380     2.5230    -0.1280 H     1 <1>   0.0800 
 34 H       -5.4740    -0.4730    -1.4220 H     1 <1>   0.0800 
 35 H       -3.6730    -2.0590    -1.6130 H     1 <1>   0.0800 
 36 H       -0.8200     5.0090     0.6550 H     1 <1>   0.0800 
 37 H       -0.2470     4.6550    -0.9510 H     1 <1>   0.0800 
 38 H       -4.5680    -0.0730     1.2180 H     1 <1>   0.4000 
 39 H       -5.5410    -3.1180    -0.3600 H     1 <1>   0.0800 
 40 H       -4.7820    -2.6890     1.1380 H     1 <1>   0.0800 
 41 H        2.0910     4.6870    -0.1200 H     1 <1>   0.0800 
 42 H        1.5170     5.0440     1.4800 H     1 <1>   0.0800 
 43 H       -2.8200    -3.9750     1.9580 H     1 <1>   0.1500 
 44 H       -4.4000    -4.8070    -1.9020 H     1 <1>   0.1500 
 45 H        0.5890     7.2570     2.0240 H     1 <1>   0.1500 
 46 H        1.9460     6.3700    -1.9210 H     1 <1>   0.1500 
 47 H       -1.4900    -5.9980     1.7550 H     1 <1>   0.1500 
 48 H       -3.0080    -6.8000    -1.9470 H     1 <1>   0.1500 
 49 H        0.5380     9.6440     1.4670 H     1 <1>   0.1500 
 50 H        1.8930     8.7590    -2.4730 H     1 <1>   0.1500 
 51 H        1.1890    10.4010    -0.7820 H     1 <1>   0.1500 
@<TRIPOS>BOND
  1   1   2  2   
  2   2   3  am  
  3   2   4  1   
  4   3   5  1   
  5   3   6  1   
  6   4   7  1   
  7   4  26  1   
  8   4  27  1   
  9   5   8  1   
 10   5  28  1   
 11   5  29  1   
 12   6   9  1   
 13   6  30  1   
 14   6  31  1   
 15   7  10  1   
 16   7  32  1   
 17   7  33  1   
 18   8   9  1   
 19   8  11  1   
 20   8  34  1   
 21   9  12  1   
 22   9  35  1   
 23  10  13  1   
 24  10  36  1   
 25  10  37  1   
 26  11  38  1   
 27  12  14  1   
 28  12  39  1   
 29  12  40  1   
 30  13  15  1   
 31  13  41  1   
 32  13  42  1   
 33  14  16  ar  
 34  14  17  ar  
 35  15  18  ar  
 36  15  19  ar  
 37  16  20  ar  
 38  16  43  1   
 39  17  21  ar  
 40  17  44  1   
 41  18  22  ar  
 42  18  45  1   
 43  19  23  ar  
 44  19  46  1   
 45  20  24  ar  
 46  20  47  1   
 47  21  24  ar  
 48  21  48  1   
 49  22  25  ar  
 50  22  49  1   
 51  23  25  ar  
 52  23  50  1   
 53  25  51  1   
@<TRIPOS>SUBSTRUCTURE
  1 ****   2 GROUP 4 **** **** 0

# MOE 2024.06 (io_trps.svl 2023.06)
