@<TRIPOS>MOLECULE
NONAME
38 40 1 0 0 
SMALL
USER_CHARGES


@<TRIPOS>ATOM
  1 O        1.2890    -1.1240     2.2460 O.2   1 <1>  -0.5700 
  2 C        1.7250    -1.2510     1.1270 C.2   1 <1>   0.5690 
  3 N        2.2620    -0.2120     0.4160 N.am  1 <1>  -0.4940 
  4 C        1.7260    -2.6270     0.4520 C.3   1 <1>   0.1250 
  5 C        2.4470     1.1250     0.7870 C.2   1 <1>   0.2040 
  6 C        0.6910    -2.8130    -0.6450 C.ar  1 <1>  -0.1440 
  7 C        1.4570    -3.8360     1.3760 C.3   1 <1>  -0.1600 
  8 O        2.2330     1.5560     2.0070 O.3   1 <1>  -0.0190 
  9 C        2.8650     2.1750     0.0510 C.2   1 <1>  -0.1810 
 10 C        0.2020    -4.0980    -0.6280 C.ar  1 <1>  -0.1430 
 11 C        0.2300    -1.9060    -1.5870 C.ar  1 <1>  -0.1500 
 12 C        0.8110    -4.9100     0.4880 C.3   1 <1>  -0.0170 
 13 N        2.4910     2.8340     2.1250 N.2   1 <1>  -0.4100 
 14 C        2.8710     3.2290     0.9640 C.2   1 <1>   0.1080 
 15 C        3.2450     2.2290    -1.4190 C.3   1 <1>   0.0210 
 16 C       -0.7400    -4.5160    -1.5490 C.ar  1 <1>  -0.1500 
 17 C       -0.7160    -2.3150    -2.5130 C.ar  1 <1>  -0.1500 
 18 C        3.2640     4.6600     0.6660 C.3   1 <1>  -0.0590 
 19 C        4.7570     2.0750    -1.5920 C.3   1 <1>  -0.2400 
 20 C       -1.1980    -3.6150    -2.4970 C.ar  1 <1>  -0.1500 
 21 H        2.5660    -0.4370    -0.5260 H     1 <1>   0.3700 
 22 H        2.6930    -2.7710     0.0040 H     1 <1>   0.0800 
 23 H        0.7420    -3.5590     2.1330 H     1 <1>   0.0800 
 24 H        2.3530    -4.1860     1.8570 H     1 <1>   0.0800 
 25 H        0.5840    -0.8920    -1.6110 H     1 <1>   0.1500 
 26 H        0.0660    -5.4710     1.0250 H     1 <1>   0.0800 
 27 H        1.5550    -5.5750     0.0860 H     1 <1>   0.0800 
 28 H        2.9210     3.1630    -1.8430 H     1 <1>   0.0800 
 29 H        2.7420     1.4400    -1.9500 H     1 <1>   0.0800 
 30 H       -1.1160    -5.5230    -1.5280 H     1 <1>   0.1500 
 31 H       -1.0820    -1.6200    -3.2490 H     1 <1>   0.1500 
 32 H        4.2870     4.7000     0.3410 H     1 <1>   0.0800 
 33 H        3.1590     5.2600     1.5520 H     1 <1>   0.0800 
 34 H        2.6280     5.0630    -0.1010 H     1 <1>   0.0800 
 35 H        5.2750     2.8720    -1.0880 H     1 <1>   0.0800 
 36 H        5.0160     2.1030    -2.6350 H     1 <1>   0.0800 
 37 H        5.0860     1.1380    -1.1780 H     1 <1>   0.0800 
 38 H       -1.9320    -3.9250    -3.2200 H     1 <1>   0.1500 
@<TRIPOS>BOND
  1   1   2  2   
  2   2   3  am  
  3   2   4  1   
  4   3   5  1   
  5   3  21  1   
  6   4   6  1   
  7   4   7  1   
  8   4  22  1   
  9   5   8  1   
 10   5   9  2   
 11   6  10  ar  
 12   6  11  ar  
 13   7  12  1   
 14   7  23  1   
 15   7  24  1   
 16   8  13  1   
 17   9  14  1   
 18   9  15  1   
 19  10  12  1   
 20  10  16  ar  
 21  11  17  ar  
 22  11  25  1   
 23  12  26  1   
 24  12  27  1   
 25  13  14  2   
 26  14  18  1   
 27  15  19  1   
 28  15  28  1   
 29  15  29  1   
 30  16  20  ar  
 31  16  30  1   
 32  17  20  ar  
 33  17  31  1   
 34  18  32  1   
 35  18  33  1   
 36  18  34  1   
 37  19  35  1   
 38  19  36  1   
 39  19  37  1   
 40  20  38  1   
@<TRIPOS>SUBSTRUCTURE
  1 ****   3 GROUP 4 **** **** 0

# MOE 2024.06 (io_trps.svl 2023.06)
