@<TRIPOS>MOLECULE
NONAME
52 55 1 0 0 
SMALL
USER_CHARGES


@<TRIPOS>ATOM
  1 O       -0.1260     0.0710    -0.7080 O.2   1 <1>  -0.5700 
  2 C       -1.1570     0.6970    -0.7270 C.2   1 <1>   0.5690 
  3 N       -2.3710     0.0800    -0.6040 N.am  1 <1>  -0.6600 
  4 C       -1.0540     2.2030    -0.8730 C.3   1 <1>  -0.0990 
  5 C       -3.7130     0.7150    -0.6300 C.3   1 <1>   0.1400 
  6 C       -2.4910    -1.3890    -0.4470 C.3   1 <1>   0.1400 
  7 C       -0.8320     2.8670     0.4930 C.3   1 <1>  -0.0220 
  8 C       -4.7050    -0.4490    -0.5910 C.3   1 <1>   0.2000 
  9 C       -3.9350    -1.6320    -0.0060 C.3   1 <1>  -0.0800 
 10 C       -0.6390     4.3810     0.3460 C.2   1 <1>  -0.1240 
 11 O       -5.8010    -0.1520     0.2030 O.3   1 <1>  -0.6800 
 12 C       -4.4970    -2.9910    -0.4500 C.3   1 <1>  -0.0170 
 13 C       -1.7730     5.2610     0.4580 C.2   1 <1>   0.3750 
 14 C        0.5970     4.9200     0.1080 C.2   1 <1>  -0.1690 
 15 C       -3.7060    -4.1370     0.1600 C.ar  1 <1>  -0.1430 
 16 N       -1.6900     6.5450     0.3570 N.2   1 <1>  -0.5760 
 17 C       -3.1690     4.7140     0.7060 C.3   1 <1>  -0.1790 
 18 N        0.6710     6.3040     0.0110 N.pl3 1 <1>   0.6010 
 19 C        1.9170     4.1650    -0.0720 C.3   1 <1>  -0.1020 
 20 C       -3.9640    -4.5950     1.4360 C.ar  1 <1>  -0.1500 
 21 C       -2.6930    -4.7780    -0.5240 C.ar  1 <1>  -0.1500 
 22 C       -0.4470     7.0700     0.1330 C.2   1 <1>   0.3120 
 23 N        1.7130     7.1050    -0.2000 N.2   1 <1>  -0.7070 
 24 C       -3.2160    -5.6400     1.9530 C.ar  1 <1>   0.1600 
 25 C       -2.0030    -5.8130     0.0860 C.ar  1 <1>   0.1600 
 26 N       -0.1610     8.3270     0.0090 N.2   1 <1>  -0.5650 
 27 C        1.1550     8.2750    -0.1890 C.2   1 <1>   0.3660 
 28 N       -2.2400    -6.2590     1.3090 N.ar  1 <1>  -0.6200 
 29 H       -0.2170     2.4170    -1.5120 H     1 <1>   0.0800 
 30 H       -1.9280     2.6000    -1.3510 H     1 <1>   0.0800 
 31 H       -3.8270     1.3450     0.2350 H     1 <1>   0.0800 
 32 H       -3.8440     1.2860    -1.5320 H     1 <1>   0.0800 
 33 H       -2.2930    -1.8550    -1.3970 H     1 <1>   0.0800 
 34 H       -1.7880    -1.7590     0.2820 H     1 <1>   0.0800 
 35 H        0.0320     2.4300     0.9600 H     1 <1>   0.0800 
 36 H       -1.6530     2.6370     1.1470 H     1 <1>   0.0800 
 37 H       -5.0540    -0.6600    -1.5870 H     1 <1>   0.0800 
 38 H       -3.9500    -1.5740     1.0690 H     1 <1>   0.0800 
 39 H       -5.5410    -0.0880     1.1410 H     1 <1>   0.4000 
 40 H       -4.4760    -3.0660    -1.5240 H     1 <1>   0.0800 
 41 H       -5.5260    -3.0680    -0.1430 H     1 <1>   0.0800 
 42 H       -3.4280     3.9880    -0.0400 H     1 <1>   0.0800 
 43 H       -3.8920     5.5090     0.6610 H     1 <1>   0.0800 
 44 H       -3.2220     4.2710     1.6830 H     1 <1>   0.0800 
 45 H        2.3960     4.4820    -0.9820 H     1 <1>   0.0800 
 46 H        1.7930     3.1010    -0.1280 H     1 <1>   0.0800 
 47 H        2.5780     4.3890     0.7470 H     1 <1>   0.0800 
 48 H       -4.7390    -4.1520     2.0330 H     1 <1>   0.1500 
 49 H       -2.4300    -4.4850    -1.5240 H     1 <1>   0.1500 
 50 H       -3.4310    -5.9840     2.9500 H     1 <1>   0.1500 
 51 H       -1.2140    -6.2990    -0.4620 H     1 <1>   0.1500 
 52 H        1.7180     9.1850    -0.3330 H     1 <1>   0.1500 
@<TRIPOS>BOND
  1   1   2  2   
  2   2   3  am  
  3   2   4  1   
  4   3   5  1   
  5   3   6  1   
  6   4   7  1   
  7   4  29  1   
  8   4  30  1   
  9   5   8  1   
 10   5  31  1   
 11   5  32  1   
 12   6   9  1   
 13   6  33  1   
 14   6  34  1   
 15   7  10  1   
 16   7  35  1   
 17   7  36  1   
 18   8   9  1   
 19   8  11  1   
 20   8  37  1   
 21   9  12  1   
 22   9  38  1   
 23  10  13  1   
 24  10  14  2   
 25  11  39  1   
 26  12  15  1   
 27  12  40  1   
 28  12  41  1   
 29  13  16  2   
 30  13  17  1   
 31  14  18  1   
 32  14  19  1   
 33  15  20  ar  
 34  15  21  ar  
 35  16  22  1   
 36  17  42  1   
 37  17  43  1   
 38  17  44  1   
 39  18  22  1   
 40  18  23  1   
 41  19  45  1   
 42  19  46  1   
 43  19  47  1   
 44  20  24  ar  
 45  20  48  1   
 46  21  25  ar  
 47  21  49  1   
 48  22  26  2   
 49  23  27  2   
 50  24  28  ar  
 51  24  50  1   
 52  25  28  ar  
 53  25  51  1   
 54  26  27  1   
 55  27  52  1   
@<TRIPOS>SUBSTRUCTURE
  1 ****   2 GROUP 4 **** **** 0

# MOE 2024.06 (io_trps.svl 2023.06)
