@<TRIPOS>MOLECULE
NONAME
48 51 1 0 0 
SMALL
USER_CHARGES


@<TRIPOS>ATOM
  1 CL      -5.1040     3.0170    -3.2520 Cl    1 <1>  -0.1770 
  2 C       -4.5140     3.1680    -1.6110 C.ar  1 <1>   0.1770 
  3 C       -3.9560     2.0810    -0.9410 C.ar  1 <1>   0.0830 
  4 C       -4.6060     4.4060    -1.0010 C.ar  1 <1>  -0.1500 
  5 O       -3.7980     0.8660    -1.5130 O.3   1 <1>  -0.3630 
  6 C       -3.4850     2.2540     0.3510 C.ar  1 <1>  -0.1500 
  7 C       -4.1300     4.5690     0.2910 C.ar  1 <1>  -0.1500 
  8 C       -4.9380     0.0580    -1.7770 C.3   1 <1>   0.1810 
  9 C       -3.5720     3.4940     0.9650 C.ar  1 <1>  -0.1500 
 10 C       -5.5970    -0.4920    -0.5080 C.2   1 <1>   0.5690 
 11 O       -4.9860    -1.3360     0.1070 O.2   1 <1>  -0.5700 
 12 N       -6.8650    -0.1120    -0.1220 N.am  1 <1>  -0.6600 
 13 C       -7.6260     1.0540    -0.6760 C.3   1 <1>   0.1400 
 14 C       -7.6720    -0.9870     0.7810 C.3   1 <1>   0.1400 
 15 C       -8.2520     1.9100     0.4440 C.3   1 <1>   0.1440 
 16 C       -8.3190    -0.1770     1.9100 C.3   1 <1>  -0.1600 
 17 C       -9.0980     3.0160    -0.1610 C.ar  1 <1>   0.1670 
 18 C       -9.1100     1.0300     1.3750 C.3   1 <1>  -0.1600 
 19 C       -7.1870     2.7090     1.2410 C.3   1 <1>  -0.1600 
 20 N      -10.0070     2.8520    -1.0980 N.ar  1 <1>  -0.6200 
 21 C       -8.8060     4.2310     0.3800 C.ar  1 <1>  -0.1440 
 22 C       -7.7310     4.1350     1.4320 C.3   1 <1>  -0.0170 
 23 C      -10.6160     3.9680    -1.4710 C.ar  1 <1>   0.4770 
 24 C       -9.4970     5.3230    -0.0830 C.ar  1 <1>   0.1600 
 25 N      -10.4140     5.1990    -1.0210 N.ar  1 <1>  -0.6200 
 26 C      -11.6660     3.8270    -2.5460 C.3   1 <1>  -0.0970 
 27 H       -5.0390     5.2320    -1.5360 H     1 <1>   0.1500 
 28 H       -3.0490     1.4150     0.8660 H     1 <1>   0.1500 
 29 H       -4.1900     5.5320     0.7700 H     1 <1>   0.1500 
 30 H       -4.5900    -0.7790    -2.3520 H     1 <1>   0.0800 
 31 H       -5.6280     0.6030    -2.3860 H     1 <1>   0.0800 
 32 H       -3.2000     3.6200     1.9670 H     1 <1>   0.1500 
 33 H       -8.4100     0.6790    -1.3110 H     1 <1>   0.0800 
 34 H       -6.9940     1.6850    -1.2720 H     1 <1>   0.0800 
 35 H       -7.0590    -1.7630     1.2090 H     1 <1>   0.0800 
 36 H       -8.4410    -1.4630     0.1970 H     1 <1>   0.0800 
 37 H       -7.5470     0.1420     2.5870 H     1 <1>   0.0800 
 38 H       -8.9800    -0.8190     2.4630 H     1 <1>   0.0800 
 39 H       -9.9590     0.6690     0.8200 H     1 <1>   0.0800 
 40 H       -9.4850     1.6160     2.1950 H     1 <1>   0.0800 
 41 H       -6.2890     2.7660     0.6590 H     1 <1>   0.0800 
 42 H       -6.9350     2.2600     2.1840 H     1 <1>   0.0800 
 43 H       -6.9630     4.8740     1.2870 H     1 <1>   0.0800 
 44 H       -8.1700     4.2470     2.4080 H     1 <1>   0.0800 
 45 H       -9.3020     6.3040     0.3140 H     1 <1>   0.1500 
 46 H      -11.9850     2.8050    -2.6270 H     1 <1>   0.0800 
 47 H      -11.2550     4.1450    -3.4850 H     1 <1>   0.0800 
 48 H      -12.5150     4.4390    -2.3070 H     1 <1>   0.0800 
@<TRIPOS>BOND
  1   1   2  1   
  2   2   3  ar  
  3   2   4  ar  
  4   3   5  1   
  5   3   6  ar  
  6   4   7  ar  
  7   4  27  1   
  8   5   8  1   
  9   6   9  ar  
 10   6  28  1   
 11   7   9  ar  
 12   7  29  1   
 13   8  10  1   
 14   8  30  1   
 15   8  31  1   
 16   9  32  1   
 17  10  11  2   
 18  10  12  am  
 19  12  13  1   
 20  12  14  1   
 21  13  15  1   
 22  13  33  1   
 23  13  34  1   
 24  14  16  1   
 25  14  35  1   
 26  14  36  1   
 27  15  17  1   
 28  15  18  1   
 29  15  19  1   
 30  16  18  1   
 31  16  37  1   
 32  16  38  1   
 33  17  20  ar  
 34  17  21  ar  
 35  18  39  1   
 36  18  40  1   
 37  19  22  1   
 38  19  41  1   
 39  19  42  1   
 40  20  23  ar  
 41  21  22  1   
 42  21  24  ar  
 43  22  43  1   
 44  22  44  1   
 45  23  25  ar  
 46  23  26  1   
 47  24  25  ar  
 48  24  45  1   
 49  26  46  1   
 50  26  47  1   
 51  26  48  1   
@<TRIPOS>SUBSTRUCTURE
  1 ****  13 GROUP 4 **** **** 0

# MOE 2024.06 (io_trps.svl 2023.06)
