@<TRIPOS>MOLECULE
NONAME
56 61 1 0 0 
SMALL
USER_CHARGES


@<TRIPOS>ATOM
  1 O       -0.1790    -0.2590    -1.2000 O.2   1 <1>  -0.5700 
  2 C        0.7360    -0.8570    -0.6680 C.2   1 <1>   0.5440 
  3 N        1.9490    -0.2400    -0.5270 N.am  1 <1>  -0.5790 
  4 C        0.5420    -2.2090    -0.1810 C.ar  1 <1>   0.0860 
  5 C        2.2860     1.1120    -0.9960 C.3   1 <1>   0.0490 
  6 C       -0.6760    -2.6410     0.3080 C.ar  1 <1>  -0.1500 
  7 C        1.5470    -3.1680    -0.1720 C.ar  1 <1>  -0.1500 
  8 C        3.6920     1.3750    -1.4220 C.3   1 <1>  -0.2000 
  9 C        3.1750     1.9500    -0.1380 C.3   1 <1>  -0.2000 
 10 C       -0.8530    -3.9390     0.7690 C.ar  1 <1>   0.4100 
 11 C        1.2890    -4.4350     0.3100 C.ar  1 <1>   0.1600 
 12 N        0.1240    -4.8390     0.7790 N.ar  1 <1>  -0.6200 
 13 N       -2.0920    -4.3370     1.2380 N.pl3 1 <1>  -0.8380 
 14 C       -2.2140    -5.3920     2.2820 C.3   1 <1>   0.2090 
 15 C       -3.2840    -4.2200     0.3590 C.3   1 <1>   0.2090 
 16 C       -2.4710    -6.7460     1.6220 C.3   1 <1>  -0.1600 
 17 C       -3.5210    -5.5580    -0.3370 C.3   1 <1>  -0.1600 
 18 C       -3.6730    -6.6960     0.6790 C.3   1 <1>   0.4600 
 19 O       -4.8070    -6.4530     1.4860 O.3   1 <1>  -0.5600 
 20 C       -3.8410    -8.0360    -0.0290 C.2   1 <1>  -0.3320 
 21 C       -6.0730    -6.7970     0.9750 C.3   1 <1>   0.1200 
 22 N       -2.8960    -8.6760    -0.7800 N.pl3 1 <1>   0.0330 
 23 C       -4.9670    -8.7770    -0.0030 C.2   1 <1>  -0.1810 
 24 C       -6.1890    -8.3140     0.7490 C.3   1 <1>   0.0210 
 25 C       -3.4410    -9.8530    -1.2340 C.ar  1 <1>  -0.1520 
 26 C       -4.7460    -9.9470    -0.7580 C.ar  1 <1>   0.0000 
 27 C       -2.8960   -10.8620    -2.0330 C.ar  1 <1>  -0.1500 
 28 C       -5.5220   -11.0650    -1.0810 C.ar  1 <1>  -0.1500 
 29 C       -3.6710   -11.9550    -2.3440 C.ar  1 <1>  -0.1500 
 30 C       -4.9840   -12.0570    -1.8680 C.ar  1 <1>  -0.1500 
 31 H        2.6770    -0.6900     0.0250 H     1 <1>   0.3700 
 32 H        1.4830     1.5920    -1.5340 H     1 <1>   0.1000 
 33 H       -1.5050    -1.9600     0.3420 H     1 <1>   0.1500 
 34 H        2.5250    -2.9320    -0.5480 H     1 <1>   0.1500 
 35 H        3.8620     2.0450    -2.2470 H     1 <1>   0.1000 
 36 H        4.4060     0.5710    -1.3880 H     1 <1>   0.1000 
 37 H        3.5240     1.5500     0.7970 H     1 <1>   0.1000 
 38 H        2.9910     3.0090    -0.0920 H     1 <1>   0.1000 
 39 H        2.0840    -5.1610     0.3100 H     1 <1>   0.1500 
 40 H       -3.0320    -5.1440     2.9380 H     1 <1>   0.0800 
 41 H       -1.3140    -5.4340     2.8720 H     1 <1>   0.0800 
 42 H       -3.1350    -3.4520    -0.3790 H     1 <1>   0.0800 
 43 H       -4.1400    -3.9550     0.9560 H     1 <1>   0.0800 
 44 H       -2.6390    -7.4950     2.3730 H     1 <1>   0.0800 
 45 H       -1.5900    -7.0240     1.0750 H     1 <1>   0.0800 
 46 H       -2.6780    -5.7610    -0.9710 H     1 <1>   0.0800 
 47 H       -4.3870    -5.5020    -0.9660 H     1 <1>   0.0800 
 48 H       -6.2240    -6.2700     0.0500 H     1 <1>   0.0800 
 49 H       -6.8130    -6.4700     1.6840 H     1 <1>   0.0800 
 50 H       -1.9420    -8.3510    -0.9650 H     1 <1>   0.2700 
 51 H       -7.0770    -8.5300     0.1830 H     1 <1>   0.0800 
 52 H       -6.2480    -8.8230     1.6940 H     1 <1>   0.0800 
 53 H       -1.8870   -10.7750    -2.3930 H     1 <1>   0.1500 
 54 H       -6.5270   -11.1290    -0.7080 H     1 <1>   0.1500 
 55 H       -3.2740   -12.7450    -2.9570 H     1 <1>   0.1500 
 56 H       -5.5690   -12.9230    -2.1250 H     1 <1>   0.1500 
@<TRIPOS>BOND
  1   1   2  2   
  2   2   3  am  
  3   2   4  1   
  4   3   5  1   
  5   3  31  1   
  6   4   6  ar  
  7   4   7  ar  
  8   5   8  1   
  9   5   9  1   
 10   5  32  1   
 11   6  10  ar  
 12   6  33  1   
 13   7  11  ar  
 14   7  34  1   
 15   8   9  1   
 16   8  35  1   
 17   8  36  1   
 18   9  37  1   
 19   9  38  1   
 20  10  12  ar  
 21  10  13  1   
 22  11  12  ar  
 23  11  39  1   
 24  13  14  1   
 25  13  15  1   
 26  14  16  1   
 27  14  40  1   
 28  14  41  1   
 29  15  17  1   
 30  15  42  1   
 31  15  43  1   
 32  16  18  1   
 33  16  44  1   
 34  16  45  1   
 35  17  18  1   
 36  17  46  1   
 37  17  47  1   
 38  18  19  1   
 39  18  20  1   
 40  19  21  1   
 41  20  22  1   
 42  20  23  2   
 43  21  24  1   
 44  21  48  1   
 45  21  49  1   
 46  22  25  1   
 47  22  50  1   
 48  23  24  1   
 49  23  26  1   
 50  24  51  1   
 51  24  52  1   
 52  25  26  ar  
 53  25  27  ar  
 54  26  28  ar  
 55  27  29  ar  
 56  27  53  1   
 57  28  30  ar  
 58  28  54  1   
 59  29  30  ar  
 60  29  55  1   
 61  30  56  1   
@<TRIPOS>SUBSTRUCTURE
  1 ****  17 GROUP 4 **** **** 0

# MOE 2024.06 (io_trps.svl 2023.06)
