@<TRIPOS>MOLECULE
NONAME
44 46 1 0 0 
SMALL
USER_CHARGES


@<TRIPOS>ATOM
  1 S       -0.1260     0.5480     0.0890 S.o2  1 <1>   1.3330 
  2 O       -0.3830    -0.0240     1.3920 O.2   1 <1>  -0.6500 
  3 O       -0.5250     1.9100    -0.1810 O.2   1 <1>  -0.6500 
  4 N       -0.8540    -0.4590    -1.0680 N.am  1 <1>  -0.8490 
  5 C        1.6160     0.3970    -0.3090 C.3   1 <1>  -0.0550 
  6 C       -0.8900    -1.8710    -0.6720 C.3   1 <1>   0.1160 
  7 C       -2.2020    -0.0080    -1.4290 C.3   1 <1>   0.1160 
  8 C        2.5290     1.2810     0.5640 C.3   1 <1>  -0.0800 
  9 C        3.9500     1.2930     0.0290 C.3   1 <1>   0.2200 
 10 C        2.7300     0.6980     1.9660 C.3   1 <1>   0.1200 
 11 N        4.6330     2.5170     0.5030 N.am  1 <1>  -0.7300 
 12 C        4.5560     0.0650     0.7010 C.3   1 <1>   0.1200 
 13 O        3.8660    -0.1130     1.9030 O.3   1 <1>  -0.5600 
 14 C        4.8550     3.6370    -0.2450 C.2   1 <1>   0.7150 
 15 O        4.5280     3.6050    -1.4170 O.2   1 <1>  -0.5700 
 16 C        5.4440     4.7990     0.3550 C.2   1 <1>  -0.0450 
 17 S        5.9650     4.7250     2.0580 S.3   1 <1>  -0.0800 
 18 C        5.7110     6.0490    -0.1110 C.2   1 <1>   0.0620 
 19 C        6.5260     6.3910     2.0510 C.2   1 <1>  -0.1100 
 20 O        5.4410     6.4790    -1.3620 O.3   1 <1>  -0.3420 
 21 C        6.3220     6.9330     0.8380 C.2   1 <1>   0.0620 
 22 C        5.4950     7.8710    -1.6050 C.3   1 <1>   0.1200 
 23 O        6.6510     8.2090     0.5020 O.3   1 <1>  -0.3420 
 24 C        6.7030     8.4900    -0.8850 C.3   1 <1>   0.1200 
 25 H        1.9170    -0.6290    -0.2200 H     1 <1>   0.0800 
 26 H        1.7420     0.6870    -1.3340 H     1 <1>   0.0800 
 27 H       -1.2730    -2.4720    -1.4790 H     1 <1>   0.0800 
 28 H       -1.5190    -2.0040     0.1930 H     1 <1>   0.0800 
 29 H        0.1010    -2.2160    -0.4330 H     1 <1>   0.0800 
 30 H       -2.6260    -0.6580    -2.1740 H     1 <1>   0.0800 
 31 H       -2.1600     0.9880    -1.8380 H     1 <1>   0.0800 
 32 H       -2.8390     0.0010    -0.5600 H     1 <1>   0.0800 
 33 H        2.1170     2.2760     0.6030 H     1 <1>   0.0800 
 34 H        4.0010     1.2300    -1.0460 H     1 <1>   0.0800 
 35 H        1.9010     0.1090     2.3170 H     1 <1>   0.0800 
 36 H        2.9310     1.4820     2.6760 H     1 <1>   0.0800 
 37 H        4.8760     2.5320     1.4950 H     1 <1>   0.3700 
 38 H        5.6070     0.1790     0.9000 H     1 <1>   0.0800 
 39 H        4.3930    -0.8130     0.1020 H     1 <1>   0.0800 
 40 H        6.9520     6.7920     2.9510 H     1 <1>   0.1500 
 41 H        5.5660     8.0160    -2.6670 H     1 <1>   0.0800 
 42 H        4.5800     8.3080    -1.2480 H     1 <1>   0.0800 
 43 H        6.7110     9.5580    -1.0050 H     1 <1>   0.0800 
 44 H        7.6190     8.0840    -1.2760 H     1 <1>   0.0800 
@<TRIPOS>BOND
  1   1   2  2   
  2   1   3  2   
  3   1   4  am  
  4   1   5  1   
  5   4   6  1   
  6   4   7  1   
  7   5   8  1   
  8   5  25  1   
  9   5  26  1   
 10   6  27  1   
 11   6  28  1   
 12   6  29  1   
 13   7  30  1   
 14   7  31  1   
 15   7  32  1   
 16   8   9  1   
 17   8  10  1   
 18   8  33  1   
 19   9  11  1   
 20   9  12  1   
 21   9  34  1   
 22  10  13  1   
 23  10  35  1   
 24  10  36  1   
 25  11  14  am  
 26  11  37  1   
 27  12  13  1   
 28  12  38  1   
 29  12  39  1   
 30  14  15  2   
 31  14  16  1   
 32  16  17  1   
 33  16  18  2   
 34  17  19  1   
 35  18  20  1   
 36  18  21  1   
 37  19  21  2   
 38  19  40  1   
 39  20  22  1   
 40  21  23  1   
 41  22  24  1   
 42  22  41  1   
 43  22  42  1   
 44  23  24  1   
 45  24  43  1   
 46  24  44  1   
@<TRIPOS>SUBSTRUCTURE
  1 ****  11 GROUP 4 **** **** 0

# MOE 2024.06 (io_trps.svl 2023.06)
