@<TRIPOS>MOLECULE
NONAME
59 61 1 0 0 
SMALL
USER_CHARGES


@<TRIPOS>ATOM
  1 O       -1.0090    -0.5740    -1.6580 O.2   1 <1>  -0.5700 
  2 C       -1.8760    -0.3530    -0.8390 C.2   1 <1>   0.7150 
  3 N       -2.2560    -1.3820    -0.0500 N.am  1 <1>  -0.8000 
  4 C       -2.4670     0.9580    -0.7090 C.2   1 <1>   0.0550 
  5 O       -3.3560     1.2340     0.2370 O.3   1 <1>  -0.2800 
  6 C       -2.2680     2.0840    -1.4410 C.2   1 <1>  -0.1500 
  7 C       -3.7360     2.4930     0.1450 C.2   1 <1>  -0.0400 
  8 C       -3.0760     3.0810    -0.8870 C.2   1 <1>  -0.1810 
  9 C       -4.7730     2.9740     1.1750 C.3   1 <1>   0.1800 
 10 C       -3.1040     4.4970    -1.4170 C.3   1 <1>   0.5240 
 11 C       -6.0070     2.0620     1.1120 C.3   1 <1>  -0.2400 
 12 C       -4.1570     2.8910     2.5780 C.3   1 <1>  -0.2400 
 13 C       -5.2390     4.4170     0.9340 C.3   1 <1>  -0.2400 
 14 N       -2.0970     5.2770    -0.6560 N.4   1 <1>  -0.9590 
 15 C       -2.1690     6.7480    -0.8940 C.3   1 <1>   0.3430 
 16 C       -0.6940     4.8660    -0.8990 C.3   1 <1>   0.3430 
 17 C       -0.7260     7.2690    -0.9240 C.3   1 <1>   0.0630 
 18 C        0.1070     6.0730    -0.4480 C.3   1 <1>  -0.1600 
 19 C       -0.5850     8.5840    -0.1460 C.ar  1 <1>  -0.1430 
 20 C       -1.4220     9.6560    -0.4660 C.ar  1 <1>   0.0820 
 21 C        0.3600     8.7490     0.8600 C.ar  1 <1>  -0.1500 
 22 O       -2.2810     9.4830    -1.5140 O.3   1 <1>  -0.3620 
 23 C       -1.3650    10.8500     0.2720 C.ar  1 <1>   0.0820 
 24 C        0.4430     9.9350     1.5640 C.ar  1 <1>  -0.1500 
 25 C       -2.3790    10.4930    -2.5000 C.3   1 <1>   0.0400 
 26 O       -2.2550    11.8470    -0.0020 O.3   1 <1>  -0.3630 
 27 C       -0.4160    10.9770     1.2800 C.ar  1 <1>  -0.1500 
 28 C       -2.3100    13.0350     0.7580 C.3   1 <1>   0.0400 
 29 H       -1.8280    -2.2990    -0.1740 H     1 <1>   0.3700 
 30 H       -2.9880    -1.2840     0.6520 H     1 <1>   0.3700 
 31 H       -1.6090     2.1730    -2.2890 H     1 <1>   0.1500 
 32 H       -4.0830     4.9210    -1.2790 H     1 <1>   0.0800 
 33 H       -2.8740     4.5050    -2.4700 H     1 <1>   0.0800 
 34 H       -5.7390     1.0450     1.3390 H     1 <1>   0.0800 
 35 H       -6.4370     2.0830     0.1270 H     1 <1>   0.0800 
 36 H       -6.7530     2.3760     1.8200 H     1 <1>   0.0800 
 37 H       -3.8680     1.8790     2.8000 H     1 <1>   0.0800 
 38 H       -4.8640     3.2090     3.3240 H     1 <1>   0.0800 
 39 H       -3.2830     3.5120     2.6450 H     1 <1>   0.0800 
 40 H       -5.6980     4.5090    -0.0330 H     1 <1>   0.0800 
 41 H       -4.4220     5.1070     1.0190 H     1 <1>   0.0800 
 42 H       -5.9740     4.6940     1.6700 H     1 <1>   0.0800 
 43 H       -2.2870     5.1040     0.3390 H     1 <1>   0.4500 
 44 H       -2.7170     7.2310    -0.1010 H     1 <1>   0.0800 
 45 H       -2.6490     6.9740    -1.8320 H     1 <1>   0.0800 
 46 H       -0.5340     4.6940    -1.9510 H     1 <1>   0.0800 
 47 H       -0.4360     3.9770    -0.3430 H     1 <1>   0.0800 
 48 H       -0.4770     7.4700    -1.9520 H     1 <1>   0.0800 
 49 H        1.0990     6.0760    -0.8640 H     1 <1>   0.0800 
 50 H        0.1710     6.0400     0.6250 H     1 <1>   0.0800 
 51 H        1.0560     7.9730     1.1200 H     1 <1>   0.1500 
 52 H        1.1810    10.0480     2.3410 H     1 <1>   0.1500 
 53 H       -2.6710    10.0360    -3.4280 H     1 <1>   0.0800 
 54 H       -1.4240    10.9770    -2.6120 H     1 <1>   0.0800 
 55 H       -3.1270    11.2040    -2.1990 H     1 <1>   0.0800 
 56 H       -0.3260    11.8770     1.8590 H     1 <1>   0.1500 
 57 H       -3.1100    13.6410     0.3720 H     1 <1>   0.0800 
 58 H       -1.3760    13.5570     0.6600 H     1 <1>   0.0800 
 59 H       -2.5080    12.7840     1.7860 H     1 <1>   0.0800 
@<TRIPOS>BOND
  1   1   2  2   
  2   2   3  am  
  3   2   4  1   
  4   3  29  1   
  5   3  30  1   
  6   4   5  1   
  7   4   6  2   
  8   5   7  1   
  9   6   8  1   
 10   6  31  1   
 11   7   8  2   
 12   7   9  1   
 13   8  10  1   
 14   9  11  1   
 15   9  12  1   
 16   9  13  1   
 17  10  14  1   
 18  10  32  1   
 19  10  33  1   
 20  11  34  1   
 21  11  35  1   
 22  11  36  1   
 23  12  37  1   
 24  12  38  1   
 25  12  39  1   
 26  13  40  1   
 27  13  41  1   
 28  13  42  1   
 29  14  15  1   
 30  14  16  1   
 31  14  43  1   
 32  15  17  1   
 33  15  44  1   
 34  15  45  1   
 35  16  18  1   
 36  16  46  1   
 37  16  47  1   
 38  17  18  1   
 39  17  19  1   
 40  17  48  1   
 41  18  49  1   
 42  18  50  1   
 43  19  20  ar  
 44  19  21  ar  
 45  20  22  1   
 46  20  23  ar  
 47  21  24  ar  
 48  21  51  1   
 49  22  25  1   
 50  23  26  1   
 51  23  27  ar  
 52  24  27  ar  
 53  24  52  1   
 54  25  53  1   
 55  25  54  1   
 56  25  55  1   
 57  26  28  1   
 58  27  56  1   
 59  28  57  1   
 60  28  58  1   
 61  28  59  1   
@<TRIPOS>SUBSTRUCTURE
  1 ****  14 GROUP 4 **** **** 0

# MOE 2024.06 (io_trps.svl 2023.06)
