@<TRIPOS>MOLECULE
NONAME
42 45 1 0 0 
SMALL
USER_CHARGES


@<TRIPOS>ATOM
  1 S       -0.4070     0.1680     0.1890 S.o2  1 <1>   1.0900 
  2 O       -0.4000     1.1520     1.2450 O.2   1 <1>  -0.6500 
  3 O        0.7830    -0.1530    -0.5650 O.2   1 <1>  -0.6500 
  4 C       -1.1010    -1.3570     0.7560 C.3   1 <1>  -0.0550 
  5 C       -1.7220     0.4990    -0.9750 C.3   1 <1>  -0.0550 
  6 C       -1.7700    -1.9440    -0.4840 C.3   1 <1>   0.1760 
  7 C       -2.5290    -0.7960    -1.1810 C.3   1 <1>  -0.1600 
  8 N       -2.6690    -3.0710    -0.1290 N.pl3 1 <1>   0.3140 
  9 N       -3.6280    -2.9230     0.8040 N.2   1 <1>  -0.7070 
 10 C       -2.6600    -4.3300    -0.6370 C.2   1 <1>  -0.3320 
 11 C       -4.2040    -4.0820     0.8810 C.2   1 <1>   0.1080 
 12 C       -3.6370    -5.0110     0.0020 C.2   1 <1>   0.0630 
 13 C       -1.7000    -4.8240    -1.7100 C.3   1 <1>  -0.0600 
 14 C       -5.3600    -4.3280     1.8250 C.3   1 <1>  -0.0590 
 15 N       -3.9820    -6.3660    -0.2270 N.am  1 <1>  -0.4930 
 16 C       -4.2450    -7.3790     0.6510 C.2   1 <1>   0.7160 
 17 O       -4.2840    -7.1710     1.8520 O.2   1 <1>  -0.5700 
 18 C       -4.4590    -8.7100     0.1120 C.2   1 <1>   0.1410 
 19 N       -4.3760    -8.9840    -1.2330 N.2   1 <1>  -0.5650 
 20 C       -4.7590    -9.8600     0.7970 C.2   1 <1>  -0.3020 
 21 C       -4.6260   -10.2470    -1.2680 C.2   1 <1>   0.2420 
 22 N       -4.8680   -10.8600    -0.0940 N.pl3 1 <1>   0.3340 
 23 S       -4.7230   -11.4150    -2.6000 S.3   1 <1>  -0.1570 
 24 C       -5.1350   -12.2420    -0.1930 C.2   1 <1>  -0.1810 
 25 C       -5.1030   -12.7220    -1.4480 C.2   1 <1>  -0.0490 
 26 H       -1.8390    -1.1590     1.5110 H     1 <1>   0.0800 
 27 H       -0.3480    -2.0130     1.1470 H     1 <1>   0.0800 
 28 H       -1.3080     0.8380    -1.9060 H     1 <1>   0.0800 
 29 H       -2.3690     1.2670    -0.5920 H     1 <1>   0.0800 
 30 H       -1.0010    -2.3050    -1.1430 H     1 <1>   0.0800 
 31 H       -2.6630    -1.0060    -2.2270 H     1 <1>   0.0800 
 32 H       -3.4980    -0.6720    -0.7230 H     1 <1>   0.0800 
 33 H       -1.8210    -4.2510    -2.6120 H     1 <1>   0.0800 
 34 H       -1.8850    -5.8580    -1.9390 H     1 <1>   0.0800 
 35 H       -0.6830    -4.7360    -1.3700 H     1 <1>   0.0800 
 36 H       -5.8830    -3.4080     2.0090 H     1 <1>   0.0800 
 37 H       -4.9860    -4.7100     2.7560 H     1 <1>   0.0800 
 38 H       -6.0430    -5.0390     1.4000 H     1 <1>   0.0800 
 39 H       -3.9040    -6.6910    -1.1920 H     1 <1>   0.3700 
 40 H       -4.8930    -9.9950     1.8540 H     1 <1>   0.1500 
 41 H       -5.3360   -12.7820     0.7140 H     1 <1>   0.1500 
 42 H       -5.2570   -13.7040    -1.8630 H     1 <1>   0.1500 
@<TRIPOS>BOND
  1   1   2  2   
  2   1   3  2   
  3   1   4  1   
  4   1   5  1   
  5   4   6  1   
  6   4  26  1   
  7   4  27  1   
  8   5   7  1   
  9   5  28  1   
 10   5  29  1   
 11   6   7  1   
 12   6   8  1   
 13   6  30  1   
 14   7  31  1   
 15   7  32  1   
 16   8   9  1   
 17   8  10  1   
 18   9  11  2   
 19  10  12  2   
 20  10  13  1   
 21  11  12  1   
 22  11  14  1   
 23  12  15  1   
 24  13  33  1   
 25  13  34  1   
 26  13  35  1   
 27  14  36  1   
 28  14  37  1   
 29  14  38  1   
 30  15  16  am  
 31  15  39  1   
 32  16  17  2   
 33  16  18  1   
 34  18  19  1   
 35  18  20  2   
 36  19  21  2   
 37  20  22  1   
 38  20  40  1   
 39  21  22  1   
 40  21  23  1   
 41  22  24  1   
 42  23  25  1   
 43  24  25  2   
 44  24  41  1   
 45  25  42  1   
@<TRIPOS>SUBSTRUCTURE
  1 ****  12 GROUP 4 **** **** 0

# MOE 2024.06 (io_trps.svl 2023.06)
