@<TRIPOS>MOLECULE
NONAME
46 49 1 0 0 
SMALL
USER_CHARGES


@<TRIPOS>ATOM
  1 O       -1.7630    -0.4120    -2.7510 O.2   1 <1>  -0.5700 
  2 C       -2.0580    -0.7710    -1.6350 C.2   1 <1>   0.5690 
  3 N       -2.1730     0.1070    -0.5990 N.am  1 <1>  -0.6600 
  4 C       -2.3000    -2.2460    -1.4050 C.3   1 <1>  -0.0190 
  5 C       -2.5500    -0.3560     0.7660 C.3   1 <1>   0.2200 
  6 C       -1.9360     1.5690    -0.7650 C.3   1 <1>   0.0600 
  7 C       -1.2450    -2.8440    -0.4530 C.3   1 <1>   0.1200 
  8 C       -3.7820    -2.5260    -1.0960 C.3   1 <1>   0.1100 
  9 C       -1.4650    -1.2880     1.3630 C.3   1 <1>   0.1200 
 10 C       -4.0030    -0.8950     0.7940 C.3   1 <1>   0.1100 
 11 O       -1.4800    -2.6110     0.9030 O.3   1 <1>  -0.5600 
 12 N       -4.2070    -2.2720     0.2960 N.3   1 <1>  -0.8100 
 13 C       -5.5690    -2.7570     0.5410 C.3   1 <1>   0.2900 
 14 C       -5.5560    -4.2700     0.6550 C.2   1 <1>  -0.3320 
 15 N       -6.6640    -5.0340     0.4810 N.pl3 1 <1>   0.5930 
 16 C       -4.5290    -5.1010     0.9310 C.2   1 <1>  -0.1500 
 17 N       -6.3500    -6.3460     0.6230 N.2   1 <1>  -0.7070 
 18 C       -7.9750    -4.5780     0.1730 C.ar  1 <1>  -0.0230 
 19 C       -5.0830    -6.3720     0.8950 C.2   1 <1>   0.1390 
 20 C       -8.6880    -3.7940     1.0750 C.ar  1 <1>  -0.1500 
 21 C       -8.5640    -4.9020    -1.0450 C.ar  1 <1>  -0.1500 
 22 C       -9.9530    -3.3300     0.7590 C.ar  1 <1>  -0.1500 
 23 C       -9.8300    -4.4400    -1.3610 C.ar  1 <1>  -0.1500 
 24 C      -10.5230    -3.6510    -0.4600 C.ar  1 <1>  -0.1500 
 25 H       -2.1160    -2.7080    -2.3580 H     1 <1>   0.0800 
 26 H       -2.5540     0.5190     1.3910 H     1 <1>   0.0800 
 27 H       -1.1330     1.8830    -0.1210 H     1 <1>   0.0800 
 28 H       -2.8290     2.1140    -0.5150 H     1 <1>   0.0800 
 29 H       -1.6680     1.8000    -1.7820 H     1 <1>   0.0800 
 30 H       -0.2650    -2.4700    -0.6950 H     1 <1>   0.0800 
 31 H       -1.2360    -3.9130    -0.5760 H     1 <1>   0.0800 
 32 H       -3.9610    -3.5640    -1.3190 H     1 <1>   0.0800 
 33 H       -4.3940    -1.9450    -1.7660 H     1 <1>   0.0800 
 34 H       -1.6160    -1.3450     2.4260 H     1 <1>   0.0800 
 35 H       -0.4860    -0.8790     1.1870 H     1 <1>   0.0800 
 36 H       -4.6360    -0.2170     0.2480 H     1 <1>   0.0800 
 37 H       -4.3170    -0.8750     1.8230 H     1 <1>   0.0800 
 38 H       -5.9440    -2.3540     1.4660 H     1 <1>   0.0800 
 39 H       -6.2180    -2.4370    -0.2570 H     1 <1>   0.0800 
 40 H       -3.5010    -4.8440     1.1310 H     1 <1>   0.1500 
 41 H       -4.5300    -7.2800     1.0720 H     1 <1>   0.1500 
 42 H       -8.2540    -3.5500     2.0290 H     1 <1>   0.1500 
 43 H       -8.0270    -5.5230    -1.7420 H     1 <1>   0.1500 
 44 H      -10.4970    -2.7240     1.4630 H     1 <1>   0.1500 
 45 H      -10.2760    -4.6970    -2.3060 H     1 <1>   0.1500 
 46 H      -11.5080    -3.2920    -0.7060 H     1 <1>   0.1500 
@<TRIPOS>BOND
  1   1   2  2   
  2   2   3  am  
  3   2   4  1   
  4   3   5  1   
  5   3   6  1   
  6   4   7  1   
  7   4   8  1   
  8   4  25  1   
  9   5   9  1   
 10   5  10  1   
 11   5  26  1   
 12   6  27  1   
 13   6  28  1   
 14   6  29  1   
 15   7  11  1   
 16   7  30  1   
 17   7  31  1   
 18   8  12  1   
 19   8  32  1   
 20   8  33  1   
 21   9  11  1   
 22   9  34  1   
 23   9  35  1   
 24  10  12  1   
 25  10  36  1   
 26  10  37  1   
 27  12  13  1   
 28  13  14  1   
 29  13  38  1   
 30  13  39  1   
 31  14  15  1   
 32  14  16  2   
 33  15  17  1   
 34  15  18  1   
 35  16  19  1   
 36  16  40  1   
 37  17  19  2   
 38  18  20  ar  
 39  18  21  ar  
 40  19  41  1   
 41  20  22  ar  
 42  20  42  1   
 43  21  23  ar  
 44  21  43  1   
 45  22  24  ar  
 46  22  44  1   
 47  23  24  ar  
 48  23  45  1   
 49  24  46  1   
@<TRIPOS>SUBSTRUCTURE
  1 ****  13 GROUP 4 **** **** 0

# MOE 2024.06 (io_trps.svl 2023.06)
