@<TRIPOS>MOLECULE
NONAME
49 51 1 0 0 
SMALL
USER_CHARGES


@<TRIPOS>ATOM
  1 O        0.0690    -0.7190     1.3340 O.2   1 <1>  -0.5700 
  2 C        1.0880    -1.1290     0.8240 C.2   1 <1>   0.5690 
  3 N        2.2050    -0.3730     0.6550 N.am  1 <1>  -0.4930 
  4 C        1.0720    -2.5810     0.3280 C.3   1 <1>   0.4040 
  5 C        2.4290     0.9600     0.9720 C.2   1 <1>   0.3520 
  6 N       -0.3250    -3.0880     0.0230 N.4   1 <1>  -0.9590 
  7 N        3.5620     1.4790     0.6340 N.2   1 <1>  -0.7070 
  8 C        1.5980     1.8680     1.6220 C.2   1 <1>  -0.1500 
  9 C       -0.4340    -4.5830    -0.0100 C.3   1 <1>   0.5660 
 10 C       -0.9250    -2.4110    -1.1590 C.3   1 <1>   0.3430 
 11 N        3.4920     2.7570     1.0630 N.pl3 1 <1>   0.3140 
 12 C        2.3120     3.0110     1.6630 C.2   1 <1>  -0.3020 
 13 C        0.8600    -5.2140    -0.5190 C.ar  1 <1>  -0.1440 
 14 C       -1.6690    -5.0560    -0.8010 C.3   1 <1>  -0.1600 
 15 C       -2.4360    -2.6780    -1.1880 C.3   1 <1>  -0.1600 
 16 C        4.6030     3.6950     0.8660 C.3   1 <1>   0.0160 
 17 C        1.6350    -5.9550     0.3640 C.ar  1 <1>  -0.1500 
 18 C        1.2990    -5.0480    -1.8290 C.ar  1 <1>  -0.1500 
 19 C       -2.8420    -4.0740    -0.6780 C.3   1 <1>  -0.1600 
 20 C        2.8410    -6.5100    -0.0490 C.ar  1 <1>   0.0820 
 21 C        2.4980    -5.6000    -2.2430 C.ar  1 <1>  -0.1500 
 22 O        3.6520    -7.2370     0.7570 O.3   1 <1>  -0.3630 
 23 C        3.2670    -6.3250    -1.3530 C.ar  1 <1>  -0.1500 
 24 C        3.2330    -7.6940     2.0240 C.3   1 <1>   0.0400 
 25 H        3.0450    -0.7600     0.2280 H     1 <1>   0.3700 
 26 H        1.5120    -3.1910     1.0980 H     1 <1>   0.0800 
 27 H        1.6880    -2.6630    -0.5510 H     1 <1>   0.0800 
 28 H       -0.8990    -2.7610     0.8160 H     1 <1>   0.4500 
 29 H        0.6100     1.6750     2.0000 H     1 <1>   0.1500 
 30 H       -0.5690    -4.9150     1.0070 H     1 <1>   0.0800 
 31 H       -0.4740    -2.7910    -2.0600 H     1 <1>   0.0800 
 32 H       -0.7540    -1.3470    -1.1150 H     1 <1>   0.0800 
 33 H        2.0520     3.9680     2.0760 H     1 <1>   0.1500 
 34 H       -1.9620    -6.0250    -0.4360 H     1 <1>   0.0800 
 35 H       -1.4240    -5.1800    -1.8410 H     1 <1>   0.0800 
 36 H       -2.7700    -2.5590    -2.2050 H     1 <1>   0.0800 
 37 H       -2.9420    -1.9250    -0.6070 H     1 <1>   0.0800 
 38 H        4.7940     3.7930    -0.1860 H     1 <1>   0.0800 
 39 H        5.4770     3.3060     1.3550 H     1 <1>   0.0800 
 40 H        4.3480     4.6510     1.2820 H     1 <1>   0.0800 
 41 H        1.3040    -6.0970     1.3760 H     1 <1>   0.1500 
 42 H        0.7200    -4.4940    -2.5470 H     1 <1>   0.1500 
 43 H       -3.1400    -4.0060     0.3550 H     1 <1>   0.0800 
 44 H       -3.6920    -4.4360    -1.2350 H     1 <1>   0.0800 
 45 H        2.8360    -5.4730    -3.2580 H     1 <1>   0.1500 
 46 H        4.2010    -6.7580    -1.6650 H     1 <1>   0.1500 
 47 H        4.0090    -8.3210     2.4240 H     1 <1>   0.0800 
 48 H        2.3280    -8.2650     1.9090 H     1 <1>   0.0800 
 49 H        3.0810    -6.8490     2.6700 H     1 <1>   0.0800 
@<TRIPOS>BOND
  1   1   2  2   
  2   2   3  am  
  3   2   4  1   
  4   3   5  1   
  5   3  25  1   
  6   4   6  1   
  7   4  26  1   
  8   4  27  1   
  9   5   7  2   
 10   5   8  1   
 11   6   9  1   
 12   6  10  1   
 13   6  28  1   
 14   7  11  1   
 15   8  12  2   
 16   8  29  1   
 17   9  13  1   
 18   9  14  1   
 19   9  30  1   
 20  10  15  1   
 21  10  31  1   
 22  10  32  1   
 23  11  12  1   
 24  11  16  1   
 25  12  33  1   
 26  13  17  ar  
 27  13  18  ar  
 28  14  19  1   
 29  14  34  1   
 30  14  35  1   
 31  15  19  1   
 32  15  36  1   
 33  15  37  1   
 34  16  38  1   
 35  16  39  1   
 36  16  40  1   
 37  17  20  ar  
 38  17  41  1   
 39  18  21  ar  
 40  18  42  1   
 41  19  43  1   
 42  19  44  1   
 43  20  22  1   
 44  20  23  ar  
 45  21  23  ar  
 46  21  45  1   
 47  22  24  1   
 48  23  46  1   
 49  24  47  1   
 50  24  48  1   
 51  24  49  1   
@<TRIPOS>SUBSTRUCTURE
  1 ****   4 GROUP 4 **** **** 0

# MOE 2024.06 (io_trps.svl 2023.06)
