@<TRIPOS>MOLECULE
NONAME
55 59 1 0 0 
SMALL
USER_CHARGES


@<TRIPOS>ATOM
  1 S       -1.8040    -0.4120    -3.8840 S.3   1 <1>  -0.0800 
  2 C       -3.2010     0.5370    -3.4350 C.2   1 <1>   0.2280 
  3 C       -2.3650    -1.6810    -2.8350 C.2   1 <1>  -0.1100 
  4 N       -3.9650    -0.0250    -2.5820 N.2   1 <1>  -0.5650 
  5 C       -3.5100    -1.2930    -2.2510 C.2   1 <1>   0.0460 
  6 C       -4.3490    -2.1400    -1.3010 C.3   1 <1>   0.0210 
  7 C       -4.6070    -1.5970     0.1360 C.3   1 <1>   0.0610 
  8 C       -5.1370    -2.7960     0.9240 C.2   1 <1>   0.5690 
  9 C       -3.3290    -1.0160     0.7950 C.3   1 <1>   0.4230 
 10 C       -5.5320    -0.3430     0.1590 C.3   1 <1>  -0.1600 
 11 O       -4.3350    -3.5380     1.4390 O.2   1 <1>  -0.5700 
 12 N       -6.4660    -3.0690     0.9550 N.am  1 <1>  -0.7300 
 13 N       -3.3200     0.3480     0.2330 N.4   1 <1>  -0.9590 
 14 C       -3.5440    -0.6970     2.2930 C.3   1 <1>  -0.1600 
 15 C       -4.6310     0.7600     0.7400 C.3   1 <1>   0.4230 
 16 C       -7.0300    -4.3280     1.4730 C.3   1 <1>   0.3200 
 17 C       -2.1520     1.2110     0.5640 C.3   1 <1>   0.4860 
 18 C       -4.4840     0.5190     2.2480 C.3   1 <1>  -0.1600 
 19 C       -6.8010    -5.3790     0.4150 C.2   1 <1>  -0.3320 
 20 C       -2.1690     2.4320    -0.3350 C.ar  1 <1>  -0.1440 
 21 N       -5.5750    -5.8830     0.1660 N.pl3 1 <1>   0.3000 
 22 C       -7.6510    -5.9880    -0.4400 C.2   1 <1>  -0.1500 
 23 C       -2.9310     3.5490    -0.0060 C.ar  1 <1>  -0.1500 
 24 C       -1.4030     2.4350    -1.4960 C.ar  1 <1>  -0.1500 
 25 N       -5.6000    -6.7800    -0.8350 N.2   1 <1>  -0.7070 
 26 C       -6.8490    -6.8440    -1.1870 C.2   1 <1>   0.1390 
 27 C       -2.9440     4.6560    -0.8390 C.ar  1 <1>  -0.1500 
 28 C       -1.4080     3.5370    -2.3350 C.ar  1 <1>  -0.1500 
 29 C       -2.1830     4.6270    -1.9910 C.ar  1 <1>   0.1900 
 30 F       -2.1950     5.6650    -2.7810 F     1 <1>  -0.1900 
 31 H       -3.3030     1.5070    -3.8950 H     1 <1>   0.1500 
 32 H       -1.7830    -2.5850    -2.7880 H     1 <1>   0.1500 
 33 H       -5.2960    -2.3270    -1.7770 H     1 <1>   0.0800 
 34 H       -3.8600    -3.0970    -1.2230 H     1 <1>   0.0800 
 35 H       -2.4400    -1.5920     0.5890 H     1 <1>   0.0800 
 36 H       -6.4060    -0.4670     0.7730 H     1 <1>   0.0800 
 37 H       -5.8660    -0.0650    -0.8240 H     1 <1>   0.0800 
 38 H       -7.1150    -2.5530     0.3590 H     1 <1>   0.3700 
 39 H       -3.3950     0.3000    -0.8020 H     1 <1>   0.4500 
 40 H       -3.9660    -1.5090     2.8580 H     1 <1>   0.0800 
 41 H       -2.6060    -0.4420     2.7560 H     1 <1>   0.0800 
 42 H       -4.9260     1.7610     0.4640 H     1 <1>   0.0800 
 43 H       -6.5430    -4.6070     2.3940 H     1 <1>   0.0800 
 44 H       -8.0840    -4.2060     1.6610 H     1 <1>   0.0800 
 45 H       -2.1780     1.5140     1.5970 H     1 <1>   0.0800 
 46 H       -1.2390     0.6650     0.3940 H     1 <1>   0.0800 
 47 H       -4.0450     1.3730     2.7320 H     1 <1>   0.0800 
 48 H       -5.4330     0.3170     2.7150 H     1 <1>   0.0800 
 49 H       -4.7090    -5.6060     0.6550 H     1 <1>   0.2700 
 50 H       -8.7140    -5.8650    -0.5540 H     1 <1>   0.1500 
 51 H       -3.5150     3.5760     0.8980 H     1 <1>   0.1500 
 52 H       -0.7950     1.5860    -1.7580 H     1 <1>   0.1500 
 53 H       -7.2090    -7.4880    -1.9720 H     1 <1>   0.1500 
 54 H       -3.5260     5.5300    -0.6060 H     1 <1>   0.1500 
 55 H       -0.8210     3.5600    -3.2370 H     1 <1>   0.1500 
@<TRIPOS>BOND
  1   1   2  1   
  2   1   3  1   
  3   2   4  2   
  4   2  31  1   
  5   3   5  2   
  6   3  32  1   
  7   4   5  1   
  8   5   6  1   
  9   6   7  1   
 10   6  33  1   
 11   6  34  1   
 12   7   8  1   
 13   7   9  1   
 14   7  10  1   
 15   8  11  2   
 16   8  12  am  
 17   9  13  1   
 18   9  14  1   
 19   9  35  1   
 20  10  15  1   
 21  10  36  1   
 22  10  37  1   
 23  12  16  1   
 24  12  38  1   
 25  13  15  1   
 26  13  17  1   
 27  13  39  1   
 28  14  18  1   
 29  14  40  1   
 30  14  41  1   
 31  15  18  1   
 32  15  42  1   
 33  16  19  1   
 34  16  43  1   
 35  16  44  1   
 36  17  20  1   
 37  17  45  1   
 38  17  46  1   
 39  18  47  1   
 40  18  48  1   
 41  19  21  1   
 42  19  22  2   
 43  20  23  ar  
 44  20  24  ar  
 45  21  25  1   
 46  21  49  1   
 47  22  26  1   
 48  22  50  1   
 49  23  27  ar  
 50  23  51  1   
 51  24  28  ar  
 52  24  52  1   
 53  25  26  2   
 54  26  53  1   
 55  27  29  ar  
 56  27  54  1   
 57  28  29  ar  
 58  28  55  1   
 59  29  30  1   
@<TRIPOS>SUBSTRUCTURE
  1 ****   7 GROUP 4 **** **** 0

# MOE 2024.06 (io_trps.svl 2023.06)
