@<TRIPOS>MOLECULE
NONAME
23 24 1 0 0 
SMALL
USER_CHARGES


@<TRIPOS>ATOM
  1 CL       0.0120    -0.4180     1.7680 Cl    1 <1>  -0.1770 
  2 C       -0.0080    -1.9000     0.8500 C.ar  1 <1>   0.1770 
  3 C       -1.1610    -2.2660     0.1840 C.ar  1 <1>  -0.1500 
  4 C        1.1320    -2.6840     0.8080 C.ar  1 <1>  -0.1500 
  5 C       -1.1330    -3.4470    -0.5320 C.ar  1 <1>   0.1900 
  6 C        1.1340    -3.8700     0.0860 C.ar  1 <1>   0.0830 
  7 F       -2.2090    -3.8170    -1.1710 F     1 <1>  -0.1900 
  8 C       -0.0150    -4.2580    -0.6010 C.ar  1 <1>  -0.1500 
  9 O        2.2840    -4.5900     0.0990 O.3   1 <1>  -0.3400 
 10 C        2.3440    -5.9010    -0.4290 C.3   1 <1>   0.2580 
 11 C        1.7940    -6.9550     0.5630 C.3   1 <1>   0.4720 
 12 C        3.7340    -6.5300    -0.1760 C.3   1 <1>   0.4720 
 13 N        3.0540    -7.7530     0.3750 N.4   1 <1>  -0.8440 
 14 H       -2.0440    -1.6550     0.2200 H     1 <1>   0.1500 
 15 H        2.0120    -2.3670     1.3370 H     1 <1>   0.1500 
 16 H       -0.0770    -5.1510    -1.1910 H     1 <1>   0.1500 
 17 H        2.0010    -5.9630    -1.4460 H     1 <1>   0.0000 
 18 H        0.9320    -7.4900     0.2070 H     1 <1>   0.0000 
 19 H        1.7160    -6.5900     1.5710 H     1 <1>   0.0000 
 20 H        4.2970    -6.0260     0.5890 H     1 <1>   0.0000 
 21 H        4.2870    -6.7570    -1.0700 H     1 <1>   0.0000 
 22 H        2.9570    -8.5030    -0.3180 H     1 <1>   0.4500 
 23 H        3.4630    -8.0760     1.2590 H     1 <1>   0.4500 
@<TRIPOS>BOND
  1   1   2  1   
  2   2   3  ar  
  3   2   4  ar  
  4   3   5  ar  
  5   3  14  1   
  6   4   6  ar  
  7   4  15  1   
  8   5   7  1   
  9   5   8  ar  
 10   6   8  ar  
 11   6   9  1   
 12   8  16  1   
 13   9  10  1   
 14  10  11  1   
 15  10  12  1   
 16  10  17  1   
 17  11  13  1   
 18  11  18  1   
 19  11  19  1   
 20  12  13  1   
 21  12  20  1   
 22  12  21  1   
 23  13  22  1   
 24  13  23  1   
@<TRIPOS>SUBSTRUCTURE
  1 ****   6 GROUP 4 **** **** 0

# MOE 2024.06 (io_trps.svl 2023.06)
