@<TRIPOS>MOLECULE
NONAME
36 38 1 0 0 
SMALL
USER_CHARGES


@<TRIPOS>ATOM
  1 O       -0.3910     0.0870    -0.2490 O.2   1 <1>  -0.5700 
  2 C       -1.3700     0.7250     0.0910 C.2   1 <1>   0.7160 
  3 N       -2.5550     0.0520     0.2910 N.am  1 <1>  -0.6600 
  4 C       -1.2710     2.1550     0.2550 C.2   1 <1>  -0.0860 
  5 C       -3.8980     0.6650     0.1200 C.3   1 <1>   0.1400 
  6 C       -2.6410    -1.4240     0.1550 C.3   1 <1>   0.1400 
  7 C       -1.9550     2.9460     1.1820 C.2   1 <1>   0.1390 
  8 C       -0.5020     3.0610    -0.4120 C.2   1 <1>  -0.3020 
  9 C       -4.7900    -0.4740    -0.3730 C.3   1 <1>   0.2000 
 10 C       -4.1340    -1.7540     0.1410 C.3   1 <1>  -0.0800 
 11 N       -1.6660     4.2050     1.0910 N.2   1 <1>  -0.7070 
 12 N       -0.7570     4.2730     0.1020 N.pl3 1 <1>   0.3000 
 13 O       -6.0800    -0.3650     0.1230 O.3   1 <1>  -0.6800 
 14 C       -4.4860    -2.9870    -0.7060 C.3   1 <1>  -0.0170 
 15 C       -3.8060    -4.2340    -0.1640 C.ar  1 <1>  -0.1430 
 16 C       -4.3540    -4.9660     0.8700 C.ar  1 <1>  -0.1500 
 17 C       -2.6100    -4.6990    -0.6730 C.ar  1 <1>  -0.1500 
 18 C       -3.6960    -6.0930     1.3350 C.ar  1 <1>   0.1600 
 19 C       -2.0330    -5.8370    -0.1340 C.ar  1 <1>   0.1600 
 20 N       -2.5470    -6.5440     0.8590 N.ar  1 <1>  -0.6200 
 21 H       -4.2430     1.0300     1.0710 H     1 <1>   0.0800 
 22 H       -3.8680     1.4650    -0.6000 H     1 <1>   0.0800 
 23 H       -2.1750    -1.7180    -0.7720 H     1 <1>   0.0800 
 24 H       -2.1370    -1.9120     0.9720 H     1 <1>   0.0800 
 25 H       -2.6490     2.5560     1.9070 H     1 <1>   0.1500 
 26 H        0.1980     2.8840    -1.2080 H     1 <1>   0.1500 
 27 H       -4.8370    -0.4600    -1.4490 H     1 <1>   0.0800 
 28 H       -4.4310    -1.9240     1.1610 H     1 <1>   0.0800 
 29 H       -0.3300     5.1630    -0.1880 H     1 <1>   0.2700 
 30 H       -6.0800    -0.4120     1.0980 H     1 <1>   0.4000 
 31 H       -4.1910    -2.8280    -1.7290 H     1 <1>   0.0800 
 32 H       -5.5530    -3.1320    -0.6980 H     1 <1>   0.0800 
 33 H       -5.2860    -4.6730     1.3170 H     1 <1>   0.1500 
 34 H       -2.1180    -4.1890    -1.4810 H     1 <1>   0.1500 
 35 H       -4.1380    -6.6520     2.1420 H     1 <1>   0.1500 
 36 H       -1.0980    -6.1830    -0.5420 H     1 <1>   0.1500 
@<TRIPOS>BOND
  1   1   2  2   
  2   2   3  am  
  3   2   4  1   
  4   3   5  1   
  5   3   6  1   
  6   4   7  1   
  7   4   8  2   
  8   5   9  1   
  9   5  21  1   
 10   5  22  1   
 11   6  10  1   
 12   6  23  1   
 13   6  24  1   
 14   7  11  2   
 15   7  25  1   
 16   8  12  1   
 17   8  26  1   
 18   9  10  1   
 19   9  13  1   
 20   9  27  1   
 21  10  14  1   
 22  10  28  1   
 23  11  12  1   
 24  12  29  1   
 25  13  30  1   
 26  14  15  1   
 27  14  31  1   
 28  14  32  1   
 29  15  16  ar  
 30  15  17  ar  
 31  16  18  ar  
 32  16  33  1   
 33  17  19  ar  
 34  17  34  1   
 35  18  20  ar  
 36  18  35  1   
 37  19  20  ar  
 38  19  36  1   
@<TRIPOS>SUBSTRUCTURE
  1 ****   6 GROUP 4 **** **** 0

# MOE 2024.06 (io_trps.svl 2023.06)
