@<TRIPOS>MOLECULE
NONAME
53 56 1 0 0 
SMALL
USER_CHARGES


@<TRIPOS>ATOM
  1 O        0.0180    -1.0550    -0.5430 O.2   1 <1>  -0.5700 
  2 C        0.9180    -1.5100     0.1450 C.2   1 <1>   0.5440 
  3 N        0.6530    -2.5190     1.0450 N.am  1 <1>  -0.4200 
  4 C        2.2660    -1.0240     0.0510 C.ar  1 <1>   0.0860 
  5 C        1.6730    -3.0160     1.8200 C.2   1 <1>   0.4500 
  6 C       -0.7170    -3.0710     1.1860 C.3   1 <1>   0.1400 
  7 C        3.2220    -1.6080     0.8910 C.ar  1 <1>   0.1790 
  8 C        2.6670    -0.0120    -0.8260 C.ar  1 <1>  -0.1500 
  9 N        2.8850    -2.6140     1.7770 N.2   1 <1>  -0.6290 
 10 C       -0.9210    -4.2230     0.1970 C.3   1 <1>  -0.1600 
 11 C        4.5400    -1.1700     0.8360 C.ar  1 <1>  -0.1500 
 12 C        3.9790     0.4130    -0.8700 C.ar  1 <1>  -0.1500 
 13 C       -2.3350    -4.8160     0.3110 C.3   1 <1>  -0.0990 
 14 C        4.9210    -0.1690    -0.0340 C.ar  1 <1>  -0.1500 
 15 C       -2.5570    -5.9360    -0.6840 C.2   1 <1>   0.5690 
 16 O       -3.1460    -5.7070    -1.7100 O.2   1 <1>  -0.5700 
 17 N       -2.0950    -7.1730    -0.3860 N.am  1 <1>  -0.7300 
 18 C       -2.1820    -8.3460    -1.2870 C.3   1 <1>   0.2200 
 19 C       -3.2610    -9.3200    -0.8310 C.3   1 <1>  -0.0800 
 20 C       -0.9380    -9.2020    -1.0950 C.3   1 <1>   0.1200 
 21 C       -2.5400   -10.1720     0.2210 C.3   1 <1>   0.1200 
 22 C       -4.5780    -8.6870    -0.3440 C.3   1 <1>  -0.0170 
 23 O       -1.1720    -9.9090     0.0840 O.3   1 <1>  -0.5600 
 24 C       -5.6070    -9.7580    -0.0200 C.ar  1 <1>  -0.1430 
 25 C       -5.8300   -10.1980     1.2690 C.ar  1 <1>  -0.1500 
 26 C       -6.3710   -10.3480    -1.0060 C.ar  1 <1>  -0.1500 
 27 C       -6.7760   -11.1830     1.5020 C.ar  1 <1>   0.1600 
 28 C       -7.2920   -11.3260    -0.6670 C.ar  1 <1>   0.1600 
 29 N       -7.5110   -11.7600     0.5640 N.ar  1 <1>  -0.6200 
 30 H        1.4070    -3.8000     2.5070 H     1 <1>   0.0600 
 31 H       -0.8600    -3.4190     2.1950 H     1 <1>   0.0800 
 32 H       -1.4390    -2.2940     1.0000 H     1 <1>   0.0800 
 33 H        1.9320     0.4370    -1.4730 H     1 <1>   0.1500 
 34 H       -0.7820    -3.8540    -0.8060 H     1 <1>   0.0800 
 35 H       -0.1930    -4.9940     0.3810 H     1 <1>   0.0800 
 36 H        5.2610    -1.6280     1.4890 H     1 <1>   0.1500 
 37 H        4.2750     1.1940    -1.5500 H     1 <1>   0.1500 
 38 H       -3.0630    -4.0470     0.1190 H     1 <1>   0.0800 
 39 H       -2.5040    -5.1920     1.3030 H     1 <1>   0.0800 
 40 H        5.9450     0.1610    -0.0670 H     1 <1>   0.1500 
 41 H       -1.6210    -7.3680     0.4980 H     1 <1>   0.3700 
 42 H       -2.3090    -8.0320    -2.3100 H     1 <1>   0.0800 
 43 H       -3.4900    -9.9640    -1.6620 H     1 <1>   0.0800 
 44 H       -0.0390    -8.6190    -1.0000 H     1 <1>   0.0800 
 45 H       -0.8340    -9.9140    -1.8950 H     1 <1>   0.0800 
 46 H       -2.7120   -11.2230     0.0660 H     1 <1>   0.0800 
 47 H       -2.8250    -9.9000     1.2220 H     1 <1>   0.0800 
 48 H       -4.9670    -8.0390    -1.1110 H     1 <1>   0.0800 
 49 H       -4.4050    -8.0830     0.5300 H     1 <1>   0.0800 
 50 H       -5.2810    -9.7870     2.0950 H     1 <1>   0.1500 
 51 H       -6.2600   -10.0560    -2.0340 H     1 <1>   0.1500 
 52 H       -6.9370   -11.5150     2.5130 H     1 <1>   0.1500 
 53 H       -7.8790   -11.7740    -1.4490 H     1 <1>   0.1500 
@<TRIPOS>BOND
  1   1   2  2   
  2   2   3  am  
  3   2   4  1   
  4   3   5  1   
  5   3   6  1   
  6   4   7  ar  
  7   4   8  ar  
  8   5   9  2   
  9   5  30  1   
 10   6  10  1   
 11   6  31  1   
 12   6  32  1   
 13   7   9  1   
 14   7  11  ar  
 15   8  12  ar  
 16   8  33  1   
 17  10  13  1   
 18  10  34  1   
 19  10  35  1   
 20  11  14  ar  
 21  11  36  1   
 22  12  14  ar  
 23  12  37  1   
 24  13  15  1   
 25  13  38  1   
 26  13  39  1   
 27  14  40  1   
 28  15  16  2   
 29  15  17  am  
 30  17  18  1   
 31  17  41  1   
 32  18  19  1   
 33  18  20  1   
 34  18  42  1   
 35  19  21  1   
 36  19  22  1   
 37  19  43  1   
 38  20  23  1   
 39  20  44  1   
 40  20  45  1   
 41  21  23  1   
 42  21  46  1   
 43  21  47  1   
 44  22  24  1   
 45  22  48  1   
 46  22  49  1   
 47  24  25  ar  
 48  24  26  ar  
 49  25  27  ar  
 50  25  50  1   
 51  26  28  ar  
 52  26  51  1   
 53  27  29  ar  
 54  27  52  1   
 55  28  29  ar  
 56  28  53  1   
@<TRIPOS>SUBSTRUCTURE
  1 ****  13 GROUP 4 **** **** 0

# MOE 2024.06 (io_trps.svl 2023.06)
