@<TRIPOS>MOLECULE
NONAME
62 64 1 0 0 
SMALL
USER_CHARGES


@<TRIPOS>ATOM
  1 O       -1.0240     1.7630    -2.0680 O.2   1 <1>  -0.5700 
  2 C       -1.0670     2.8520    -1.5460 C.2   1 <1>   0.5690 
  3 N       -1.6920     3.1030    -0.3500 N.am  1 <1>  -0.6600 
  4 C       -0.3900     4.0100    -2.2730 C.3   1 <1>   0.1810 
  5 C       -1.7110     4.4900     0.2250 C.3   1 <1>   0.3640 
  6 C       -2.3190     2.0640     0.5140 C.3   1 <1>   0.2200 
  7 O        0.1480     4.9440    -1.3730 O.3   1 <1>  -0.5600 
  8 C       -3.1520     5.0050     0.2640 C.ar  1 <1>  -0.1440 
  9 C       -0.8130     5.5290    -0.5060 C.3   1 <1>   0.2610 
 10 C       -1.2550     1.0900     1.0190 C.3   1 <1>  -0.2400 
 11 C       -3.4560     1.3430    -0.2110 C.3   1 <1>  -0.2400 
 12 C       -3.9980     4.8680    -0.8300 C.ar  1 <1>  -0.1500 
 13 C       -3.6300     5.6330     1.4060 C.ar  1 <1>  -0.1500 
 14 C       -0.1110     6.4100     0.5340 C.2   1 <1>   0.5690 
 15 C       -5.2960     5.3460    -0.7820 C.ar  1 <1>  -0.1500 
 16 C       -4.9280     6.1110     1.4560 C.ar  1 <1>  -0.1500 
 17 O       -0.7690     7.0680     1.3060 O.2   1 <1>  -0.5700 
 18 N        1.2500     6.4380     0.5670 N.am  1 <1>  -0.7300 
 19 C       -5.7620     5.9680     0.3620 C.ar  1 <1>  -0.1500 
 20 C        2.0940     7.0740     1.6010 C.3   1 <1>   0.1400 
 21 C        3.0640     8.0880     0.9770 C.3   1 <1>  -0.1600 
 22 C        2.4860     9.5060     0.7760 C.3   1 <1>  -0.0800 
 23 C        1.3280     9.5530    -0.2360 C.3   1 <1>  -0.1600 
 24 C        3.6020    10.4640     0.3260 C.3   1 <1>  -0.1600 
 25 C        0.8510    10.9780    -0.5060 C.3   1 <1>   0.3430 
 26 C        3.0750    11.8740     0.0520 C.3   1 <1>   0.3430 
 27 N        1.9940    11.8130    -0.9720 N.4   1 <1>  -0.9590 
 28 C        1.5340    13.1820    -1.3500 C.3   1 <1>   0.2630 
 29 H       -1.0970     4.5060    -2.9120 H     1 <1>   0.0800 
 30 H        0.4180     3.6290    -2.8720 H     1 <1>   0.0800 
 31 H       -1.3560     4.4130     1.2390 H     1 <1>   0.0800 
 32 H       -2.7510     2.5470     1.3750 H     1 <1>   0.0800 
 33 H       -1.4320     6.1680    -1.1070 H     1 <1>   0.0800 
 34 H       -0.8370     0.5240     0.2060 H     1 <1>   0.0800 
 35 H       -1.6940     0.4000     1.7160 H     1 <1>   0.0800 
 36 H       -0.4690     1.6250     1.5190 H     1 <1>   0.0800 
 37 H       -3.0880     0.7630    -1.0370 H     1 <1>   0.0800 
 38 H       -4.1790     2.0520    -0.5670 H     1 <1>   0.0800 
 39 H       -3.9500     0.6730     0.4690 H     1 <1>   0.0800 
 40 H       -3.6550     4.3810    -1.7270 H     1 <1>   0.1500 
 41 H       -2.9930     5.7630     2.2640 H     1 <1>   0.1500 
 42 H       -5.9440     5.2320    -1.6330 H     1 <1>   0.1500 
 43 H       -5.2870     6.5970     2.3460 H     1 <1>   0.1500 
 44 H        1.7300     5.8440    -0.1200 H     1 <1>   0.3700 
 45 H       -6.7710     6.3390     0.4020 H     1 <1>   0.1500 
 46 H        1.4790     7.5500     2.3470 H     1 <1>   0.0800 
 47 H        2.6590     6.2980     2.0910 H     1 <1>   0.0800 
 48 H        3.8970     8.1710     1.6530 H     1 <1>   0.0800 
 49 H        3.4500     7.6960     0.0520 H     1 <1>   0.0800 
 50 H        2.1130     9.8500     1.7280 H     1 <1>   0.0800 
 51 H        0.4900     9.0120     0.1550 H     1 <1>   0.0800 
 52 H        1.6160     9.0840    -1.1600 H     1 <1>   0.0800 
 53 H        4.0810    10.0870    -0.5610 H     1 <1>   0.0800 
 54 H        4.3530    10.5250     1.0940 H     1 <1>   0.0800 
 55 H        0.4400    11.3940     0.4000 H     1 <1>   0.0800 
 56 H        0.0740    10.9600    -1.2530 H     1 <1>   0.0800 
 57 H        3.8830    12.4960    -0.2990 H     1 <1>   0.0800 
 58 H        2.6900    12.2980     0.9650 H     1 <1>   0.0800 
 59 H        2.3870    11.3520    -1.8050 H     1 <1>   0.4500 
 60 H        1.1150    13.6860    -0.4940 H     1 <1>   0.0800 
 61 H        0.7800    13.1240    -2.1190 H     1 <1>   0.0800 
 62 H        2.3600    13.7650    -1.7240 H     1 <1>   0.0800 
@<TRIPOS>BOND
  1   1   2  2   
  2   2   3  am  
  3   2   4  1   
  4   3   5  1   
  5   3   6  1   
  6   4   7  1   
  7   4  29  1   
  8   4  30  1   
  9   5   8  1   
 10   5   9  1   
 11   5  31  1   
 12   6  10  1   
 13   6  11  1   
 14   6  32  1   
 15   7   9  1   
 16   8  12  ar  
 17   8  13  ar  
 18   9  14  1   
 19   9  33  1   
 20  10  34  1   
 21  10  35  1   
 22  10  36  1   
 23  11  37  1   
 24  11  38  1   
 25  11  39  1   
 26  12  15  ar  
 27  12  40  1   
 28  13  16  ar  
 29  13  41  1   
 30  14  17  2   
 31  14  18  am  
 32  15  19  ar  
 33  15  42  1   
 34  16  19  ar  
 35  16  43  1   
 36  18  20  1   
 37  18  44  1   
 38  19  45  1   
 39  20  21  1   
 40  20  46  1   
 41  20  47  1   
 42  21  22  1   
 43  21  48  1   
 44  21  49  1   
 45  22  23  1   
 46  22  24  1   
 47  22  50  1   
 48  23  25  1   
 49  23  51  1   
 50  23  52  1   
 51  24  26  1   
 52  24  53  1   
 53  24  54  1   
 54  25  27  1   
 55  25  55  1   
 56  25  56  1   
 57  26  27  1   
 58  26  57  1   
 59  26  58  1   
 60  27  28  1   
 61  27  59  1   
 62  28  60  1   
 63  28  61  1   
 64  28  62  1   
@<TRIPOS>SUBSTRUCTURE
  1 ****  14 GROUP 4 **** **** 0

# MOE 2024.06 (io_trps.svl 2023.06)
