@<TRIPOS>MOLECULE
NONAME
50 51 1 0 0 
SMALL
USER_CHARGES


@<TRIPOS>ATOM
  1 O       -1.6090     5.2060     1.4610 O.2   1 <1>  -0.5700 
  2 C       -1.7080     4.1910     0.7950 C.2   1 <1>   0.5440 
  3 N       -2.4770     3.1470     1.2750 N.am  1 <1>  -0.6600 
  4 C       -1.0100     4.1140    -0.4750 C.ar  1 <1>   0.0860 
  5 C       -2.3750     1.7510     0.7690 C.3   1 <1>   0.0600 
  6 C       -3.3590     3.3090     2.4640 C.3   1 <1>   0.0600 
  7 C        0.3440     4.4270    -0.5540 C.ar  1 <1>  -0.1500 
  8 C       -1.6550     3.7550    -1.6580 C.ar  1 <1>  -0.1500 
  9 C        1.0360     4.4070    -1.7550 C.ar  1 <1>  -0.1440 
 10 C       -0.9750     3.7110    -2.8620 C.ar  1 <1>  -0.1500 
 11 C        0.3690     4.0380    -2.9130 C.ar  1 <1>  -0.1500 
 12 C        2.4990     4.8170    -1.7830 C.3   1 <1>   0.2840 
 13 N        2.5650     6.1990    -1.2780 N.am  1 <1>  -0.7300 
 14 C        3.1510     6.5520    -0.1090 C.2   1 <1>   0.5690 
 15 O        3.9640     5.8470     0.4360 O.2   1 <1>  -0.5700 
 16 C        2.7180     7.8510     0.5660 C.3   1 <1>  -0.0190 
 17 C        1.1910     7.8860     0.7910 C.3   1 <1>  -0.1600 
 18 C        3.2000     9.1030    -0.2050 C.3   1 <1>  -0.1600 
 19 C        0.7450     9.1110     1.6140 C.3   1 <1>   0.2000 
 20 C        2.3760    10.3710     0.1020 C.3   1 <1>  -0.1600 
 21 O       -0.5290     9.5110     1.1680 O.3   1 <1>  -0.5600 
 22 C        1.7260    10.3070     1.4870 C.3   1 <1>   0.2000 
 23 C       -1.5790     8.6690     1.5420 C.3   1 <1>   0.0400 
 24 O        1.0300    11.4810     1.6850 O.3   1 <1>  -0.6800 
 25 H       -2.2890     1.0690     1.5970 H     1 <1>   0.0800 
 26 H       -1.5080     1.6300     0.1430 H     1 <1>   0.0800 
 27 H       -3.2560     1.5060     0.2020 H     1 <1>   0.0800 
 28 H       -4.3090     2.8380     2.2820 H     1 <1>   0.0800 
 29 H       -3.5300     4.3510     2.6730 H     1 <1>   0.0800 
 30 H       -2.8960     2.8560     3.3230 H     1 <1>   0.0800 
 31 H        0.8550     4.7020     0.3530 H     1 <1>   0.1500 
 32 H       -2.7040     3.5150    -1.6270 H     1 <1>   0.1500 
 33 H       -1.4930     3.4280    -3.7630 H     1 <1>   0.1500 
 34 H        0.8860     4.0100    -3.8570 H     1 <1>   0.1500 
 35 H        2.8920     4.7810    -2.7840 H     1 <1>   0.0800 
 36 H        3.0800     4.1570    -1.1600 H     1 <1>   0.0800 
 37 H        1.8430     6.8080    -1.6640 H     1 <1>   0.3700 
 38 H        3.1830     7.8620     1.5370 H     1 <1>   0.0800 
 39 H        0.8840     6.9920     1.3060 H     1 <1>   0.0800 
 40 H        0.7000     7.9080    -0.1660 H     1 <1>   0.0800 
 41 H        4.2320     9.2760     0.0490 H     1 <1>   0.0800 
 42 H        3.1610     8.9250    -1.2660 H     1 <1>   0.0800 
 43 H        0.6770     8.8500     2.6570 H     1 <1>   0.0800 
 44 H        1.5950    10.4650    -0.6330 H     1 <1>   0.0800 
 45 H        3.0100    11.2380     0.0340 H     1 <1>   0.0800 
 46 H        2.4930    10.2440     2.2400 H     1 <1>   0.0800 
 47 H       -2.5020     9.1260     1.2340 H     1 <1>   0.0800 
 48 H       -1.5780     8.5420     2.6110 H     1 <1>   0.0800 
 49 H       -1.4730     7.7180     1.0510 H     1 <1>   0.0800 
 50 H        0.1070    11.2870     1.3990 H     1 <1>   0.4000 
@<TRIPOS>BOND
  1   1   2  2   
  2   2   3  am  
  3   2   4  1   
  4   3   5  1   
  5   3   6  1   
  6   4   7  ar  
  7   4   8  ar  
  8   5  25  1   
  9   5  26  1   
 10   5  27  1   
 11   6  28  1   
 12   6  29  1   
 13   6  30  1   
 14   7   9  ar  
 15   7  31  1   
 16   8  10  ar  
 17   8  32  1   
 18   9  11  ar  
 19   9  12  1   
 20  10  11  ar  
 21  10  33  1   
 22  11  34  1   
 23  12  13  1   
 24  12  35  1   
 25  12  36  1   
 26  13  14  am  
 27  13  37  1   
 28  14  15  2   
 29  14  16  1   
 30  16  17  1   
 31  16  18  1   
 32  16  38  1   
 33  17  19  1   
 34  17  39  1   
 35  17  40  1   
 36  18  20  1   
 37  18  41  1   
 38  18  42  1   
 39  19  21  1   
 40  19  22  1   
 41  19  43  1   
 42  20  22  1   
 43  20  44  1   
 44  20  45  1   
 45  21  23  1   
 46  22  24  1   
 47  22  46  1   
 48  23  47  1   
 49  23  48  1   
 50  23  49  1   
 51  24  50  1   
@<TRIPOS>SUBSTRUCTURE
  1 ****   7 GROUP 4 **** **** 0

# MOE 2024.06 (io_trps.svl 2023.06)
