@<TRIPOS>MOLECULE
NONAME
50 53 1 0 0 
SMALL
USER_CHARGES


@<TRIPOS>ATOM
  1 F       -2.1850     2.9630    -1.6660 F     1 <1>  -0.1900 
  2 C       -2.0760     3.4480    -0.4580 C.ar  1 <1>   0.1900 
  3 C       -2.4910     2.6820     0.6280 C.ar  1 <1>   0.0860 
  4 C       -1.5540     4.7240    -0.3310 C.ar  1 <1>  -0.1500 
  5 C       -3.0220     1.3480     0.4720 C.2   1 <1>   0.5440 
  6 C       -2.3650     3.2640     1.8880 C.ar  1 <1>  -0.1500 
  7 C       -1.4380     5.2770     0.9320 C.ar  1 <1>  -0.1500 
  8 O       -2.2510     0.4270     0.2840 O.2   1 <1>  -0.5700 
  9 N       -4.3750     1.0910     0.5610 N.am  1 <1>  -0.6600 
 10 C       -1.8470     4.5390     2.0340 C.ar  1 <1>   0.0830 
 11 C       -5.4270     2.1550     0.6370 C.3   1 <1>   0.1400 
 12 C       -4.9180    -0.2980     0.5450 C.3   1 <1>   0.1400 
 13 O       -1.7400     5.0580     3.2660 O.3   1 <1>  -0.5320 
 14 C       -6.4230     2.0310    -0.5320 C.3   1 <1>   0.1430 
 15 C       -5.9120    -0.4620    -0.6110 C.3   1 <1>  -0.1600 
 16 C       -7.4870     3.1010    -0.3730 C.ar  1 <1>   0.1670 
 17 C       -7.0180     0.6070    -0.5660 C.3   1 <1>  -0.1600 
 18 C       -5.7700     2.4180    -1.8870 C.3   1 <1>  -0.1600 
 19 N       -8.4610     3.0790     0.5020 N.ar  1 <1>  -0.6200 
 20 C       -7.3030     4.1240    -1.2540 C.ar  1 <1>  -0.1430 
 21 C       -6.0990     3.9000    -2.1340 C.3   1 <1>  -0.0170 
 22 C       -9.2850     4.1300     0.4650 C.ar  1 <1>   0.7200 
 23 C       -8.1950     5.1650    -1.2160 C.ar  1 <1>   0.1600 
 24 N       -9.1900     5.1780    -0.3600 N.ar  1 <1>  -0.6200 
 25 N      -10.3340     4.1330     1.3650 N.pl3 1 <1>  -0.8380 
 26 C      -10.7500     2.9080     2.1010 C.3   1 <1>   0.1290 
 27 C      -11.1420     5.3550     1.6310 C.3   1 <1>   0.1290 
 28 H       -1.2450     5.2680    -1.2060 H     1 <1>   0.1500 
 29 H       -2.6690     2.7130     2.7610 H     1 <1>   0.1500 
 30 H       -1.0340     6.2660     1.0520 H     1 <1>   0.1500 
 31 H       -4.9880     3.1360     0.6280 H     1 <1>   0.0800 
 32 H       -5.9610     2.0470     1.5660 H     1 <1>   0.0800 
 33 H       -5.4150    -0.4870     1.4810 H     1 <1>   0.0800 
 34 H       -4.1250    -1.0200     0.4420 H     1 <1>   0.0800 
 35 H       -1.3350     5.9430     3.2840 H     1 <1>   0.4500 
 36 H       -6.3560    -1.4400    -0.5560 H     1 <1>   0.0800 
 37 H       -5.3730    -0.4030    -1.5400 H     1 <1>   0.0800 
 38 H       -7.6750     0.4990    -1.4120 H     1 <1>   0.0800 
 39 H       -7.6090     0.4570     0.3200 H     1 <1>   0.0800 
 40 H       -6.2220     1.8440    -2.6760 H     1 <1>   0.0800 
 41 H       -4.7120     2.2310    -1.9060 H     1 <1>   0.0800 
 42 H       -6.3180     4.0890    -3.1700 H     1 <1>   0.0800 
 43 H       -5.2880     4.5280    -1.8080 H     1 <1>   0.0800 
 44 H       -8.0940     5.9950    -1.8930 H     1 <1>   0.1500 
 45 H      -10.5060     2.0250     1.5350 H     1 <1>   0.0800 
 46 H      -11.8130     2.9190     2.2670 H     1 <1>   0.0800 
 47 H      -10.2410     2.8680     3.0480 H     1 <1>   0.0800 
 48 H      -10.5460     6.2400     1.4880 H     1 <1>   0.0800 
 49 H      -11.5000     5.3490     2.6450 H     1 <1>   0.0800 
 50 H      -11.9800     5.3850     0.9560 H     1 <1>   0.0800 
@<TRIPOS>BOND
  1   1   2  1   
  2   2   3  ar  
  3   2   4  ar  
  4   3   5  1   
  5   3   6  ar  
  6   4   7  ar  
  7   4  28  1   
  8   5   8  2   
  9   5   9  am  
 10   6  10  ar  
 11   6  29  1   
 12   7  10  ar  
 13   7  30  1   
 14   9  11  1   
 15   9  12  1   
 16  10  13  1   
 17  11  14  1   
 18  11  31  1   
 19  11  32  1   
 20  12  15  1   
 21  12  33  1   
 22  12  34  1   
 23  13  35  1   
 24  14  16  1   
 25  14  17  1   
 26  14  18  1   
 27  15  17  1   
 28  15  36  1   
 29  15  37  1   
 30  16  19  ar  
 31  16  20  ar  
 32  17  38  1   
 33  17  39  1   
 34  18  21  1   
 35  18  40  1   
 36  18  41  1   
 37  19  22  ar  
 38  20  21  1   
 39  20  23  ar  
 40  21  42  1   
 41  21  43  1   
 42  22  24  ar  
 43  22  25  1   
 44  23  24  ar  
 45  23  44  1   
 46  25  26  1   
 47  25  27  1   
 48  26  45  1   
 49  26  46  1   
 50  26  47  1   
 51  27  48  1   
 52  27  49  1   
 53  27  50  1   
@<TRIPOS>SUBSTRUCTURE
  1 ****  11 GROUP 4 **** **** 0

# MOE 2024.06 (io_trps.svl 2023.06)
