@<TRIPOS>MOLECULE
NONAME
42 44 1 0 0 
SMALL
USER_CHARGES


@<TRIPOS>ATOM
  1 CL       2.0200     0.7820    -1.8030 Cl    1 <1>  -0.1770 
  2 C        0.9430     1.8120    -0.8870 C.ar  1 <1>   0.1770 
  3 C        1.3330     2.3950     0.3170 C.ar  1 <1>  -0.1440 
  4 C       -0.3160     2.0270    -1.4190 C.ar  1 <1>  -0.1500 
  5 C        0.4200     3.2140     0.9690 C.ar  1 <1>  -0.1500 
  6 C        2.7080     2.1830     0.9520 C.3   1 <1>   0.3640 
  7 C       -1.2130     2.8410    -0.7520 C.ar  1 <1>  -0.1500 
  8 C       -0.8420     3.4340     0.4420 C.ar  1 <1>  -0.1500 
  9 N        2.9010     0.7350     1.2050 N.am  1 <1>  -0.7300 
 10 C        3.8580     2.8070     0.1090 C.3   1 <1>   0.2610 
 11 C        4.0460     0.0770     0.9250 C.2   1 <1>   0.5690 
 12 O        5.1120     2.2330     0.4510 O.3   1 <1>  -0.5600 
 13 C        3.9000     4.3430     0.2420 C.2   1 <1>   0.5690 
 14 O        4.1620    -1.0950     1.1800 O.2   1 <1>  -0.5700 
 15 C        5.1940     0.8380     0.2560 C.3   1 <1>   0.1810 
 16 O        3.1650     4.8780     1.0430 O.2   1 <1>  -0.5700 
 17 N        4.7380     5.0970    -0.5470 N.am  1 <1>  -0.6600 
 18 C        4.8580     6.5820    -0.3320 C.3   1 <1>   0.3210 
 19 C        5.7070     4.5240    -1.5260 C.3   1 <1>   0.0600 
 20 C        6.2360     7.0100     0.1740 C.2   1 <1>   0.3350 
 21 N        6.5120     7.2970     1.3860 N.2   1 <1>  -0.4100 
 22 N        7.2770     7.1380    -0.6450 N.2   1 <1>  -0.5650 
 23 O        7.7680     7.6210     1.4280 O.3   1 <1>  -0.0190 
 24 C        8.1660     7.5070     0.1860 C.2   1 <1>   0.2980 
 25 C        9.6070     7.8160    -0.1460 C.3   1 <1>  -0.0600 
 26 H       -0.5880     1.5600    -2.3480 H     1 <1>   0.1500 
 27 H        0.6870     3.6960     1.8960 H     1 <1>   0.1500 
 28 H        2.7170     2.6610     1.9170 H     1 <1>   0.0800 
 29 H       -2.1950     3.0140    -1.1590 H     1 <1>   0.1500 
 30 H       -1.5360     4.0730     0.9620 H     1 <1>   0.1500 
 31 H        2.1310     0.2200     1.6320 H     1 <1>   0.3700 
 32 H        3.6840     2.5890    -0.9260 H     1 <1>   0.0800 
 33 H        5.1870     0.6390    -0.8000 H     1 <1>   0.0800 
 34 H        6.1290     0.5040     0.6680 H     1 <1>   0.0800 
 35 H        4.6630     7.0850    -1.2610 H     1 <1>   0.0800 
 36 H        4.1240     6.9220     0.3760 H     1 <1>   0.0800 
 37 H        5.8960     5.2300    -2.3170 H     1 <1>   0.0800 
 38 H        5.3280     3.6190    -1.9650 H     1 <1>   0.0800 
 39 H        6.6360     4.3080    -1.0250 H     1 <1>   0.0800 
 40 H        9.7780     7.6780    -1.1980 H     1 <1>   0.0800 
 41 H       10.2540     7.1580     0.4040 H     1 <1>   0.0800 
 42 H        9.8290     8.8330     0.1160 H     1 <1>   0.0800 
@<TRIPOS>BOND
  1   1   2  1   
  2   2   3  ar  
  3   2   4  ar  
  4   3   5  ar  
  5   3   6  1   
  6   4   7  ar  
  7   4  26  1   
  8   5   8  ar  
  9   5  27  1   
 10   6   9  1   
 11   6  10  1   
 12   6  28  1   
 13   7   8  ar  
 14   7  29  1   
 15   8  30  1   
 16   9  11  am  
 17   9  31  1   
 18  10  12  1   
 19  10  13  1   
 20  10  32  1   
 21  11  14  2   
 22  11  15  1   
 23  12  15  1   
 24  13  16  2   
 25  13  17  am  
 26  15  33  1   
 27  15  34  1   
 28  17  18  1   
 29  17  19  1   
 30  18  20  1   
 31  18  35  1   
 32  18  36  1   
 33  19  37  1   
 34  19  38  1   
 35  19  39  1   
 36  20  21  2   
 37  20  22  1   
 38  21  23  1   
 39  22  24  2   
 40  23  24  1   
 41  24  25  1   
 42  25  40  1   
 43  25  41  1   
 44  25  42  1   
@<TRIPOS>SUBSTRUCTURE
  1 ****  13 GROUP 4 **** **** 0

# MOE 2024.06 (io_trps.svl 2023.06)
