@<TRIPOS>MOLECULE
NONAME
53 55 1 0 0 
SMALL
USER_CHARGES


@<TRIPOS>ATOM
  1 O        0.4470     0.4080     0.1900 O.2   1 <1>  -0.5700 
  2 C        1.3460    -0.1780    -0.3660 C.2   1 <1>   0.5690 
  3 N        2.4430     0.4880    -0.8610 N.am  1 <1>  -0.6600 
  4 C        1.2350    -1.6880    -0.5050 C.3   1 <1>  -0.0990 
  5 C        3.5830    -0.1910    -1.5550 C.3   1 <1>   0.1400 
  6 C        2.5330     1.9770    -0.7590 C.3   1 <1>   0.1400 
  7 C        0.0370    -2.2610     0.2520 C.3   1 <1>   0.1200 
  8 C        4.6760    -0.6070    -0.5600 C.3   1 <1>   0.1400 
  9 C        3.8810     2.4880    -0.2260 C.3   1 <1>  -0.1600 
 10 O        0.0450    -3.6620     0.0930 O.3   1 <1>  -0.3630 
 11 N        5.4200     0.5720    -0.0170 N.am  1 <1>  -0.6600 
 12 C        4.5880     1.5430     0.7510 C.3   1 <1>   0.1400 
 13 C       -0.9030    -4.4380     0.6760 C.ar  1 <1>   0.0820 
 14 C        6.7600     0.7320    -0.2730 C.2   1 <1>   0.5690 
 15 C       -0.8000    -5.8060     0.4760 C.ar  1 <1>  -0.1500 
 16 C       -1.9490    -3.9360     1.4470 C.ar  1 <1>  -0.1500 
 17 O        7.3800    -0.0770    -0.9230 O.2   1 <1>  -0.5700 
 18 C        7.4990     1.9560     0.2490 C.3   1 <1>  -0.0990 
 19 C       -1.7250    -6.6690     1.0360 C.ar  1 <1>  -0.1500 
 20 C       -2.8740    -4.8010     2.0060 C.ar  1 <1>  -0.1500 
 21 C        8.9420     2.0760    -0.2600 C.3   1 <1>   0.0210 
 22 C       -2.7630    -6.1660     1.8020 C.ar  1 <1>  -0.1500 
 23 C        9.5770     3.3450     0.2740 C.2   1 <1>  -0.1810 
 24 C        9.3420     4.6430    -0.1710 C.2   1 <1>   0.1390 
 25 C       10.4760     3.4840     1.2710 C.2   1 <1>  -0.3020 
 26 N       10.0270     5.5230     0.4910 N.2   1 <1>  -0.7070 
 27 N       10.7340     4.8020     1.3830 N.pl3 1 <1>   0.3000 
 28 H        2.1260    -2.1430    -0.1190 H     1 <1>   0.0800 
 29 H        1.1300    -1.9280    -1.5460 H     1 <1>   0.0800 
 30 H        4.0050     0.4620    -2.2990 H     1 <1>   0.0800 
 31 H        3.2280    -1.0660    -2.0690 H     1 <1>   0.0800 
 32 H        1.7610     2.3370    -0.1000 H     1 <1>   0.0800 
 33 H        2.3450     2.4060    -1.7280 H     1 <1>   0.0800 
 34 H       -0.8850    -1.8740    -0.1470 H     1 <1>   0.0800 
 35 H        0.1100    -2.0350     1.3020 H     1 <1>   0.0800 
 36 H        5.3560    -1.2700    -1.0660 H     1 <1>   0.0800 
 37 H        4.2420    -1.1580     0.2550 H     1 <1>   0.0800 
 38 H        3.6910     3.4190     0.2780 H     1 <1>   0.0800 
 39 H        4.5330     2.7140    -1.0500 H     1 <1>   0.0800 
 40 H        3.8690     1.0170     1.3580 H     1 <1>   0.0800 
 41 H        5.2080     2.1140     1.4190 H     1 <1>   0.0800 
 42 H        0.0090    -6.1880    -0.1190 H     1 <1>   0.1500 
 43 H       -2.0610    -2.8830     1.6210 H     1 <1>   0.1500 
 44 H        7.5170     1.9110     1.3220 H     1 <1>   0.0800 
 45 H        6.9590     2.8350    -0.0470 H     1 <1>   0.0800 
 46 H       -1.6380    -7.7290     0.8760 H     1 <1>   0.1500 
 47 H       -3.6810    -4.4120     2.6010 H     1 <1>   0.1500 
 48 H        8.9550     2.0940    -1.3360 H     1 <1>   0.0800 
 49 H        9.5130     1.2240     0.0650 H     1 <1>   0.0800 
 50 H       -3.4840    -6.8360     2.2380 H     1 <1>   0.1500 
 51 H        8.6700     4.9000    -0.9730 H     1 <1>   0.1500 
 52 H       10.9370     2.7380     1.8920 H     1 <1>   0.1500 
 53 H       11.3800     5.2400     2.0510 H     1 <1>   0.2700 
@<TRIPOS>BOND
  1   1   2  2   
  2   2   3  am  
  3   2   4  1   
  4   3   5  1   
  5   3   6  1   
  6   4   7  1   
  7   4  28  1   
  8   4  29  1   
  9   5   8  1   
 10   5  30  1   
 11   5  31  1   
 12   6   9  1   
 13   6  32  1   
 14   6  33  1   
 15   7  10  1   
 16   7  34  1   
 17   7  35  1   
 18   8  11  1   
 19   8  36  1   
 20   8  37  1   
 21   9  12  1   
 22   9  38  1   
 23   9  39  1   
 24  10  13  1   
 25  11  12  1   
 26  11  14  am  
 27  12  40  1   
 28  12  41  1   
 29  13  15  ar  
 30  13  16  ar  
 31  14  17  2   
 32  14  18  1   
 33  15  19  ar  
 34  15  42  1   
 35  16  20  ar  
 36  16  43  1   
 37  18  21  1   
 38  18  44  1   
 39  18  45  1   
 40  19  22  ar  
 41  19  46  1   
 42  20  22  ar  
 43  20  47  1   
 44  21  23  1   
 45  21  48  1   
 46  21  49  1   
 47  22  50  1   
 48  23  24  1   
 49  23  25  2   
 50  24  26  2   
 51  24  51  1   
 52  25  27  1   
 53  25  52  1   
 54  26  27  1   
 55  27  53  1   
@<TRIPOS>SUBSTRUCTURE
  1 ****   8 GROUP 4 **** **** 0

# MOE 2024.06 (io_trps.svl 2023.06)
