@<TRIPOS>MOLECULE
NONAME
46 48 1 0 0 
SMALL
USER_CHARGES


@<TRIPOS>ATOM
  1 O       -0.3560     0.2270     0.0230 O.2   1 <1>  -0.5700 
  2 C       -1.3640     0.9160     0.0940 C.2   1 <1>   0.7160 
  3 N       -2.5690     0.2340     0.1050 N.am  1 <1>  -0.6600 
  4 C       -1.2660     2.3820     0.1500 C.2   1 <1>   0.2030 
  5 C       -3.9180     0.8490     0.0470 C.3   1 <1>   0.1400 
  6 C       -2.6650    -1.2460     0.0780 C.3   1 <1>   0.1400 
  7 N       -2.2100     3.2040     0.5870 N.2   1 <1>  -0.7070 
  8 C       -0.1440     3.1380    -0.2550 C.2   1 <1>  -0.1810 
  9 C       -4.8660    -0.3120    -0.2460 C.3   1 <1>   0.2000 
 10 C       -4.1500    -1.5580     0.2690 C.3   1 <1>  -0.0800 
 11 N       -1.7050     4.4350     0.4710 N.pl3 1 <1>   0.3000 
 12 C       -0.4610     4.4310    -0.0390 C.2   1 <1>  -0.3320 
 13 C        1.1570     2.5850    -0.8190 C.3   1 <1>  -0.0590 
 14 O       -6.0830    -0.1580     0.3980 O.3   1 <1>  -0.6800 
 15 C       -4.6040    -2.8470    -0.4330 C.3   1 <1>   0.0210 
 16 C        0.3240     5.7120    -0.2720 C.3   1 <1>   0.0200 
 17 C       -3.7880    -4.0380     0.0280 C.2   1 <1>   0.1080 
 18 C        0.7590     6.3210     1.0610 C.3   1 <1>  -0.2400 
 19 N       -3.8190    -4.4840     1.2450 N.2   1 <1>  -0.7070 
 20 C       -2.9220    -4.7700    -0.7780 C.2   1 <1>  -0.1500 
 21 N       -2.9660    -5.5260     1.2470 N.pl3 1 <1>   0.3000 
 22 C       -2.4090    -5.7180     0.0330 C.2   1 <1>  -0.3320 
 23 C       -1.4050    -6.8120    -0.2810 C.3   1 <1>  -0.0600 
 24 H       -4.1390     1.2990     1.0000 H     1 <1>   0.0800 
 25 H       -3.9630     1.5910    -0.7320 H     1 <1>   0.0800 
 26 H       -2.3120    -1.6010    -0.8760 H     1 <1>   0.0800 
 27 H       -2.0690    -1.6840     0.8620 H     1 <1>   0.0800 
 28 H       -5.0470    -0.3710    -1.3060 H     1 <1>   0.0800 
 29 H       -4.3150    -1.6590     1.3280 H     1 <1>   0.0800 
 30 H       -2.2290     5.2730     0.7500 H     1 <1>   0.2700 
 31 H        0.9520     1.9690    -1.6760 H     1 <1>   0.0800 
 32 H        1.6490     1.9850    -0.0740 H     1 <1>   0.0800 
 33 H        1.8240     3.3710    -1.1150 H     1 <1>   0.0800 
 34 H       -5.9530    -0.1740     1.3660 H     1 <1>   0.4000 
 35 H       -4.5080    -2.7410    -1.4980 H     1 <1>   0.0800 
 36 H       -5.6390    -3.0310    -0.2080 H     1 <1>   0.0800 
 37 H        1.1960     5.5110    -0.8680 H     1 <1>   0.0800 
 38 H       -0.2830     6.4160    -0.8160 H     1 <1>   0.0800 
 39 H        1.3600     5.6140     1.6070 H     1 <1>   0.0800 
 40 H       -0.0960     6.5790     1.6590 H     1 <1>   0.0800 
 41 H        1.3410     7.2080     0.8890 H     1 <1>   0.0800 
 42 H       -2.7230    -4.5950    -1.8200 H     1 <1>   0.1500 
 43 H       -2.7880    -6.0840     2.0910 H     1 <1>   0.2700 
 44 H       -1.1100    -6.7570    -1.3140 H     1 <1>   0.0800 
 45 H       -1.8400    -7.7790    -0.1000 H     1 <1>   0.0800 
 46 H       -0.5280    -6.7000     0.3320 H     1 <1>   0.0800 
@<TRIPOS>BOND
  1   1   2  2   
  2   2   3  am  
  3   2   4  1   
  4   3   5  1   
  5   3   6  1   
  6   4   7  2   
  7   4   8  1   
  8   5   9  1   
  9   5  24  1   
 10   5  25  1   
 11   6  10  1   
 12   6  26  1   
 13   6  27  1   
 14   7  11  1   
 15   8  12  2   
 16   8  13  1   
 17   9  10  1   
 18   9  14  1   
 19   9  28  1   
 20  10  15  1   
 21  10  29  1   
 22  11  12  1   
 23  11  30  1   
 24  12  16  1   
 25  13  31  1   
 26  13  32  1   
 27  13  33  1   
 28  14  34  1   
 29  15  17  1   
 30  15  35  1   
 31  15  36  1   
 32  16  18  1   
 33  16  37  1   
 34  16  38  1   
 35  17  19  2   
 36  17  20  1   
 37  18  39  1   
 38  18  40  1   
 39  18  41  1   
 40  19  21  1   
 41  20  22  2   
 42  20  42  1   
 43  21  22  1   
 44  21  43  1   
 45  22  23  1   
 46  23  44  1   
 47  23  45  1   
 48  23  46  1   
@<TRIPOS>SUBSTRUCTURE
  1 ****   3 GROUP 4 **** **** 0

# MOE 2024.06 (io_trps.svl 2023.06)
