@<TRIPOS>MOLECULE
NONAME
58 62 1 0 0 
SMALL
USER_CHARGES


@<TRIPOS>ATOM
  1 N        0.9380     0.5910     0.5060 N.ar  1 <1>  -0.6200 
  2 C        0.0590     1.5660     0.7610 C.ar  1 <1>   0.7200 
  3 C        1.6730     0.7810    -0.5580 C.ar  1 <1>   0.1660 
  4 N       -0.1140     2.6800     0.0430 N.ar  1 <1>  -0.6200 
  5 N       -0.7370     1.4070     1.8760 N.pl3 1 <1>  -0.8380 
  6 C        1.5780     1.8780    -1.3560 C.ar  1 <1>  -0.1440 
  7 C        2.7390    -0.1740    -1.0340 C.3   1 <1>   0.1430 
  8 C        0.6490     2.8280    -1.0150 C.ar  1 <1>   0.1600 
  9 C       -1.0880     0.0670     2.4210 C.3   1 <1>   0.1290 
 10 C       -1.4970     2.5480     2.4590 C.3   1 <1>   0.1290 
 11 C        2.5620     1.8250    -2.4980 C.3   1 <1>  -0.0160 
 12 C        3.6150    -0.5420     0.1740 C.3   1 <1>   0.3430 
 13 C        2.0930    -1.4390    -1.6380 C.3   1 <1>  -0.1600 
 14 C        3.4980     0.6670    -2.0970 C.3   1 <1>  -0.1600 
 15 N        4.6200    -1.6110    -0.1600 N.4   1 <1>  -0.9590 
 16 C        3.1240    -2.5560    -1.8800 C.3   1 <1>  -0.1600 
 17 C        3.9510    -2.8570    -0.6260 C.3   1 <1>   0.3430 
 18 C        5.5350    -1.8570     0.9840 C.3   1 <1>   0.4860 
 19 C        6.4470    -0.6520     1.1020 C.ar  1 <1>  -0.1440 
 20 C        6.1800     0.3440     2.0300 C.ar  1 <1>  -0.1500 
 21 C        7.5490    -0.5250     0.2680 C.ar  1 <1>  -0.1500 
 22 C        6.9910     1.4600     2.1050 C.ar  1 <1>  -0.1500 
 23 C        8.3600     0.5930     0.3490 C.ar  1 <1>  -0.1500 
 24 C        8.0900     1.6050     1.2650 C.ar  1 <1>  -0.0230 
 25 N        8.9090     2.7680     1.3440 N.pl3 1 <1>   0.5930 
 26 N        8.4080     4.0120     1.5480 N.2   1 <1>  -0.7070 
 27 C       10.2590     2.8320     1.2260 C.2   1 <1>  -0.3020 
 28 C        9.4320     4.8070     1.5490 C.2   1 <1>   0.1390 
 29 C       10.6260     4.1240     1.3510 C.2   1 <1>  -0.1500 
 30 H        0.5300     3.7170    -1.6100 H     1 <1>   0.1500 
 31 H       -0.8500    -0.7090     1.7140 H     1 <1>   0.0800 
 32 H       -2.1420     0.0200     2.6300 H     1 <1>   0.0800 
 33 H       -0.5390    -0.1050     3.3300 H     1 <1>   0.0800 
 34 H       -0.9570     3.4690     2.3200 H     1 <1>   0.0800 
 35 H       -1.6420     2.3960     3.5140 H     1 <1>   0.0800 
 36 H       -2.4540     2.6290     1.9740 H     1 <1>   0.0800 
 37 H        3.0980     2.7520    -2.6050 H     1 <1>   0.0800 
 38 H        2.0400     1.5990    -3.4130 H     1 <1>   0.0800 
 39 H        2.9710    -0.8860     0.9680 H     1 <1>   0.0800 
 40 H        4.1140     0.3490     0.5190 H     1 <1>   0.0800 
 41 H        1.5870    -1.1940    -2.5570 H     1 <1>   0.0800 
 42 H        1.3430    -1.8040    -0.9550 H     1 <1>   0.0800 
 43 H        3.7890     0.0920    -2.9580 H     1 <1>   0.0800 
 44 H        4.3820     1.0960    -1.6570 H     1 <1>   0.0800 
 45 H        5.2050    -1.2460    -0.9220 H     1 <1>   0.4500 
 46 H        3.7820    -2.2920    -2.6880 H     1 <1>   0.0800 
 47 H        2.6050    -3.4520    -2.1760 H     1 <1>   0.0800 
 48 H        3.3020    -3.2350     0.1490 H     1 <1>   0.0800 
 49 H        4.6860    -3.6130    -0.8530 H     1 <1>   0.0800 
 50 H        6.1310    -2.7360     0.8050 H     1 <1>   0.0800 
 51 H        4.9750    -1.9970     1.8950 H     1 <1>   0.0800 
 52 H        5.3410     0.2700     2.7020 H     1 <1>   0.1500 
 53 H        7.7920    -1.2890    -0.4520 H     1 <1>   0.1500 
 54 H        6.7720     2.2370     2.8210 H     1 <1>   0.1500 
 55 H        9.2080     0.6830    -0.3100 H     1 <1>   0.1500 
 56 H       10.8670     1.9630     1.0660 H     1 <1>   0.1500 
 57 H        9.3580     5.8730     1.6890 H     1 <1>   0.1500 
 58 H       11.6080     4.5620     1.3140 H     1 <1>   0.1500 
@<TRIPOS>BOND
  1   1   2  ar  
  2   1   3  ar  
  3   2   4  ar  
  4   2   5  1   
  5   3   6  ar  
  6   3   7  1   
  7   4   8  ar  
  8   5   9  1   
  9   5  10  1   
 10   6   8  ar  
 11   6  11  1   
 12   7  12  1   
 13   7  13  1   
 14   7  14  1   
 15   8  30  1   
 16   9  31  1   
 17   9  32  1   
 18   9  33  1   
 19  10  34  1   
 20  10  35  1   
 21  10  36  1   
 22  11  14  1   
 23  11  37  1   
 24  11  38  1   
 25  12  15  1   
 26  12  39  1   
 27  12  40  1   
 28  13  16  1   
 29  13  41  1   
 30  13  42  1   
 31  14  43  1   
 32  14  44  1   
 33  15  17  1   
 34  15  18  1   
 35  15  45  1   
 36  16  17  1   
 37  16  46  1   
 38  16  47  1   
 39  17  48  1   
 40  17  49  1   
 41  18  19  1   
 42  18  50  1   
 43  18  51  1   
 44  19  20  ar  
 45  19  21  ar  
 46  20  22  ar  
 47  20  52  1   
 48  21  23  ar  
 49  21  53  1   
 50  22  24  ar  
 51  22  54  1   
 52  23  24  ar  
 53  23  55  1   
 54  24  25  1   
 55  25  26  1   
 56  25  27  1   
 57  26  28  2   
 58  27  29  2   
 59  27  56  1   
 60  28  29  1   
 61  28  57  1   
 62  29  58  1   
@<TRIPOS>SUBSTRUCTURE
  1 ****  12 GROUP 4 **** **** 0

# MOE 2024.06 (io_trps.svl 2023.06)
