@<TRIPOS>MOLECULE
NONAME
54 56 1 0 0 
SMALL
USER_CHARGES


@<TRIPOS>ATOM
  1 F       -1.3240    -0.4530    -1.1460 F     1 <1>  -0.1900 
  2 C       -2.4530     0.1740    -0.9340 C.ar  1 <1>   0.1900 
  3 C       -2.5490     1.5690    -0.9830 C.ar  1 <1>   0.0830 
  4 C       -3.5530    -0.6160    -0.6600 C.ar  1 <1>  -0.1500 
  5 O       -1.5430     2.4520    -1.2440 O.3   1 <1>  -0.3630 
  6 C       -3.7900     2.1360    -0.7450 C.ar  1 <1>  -0.1500 
  7 C       -4.7770    -0.0170    -0.4270 C.ar  1 <1>  -0.1500 
  8 C       -0.2080     2.0550    -1.4670 C.3   1 <1>   0.0400 
  9 C       -4.9250     1.3720    -0.4600 C.ar  1 <1>   0.0530 
 10 C       -6.1970     2.0080    -0.2170 C.2   1 <1>   0.0870 
 11 O       -6.4550     3.1930    -0.7120 O.3   1 <1>  -0.0190 
 12 C       -7.3040     1.6250     0.4700 C.2   1 <1>  -0.0860 
 13 N       -7.6520     3.6250    -0.4110 N.2   1 <1>  -0.4100 
 14 C       -8.1840     2.6980     0.3070 C.2   1 <1>   0.3720 
 15 C       -7.5640     0.4350     1.2130 C.2   1 <1>   0.7160 
 16 N       -9.4810     2.7620     0.8390 N.pl3 1 <1>  -0.8210 
 17 O       -7.0310     0.2900     2.3000 O.2   1 <1>  -0.5700 
 18 N       -8.3620    -0.5780     0.7220 N.am  1 <1>  -0.6600 
 19 C       -9.5300     2.9050     2.3200 C.3   1 <1>   0.1290 
 20 C      -10.4130     3.7000     0.1540 C.3   1 <1>   0.1290 
 21 C       -9.1130    -0.4550    -0.5650 C.3   1 <1>   0.1400 
 22 C       -8.5710    -1.8240     1.5170 C.3   1 <1>   0.1400 
 23 C      -10.4700    -1.1490    -0.4320 C.3   1 <1>  -0.1600 
 24 C       -9.0160    -2.9750     0.6100 C.3   1 <1>  -0.1600 
 25 C      -10.3320    -2.6700    -0.1540 C.3   1 <1>   0.0610 
 26 C      -10.3040    -3.4400    -1.4980 C.2   1 <1>   0.5690 
 27 C      -11.5310    -3.0920     0.7290 C.3   1 <1>  -0.2400 
 28 O       -9.5670    -3.0820    -2.3830 O.2   1 <1>  -0.5700 
 29 N      -11.0860    -4.5180    -1.7070 N.am  1 <1>  -0.8000 
 30 H       -3.4490    -1.6860    -0.6300 H     1 <1>   0.1500 
 31 H       -3.8720     3.2080    -0.7780 H     1 <1>   0.1500 
 32 H       -5.6270    -0.6440    -0.2230 H     1 <1>   0.1500 
 33 H        0.3810     2.9400    -1.6250 H     1 <1>   0.0800 
 34 H       -0.1700     1.4320    -2.3430 H     1 <1>   0.0800 
 35 H        0.1500     1.5280    -0.6010 H     1 <1>   0.0800 
 36 H       -8.8170     2.2500     2.7890 H     1 <1>   0.0800 
 37 H      -10.5120     2.6510     2.6780 H     1 <1>   0.0800 
 38 H       -9.3010     3.9190     2.5990 H     1 <1>   0.0800 
 39 H      -10.3620     3.5520    -0.9110 H     1 <1>   0.0800 
 40 H      -10.1420     4.7190     0.3750 H     1 <1>   0.0800 
 41 H      -11.4220     3.5200     0.4800 H     1 <1>   0.0800 
 42 H       -8.5410    -0.9080    -1.3580 H     1 <1>   0.0800 
 43 H       -9.2770     0.5770    -0.8160 H     1 <1>   0.0800 
 44 H       -9.3160    -1.6360     2.2710 H     1 <1>   0.0800 
 45 H       -7.6540    -2.0950     2.0130 H     1 <1>   0.0800 
 46 H      -11.0370    -0.9920    -1.3320 H     1 <1>   0.0800 
 47 H      -11.0010    -0.6560     0.3640 H     1 <1>   0.0800 
 48 H       -9.1180    -3.8730     1.1910 H     1 <1>   0.0800 
 49 H       -8.2180    -3.1520    -0.0920 H     1 <1>   0.0800 
 50 H      -11.5330    -2.5430     1.6540 H     1 <1>   0.0800 
 51 H      -11.4860    -4.1400     0.9680 H     1 <1>   0.0800 
 52 H      -12.4590    -2.8940     0.2200 H     1 <1>   0.0800 
 53 H      -11.0400    -4.9980    -2.6060 H     1 <1>   0.3700 
 54 H      -11.7450    -4.8840    -1.0220 H     1 <1>   0.3700 
@<TRIPOS>BOND
  1   1   2  1   
  2   2   3  ar  
  3   2   4  ar  
  4   3   5  1   
  5   3   6  ar  
  6   4   7  ar  
  7   4  30  1   
  8   5   8  1   
  9   6   9  ar  
 10   6  31  1   
 11   7   9  ar  
 12   7  32  1   
 13   8  33  1   
 14   8  34  1   
 15   8  35  1   
 16   9  10  1   
 17  10  11  1   
 18  10  12  2   
 19  11  13  1   
 20  12  14  1   
 21  12  15  1   
 22  13  14  2   
 23  14  16  1   
 24  15  17  2   
 25  15  18  am  
 26  16  19  1   
 27  16  20  1   
 28  18  21  1   
 29  18  22  1   
 30  19  36  1   
 31  19  37  1   
 32  19  38  1   
 33  20  39  1   
 34  20  40  1   
 35  20  41  1   
 36  21  23  1   
 37  21  42  1   
 38  21  43  1   
 39  22  24  1   
 40  22  44  1   
 41  22  45  1   
 42  23  25  1   
 43  23  46  1   
 44  23  47  1   
 45  24  25  1   
 46  24  48  1   
 47  24  49  1   
 48  25  26  1   
 49  25  27  1   
 50  26  28  2   
 51  26  29  am  
 52  27  50  1   
 53  27  51  1   
 54  27  52  1   
 55  29  53  1   
 56  29  54  1   
@<TRIPOS>SUBSTRUCTURE
  1 ****  15 GROUP 4 **** **** 0

# MOE 2024.06 (io_trps.svl 2023.06)
