@<TRIPOS>MOLECULE
NONAME
38 39 1 0 0 
SMALL
USER_CHARGES


@<TRIPOS>ATOM
  1 CL      -0.3560    -0.8090    -1.6680 Cl    1 <1>  -0.1770 
  2 C       -1.7220    -1.4180    -0.7610 C.ar  1 <1>   0.1770 
  3 C       -3.0100    -1.0620    -1.1180 C.ar  1 <1>   0.1600 
  4 C       -1.5060    -2.2550     0.3130 C.ar  1 <1>  -0.1500 
  5 N       -4.1020    -1.4740    -0.4890 N.ar  1 <1>  -0.6200 
  6 C       -2.6340    -2.6890     0.9720 C.ar  1 <1>  -0.1500 
  7 C       -3.8980    -2.2830     0.5470 C.ar  1 <1>   0.4100 
  8 N       -5.0110    -2.7550     1.2050 N.pl3 1 <1>  -0.8380 
  9 C       -5.4490    -4.1660     0.9440 C.3   1 <1>   0.2090 
 10 C       -6.1450    -1.8410     1.5350 C.3   1 <1>   0.2090 
 11 C       -6.4960    -4.2090    -0.1860 C.3   1 <1>   0.2000 
 12 C       -7.2500    -1.8980     0.4680 C.3   1 <1>  -0.1600 
 13 O       -5.8800    -3.7140    -1.3370 O.3   1 <1>  -0.6800 
 14 C       -7.7350    -3.3490     0.1720 C.3   1 <1>  -0.1060 
 15 C       -8.3730    -3.9890     1.4230 C.2   1 <1>   0.9060 
 16 C       -8.7470    -3.3640    -1.0120 C.3   1 <1>  -0.1600 
 17 O       -8.8650    -3.2700     2.3040 O.co2 1 <1>  -0.9000 
 18 O       -8.3590    -5.2220     1.5410 O.co2 1 <1>  -0.9000 
 19 C      -10.0610    -2.6070    -0.7510 C.3   1 <1>  -0.1600 
 20 C      -11.0110    -2.7290    -1.9460 C.3   1 <1>  -0.2400 
 21 H       -3.1450    -0.4090    -1.9610 H     1 <1>   0.1500 
 22 H       -0.5140    -2.5440     0.6090 H     1 <1>   0.1500 
 23 H       -2.5680    -3.3430     1.8210 H     1 <1>   0.1500 
 24 H       -4.6060    -4.7720     0.6650 H     1 <1>   0.0800 
 25 H       -5.8630    -4.5820     1.8470 H     1 <1>   0.0800 
 26 H       -6.5540    -2.1270     2.4900 H     1 <1>   0.0800 
 27 H       -5.7810    -0.8320     1.6220 H     1 <1>   0.0800 
 28 H       -6.7890    -5.2260    -0.3830 H     1 <1>   0.0800 
 29 H       -8.0740    -1.3070     0.8240 H     1 <1>   0.0800 
 30 H       -6.8910    -1.4330    -0.4310 H     1 <1>   0.0800 
 31 H       -5.4140    -2.8870    -1.0560 H     1 <1>   0.4000 
 32 H       -8.2790    -2.9510    -1.8880 H     1 <1>   0.0800 
 33 H       -8.9850    -4.3920    -1.2280 H     1 <1>   0.0800 
 34 H      -10.5440    -3.0080     0.1250 H     1 <1>   0.0800 
 35 H       -9.8590    -1.5670    -0.5700 H     1 <1>   0.0800 
 36 H      -11.2500    -3.7630    -2.1240 H     1 <1>   0.0800 
 37 H      -10.5550    -2.3190    -2.8290 H     1 <1>   0.0800 
 38 H      -11.9220    -2.1950    -1.7450 H     1 <1>   0.0800 
@<TRIPOS>BOND
  1   1   2  1   
  2   2   3  ar  
  3   2   4  ar  
  4   3   5  ar  
  5   3  21  1   
  6   4   6  ar  
  7   4  22  1   
  8   5   7  ar  
  9   6   7  ar  
 10   6  23  1   
 11   7   8  1   
 12   8   9  1   
 13   8  10  1   
 14   9  11  1   
 15   9  24  1   
 16   9  25  1   
 17  10  12  1   
 18  10  26  1   
 19  10  27  1   
 20  11  13  1   
 21  11  14  1   
 22  11  28  1   
 23  12  14  1   
 24  12  29  1   
 25  12  30  1   
 26  13  31  1   
 27  14  15  1   
 28  14  16  1   
 29  15  17  ar  
 30  15  18  ar  
 31  16  19  1   
 32  16  32  1   
 33  16  33  1   
 34  19  20  1   
 35  19  34  1   
 36  19  35  1   
 37  20  36  1   
 38  20  37  1   
 39  20  38  1   
@<TRIPOS>SUBSTRUCTURE
  1 ****   8 GROUP 4 **** **** 0

# MOE 2024.06 (io_trps.svl 2023.06)
