@<TRIPOS>MOLECULE
NONAME
55 58 1 0 0 
SMALL
USER_CHARGES


@<TRIPOS>ATOM
  1 O        2.7360    -0.9820    -2.5540 O.2   1 <1>  -0.5700 
  2 C        2.1260    -1.2030    -1.5350 C.2   1 <1>   0.5690 
  3 N        1.8090    -0.2280    -0.6460 N.am  1 <1>  -0.7300 
  4 C        1.6840    -2.6350    -1.2140 C.3   1 <1>   0.1710 
  5 C        2.1200     1.2150    -0.7620 C.3   1 <1>   0.1400 
  6 N        0.5410    -2.7260    -0.2540 N.3   1 <1>  -0.8100 
  7 C        2.8840     1.6830     0.4730 C.3   1 <1>  -0.0170 
  8 C       -0.7300    -2.3220    -0.9050 C.3   1 <1>   0.1100 
  9 C        0.4000    -4.1040     0.2660 C.3   1 <1>   0.1100 
 10 C        3.0940     3.1790     0.4060 C.ar  1 <1>   0.4770 
 11 C       -1.9290    -2.3870     0.0600 C.3   1 <1>   0.2090 
 12 C       -0.7580    -4.2320     1.2750 C.3   1 <1>   0.2090 
 13 N        2.0940     3.9260     0.8600 N.ar  1 <1>  -0.6200 
 14 N        4.2460     3.5840    -0.1060 N.ar  1 <1>  -0.6200 
 15 N       -2.0460    -3.7380     0.6930 N.pl3 1 <1>  -0.8380 
 16 C        2.2690     5.2300     0.7990 C.ar  1 <1>   0.1670 
 17 C        4.3810     4.8860    -0.1540 C.ar  1 <1>   0.1670 
 18 C       -3.2610    -4.3460     0.9400 C.ar  1 <1>   0.7200 
 19 C        3.4300     5.7590     0.2830 C.ar  1 <1>  -0.1430 
 20 C        1.1390     6.0920     1.3210 C.3   1 <1>  -0.0970 
 21 C        5.5950     5.5960    -0.6900 C.3   1 <1>  -0.0170 
 22 N       -3.2380    -5.5300     1.5530 N.ar  1 <1>  -0.6200 
 23 N       -4.3580    -3.6980     0.5480 N.ar  1 <1>  -0.6200 
 24 C        3.8780     7.1920     0.1020 C.3   1 <1>  -0.0170 
 25 C        5.1560     7.0720    -0.7490 C.3   1 <1>  -0.1600 
 26 C       -4.3980    -6.0940     1.7830 C.ar  1 <1>   0.1600 
 27 C       -5.5040    -4.2850     0.7900 C.ar  1 <1>   0.1600 
 28 C       -5.5810    -5.5040     1.4150 C.ar  1 <1>  -0.1500 
 29 H        1.2410    -0.5310     0.1530 H     1 <1>   0.3700 
 30 H        2.5380    -3.1340    -0.7940 H     1 <1>   0.0800 
 31 H        1.4320    -3.1330    -2.1330 H     1 <1>   0.0800 
 32 H        1.2010     1.7690    -0.8540 H     1 <1>   0.0800 
 33 H        2.7130     1.3950    -1.6440 H     1 <1>   0.0800 
 34 H        3.8370     1.1890     0.5180 H     1 <1>   0.0800 
 35 H        2.3270     1.4500     1.3610 H     1 <1>   0.0800 
 36 H       -0.9330    -2.9670    -1.7430 H     1 <1>   0.0800 
 37 H       -0.6460    -1.3160    -1.2760 H     1 <1>   0.0800 
 38 H        1.3120    -4.3950     0.7550 H     1 <1>   0.0800 
 39 H        0.2220    -4.7870    -0.5470 H     1 <1>   0.0800 
 40 H       -2.8170    -2.1410    -0.4930 H     1 <1>   0.0800 
 41 H       -1.8040    -1.6480     0.8310 H     1 <1>   0.0800 
 42 H       -0.5270    -3.6530     2.1520 H     1 <1>   0.0800 
 43 H       -0.8340    -5.2620     1.5720 H     1 <1>   0.0800 
 44 H        0.9180     5.8140     2.3350 H     1 <1>   0.0800 
 45 H        0.2620     5.9330     0.7200 H     1 <1>   0.0800 
 46 H        1.3940     7.1340     1.2960 H     1 <1>   0.0800 
 47 H        5.8600     5.2200    -1.6620 H     1 <1>   0.0800 
 48 H        6.4150     5.4590    -0.0090 H     1 <1>   0.0800 
 49 H        4.0990     7.6240     1.0620 H     1 <1>   0.0800 
 50 H        3.1290     7.7790    -0.4010 H     1 <1>   0.0800 
 51 H        4.9220     7.3240    -1.7690 H     1 <1>   0.0800 
 52 H        5.9320     7.7290    -0.3960 H     1 <1>   0.0800 
 53 H       -4.4040    -7.0510     2.2760 H     1 <1>   0.1500 
 54 H       -6.4040    -3.7800     0.4830 H     1 <1>   0.1500 
 55 H       -6.5260    -5.9760     1.6090 H     1 <1>   0.1500 
@<TRIPOS>BOND
  1   1   2  2   
  2   2   3  am  
  3   2   4  1   
  4   3   5  1   
  5   3  29  1   
  6   4   6  1   
  7   4  30  1   
  8   4  31  1   
  9   5   7  1   
 10   5  32  1   
 11   5  33  1   
 12   6   8  1   
 13   6   9  1   
 14   7  10  1   
 15   7  34  1   
 16   7  35  1   
 17   8  11  1   
 18   8  36  1   
 19   8  37  1   
 20   9  12  1   
 21   9  38  1   
 22   9  39  1   
 23  10  13  ar  
 24  10  14  ar  
 25  11  15  1   
 26  11  40  1   
 27  11  41  1   
 28  12  15  1   
 29  12  42  1   
 30  12  43  1   
 31  13  16  ar  
 32  14  17  ar  
 33  15  18  1   
 34  16  19  ar  
 35  16  20  1   
 36  17  19  ar  
 37  17  21  1   
 38  18  22  ar  
 39  18  23  ar  
 40  19  24  1   
 41  20  44  1   
 42  20  45  1   
 43  20  46  1   
 44  21  25  1   
 45  21  47  1   
 46  21  48  1   
 47  22  26  ar  
 48  23  27  ar  
 49  24  25  1   
 50  24  49  1   
 51  24  50  1   
 52  25  51  1   
 53  25  52  1   
 54  26  28  ar  
 55  26  53  1   
 56  27  28  ar  
 57  27  54  1   
 58  28  55  1   
@<TRIPOS>SUBSTRUCTURE
  1 ****   3 GROUP 4 **** **** 0

# MOE 2024.06 (io_trps.svl 2023.06)
