@<TRIPOS>MOLECULE
NONAME
46 48 1 0 0 
SMALL
USER_CHARGES


@<TRIPOS>ATOM
  1 F        0.1780    -0.7570     1.5520 F     1 <1>  -0.1900 
  2 C       -0.5000    -1.8030     1.1510 C.ar  1 <1>   0.1900 
  3 C        0.1180    -2.8950     0.5300 C.ar  1 <1>   0.0820 
  4 C       -1.8630    -1.7730     1.3700 C.ar  1 <1>  -0.1500 
  5 O        1.4480    -3.0410     0.2600 O.3   1 <1>  -0.3630 
  6 C       -0.6880    -3.9520     0.1400 C.ar  1 <1>  -0.1500 
  7 C       -2.6370    -2.8440     0.9670 C.ar  1 <1>  -0.1500 
  8 C        2.4190    -2.0920     0.6430 C.3   1 <1>   0.0400 
  9 C       -2.0710    -3.9600     0.3450 C.ar  1 <1>   0.0530 
 10 C       -2.8730    -5.0850    -0.0780 C.2   1 <1>   0.0870 
 11 O       -2.4400    -5.8890    -1.0220 O.3   1 <1>  -0.0190 
 12 C       -4.0850    -5.5570     0.3050 C.2   1 <1>  -0.2330 
 13 N       -3.2810    -6.8530    -1.2940 N.2   1 <1>  -0.4100 
 14 C       -4.2830    -6.6720    -0.5080 C.2   1 <1>   0.3720 
 15 C       -4.9870    -5.0850     1.3000 C.2   1 <1>   1.0330 
 16 N       -5.3950    -7.5180    -0.5160 N.pl3 1 <1>  -0.8210 
 17 O       -5.7990    -4.1820     1.0290 O.co2 1 <1>  -0.9000 
 18 O       -4.9690    -5.5520     2.4510 O.co2 1 <1>  -0.9000 
 19 C       -6.6790    -6.8340    -0.8030 C.3   1 <1>   0.2090 
 20 C       -5.5030    -8.3610     0.7000 C.3   1 <1>   0.2090 
 21 C       -7.7360    -7.8950    -1.1220 C.3   1 <1>  -0.1600 
 22 C       -6.5270    -9.4700     0.4410 C.3   1 <1>  -0.1600 
 23 C       -7.9000    -8.8940     0.0400 C.3   1 <1>  -0.0800 
 24 C       -8.8910    -9.9990    -0.3500 C.3   1 <1>   0.1200 
 25 O       -9.0820   -10.8570     0.7320 O.3   1 <1>  -0.5600 
 26 C       -9.9450   -11.9140     0.4680 C.3   1 <1>   0.0400 
 27 H       -2.3160    -0.9240     1.8500 H     1 <1>   0.1500 
 28 H       -0.2250    -4.7970    -0.3350 H     1 <1>   0.1500 
 29 H       -3.7000    -2.8090     1.1360 H     1 <1>   0.1500 
 30 H        3.3830    -2.4610     0.3420 H     1 <1>   0.0800 
 31 H        2.3900    -1.9740     1.7110 H     1 <1>   0.0800 
 32 H        2.2130    -1.1610     0.1450 H     1 <1>   0.0800 
 33 H       -6.5520    -6.1670    -1.6390 H     1 <1>   0.0800 
 34 H       -6.9930    -6.2550     0.0500 H     1 <1>   0.0800 
 35 H       -5.8140    -7.7600     1.5400 H     1 <1>   0.0800 
 36 H       -4.5410    -8.7890     0.9280 H     1 <1>   0.0800 
 37 H       -7.4330    -8.4110    -2.0160 H     1 <1>   0.0800 
 38 H       -8.6720    -7.4040    -1.3170 H     1 <1>   0.0800 
 39 H       -6.6290   -10.0630     1.3320 H     1 <1>   0.0800 
 40 H       -6.1490   -10.1050    -0.3400 H     1 <1>   0.0800 
 41 H       -8.3060    -8.3590     0.8820 H     1 <1>   0.0800 
 42 H       -8.5060   -10.5690    -1.1780 H     1 <1>   0.0800 
 43 H       -9.8420    -9.5690    -0.6150 H     1 <1>   0.0800 
 44 H      -10.0250   -12.5090     1.3600 H     1 <1>   0.0800 
 45 H       -9.5410   -12.5100    -0.3320 H     1 <1>   0.0800 
 46 H      -10.9120   -11.5250     0.2020 H     1 <1>   0.0800 
@<TRIPOS>BOND
  1   1   2  1   
  2   2   3  ar  
  3   2   4  ar  
  4   3   5  1   
  5   3   6  ar  
  6   4   7  ar  
  7   4  27  1   
  8   5   8  1   
  9   6   9  ar  
 10   6  28  1   
 11   7   9  ar  
 12   7  29  1   
 13   8  30  1   
 14   8  31  1   
 15   8  32  1   
 16   9  10  1   
 17  10  11  1   
 18  10  12  2   
 19  11  13  1   
 20  12  14  1   
 21  12  15  1   
 22  13  14  2   
 23  14  16  1   
 24  15  17  ar  
 25  15  18  ar  
 26  16  19  1   
 27  16  20  1   
 28  19  21  1   
 29  19  33  1   
 30  19  34  1   
 31  20  22  1   
 32  20  35  1   
 33  20  36  1   
 34  21  23  1   
 35  21  37  1   
 36  21  38  1   
 37  22  23  1   
 38  22  39  1   
 39  22  40  1   
 40  23  24  1   
 41  23  41  1   
 42  24  25  1   
 43  24  42  1   
 44  24  43  1   
 45  25  26  1   
 46  26  44  1   
 47  26  45  1   
 48  26  46  1   
@<TRIPOS>SUBSTRUCTURE
  1 ****  12 GROUP 4 **** **** 0

# MOE 2024.06 (io_trps.svl 2023.06)
