@<TRIPOS>MOLECULE
NONAME
49 50 1 0 0 
SMALL
USER_CHARGES


@<TRIPOS>ATOM
  1 S       -0.0860     0.1160     0.3460 S.o2  1 <1>   1.3330 
  2 O        0.0380    -0.7070     1.5280 O.2   1 <1>  -0.6500 
  3 O       -0.7320     1.4050     0.4410 O.2   1 <1>  -0.6500 
  4 N       -0.8920    -0.7970    -0.8380 N.am  1 <1>  -0.8490 
  5 C        1.5290     0.3680    -0.3920 C.3   1 <1>  -0.0550 
  6 C       -2.3380    -0.5550    -0.8390 C.3   1 <1>   0.1160 
  7 C       -0.6270    -2.2370    -0.7430 C.3   1 <1>   0.1160 
  8 C        2.4590     1.2650     0.4500 C.3   1 <1>  -0.0800 
  9 C        3.7140     1.6300    -0.3240 C.3   1 <1>   0.2200 
 10 C        3.0340     0.5250     1.6630 C.3   1 <1>   0.1200 
 11 N        4.2830     2.8750     0.2390 N.am  1 <1>  -0.7300 
 12 C        4.6320     0.4570    -0.0020 C.3   1 <1>   0.1200 
 13 O        4.2850     0.0310     1.2820 O.3   1 <1>  -0.5600 
 14 C        4.4300     4.0530    -0.4370 C.2   1 <1>   0.5440 
 15 O        4.1000     4.0900    -1.6050 O.2   1 <1>  -0.5700 
 16 C        4.9790     5.2260     0.2230 C.ar  1 <1>   0.0860 
 17 C        5.6340     6.2160    -0.5070 C.ar  1 <1>  -0.1500 
 18 C        4.8740     5.4140     1.6030 C.ar  1 <1>  -0.1500 
 19 C        6.1740     7.3370     0.0980 C.ar  1 <1>   0.0820 
 20 C        5.4100     6.5290     2.2230 C.ar  1 <1>  -0.1500 
 21 O        6.7900     8.2320    -0.7130 O.3   1 <1>  -0.3620 
 22 C        6.0620     7.4920     1.4770 C.ar  1 <1>  -0.1500 
 23 C        7.3550     9.4300    -0.1950 C.3   1 <1>   0.1810 
 24 C        7.9690    10.2870    -1.2970 C.2   1 <1>   0.5690 
 25 O        8.5440    11.3020    -0.9990 O.2   1 <1>  -0.5700 
 26 N        7.8730     9.9240    -2.5920 N.am  1 <1>  -0.8000 
 27 H        1.9980    -0.5810    -0.5600 H     1 <1>   0.0800 
 28 H        1.3820     0.8340    -1.3470 H     1 <1>   0.0800 
 29 H       -2.8130    -1.1370    -1.6090 H     1 <1>   0.0800 
 30 H       -2.5370     0.4860    -1.0330 H     1 <1>   0.0800 
 31 H       -2.7620    -0.8150     0.1170 H     1 <1>   0.0800 
 32 H       -1.0840    -2.7520    -1.5700 H     1 <1>   0.0800 
 33 H       -1.0220    -2.6330     0.1790 H     1 <1>   0.0800 
 34 H        0.4330    -2.4230    -0.7710 H     1 <1>   0.0800 
 35 H        1.9160     2.1480     0.7460 H     1 <1>   0.0800 
 36 H        3.5470     1.7330    -1.3830 H     1 <1>   0.0800 
 37 H        2.4260    -0.2970     1.9980 H     1 <1>   0.0800 
 38 H        3.1910     1.2040     2.4820 H     1 <1>   0.0800 
 39 H        4.6800     2.7700     1.1740 H     1 <1>   0.3700 
 40 H        5.6730     0.7270    -0.0270 H     1 <1>   0.0800 
 41 H        4.4530    -0.3620    -0.6770 H     1 <1>   0.0800 
 42 H        5.7240     6.1070    -1.5730 H     1 <1>   0.1500 
 43 H        4.3580     4.6850     2.2020 H     1 <1>   0.1500 
 44 H        5.3160     6.6490     3.2890 H     1 <1>   0.1500 
 45 H        6.4690     8.3460     1.9840 H     1 <1>   0.1500 
 46 H        6.5780     9.9900     0.2920 H     1 <1>   0.0800 
 47 H        8.1200     9.1670     0.5120 H     1 <1>   0.0800 
 48 H        8.2870    10.5000    -3.3240 H     1 <1>   0.3700 
 49 H        7.3980     9.0650    -2.8770 H     1 <1>   0.3700 
@<TRIPOS>BOND
  1   1   2  2   
  2   1   3  2   
  3   1   4  am  
  4   1   5  1   
  5   4   6  1   
  6   4   7  1   
  7   5   8  1   
  8   5  27  1   
  9   5  28  1   
 10   6  29  1   
 11   6  30  1   
 12   6  31  1   
 13   7  32  1   
 14   7  33  1   
 15   7  34  1   
 16   8   9  1   
 17   8  10  1   
 18   8  35  1   
 19   9  11  1   
 20   9  12  1   
 21   9  36  1   
 22  10  13  1   
 23  10  37  1   
 24  10  38  1   
 25  11  14  am  
 26  11  39  1   
 27  12  13  1   
 28  12  40  1   
 29  12  41  1   
 30  14  15  2   
 31  14  16  1   
 32  16  17  ar  
 33  16  18  ar  
 34  17  19  ar  
 35  17  42  1   
 36  18  20  ar  
 37  18  43  1   
 38  19  21  1   
 39  19  22  ar  
 40  20  22  ar  
 41  20  44  1   
 42  21  23  1   
 43  22  45  1   
 44  23  24  1   
 45  23  46  1   
 46  23  47  1   
 47  24  25  2   
 48  24  26  am  
 49  26  48  1   
 50  26  49  1   
@<TRIPOS>SUBSTRUCTURE
  1 ****  14 GROUP 4 **** **** 0

# MOE 2024.06 (io_trps.svl 2023.06)
