@<TRIPOS>MOLECULE
NONAME
53 56 1 0 0 
SMALL
USER_CHARGES


@<TRIPOS>ATOM
  1 O        0.9750     0.2480     0.5180 O.2   1 <1>  -0.5700 
  2 C        1.7970    -0.5620     0.8700 C.2   1 <1>   0.6300 
  3 N        2.9050    -0.1900     1.5910 N.am  1 <1>  -0.6600 
  4 C        1.6150    -2.0050     0.4250 C.3   1 <1>  -0.1000 
  5 C        4.1580    -0.9940     1.6270 C.3   1 <1>   0.1400 
  6 C        2.9840     1.1560     2.2210 C.3   1 <1>   0.1400 
  7 C        0.2810    -2.6680     0.6060 C.3   1 <1>  -0.0680 
  8 C        1.4590    -3.1340     1.4030 C.3   1 <1>  -0.2000 
  9 C        4.9500    -0.8120     0.3170 C.3   1 <1>   0.3430 
 10 C        4.0580     2.0290     1.5600 C.3   1 <1>  -0.1600 
 11 C       -0.2710    -3.4910    -0.5430 C.ar  1 <1>  -0.0320 
 12 N        5.4160     0.5930     0.0560 N.4   1 <1>  -0.9590 
 13 C        4.3590     1.6550     0.1070 C.3   1 <1>   0.3430 
 14 C       -0.5790    -2.8700    -1.7430 C.ar  1 <1>  -0.1500 
 15 C       -0.4750    -4.8550    -0.4090 C.ar  1 <1>  -0.1500 
 16 C        6.2000     0.6740    -1.2030 C.3   1 <1>   0.4860 
 17 C       -1.0760    -3.6070    -2.8040 C.ar  1 <1>  -0.1500 
 18 C       -0.9720    -5.5950    -1.4690 C.ar  1 <1>  -0.1500 
 19 C        6.9800     1.9720    -1.2070 C.ar  1 <1>  -0.1440 
 20 C       -1.2710    -4.9710    -2.6680 C.ar  1 <1>  -0.1500 
 21 C        7.8400     2.2780    -0.1510 C.ar  1 <1>   0.4100 
 22 C        6.8430     2.8770    -2.2380 C.ar  1 <1>  -0.1500 
 23 N        8.5220     3.3930    -0.0440 N.ar  1 <1>  -0.6200 
 24 N        8.0430     1.4430     0.9020 N.pl3 1 <1>  -0.9000 
 25 C        7.5710     4.0460    -2.1430 C.ar  1 <1>  -0.1500 
 26 C        8.3800     4.2520    -1.0410 C.ar  1 <1>   0.1600 
 27 H        2.1090    -2.2000    -0.5080 H     1 <1>   0.1000 
 28 H        4.7630    -0.7010     2.4680 H     1 <1>   0.0800 
 29 H        3.9180    -2.0340     1.7550 H     1 <1>   0.0800 
 30 H        2.0300     1.6510     2.1370 H     1 <1>   0.0800 
 31 H        3.1890     1.0500     3.2730 H     1 <1>   0.0800 
 32 H       -0.4860    -2.1130     1.1210 H     1 <1>   0.1000 
 33 H        1.8910    -4.0910     1.1700 H     1 <1>   0.1000 
 34 H        1.4560    -2.9270     2.4600 H     1 <1>   0.1000 
 35 H        4.3270    -1.1390    -0.4990 H     1 <1>   0.0800 
 36 H        5.8080    -1.4640     0.3510 H     1 <1>   0.0800 
 37 H        4.9600     2.0180     2.1450 H     1 <1>   0.0800 
 38 H        3.6970     3.0410     1.5780 H     1 <1>   0.0800 
 39 H        6.1240     0.8500     0.7730 H     1 <1>   0.4500 
 40 H        4.7170     2.5400    -0.3940 H     1 <1>   0.0800 
 41 H        3.4590     1.3290    -0.3910 H     1 <1>   0.0800 
 42 H       -0.4360    -1.8090    -1.8480 H     1 <1>   0.1500 
 43 H       -0.2490    -5.3440     0.5210 H     1 <1>   0.1500 
 44 H        6.8950    -0.1470    -1.2570 H     1 <1>   0.0800 
 45 H        5.5430     0.6280    -2.0560 H     1 <1>   0.0800 
 46 H       -1.3130    -3.1190    -3.7340 H     1 <1>   0.1500 
 47 H       -1.1270    -6.6540    -1.3610 H     1 <1>   0.1500 
 48 H       -1.6570    -5.5440    -3.4920 H     1 <1>   0.1500 
 49 H        6.2030     2.7020    -3.0880 H     1 <1>   0.1500 
 50 H        8.3340     2.0260     1.6980 H     1 <1>   0.4000 
 51 H        8.8570     0.8410     0.7360 H     1 <1>   0.4000 
 52 H        7.5120     4.7940    -2.9150 H     1 <1>   0.1500 
 53 H        8.9410     5.1700    -0.9750 H     1 <1>   0.1500 
@<TRIPOS>BOND
  1   1   2  2   
  2   2   3  am  
  3   2   4  1   
  4   3   5  1   
  5   3   6  1   
  6   4   7  1   
  7   4   8  1   
  8   4  27  1   
  9   5   9  1   
 10   5  28  1   
 11   5  29  1   
 12   6  10  1   
 13   6  30  1   
 14   6  31  1   
 15   7   8  1   
 16   7  11  1   
 17   7  32  1   
 18   8  33  1   
 19   8  34  1   
 20   9  12  1   
 21   9  35  1   
 22   9  36  1   
 23  10  13  1   
 24  10  37  1   
 25  10  38  1   
 26  11  14  ar  
 27  11  15  ar  
 28  12  13  1   
 29  12  16  1   
 30  12  39  1   
 31  13  40  1   
 32  13  41  1   
 33  14  17  ar  
 34  14  42  1   
 35  15  18  ar  
 36  15  43  1   
 37  16  19  1   
 38  16  44  1   
 39  16  45  1   
 40  17  20  ar  
 41  17  46  1   
 42  18  20  ar  
 43  18  47  1   
 44  19  21  ar  
 45  19  22  ar  
 46  20  48  1   
 47  21  23  ar  
 48  21  24  1   
 49  22  25  ar  
 50  22  49  1   
 51  23  26  ar  
 52  24  50  1   
 53  24  51  1   
 54  25  26  ar  
 55  25  52  1   
 56  26  53  1   
@<TRIPOS>SUBSTRUCTURE
  1 ****   9 GROUP 4 **** **** 0

# MOE 2024.06 (io_trps.svl 2023.06)
