@<TRIPOS>MOLECULE
NONAME
58 61 1 0 0 
SMALL
USER_CHARGES


@<TRIPOS>ATOM
  1 O       -0.3380     0.2800     0.7380 O.2   1 <1>  -0.5700 
  2 C       -1.3670     0.9060     0.6620 C.2   1 <1>   0.5690 
  3 N       -2.5630     0.2900     0.4240 N.am  1 <1>  -0.6600 
  4 C       -1.2890     2.4120     0.8130 C.3   1 <1>  -0.0990 
  5 C       -3.8930     0.9360     0.2630 C.3   1 <1>   0.1400 
  6 C       -2.6690    -1.1720     0.1930 C.3   1 <1>   0.1400 
  7 C       -1.1450     3.0970    -0.5540 C.3   1 <1>  -0.0990 
  8 C       -4.8870    -0.2230     0.3280 C.3   1 <1>   0.2000 
  9 C       -4.1120    -1.4000    -0.2790 C.3   1 <1>  -0.0800 
 10 C       -1.2320     4.5980    -0.4170 C.2   1 <1>   0.5690 
 11 O       -5.1580    -0.4820     1.6630 O.3   1 <1>  -0.6800 
 12 C       -4.6800    -2.7920     0.0710 C.3   1 <1>  -0.0160 
 13 O       -2.3220     5.1130    -0.4180 O.2   1 <1>  -0.5700 
 14 N       -0.0860     5.3050    -0.2830 N.am  1 <1>  -0.7300 
 15 C       -4.0360    -3.9960    -0.6280 C.ar  1 <1>  -0.1440 
 16 C       -0.0010     6.7670    -0.1270 C.3   1 <1>   0.2200 
 17 C       -4.3730    -5.3090    -0.2140 C.ar  1 <1>   0.0000 
 18 C       -3.1440    -3.8840    -1.6590 C.ar  1 <1>  -0.1500 
 19 C        0.9330     7.3210    -1.1950 C.3   1 <1>  -0.1600 
 20 C        0.7280     7.0790     1.1740 C.3   1 <1>  -0.1600 
 21 C       -3.7490    -6.3970    -0.8730 C.ar  1 <1>   0.3100 
 22 C       -5.3010    -5.6080     0.8130 C.ar  1 <1>  -0.1500 
 23 C       -2.5870    -5.0270    -2.2450 C.ar  1 <1>   0.1600 
 24 C        2.3550     7.1030    -0.6620 C.3   1 <1>  -0.1600 
 25 C        2.2230     6.9440     0.8580 C.3   1 <1>  -0.1600 
 26 N       -2.8600    -6.2390    -1.8840 N.ar  1 <1>  -0.6200 
 27 C       -4.0610    -7.7070    -0.4750 C.ar  1 <1>  -0.1500 
 28 C       -5.5840    -6.8970     1.1760 C.ar  1 <1>  -0.1500 
 29 C       -4.9560    -7.9620     0.5270 C.ar  1 <1>  -0.1500 
 30 H       -2.1610     2.7780     1.3220 H     1 <1>   0.0800 
 31 H       -0.4380     2.6530     1.4250 H     1 <1>   0.0800 
 32 H       -4.0910     1.6650     1.0300 H     1 <1>   0.0800 
 33 H       -3.9420     1.4060    -0.7040 H     1 <1>   0.0800 
 34 H       -1.9470    -1.4920    -0.5380 H     1 <1>   0.0800 
 35 H       -2.4810    -1.6870     1.1200 H     1 <1>   0.0800 
 36 H       -1.9320     2.7740    -1.2100 H     1 <1>   0.0800 
 37 H       -0.2080     2.8230    -1.0030 H     1 <1>   0.0800 
 38 H       -5.8150    -0.0140    -0.1760 H     1 <1>   0.0800 
 39 H       -4.1410    -1.2710    -1.3460 H     1 <1>   0.0800 
 40 H       -4.3120    -0.5180     2.1550 H     1 <1>   0.4000 
 41 H       -5.7310    -2.7970    -0.1580 H     1 <1>   0.0800 
 42 H       -4.5820    -2.9320     1.1340 H     1 <1>   0.0800 
 43 H        0.8170     4.8320    -0.2700 H     1 <1>   0.3700 
 44 H       -0.9810     7.2140    -0.1660 H     1 <1>   0.0800 
 45 H       -2.8320    -2.9420    -2.0630 H     1 <1>   0.1500 
 46 H        0.7710     6.8620    -2.1550 H     1 <1>   0.0800 
 47 H        0.7530     8.3780    -1.2860 H     1 <1>   0.0800 
 48 H        0.5190     8.1000     1.4420 H     1 <1>   0.0800 
 49 H        0.4120     6.4420     1.9810 H     1 <1>   0.0800 
 50 H       -5.8030    -4.8100     1.3250 H     1 <1>   0.1500 
 51 H       -1.8860    -4.8880    -3.0500 H     1 <1>   0.1500 
 52 H        2.7720     6.2060    -1.0860 H     1 <1>   0.0800 
 53 H        2.9900     7.9340    -0.9170 H     1 <1>   0.0800 
 54 H        2.7940     7.6910     1.3830 H     1 <1>   0.0800 
 55 H        2.5730     5.9700     1.1530 H     1 <1>   0.0800 
 56 H       -3.5670    -8.5090    -0.9910 H     1 <1>   0.1500 
 57 H       -6.2910    -7.1070     1.9600 H     1 <1>   0.1500 
 58 H       -5.1860    -8.9720     0.8220 H     1 <1>   0.1500 
@<TRIPOS>BOND
  1   1   2  2   
  2   2   3  am  
  3   2   4  1   
  4   3   5  1   
  5   3   6  1   
  6   4   7  1   
  7   4  30  1   
  8   4  31  1   
  9   5   8  1   
 10   5  32  1   
 11   5  33  1   
 12   6   9  1   
 13   6  34  1   
 14   6  35  1   
 15   7  10  1   
 16   7  36  1   
 17   7  37  1   
 18   8   9  1   
 19   8  11  1   
 20   8  38  1   
 21   9  12  1   
 22   9  39  1   
 23  10  13  2   
 24  10  14  am  
 25  11  40  1   
 26  12  15  1   
 27  12  41  1   
 28  12  42  1   
 29  14  16  1   
 30  14  43  1   
 31  15  17  ar  
 32  15  18  ar  
 33  16  19  1   
 34  16  20  1   
 35  16  44  1   
 36  17  21  ar  
 37  17  22  ar  
 38  18  23  ar  
 39  18  45  1   
 40  19  24  1   
 41  19  46  1   
 42  19  47  1   
 43  20  25  1   
 44  20  48  1   
 45  20  49  1   
 46  21  26  ar  
 47  21  27  ar  
 48  22  28  ar  
 49  22  50  1   
 50  23  26  ar  
 51  23  51  1   
 52  24  25  1   
 53  24  52  1   
 54  24  53  1   
 55  25  54  1   
 56  25  55  1   
 57  27  29  ar  
 58  27  56  1   
 59  28  29  ar  
 60  28  57  1   
 61  29  58  1   
@<TRIPOS>SUBSTRUCTURE
  1 ****   3 GROUP 4 **** **** 0

# MOE 2024.06 (io_trps.svl 2023.06)
