@<TRIPOS>MOLECULE
NONAME
56 57 1 0 0 
SMALL
USER_CHARGES


@<TRIPOS>ATOM
  1 S        0.4620    -0.1240     2.3420 S.o2  1 <1>   1.4470 
  2 O        0.5650     1.3120     2.4000 O.2   1 <1>  -0.6500 
  3 O        0.4450    -0.9180     3.5440 O.2   1 <1>  -0.6500 
  4 N       -1.0620    -0.3420     1.7370 N.am  1 <1>  -0.9780 
  5 C        1.5420    -0.8380     1.0730 C.ar  1 <1>  -0.0090 
  6 C        1.7160    -2.2110     0.9780 C.ar  1 <1>  -0.1500 
  7 C        2.2010    -0.0390     0.1480 C.ar  1 <1>  -0.1500 
  8 C        2.5090    -2.8040    -0.0020 C.ar  1 <1>   0.0860 
  9 C        3.0040    -0.5960    -0.8300 C.ar  1 <1>  -0.1500 
 10 C        3.1620    -1.9680    -0.9130 C.ar  1 <1>  -0.1430 
 11 C        2.6130    -4.2500    -0.0530 C.2   1 <1>   0.5440 
 12 C        4.0520    -2.5580    -2.0000 C.3   1 <1>  -0.0960 
 13 O        3.6420    -4.7920     0.3000 O.2   1 <1>  -0.5700 
 14 N        1.5570    -5.0250    -0.4810 N.am  1 <1>  -0.6600 
 15 C        0.2670    -4.4900    -1.0080 C.3   1 <1>   0.1400 
 16 C        1.5490    -6.5130    -0.3510 C.3   1 <1>   0.1400 
 17 C       -0.9110    -5.0410    -0.1780 C.3   1 <1>   0.2000 
 18 C        0.2880    -6.9900     0.4050 C.3   1 <1>   0.2000 
 19 O       -0.8640    -6.4420    -0.1740 O.3   1 <1>  -0.5600 
 20 C       -2.3060    -4.6030    -0.6810 C.3   1 <1>  -0.0800 
 21 C        0.1110    -8.5130     0.3800 C.3   1 <1>  -0.1600 
 22 C       -2.6150    -5.0570    -2.1180 C.3   1 <1>  -0.2400 
 23 C       -2.5040    -3.0830    -0.5650 C.3   1 <1>  -0.2400 
 24 C        1.2320    -9.2640     1.1170 C.3   1 <1>  -0.1600 
 25 C        0.9600   -10.7720     1.1410 C.3   1 <1>  -0.1600 
 26 C        2.0760   -11.5220     1.8730 C.3   1 <1>  -0.2400 
 27 H       -1.3560     0.6040     1.5060 H     1 <1>   0.4200 
 28 H       -1.5990    -0.6040     2.5610 H     1 <1>   0.4200 
 29 H        1.2200    -2.8510     1.6880 H     1 <1>   0.1500 
 30 H        2.0880     1.0320     0.1940 H     1 <1>   0.1500 
 31 H        3.5070     0.0520    -1.5290 H     1 <1>   0.1500 
 32 H        4.4450    -1.7900    -2.6410 H     1 <1>   0.0800 
 33 H        3.4920    -3.2510    -2.6020 H     1 <1>   0.0800 
 34 H        4.8770    -3.0820    -1.5510 H     1 <1>   0.0800 
 35 H        0.2580    -3.4170    -0.9860 H     1 <1>   0.0800 
 36 H        0.1590    -4.7990    -2.0320 H     1 <1>   0.0800 
 37 H        1.5660    -6.9530    -1.3330 H     1 <1>   0.0800 
 38 H        2.4260    -6.8460     0.1740 H     1 <1>   0.0800 
 39 H       -0.8030    -4.7100     0.8410 H     1 <1>   0.0800 
 40 H        0.3370    -6.6560     1.4270 H     1 <1>   0.0800 
 41 H       -3.0260    -5.0680    -0.0280 H     1 <1>   0.0800 
 42 H       -0.8290    -8.7470     0.8500 H     1 <1>   0.0800 
 43 H        0.0660    -8.8460    -0.6420 H     1 <1>   0.0800 
 44 H       -1.9740    -4.5690    -2.8300 H     1 <1>   0.0800 
 45 H       -3.6350    -4.8260    -2.3670 H     1 <1>   0.0800 
 46 H       -2.4830    -6.1210    -2.2090 H     1 <1>   0.0800 
 47 H       -1.8640    -2.5520    -1.2450 H     1 <1>   0.0800 
 48 H       -2.2940    -2.7530     0.4370 H     1 <1>   0.0800 
 49 H       -3.5240    -2.8270    -0.7940 H     1 <1>   0.0800 
 50 H        2.1760    -9.0880     0.6300 H     1 <1>   0.0800 
 51 H        1.3030    -8.8990     2.1280 H     1 <1>   0.0800 
 52 H        0.0220   -10.9630     1.6360 H     1 <1>   0.0800 
 53 H        0.8860   -11.1430     0.1330 H     1 <1>   0.0800 
 54 H        2.1540   -11.1820     2.8910 H     1 <1>   0.0800 
 55 H        3.0200   -11.3650     1.3820 H     1 <1>   0.0800 
 56 H        1.8670   -12.5770     1.8810 H     1 <1>   0.0800 
@<TRIPOS>BOND
  1   1   2  2   
  2   1   3  2   
  3   1   4  am  
  4   1   5  1   
  5   4  27  1   
  6   4  28  1   
  7   5   6  ar  
  8   5   7  ar  
  9   6   8  ar  
 10   6  29  1   
 11   7   9  ar  
 12   7  30  1   
 13   8  10  ar  
 14   8  11  1   
 15   9  10  ar  
 16   9  31  1   
 17  10  12  1   
 18  11  13  2   
 19  11  14  am  
 20  12  32  1   
 21  12  33  1   
 22  12  34  1   
 23  14  15  1   
 24  14  16  1   
 25  15  17  1   
 26  15  35  1   
 27  15  36  1   
 28  16  18  1   
 29  16  37  1   
 30  16  38  1   
 31  17  19  1   
 32  17  20  1   
 33  17  39  1   
 34  18  19  1   
 35  18  21  1   
 36  18  40  1   
 37  20  22  1   
 38  20  23  1   
 39  20  41  1   
 40  21  24  1   
 41  21  42  1   
 42  21  43  1   
 43  22  44  1   
 44  22  45  1   
 45  22  46  1   
 46  23  47  1   
 47  23  48  1   
 48  23  49  1   
 49  24  25  1   
 50  24  50  1   
 51  24  51  1   
 52  25  26  1   
 53  25  52  1   
 54  25  53  1   
 55  26  54  1   
 56  26  55  1   
 57  26  56  1   
@<TRIPOS>SUBSTRUCTURE
  1 ****  14 GROUP 4 **** **** 0

# MOE 2024.06 (io_trps.svl 2023.06)
