@<TRIPOS>MOLECULE
NONAME
49 52 1 0 0 
SMALL
USER_CHARGES


@<TRIPOS>ATOM
  1 O        1.2080     0.1080    -0.9330 O.2   1 <1>  -0.5700 
  2 C        1.8070    -0.6600    -0.2050 C.2   1 <1>   0.5440 
  3 N        2.7310    -0.1440     0.6830 N.am  1 <1>  -0.6600 
  4 C        1.5490    -2.0860    -0.3090 C.ar  1 <1>   0.0860 
  5 C        3.8970    -0.9260     1.1990 C.3   1 <1>   0.1400 
  6 C        2.7910     1.3120     0.9820 C.3   1 <1>   0.1400 
  7 C        1.3200    -2.8740     0.8200 C.ar  1 <1>  -0.1500 
  8 C        1.5150    -2.7170    -1.5520 C.ar  1 <1>  -0.1500 
  9 C        5.2090    -0.3530     0.6490 C.3   1 <1>   0.2000 
 10 C        4.0560     1.9010     0.3570 C.3   1 <1>  -0.1600 
 11 C        1.0870    -4.2330     0.7140 C.ar  1 <1>  -0.1500 
 12 C        1.2820    -4.0750    -1.6650 C.ar  1 <1>  -0.1500 
 13 O        6.2600    -0.9950     1.2910 O.3   1 <1>  -0.6800 
 14 C        5.3090     1.1770     0.8610 C.3   1 <1>   0.2200 
 15 C        1.0700    -4.8370    -0.5300 C.ar  1 <1>  -0.1500 
 16 N        6.4850     1.7500     0.1600 N.am  1 <1>  -0.7300 
 17 C        7.7760     1.6780     0.5730 C.2   1 <1>   0.7150 
 18 O        8.0200     1.0690     1.5960 O.2   1 <1>  -0.5700 
 19 C        8.7940     2.2990    -0.2200 C.2   1 <1>  -0.2370 
 20 N       10.0740     1.8170    -0.3250 N.pl3 1 <1>   0.2940 
 21 C        8.7070     3.4310    -0.9930 C.2   1 <1>  -0.1500 
 22 C       10.7630     2.6490    -1.1440 C.2   1 <1>  -0.3020 
 23 C       10.6310     0.5880     0.2920 C.3   1 <1>  -0.0910 
 24 C        9.9520     3.6520    -1.5740 C.2   1 <1>  -0.1500 
 25 C       11.5190    -0.3280    -0.4990 C.3   1 <1>  -0.2000 
 26 C       10.1230    -0.7490    -0.1640 C.3   1 <1>  -0.2000 
 27 H        3.9030    -0.8710     2.2740 H     1 <1>   0.0800 
 28 H        3.8280    -1.9580     0.9080 H     1 <1>   0.0800 
 29 H        1.9220     1.8160     0.5930 H     1 <1>   0.0800 
 30 H        2.8030     1.4520     2.0500 H     1 <1>   0.0800 
 31 H        1.3240    -2.4080     1.7900 H     1 <1>   0.1500 
 32 H        1.6720    -2.1240    -2.4370 H     1 <1>   0.1500 
 33 H        5.2770    -0.5780    -0.4010 H     1 <1>   0.0800 
 34 H        4.1160     2.9440     0.6110 H     1 <1>   0.0800 
 35 H        3.9760     1.8120    -0.7120 H     1 <1>   0.0800 
 36 H        0.9170    -4.8220     1.5990 H     1 <1>   0.1500 
 37 H        1.2630    -4.5400    -2.6360 H     1 <1>   0.1500 
 38 H        7.0100    -0.3560     1.4160 H     1 <1>   0.4000 
 39 H        5.4040     1.3640     1.9190 H     1 <1>   0.0800 
 40 H        0.8880    -5.8950    -0.6160 H     1 <1>   0.1500 
 41 H        6.3080     2.1490    -0.7610 H     1 <1>   0.3700 
 42 H        7.8470     4.0630    -1.1350 H     1 <1>   0.1500 
 43 H       11.7980     2.4840    -1.3820 H     1 <1>   0.1500 
 44 H       10.8200     0.7220     1.3420 H     1 <1>   0.1000 
 45 H       10.2040     4.4660    -2.2320 H     1 <1>   0.1500 
 46 H       11.7480    -0.0910    -1.5240 H     1 <1>   0.1000 
 47 H       12.3310    -0.8260     0.0010 H     1 <1>   0.1000 
 48 H        9.9810    -1.5210     0.5730 H     1 <1>   0.1000 
 49 H        9.3880    -0.7870    -0.9490 H     1 <1>   0.1000 
@<TRIPOS>BOND
  1   1   2  2   
  2   2   3  am  
  3   2   4  1   
  4   3   5  1   
  5   3   6  1   
  6   4   7  ar  
  7   4   8  ar  
  8   5   9  1   
  9   5  27  1   
 10   5  28  1   
 11   6  10  1   
 12   6  29  1   
 13   6  30  1   
 14   7  11  ar  
 15   7  31  1   
 16   8  12  ar  
 17   8  32  1   
 18   9  13  1   
 19   9  14  1   
 20   9  33  1   
 21  10  14  1   
 22  10  34  1   
 23  10  35  1   
 24  11  15  ar  
 25  11  36  1   
 26  12  15  ar  
 27  12  37  1   
 28  13  38  1   
 29  14  16  1   
 30  14  39  1   
 31  15  40  1   
 32  16  17  am  
 33  16  41  1   
 34  17  18  2   
 35  17  19  1   
 36  19  20  1   
 37  19  21  2   
 38  20  22  1   
 39  20  23  1   
 40  21  24  1   
 41  21  42  1   
 42  22  24  2   
 43  22  43  1   
 44  23  25  1   
 45  23  26  1   
 46  23  44  1   
 47  24  45  1   
 48  25  26  1   
 49  25  46  1   
 50  25  47  1   
 51  26  48  1   
 52  26  49  1   
@<TRIPOS>SUBSTRUCTURE
  1 ****   9 GROUP 4 **** **** 0

# MOE 2024.06 (io_trps.svl 2023.06)
