@<TRIPOS>MOLECULE
NONAME
47 50 1 0 0 
SMALL
USER_CHARGES


@<TRIPOS>ATOM
  1 CL       1.3160     1.7770    -1.7360 Cl    1 <1>  -0.1400 
  2 C        2.6760     0.9390    -1.0320 C.2   1 <1>   0.1400 
  3 C        3.6730     1.6370    -0.4100 C.2   1 <1>   0.2290 
  4 C        2.7120    -0.4650    -1.1220 C.2   1 <1>  -0.1500 
  5 N        4.7490     0.9560     0.1280 N.pl3 1 <1>  -0.6290 
  6 C        3.7740    -1.1270    -0.5590 C.2   1 <1>  -0.1410 
  7 C        5.8710     1.3910     0.8460 C.2   1 <1>   0.2770 
  8 C        4.7920    -0.3980     0.0820 C.cat 1 <1>   0.7910 
  9 C        6.5540     0.2700     1.2050 C.2   1 <1>   0.1820 
 10 C        6.2190     2.7630     1.1580 C.2   1 <1>   0.7030 
 11 N        5.8930    -0.8170     0.7230 N.pl3 1 <1>  -0.7000 
 12 C        7.8390     0.1190     2.0000 C.3   1 <1>  -0.0720 
 13 O        6.3680     3.0670     2.3270 O.2   1 <1>  -0.5700 
 14 N        6.4280     3.7440     0.1910 N.am  1 <1>  -0.6600 
 15 C        6.8640     5.1130     0.6430 C.3   1 <1>   0.1400 
 16 C        6.6780     3.3990    -1.2470 C.3   1 <1>   0.1400 
 17 C        8.4070     5.3230     0.6590 C.3   1 <1>   0.4230 
 18 C        8.1080     3.7120    -1.7500 C.3   1 <1>  -0.0800 
 19 N        8.9490     5.8400    -0.6510 N.4   1 <1>  -0.9590 
 20 C        9.2310     4.0850     1.1190 C.3   1 <1>   0.1200 
 21 C        9.2510     2.9600    -1.0290 C.3   1 <1>   0.1200 
 22 C        8.3510     5.2210    -1.8710 C.3   1 <1>   0.3430 
 23 C        8.8610     7.3340    -0.7290 C.3   1 <1>   0.2630 
 24 O        9.0630     2.9150     0.3510 O.3   1 <1>  -0.5600 
 25 H        3.6380     2.7120    -0.3250 H     1 <1>   0.1500 
 26 H        1.9080    -0.9800    -1.6240 H     1 <1>   0.1500 
 27 H        3.8470    -2.1980    -0.5910 H     1 <1>   0.1500 
 28 H        6.1600    -1.7970     0.8490 H     1 <1>   0.4500 
 29 H        8.2190     1.0780     2.3020 H     1 <1>   0.0800 
 30 H        8.5890    -0.3690     1.4040 H     1 <1>   0.0800 
 31 H        7.6590    -0.4660     2.8840 H     1 <1>   0.0800 
 32 H        6.3950     5.8600     0.0280 H     1 <1>   0.0800 
 33 H        6.5030     5.2890     1.6420 H     1 <1>   0.0800 
 34 H        6.4980     2.3510    -1.4130 H     1 <1>   0.0800 
 35 H        5.9650     3.9340    -1.8520 H     1 <1>   0.0800 
 36 H        8.5950     6.0860     1.3960 H     1 <1>   0.0800 
 37 H        8.1280     3.3590    -2.7660 H     1 <1>   0.0800 
 38 H        9.9490     5.5920    -0.6520 H     1 <1>   0.4500 
 39 H        8.9400     3.8340     2.1240 H     1 <1>   0.0800 
 40 H       10.2810     4.3210     1.1400 H     1 <1>   0.0800 
 41 H       10.2180     3.3840    -1.2410 H     1 <1>   0.0800 
 42 H        9.2630     1.9370    -1.3640 H     1 <1>   0.0800 
 43 H        7.4140     5.7020    -2.1000 H     1 <1>   0.0800 
 44 H        9.0130     5.3970    -2.7040 H     1 <1>   0.0800 
 45 H        7.8310     7.6530    -0.7260 H     1 <1>   0.0800 
 46 H        9.3280     7.6900    -1.6340 H     1 <1>   0.0800 
 47 H        9.3640     7.7850     0.1120 H     1 <1>   0.0800 
@<TRIPOS>BOND
  1   1   2  1   
  2   2   3  2   
  3   2   4  1   
  4   3   5  1   
  5   3  25  1   
  6   4   6  2   
  7   4  26  1   
  8   5   7  1   
  9   5   8  ar  
 10   6   8  1   
 11   6  27  1   
 12   7   9  2   
 13   7  10  1   
 14   8  11  ar  
 15   9  11  1   
 16   9  12  1   
 17  10  13  2   
 18  10  14  am  
 19  11  28  1   
 20  12  29  1   
 21  12  30  1   
 22  12  31  1   
 23  14  15  1   
 24  14  16  1   
 25  15  17  1   
 26  15  32  1   
 27  15  33  1   
 28  16  18  1   
 29  16  34  1   
 30  16  35  1   
 31  17  19  1   
 32  17  20  1   
 33  17  36  1   
 34  18  21  1   
 35  18  22  1   
 36  18  37  1   
 37  19  22  1   
 38  19  23  1   
 39  19  38  1   
 40  20  24  1   
 41  20  39  1   
 42  20  40  1   
 43  21  24  1   
 44  21  41  1   
 45  21  42  1   
 46  22  43  1   
 47  22  44  1   
 48  23  45  1   
 49  23  46  1   
 50  23  47  1   
@<TRIPOS>SUBSTRUCTURE
  1 ****  10 GROUP 4 **** **** 0

# MOE 2024.06 (io_trps.svl 2023.06)
