@<TRIPOS>MOLECULE
NONAME
58 61 1 0 0 
SMALL
USER_CHARGES


@<TRIPOS>ATOM
  1 S        1.2140    -1.3130     1.7280 S.o2  1 <1>   1.5010 
  2 O        2.3200    -2.0150     1.1140 O.2   1 <1>  -0.6500 
  3 O        1.3060    -0.8960     3.1060 O.2   1 <1>  -0.6500 
  4 N       -0.0620    -2.3980     1.6960 N.am  1 <1>  -0.9140 
  5 C        0.5580     0.0060     0.6790 C.2   1 <1>  -0.0630 
  6 C       -0.1750    -3.1230     0.4360 C.3   1 <1>   0.2760 
  7 C        0.9890     0.3210    -0.6090 C.2   1 <1>   0.1080 
  8 C       -0.4770     0.8640     0.8910 C.2   1 <1>  -0.3320 
  9 C       -1.6360    -3.3800     0.1070 C.3   1 <1>  -0.0800 
 10 C        0.3410    -4.5480     0.5960 C.3   1 <1>   0.1200 
 11 N        0.2820     1.2560    -1.1560 N.2   1 <1>  -0.7070 
 12 C        2.1450    -0.3060    -1.3610 C.3   1 <1>  -0.0590 
 13 N       -0.6230     1.6140    -0.2250 N.pl3 1 <1>   0.3140 
 14 C       -1.3560     0.9900     2.1290 C.3   1 <1>  -0.0600 
 15 C       -1.9320    -4.7040     0.8220 C.3   1 <1>   0.1200 
 16 C       -2.5950    -2.2290     0.4720 C.3   1 <1>  -0.0170 
 17 O       -0.6990    -5.2370     1.2150 O.3   1 <1>  -0.5600 
 18 C       -1.6410     2.6860    -0.4630 C.3   1 <1>   0.1760 
 19 C       -3.8580    -2.2810    -0.3740 C.ar  1 <1>  -0.1440 
 20 C       -2.7860     2.1520    -1.3330 C.3   1 <1>  -0.2400 
 21 C       -1.0050     3.9290    -1.1040 C.3   1 <1>  -0.2400 
 22 C       -3.8800    -1.7910    -1.7010 C.ar  1 <1>   0.0000 
 23 C       -5.0100    -2.8060     0.1320 C.ar  1 <1>  -0.1500 
 24 C       -5.1000    -1.8900    -2.4130 C.ar  1 <1>   0.3100 
 25 C       -2.7720    -1.2080    -2.3620 C.ar  1 <1>  -0.1500 
 26 C       -6.1640    -2.8530    -0.6590 C.ar  1 <1>   0.1600 
 27 N       -6.2280    -2.4210    -1.8780 N.ar  1 <1>  -0.6200 
 28 C       -5.1550    -1.4170    -3.7340 C.ar  1 <1>  -0.1500 
 29 C       -2.8610    -0.7560    -3.6500 C.ar  1 <1>  -0.1500 
 30 C       -4.0660    -0.8620    -4.3480 C.ar  1 <1>  -0.1500 
 31 H        0.1460    -3.0850     2.4190 H     1 <1>   0.4200 
 32 H        0.3130    -2.6030    -0.3710 H     1 <1>   0.0800 
 33 H       -1.6990    -3.5630    -0.9520 H     1 <1>   0.0800 
 34 H        1.2330    -4.6120     1.1940 H     1 <1>   0.0800 
 35 H        0.5120    -5.0020    -0.3650 H     1 <1>   0.0800 
 36 H        3.0480    -0.2260    -0.7820 H     1 <1>   0.0800 
 37 H        2.2940     0.2070    -2.2940 H     1 <1>   0.0800 
 38 H        1.9440    -1.3400    -1.5650 H     1 <1>   0.0800 
 39 H       -1.1030     0.2420     2.8590 H     1 <1>   0.0800 
 40 H       -2.3920     0.8650     1.8670 H     1 <1>   0.0800 
 41 H       -1.2230     1.9570     2.5810 H     1 <1>   0.0800 
 42 H       -2.4230    -5.4050     0.1690 H     1 <1>   0.0800 
 43 H       -2.5220    -4.5600     1.7100 H     1 <1>   0.0800 
 44 H       -2.1180    -1.2810     0.3140 H     1 <1>   0.0800 
 45 H       -2.8410    -2.2740     1.5190 H     1 <1>   0.0800 
 46 H       -2.0430     2.9750     0.4890 H     1 <1>   0.0800 
 47 H       -2.4140     1.8600    -2.2990 H     1 <1>   0.0800 
 48 H       -3.5340     2.9120    -1.4710 H     1 <1>   0.0800 
 49 H       -3.2490     1.3030    -0.8620 H     1 <1>   0.0800 
 50 H       -0.6170     3.6930    -2.0790 H     1 <1>   0.0800 
 51 H       -0.2020     4.2910    -0.4870 H     1 <1>   0.0800 
 52 H       -1.7370     4.7090    -1.2060 H     1 <1>   0.0800 
 53 H       -5.0630    -3.1930     1.1330 H     1 <1>   0.1500 
 54 H       -1.8330    -1.1060    -1.8500 H     1 <1>   0.1500 
 55 H       -7.0550    -3.2750    -0.2250 H     1 <1>   0.1500 
 56 H       -6.0930    -1.5080    -4.2500 H     1 <1>   0.1500 
 57 H       -2.0080    -0.3130    -4.1370 H     1 <1>   0.1500 
 58 H       -4.1240    -0.5030    -5.3610 H     1 <1>   0.1500 
@<TRIPOS>BOND
  1   1   2  2   
  2   1   3  2   
  3   1   4  am  
  4   1   5  1   
  5   4   6  1   
  6   4  31  1   
  7   5   7  1   
  8   5   8  2   
  9   6   9  1   
 10   6  10  1   
 11   6  32  1   
 12   7  11  2   
 13   7  12  1   
 14   8  13  1   
 15   8  14  1   
 16   9  15  1   
 17   9  16  1   
 18   9  33  1   
 19  10  17  1   
 20  10  34  1   
 21  10  35  1   
 22  11  13  1   
 23  12  36  1   
 24  12  37  1   
 25  12  38  1   
 26  13  18  1   
 27  14  39  1   
 28  14  40  1   
 29  14  41  1   
 30  15  17  1   
 31  15  42  1   
 32  15  43  1   
 33  16  19  1   
 34  16  44  1   
 35  16  45  1   
 36  18  20  1   
 37  18  21  1   
 38  18  46  1   
 39  19  22  ar  
 40  19  23  ar  
 41  20  47  1   
 42  20  48  1   
 43  20  49  1   
 44  21  50  1   
 45  21  51  1   
 46  21  52  1   
 47  22  24  ar  
 48  22  25  ar  
 49  23  26  ar  
 50  23  53  1   
 51  24  27  ar  
 52  24  28  ar  
 53  25  29  ar  
 54  25  54  1   
 55  26  27  ar  
 56  26  55  1   
 57  28  30  ar  
 58  28  56  1   
 59  29  30  ar  
 60  29  57  1   
 61  30  58  1   
@<TRIPOS>SUBSTRUCTURE
  1 ****  16 GROUP 4 **** **** 0

# MOE 2024.06 (io_trps.svl 2023.06)
