@<TRIPOS>MOLECULE
NONAME
46 48 1 0 0 
SMALL
USER_CHARGES


@<TRIPOS>ATOM
  1 O       -0.2590     1.2420     1.2830 O.2   1 <1>  -0.5700 
  2 C       -0.3450     2.3740     0.8810 C.2   1 <1>   0.5690 
  3 N       -1.2580     3.2240     1.3940 N.am  1 <1>  -0.7300 
  4 C        0.5610     2.8620    -0.2480 C.3   1 <1>   0.1810 
  5 C       -1.4890     4.5990     0.8850 C.3   1 <1>   0.3640 
  6 O        0.6850     4.2670    -0.2590 O.3   1 <1>  -0.5600 
  7 C       -2.9600     4.7170     0.4840 C.ar  1 <1>  -0.1440 
  8 C       -0.5530     4.9760    -0.3000 C.3   1 <1>   0.2610 
  9 C       -3.6640     5.8710     0.7940 C.ar  1 <1>  -0.1500 
 10 C       -3.6150     3.7010    -0.1980 C.ar  1 <1>  -0.1500 
 11 C       -0.2870     6.4870    -0.2960 C.2   1 <1>   0.5690 
 12 C       -4.9940     6.0340     0.4230 C.ar  1 <1>   0.0830 
 13 C       -4.9460     3.8370    -0.5480 C.ar  1 <1>  -0.1500 
 14 O       -1.2120     7.2620    -0.3650 O.2   1 <1>  -0.5700 
 15 N        0.9970     6.9200    -0.2030 N.am  1 <1>  -0.6550 
 16 O       -5.6190     7.2130     0.6920 O.3   1 <1>  -0.3620 
 17 C       -5.6550     4.9870    -0.2400 C.ar  1 <1>   0.0830 
 18 C        1.4470     8.3240    -0.1880 C.3   1 <1>   0.2250 
 19 C       -4.9220     8.4190     0.4560 C.3   1 <1>   0.0400 
 20 O       -6.9600     4.9750    -0.6360 O.3   1 <1>  -0.3630 
 21 C        2.6050     8.5970    -1.1820 C.3   1 <1>   0.0000 
 22 C        2.4480     8.6240     0.9570 C.3   1 <1>   0.0000 
 23 C       -7.9260     5.8210    -0.0540 C.3   1 <1>   0.0400 
 24 C        3.2480     9.4650    -0.0700 C.3   1 <1>   0.0000 
 25 H       -1.9000     2.8790     2.1100 H     1 <1>   0.3700 
 26 H        0.1650     2.5440    -1.1950 H     1 <1>   0.0800 
 27 H        1.5440     2.4460    -0.1220 H     1 <1>   0.0800 
 28 H       -1.2970     5.2810     1.6960 H     1 <1>   0.0800 
 29 H       -1.0360     4.7280    -1.2280 H     1 <1>   0.0800 
 30 H       -3.1650     6.6600     1.3250 H     1 <1>   0.1500 
 31 H       -3.1020     2.7910    -0.4600 H     1 <1>   0.1500 
 32 H       -5.4510     3.0430    -1.0670 H     1 <1>   0.1500 
 33 H        1.7300     6.2050    -0.1660 H     1 <1>   0.3700 
 34 H        0.6490     9.0420    -0.2560 H     1 <1>   0.0000 
 35 H       -5.6400     9.2170     0.4030 H     1 <1>   0.0800 
 36 H       -4.3890     8.3420    -0.4760 H     1 <1>   0.0800 
 37 H       -4.2400     8.5980     1.2680 H     1 <1>   0.0800 
 38 H        3.1930     7.7240    -1.4080 H     1 <1>   0.0000 
 39 H        2.3130     9.1650    -2.0470 H     1 <1>   0.0000 
 40 H        2.0330     9.2130     1.7560 H     1 <1>   0.0000 
 41 H        2.9940     7.7570     1.2890 H     1 <1>   0.0000 
 42 H       -8.8990     5.4590    -0.3300 H     1 <1>   0.0800 
 43 H       -7.7880     6.8180    -0.4330 H     1 <1>   0.0800 
 44 H       -7.8130     5.7990     1.0150 H     1 <1>   0.0800 
 45 H        2.9250    10.4910    -0.1060 H     1 <1>   0.0000 
 46 H        4.3150     9.3510     0.0110 H     1 <1>   0.0000 
@<TRIPOS>BOND
  1   1   2  2   
  2   2   3  am  
  3   2   4  1   
  4   3   5  1   
  5   3  25  1   
  6   4   6  1   
  7   4  26  1   
  8   4  27  1   
  9   5   7  1   
 10   5   8  1   
 11   5  28  1   
 12   6   8  1   
 13   7   9  ar  
 14   7  10  ar  
 15   8  11  1   
 16   8  29  1   
 17   9  12  ar  
 18   9  30  1   
 19  10  13  ar  
 20  10  31  1   
 21  11  14  2   
 22  11  15  am  
 23  12  16  1   
 24  12  17  ar  
 25  13  17  ar  
 26  13  32  1   
 27  15  18  1   
 28  15  33  1   
 29  16  19  1   
 30  17  20  1   
 31  18  21  1   
 32  18  22  1   
 33  18  34  1   
 34  19  35  1   
 35  19  36  1   
 36  19  37  1   
 37  20  23  1   
 38  21  24  1   
 39  21  38  1   
 40  21  39  1   
 41  22  24  1   
 42  22  40  1   
 43  22  41  1   
 44  23  42  1   
 45  23  43  1   
 46  23  44  1   
 47  24  45  1   
 48  24  46  1   
@<TRIPOS>SUBSTRUCTURE
  1 ****   5 GROUP 4 **** **** 0

# MOE 2024.06 (io_trps.svl 2023.06)
