@<TRIPOS>MOLECULE
NONAME
42 44 1 0 0 
SMALL
USER_CHARGES


@<TRIPOS>ATOM
  1 CL      -0.2280     0.2540     0.5950 Cl    1 <1>  -0.1770 
  2 C        1.2000    -0.7260     0.2790 C.ar  1 <1>   0.1770 
  3 C        1.1140    -2.1380     0.0770 C.ar  1 <1>   0.4100 
  4 C        2.4180    -0.1140     0.2470 C.ar  1 <1>   0.2170 
  5 N        2.2190    -2.8470    -0.1200 N.ar  1 <1>  -0.6200 
  6 N       -0.0430    -2.8700     0.0660 N.pl3 1 <1>  -0.8380 
  7 N        3.5010    -0.9030     0.0300 N.ar  1 <1>  -0.1790 
  8 C        2.6780     1.3770     0.4400 C.3   1 <1>  -0.0970 
  9 C        3.3760    -2.2280    -0.1400 C.ar  1 <1>   0.7710 
 10 C       -1.4480    -2.3820    -0.0740 C.3   1 <1>   0.2090 
 11 C       -0.0520    -4.3670     0.0730 C.3   1 <1>   0.2090 
 12 N        4.4480    -2.9870    -0.3420 N.pl3 1 <1>  -0.9000 
 13 C       -2.2870    -3.6220    -0.3830 C.3   1 <1>   0.2000 
 14 C       -1.5130    -4.7810     0.2290 C.3   1 <1>  -0.0800 
 15 O       -3.5560    -3.5450     0.1700 O.3   1 <1>  -0.6800 
 16 C       -1.8390    -6.1410    -0.4110 C.3   1 <1>   0.0210 
 17 C       -0.9040    -7.2320     0.0790 C.2   1 <1>   0.1080 
 18 N       -0.5620    -7.3720     1.3220 N.2   1 <1>  -0.7070 
 19 C       -0.3110    -8.1890    -0.7380 C.2   1 <1>  -0.1500 
 20 N        0.2610    -8.4370     1.3330 N.pl3 1 <1>   0.3000 
 21 C        0.4320    -8.9470     0.0950 C.2   1 <1>  -0.3320 
 22 C        1.3040   -10.1490    -0.2190 C.3   1 <1>  -0.0600 
 23 H        4.4420    -0.5250    -0.0040 H     1 <1>   0.4570 
 24 H        1.7680     1.9300     0.5900 H     1 <1>   0.0800 
 25 H        3.1670     1.7870    -0.4260 H     1 <1>   0.0800 
 26 H        3.3030     1.5400     1.3010 H     1 <1>   0.0800 
 27 H       -1.7680    -1.9480     0.8580 H     1 <1>   0.0800 
 28 H       -1.5300    -1.6670    -0.8730 H     1 <1>   0.0800 
 29 H        0.3450    -4.7280    -0.8610 H     1 <1>   0.0800 
 30 H        0.5430    -4.7560     0.8830 H     1 <1>   0.0800 
 31 H        5.4320    -2.7200    -0.3920 H     1 <1>   0.4000 
 32 H        4.2890    -3.9940    -0.4630 H     1 <1>   0.4000 
 33 H       -2.3870    -3.7330    -1.4490 H     1 <1>   0.0800 
 34 H       -1.7110    -4.8330     1.2850 H     1 <1>   0.0800 
 35 H       -3.5080    -3.6080     1.1440 H     1 <1>   0.4000 
 36 H       -1.7630    -6.0700    -1.4810 H     1 <1>   0.0800 
 37 H       -2.8490    -6.4170    -0.1670 H     1 <1>   0.0800 
 38 H       -0.4370    -8.2840    -1.8020 H     1 <1>   0.1500 
 39 H        0.6870    -8.7910     2.1980 H     1 <1>   0.2700 
 40 H        1.2680   -10.3680    -1.2710 H     1 <1>   0.0800 
 41 H        0.9580   -11.0110     0.3220 H     1 <1>   0.0800 
 42 H        2.3250    -9.9490     0.0550 H     1 <1>   0.0800 
@<TRIPOS>BOND
  1   1   2  1   
  2   2   3  ar  
  3   2   4  ar  
  4   3   5  ar  
  5   3   6  1   
  6   4   7  ar  
  7   4   8  1   
  8   5   9  ar  
  9   6  10  1   
 10   6  11  1   
 11   7   9  ar  
 12   7  23  1   
 13   8  24  1   
 14   8  25  1   
 15   8  26  1   
 16   9  12  1   
 17  10  13  1   
 18  10  27  1   
 19  10  28  1   
 20  11  14  1   
 21  11  29  1   
 22  11  30  1   
 23  12  31  1   
 24  12  32  1   
 25  13  14  1   
 26  13  15  1   
 27  13  33  1   
 28  14  16  1   
 29  14  34  1   
 30  15  35  1   
 31  16  17  1   
 32  16  36  1   
 33  16  37  1   
 34  17  18  2   
 35  17  19  1   
 36  18  20  1   
 37  19  21  2   
 38  19  38  1   
 39  20  21  1   
 40  20  39  1   
 41  21  22  1   
 42  22  40  1   
 43  22  41  1   
 44  22  42  1   
@<TRIPOS>SUBSTRUCTURE
  1 ****  11 GROUP 4 **** **** 0

# MOE 2024.06 (io_trps.svl 2023.06)
