@<TRIPOS>MOLECULE
NONAME
50 52 1 0 0 
SMALL
USER_CHARGES


@<TRIPOS>ATOM
  1 S        0.9580     0.1680    -0.0040 S.o2  1 <1>   1.3330 
  2 O        1.8830     0.5280     1.0480 O.2   1 <1>  -0.6500 
  3 O        1.4490     0.0070    -1.3510 O.2   1 <1>  -0.6500 
  4 N        0.0880    -1.2100     0.4570 N.am  1 <1>  -0.8490 
  5 C       -0.2720     1.4700    -0.0200 C.3   1 <1>  -0.0550 
  6 C        0.9210    -2.1810     1.1750 C.3   1 <1>   0.1160 
  7 C       -0.5890    -1.8730    -0.6640 C.3   1 <1>   0.1160 
  8 C        0.3180     2.8210    -0.4860 C.3   1 <1>  -0.0800 
  9 C       -0.6270     4.0200    -0.3980 C.3   1 <1>   0.2000 
 10 C        1.5450     3.2770     0.3060 C.3   1 <1>   0.3430 
 11 O       -1.3370     3.9760     0.7970 O.3   1 <1>  -0.6800 
 12 C        0.3040     5.2390    -0.3870 C.3   1 <1>   0.3430 
 13 N        1.6420     4.7380     0.0650 N.4   1 <1>  -0.9590 
 14 C        2.2910     5.4930     1.1660 C.3   1 <1>   0.4860 
 15 C        2.4290     6.9560     0.7620 C.ar  1 <1>  -0.1440 
 16 C        3.3930     7.3960    -0.1610 C.ar  1 <1>  -0.0230 
 17 C        1.5640     7.8740     1.3440 C.ar  1 <1>  -0.1500 
 18 N        4.3200     6.5080    -0.7870 N.pl3 1 <1>   0.5930 
 19 C        3.4540     8.7520    -0.4860 C.ar  1 <1>  -0.1500 
 20 C        1.6590     9.2060     0.9970 C.ar  1 <1>   0.1900 
 21 N        3.9460     5.3620    -1.4220 N.2   1 <1>  -0.7070 
 22 C        5.6630     6.6520    -0.8580 C.2   1 <1>  -0.3020 
 23 C        2.5900     9.6660     0.0890 C.ar  1 <1>  -0.1500 
 24 F        0.8360    10.0570     1.5460 F     1 <1>  -0.1900 
 25 C        5.0460     4.8430    -1.8780 C.2   1 <1>   0.1390 
 26 C        6.1590     5.6070    -1.5510 C.2   1 <1>  -0.1500 
 27 H       -1.0740     1.1950    -0.6780 H     1 <1>   0.0800 
 28 H       -0.6810     1.5600     0.9680 H     1 <1>   0.0800 
 29 H        0.3300    -3.0310     1.4740 H     1 <1>   0.0800 
 30 H        1.3320    -1.7310     2.0630 H     1 <1>   0.0800 
 31 H        1.7320    -2.5160     0.5500 H     1 <1>   0.0800 
 32 H       -1.1890    -2.6910    -0.3020 H     1 <1>   0.0800 
 33 H        0.1320    -2.2530    -1.3690 H     1 <1>   0.0800 
 34 H       -1.2360    -1.1790    -1.1720 H     1 <1>   0.0800 
 35 H        0.6270     2.7110    -1.5120 H     1 <1>   0.0800 
 36 H       -1.3390     4.0580    -1.2060 H     1 <1>   0.0800 
 37 H        2.4390     2.7630    -0.0160 H     1 <1>   0.0800 
 38 H        1.3900     3.0820     1.3550 H     1 <1>   0.0800 
 39 H       -0.7640     3.9270     1.5850 H     1 <1>   0.4000 
 40 H       -0.0850     6.0060     0.2620 H     1 <1>   0.0800 
 41 H        0.3940     5.6350    -1.3860 H     1 <1>   0.0800 
 42 H        2.3000     4.8590    -0.7370 H     1 <1>   0.4500 
 43 H        1.7020     5.4150     2.0650 H     1 <1>   0.0800 
 44 H        3.2680     5.0820     1.3630 H     1 <1>   0.0800 
 45 H        0.8170     7.5830     2.0630 H     1 <1>   0.1500 
 46 H        4.1830     9.1040    -1.1980 H     1 <1>   0.1500 
 47 H        6.1790     7.4850    -0.4160 H     1 <1>   0.1500 
 48 H        2.6320    10.7130    -0.1570 H     1 <1>   0.1500 
 49 H        5.0940     3.9260    -2.4440 H     1 <1>   0.1500 
 50 H        7.1810     5.3860    -1.8110 H     1 <1>   0.1500 
@<TRIPOS>BOND
  1   1   2  2   
  2   1   3  2   
  3   1   4  am  
  4   1   5  1   
  5   4   6  1   
  6   4   7  1   
  7   5   8  1   
  8   5  27  1   
  9   5  28  1   
 10   6  29  1   
 11   6  30  1   
 12   6  31  1   
 13   7  32  1   
 14   7  33  1   
 15   7  34  1   
 16   8   9  1   
 17   8  10  1   
 18   8  35  1   
 19   9  11  1   
 20   9  12  1   
 21   9  36  1   
 22  10  13  1   
 23  10  37  1   
 24  10  38  1   
 25  11  39  1   
 26  12  13  1   
 27  12  40  1   
 28  12  41  1   
 29  13  14  1   
 30  13  42  1   
 31  14  15  1   
 32  14  43  1   
 33  14  44  1   
 34  15  16  ar  
 35  15  17  ar  
 36  16  18  1   
 37  16  19  ar  
 38  17  20  ar  
 39  17  45  1   
 40  18  21  1   
 41  18  22  1   
 42  19  23  ar  
 43  19  46  1   
 44  20  23  ar  
 45  20  24  1   
 46  21  25  2   
 47  22  26  2   
 48  22  47  1   
 49  23  48  1   
 50  25  26  1   
 51  25  49  1   
 52  26  50  1   
@<TRIPOS>SUBSTRUCTURE
  1 ****  13 GROUP 4 **** **** 0

# MOE 2024.06 (io_trps.svl 2023.06)
