@<TRIPOS>MOLECULE
NONAME
44 47 1 0 0 
SMALL
USER_CHARGES


@<TRIPOS>ATOM
  1 O       -0.7260     2.3780    -2.3160 O.co2 1 <1>  -0.9000 
  2 C       -1.2890     2.1470    -1.2390 C.2   1 <1>   0.9060 
  3 O       -2.4320     1.6740    -1.2130 O.co2 1 <1>  -0.9000 
  4 C       -0.5830     2.4300     0.0910 C.3   1 <1>  -0.1060 
  5 C       -1.6290     3.0580     1.0410 C.3   1 <1>   0.2000 
  6 C        0.6050     3.4160    -0.1010 C.3   1 <1>   0.2090 
  7 C       -0.0840     1.0780     0.6720 C.3   1 <1>  -0.0650 
  8 O       -1.0230     3.3520     2.2530 O.3   1 <1>  -0.6800 
  9 C       -2.1630     4.3920     0.4980 C.3   1 <1>  -0.1600 
 10 N        0.2690     4.8510     0.2300 N.pl3 1 <1>  -0.8380 
 11 C        1.0140     0.4020    -0.1660 C.3   1 <1>  -0.1950 
 12 C       -1.1000     5.2150    -0.2460 C.3   1 <1>   0.2090 
 13 C        1.2840     5.8010     0.2610 C.ar  1 <1>   0.4100 
 14 C        1.8250    -0.7110     0.4160 C.3   1 <1>  -0.2000 
 15 C        2.4680     0.6140     0.1220 C.3   1 <1>  -0.2000 
 16 N        1.0870     6.9360    -0.3540 N.ar  1 <1>  -0.6200 
 17 C        2.5020     5.5330     0.9570 C.ar  1 <1>   0.1600 
 18 C        2.1310     7.7970    -0.3080 C.ar  1 <1>   0.3100 
 19 N        3.5220     6.3290     1.0330 N.ar  1 <1>  -0.6200 
 20 C        3.3390     7.5020     0.3730 C.ar  1 <1>   0.3100 
 21 C        2.0180     9.0340    -0.9620 C.ar  1 <1>  -0.1500 
 22 C        4.3700     8.4520     0.3670 C.ar  1 <1>  -0.1500 
 23 C        3.0420     9.9470    -0.9530 C.ar  1 <1>  -0.1500 
 24 C        4.2310     9.6530    -0.2810 C.ar  1 <1>  -0.1500 
 25 H       -2.4400     2.3740     1.2340 H     1 <1>   0.0800 
 26 H        1.0000     3.3640    -1.1010 H     1 <1>   0.0800 
 27 H        1.3920     3.1030     0.5560 H     1 <1>   0.0800 
 28 H        0.2780     1.2180     1.6750 H     1 <1>   0.0800 
 29 H       -0.9240     0.4070     0.7290 H     1 <1>   0.0800 
 30 H       -0.3720     4.0570     2.0330 H     1 <1>   0.4000 
 31 H       -2.9590     4.1870    -0.1960 H     1 <1>   0.0800 
 32 H       -2.5890     4.9710     1.2970 H     1 <1>   0.0800 
 33 H        0.7260     0.2890    -1.2000 H     1 <1>   0.1000 
 34 H       -1.2950     6.2630    -0.1000 H     1 <1>   0.0800 
 35 H       -1.1580     5.0080    -1.3030 H     1 <1>   0.0800 
 36 H        1.6580    -0.9910     1.4410 H     1 <1>   0.1000 
 37 H        2.0540    -1.5540    -0.2120 H     1 <1>   0.1000 
 38 H        3.1380     0.7000    -0.7160 H     1 <1>   0.1000 
 39 H        2.7630     1.2290     0.9530 H     1 <1>   0.1000 
 40 H        2.5620     4.5930     1.4680 H     1 <1>   0.1500 
 41 H        1.0960     9.2400    -1.4740 H     1 <1>   0.1500 
 42 H        5.2760     8.2060     0.8900 H     1 <1>   0.1500 
 43 H        2.9410    10.8930    -1.4590 H     1 <1>   0.1500 
 44 H        5.0300    10.3760    -0.2790 H     1 <1>   0.1500 
@<TRIPOS>BOND
  1   1   2  ar  
  2   2   3  ar  
  3   2   4  1   
  4   4   5  1   
  5   4   6  1   
  6   4   7  1   
  7   5   8  1   
  8   5   9  1   
  9   5  25  1   
 10   6  10  1   
 11   6  26  1   
 12   6  27  1   
 13   7  11  1   
 14   7  28  1   
 15   7  29  1   
 16   8  30  1   
 17   9  12  1   
 18   9  31  1   
 19   9  32  1   
 20  10  12  1   
 21  10  13  1   
 22  11  14  1   
 23  11  15  1   
 24  11  33  1   
 25  12  34  1   
 26  12  35  1   
 27  13  16  ar  
 28  13  17  ar  
 29  14  15  1   
 30  14  36  1   
 31  14  37  1   
 32  15  38  1   
 33  15  39  1   
 34  16  18  ar  
 35  17  19  ar  
 36  17  40  1   
 37  18  20  ar  
 38  18  21  ar  
 39  19  20  ar  
 40  20  22  ar  
 41  21  23  ar  
 42  21  41  1   
 43  22  24  ar  
 44  22  42  1   
 45  23  24  ar  
 46  23  43  1   
 47  24  44  1   
@<TRIPOS>SUBSTRUCTURE
  1 ****  10 GROUP 4 **** **** 0

# MOE 2024.06 (io_trps.svl 2023.06)
