@<TRIPOS>MOLECULE
NONAME
53 56 1 0 0 
SMALL
USER_CHARGES


@<TRIPOS>ATOM
  1 CL      -0.2060    -0.1480     0.2090 Cl    1 <1>  -0.1770 
  2 C       -1.7480    -0.9070    -0.0780 C.ar  1 <1>   0.1770 
  3 C       -2.9030    -0.2720     0.3010 C.ar  1 <1>  -0.1500 
  4 C       -1.7750    -2.1540    -0.6920 C.ar  1 <1>  -0.1500 
  5 C       -4.1550    -0.8710     0.0760 C.ar  1 <1>   0.0000 
  6 C       -2.9880    -2.7610    -0.9230 C.ar  1 <1>  -0.1500 
  7 C       -4.1850    -2.1350    -0.5450 C.ar  1 <1>   0.3610 
  8 C       -5.4030    -0.2780     0.4370 C.ar  1 <1>  -0.1440 
  9 N       -5.4100    -2.7390    -0.7810 N.ar  1 <1>  -0.1790 
 10 C       -6.5650    -0.9370     0.1700 C.ar  1 <1>  -0.1500 
 11 C       -5.4320     1.0820     1.1250 C.3   1 <1>  -0.0970 
 12 C       -6.5960    -2.2070    -0.4650 C.ar  1 <1>   0.4610 
 13 N       -7.7480    -2.8590    -0.7620 N.pl3 1 <1>  -0.8380 
 14 C       -7.9420    -4.3540    -0.8500 C.3   1 <1>   0.2090 
 15 C       -9.0290    -2.1160    -1.0230 C.3   1 <1>   0.2090 
 16 C       -9.0760    -4.8490     0.1060 C.3   1 <1>   0.4230 
 17 C      -10.0690    -2.5450     0.0110 C.3   1 <1>  -0.1600 
 18 N       -9.2730    -6.3660     0.1330 N.4   1 <1>  -0.9590 
 19 C      -10.4050    -4.0590    -0.0760 C.3   1 <1>   0.0000 
 20 C      -10.5750    -6.8010     0.7490 C.3   1 <1>   0.3430 
 21 C       -9.0980    -7.0810    -1.1770 C.3   1 <1>   0.2630 
 22 C      -11.3790    -4.4100     1.0850 C.3   1 <1>  -0.1600 
 23 C      -11.0560    -4.4080    -1.4470 C.3   1 <1>   0.1200 
 24 C      -11.0860    -5.7680     1.7510 C.3   1 <1>  -0.1600 
 25 O      -12.0330    -3.4940    -1.7950 O.3   1 <1>  -0.6800 
 26 H       -2.8280     0.6920     0.7720 H     1 <1>   0.1500 
 27 H       -0.8430    -2.6160    -0.9740 H     1 <1>   0.1500 
 28 H       -3.0030    -3.7250    -1.4000 H     1 <1>   0.1500 
 29 H       -5.4090    -3.5980    -1.3160 H     1 <1>   0.4570 
 30 H       -7.4980    -0.4960     0.4650 H     1 <1>   0.1500 
 31 H       -6.4410     1.3920     1.3360 H     1 <1>   0.0800 
 32 H       -4.9810     1.8290     0.4950 H     1 <1>   0.0800 
 33 H       -4.8960     1.0420     2.0570 H     1 <1>   0.0800 
 34 H       -8.1820    -4.6030    -1.8700 H     1 <1>   0.0800 
 35 H       -7.0310    -4.8560    -0.5790 H     1 <1>   0.0800 
 36 H       -8.8900    -1.0490    -0.9810 H     1 <1>   0.0800 
 37 H       -9.3810    -2.3340    -2.0180 H     1 <1>   0.0800 
 38 H       -8.7370    -4.5790     1.0920 H     1 <1>   0.0800 
 39 H       -9.6910    -2.2970     0.9880 H     1 <1>   0.0800 
 40 H      -10.9580    -1.9530    -0.1310 H     1 <1>   0.0800 
 41 H       -8.5490    -6.7300     0.7720 H     1 <1>   0.4500 
 42 H      -11.3210    -6.9250    -0.0190 H     1 <1>   0.0800 
 43 H      -10.4490    -7.7530     1.2410 H     1 <1>   0.0800 
 44 H       -9.8290    -6.7450    -1.8940 H     1 <1>   0.0800 
 45 H       -9.2250    -8.1440    -1.0400 H     1 <1>   0.0800 
 46 H       -8.1130    -6.9110    -1.5780 H     1 <1>   0.0800 
 47 H      -11.3410    -3.6600     1.8580 H     1 <1>   0.0800 
 48 H      -12.3940    -4.4080     0.7230 H     1 <1>   0.0800 
 49 H      -11.5140    -5.3810    -1.4360 H     1 <1>   0.0800 
 50 H      -10.3320    -4.3860    -2.2410 H     1 <1>   0.0800 
 51 H      -11.9880    -6.1360     2.2090 H     1 <1>   0.0800 
 52 H      -10.3610    -5.6490     2.5390 H     1 <1>   0.0800 
 53 H      -12.8320    -3.5670    -1.2330 H     1 <1>   0.4000 
@<TRIPOS>BOND
  1   1   2  1   
  2   2   3  ar  
  3   2   4  ar  
  4   3   5  ar  
  5   3  26  1   
  6   4   6  ar  
  7   4  27  1   
  8   5   7  ar  
  9   5   8  ar  
 10   6   7  ar  
 11   6  28  1   
 12   7   9  ar  
 13   8  10  ar  
 14   8  11  1   
 15   9  12  ar  
 16   9  29  1   
 17  10  12  ar  
 18  10  30  1   
 19  11  31  1   
 20  11  32  1   
 21  11  33  1   
 22  12  13  1   
 23  13  14  1   
 24  13  15  1   
 25  14  16  1   
 26  14  34  1   
 27  14  35  1   
 28  15  17  1   
 29  15  36  1   
 30  15  37  1   
 31  16  18  1   
 32  16  19  1   
 33  16  38  1   
 34  17  19  1   
 35  17  39  1   
 36  17  40  1   
 37  18  20  1   
 38  18  21  1   
 39  18  41  1   
 40  19  22  1   
 41  19  23  1   
 42  20  24  1   
 43  20  42  1   
 44  20  43  1   
 45  21  44  1   
 46  21  45  1   
 47  21  46  1   
 48  22  24  1   
 49  22  47  1   
 50  22  48  1   
 51  23  25  1   
 52  23  49  1   
 53  23  50  1   
 54  24  51  1   
 55  24  52  1   
 56  25  53  1   
@<TRIPOS>SUBSTRUCTURE
  1 ****  12 GROUP 4 **** **** 0

# MOE 2024.06 (io_trps.svl 2023.06)
