@<TRIPOS>MOLECULE
NONAME
41 43 1 0 0 
SMALL
USER_CHARGES


@<TRIPOS>ATOM
  1 O       -0.2540     0.3770     1.8100 O.2   1 <1>  -0.5700 
  2 C       -1.1320     1.0470     1.3190 C.2   1 <1>   0.5690 
  3 N       -2.0440     0.4920     0.4590 N.am  1 <1>  -0.6600 
  4 C       -1.1980     2.5140     1.7140 C.3   1 <1>   0.0810 
  5 C       -3.2000     1.1640    -0.1880 C.3   1 <1>   0.1400 
  6 C       -1.9800    -0.9260     0.0470 C.3   1 <1>   0.1400 
  7 C       -0.5630     3.4130     0.6700 C.2   1 <1>  -0.0400 
  8 C       -3.9650     0.0490    -0.9090 C.3   1 <1>   0.2000 
  9 C       -3.4070    -1.2720    -0.3750 C.3   1 <1>  -0.0800 
 10 O       -1.1960     3.6820    -0.4390 O.3   1 <1>  -0.0190 
 11 C        0.6140     4.0560     0.6370 C.2   1 <1>  -0.1500 
 12 O       -5.3250     0.1200    -0.6510 O.3   1 <1>  -0.6800 
 13 C       -3.4900    -2.4050    -1.4100 C.3   1 <1>   0.0200 
 14 N       -0.5080     4.4660    -1.2140 N.2   1 <1>  -0.4100 
 15 C        0.5900     4.7080    -0.5920 C.2   1 <1>   0.1080 
 16 C       -2.9780    -3.7360    -0.8870 C.2   1 <1>  -0.0400 
 17 C        1.6990     5.5830    -1.1310 C.3   1 <1>  -0.0590 
 18 O       -2.8250    -4.7220    -1.7310 O.3   1 <1>  -0.0190 
 19 C       -2.6210    -4.1820     0.3290 C.2   1 <1>  -0.1500 
 20 N       -2.3800    -5.7980    -1.1490 N.2   1 <1>  -0.4100 
 21 C       -2.2470    -5.5020     0.0940 C.2   1 <1>   0.1080 
 22 C       -1.7510    -6.4640     1.1500 C.3   1 <1>  -0.0590 
 23 H       -2.2150     2.8090     1.8810 H     1 <1>   0.0800 
 24 H       -0.6680     2.6350     2.6410 H     1 <1>   0.0800 
 25 H       -3.8150     1.6410     0.5540 H     1 <1>   0.0800 
 26 H       -2.8540     1.8860    -0.9050 H     1 <1>   0.0800 
 27 H       -1.2980    -1.0170    -0.7820 H     1 <1>   0.0800 
 28 H       -1.6370    -1.5480     0.8570 H     1 <1>   0.0800 
 29 H       -3.8190     0.1410    -1.9720 H     1 <1>   0.0800 
 30 H       -3.9460    -1.5560     0.5120 H     1 <1>   0.0800 
 31 H        1.4080     4.0800     1.3610 H     1 <1>   0.1500 
 32 H       -5.4980     0.0070     0.3040 H     1 <1>   0.4000 
 33 H       -2.9200    -2.1380    -2.2820 H     1 <1>   0.0800 
 34 H       -4.5140    -2.5330    -1.7160 H     1 <1>   0.0800 
 35 H        2.6070     5.0130    -1.2100 H     1 <1>   0.0800 
 36 H        1.8590     6.4170    -0.4740 H     1 <1>   0.0800 
 37 H        1.4350     5.9520    -2.1060 H     1 <1>   0.0800 
 38 H       -2.6080    -3.6840     1.2800 H     1 <1>   0.1500 
 39 H       -2.4890    -6.5710     1.9220 H     1 <1>   0.0800 
 40 H       -0.8380    -6.0950     1.5780 H     1 <1>   0.0800 
 41 H       -1.5650    -7.4270     0.7100 H     1 <1>   0.0800 
@<TRIPOS>BOND
  1   1   2  2   
  2   2   3  am  
  3   2   4  1   
  4   3   5  1   
  5   3   6  1   
  6   4   7  1   
  7   4  23  1   
  8   4  24  1   
  9   5   8  1   
 10   5  25  1   
 11   5  26  1   
 12   6   9  1   
 13   6  27  1   
 14   6  28  1   
 15   7  10  1   
 16   7  11  2   
 17   8   9  1   
 18   8  12  1   
 19   8  29  1   
 20   9  13  1   
 21   9  30  1   
 22  10  14  1   
 23  11  15  1   
 24  11  31  1   
 25  12  32  1   
 26  13  16  1   
 27  13  33  1   
 28  13  34  1   
 29  14  15  2   
 30  15  17  1   
 31  16  18  1   
 32  16  19  2   
 33  17  35  1   
 34  17  36  1   
 35  17  37  1   
 36  18  20  1   
 37  19  21  1   
 38  19  38  1   
 39  20  21  2   
 40  21  22  1   
 41  22  39  1   
 42  22  40  1   
 43  22  41  1   
@<TRIPOS>SUBSTRUCTURE
  1 ****   6 GROUP 4 **** **** 0

# MOE 2024.06 (io_trps.svl 2023.06)
