@<TRIPOS>MOLECULE
NONAME
42 44 1 0 0 
SMALL
USER_CHARGES


@<TRIPOS>ATOM
  1 CL      -0.9140     0.1930    -0.7190 Cl    1 <1>  -0.1770 
  2 C       -0.7500     1.8930    -0.3410 C.ar  1 <1>   0.1770 
  3 C        0.5000     2.4740    -0.2080 C.ar  1 <1>   0.1900 
  4 C       -1.8850     2.6630    -0.1770 C.ar  1 <1>  -0.1500 
  5 F        1.5810     1.7510    -0.3630 F     1 <1>  -0.1900 
  6 C        0.6400     3.8170     0.0860 C.ar  1 <1>  -0.1500 
  7 C       -1.7730     4.0200     0.1230 C.ar  1 <1>   0.1170 
  8 C       -0.5030     4.5830     0.2490 C.ar  1 <1>  -0.1500 
  9 N       -2.8960     4.8430     0.2850 N.am  1 <1>  -0.5470 
 10 C       -4.1600     4.5470     0.7080 C.2   1 <1>   0.6900 
 11 O       -4.4160     3.4500     1.1680 O.2   1 <1>  -0.5700 
 12 N       -5.1300     5.5160     0.6290 N.am  1 <1>  -0.6600 
 13 C       -6.4570     5.3260     1.2890 C.3   1 <1>   0.1400 
 14 C       -5.0980     6.6710    -0.3060 C.3   1 <1>   0.1400 
 15 C       -7.5620     5.0560     0.2400 C.3   1 <1>   0.0000 
 16 C       -6.1540     6.4710    -1.3960 C.3   1 <1>  -0.1600 
 17 C       -8.9660     4.9570     0.8730 C.3   1 <1>   0.2000 
 18 C       -7.5530     6.2000    -0.8100 C.3   1 <1>  -0.1600 
 19 C       -7.4000     3.6790    -0.4370 C.3   1 <1>  -0.1600 
 20 O       -8.9150     4.2350     2.0520 O.3   1 <1>  -0.6800 
 21 C       -9.7950     4.1420    -0.1170 C.3   1 <1>  -0.1600 
 22 C       -8.8070     3.2160    -0.8400 C.3   1 <1>  -0.1600 
 23 H       -2.8510     2.2040    -0.2850 H     1 <1>   0.1500 
 24 H        1.6220     4.2470     0.1850 H     1 <1>   0.1500 
 25 H       -0.4070     5.6290     0.4810 H     1 <1>   0.1500 
 26 H       -2.7370     5.8400     0.2090 H     1 <1>   0.3700 
 27 H       -6.4060     4.5150     1.9960 H     1 <1>   0.0800 
 28 H       -6.7000     6.2150     1.8430 H     1 <1>   0.0800 
 29 H       -5.3090     7.5720     0.2460 H     1 <1>   0.0800 
 30 H       -4.1320     6.7770    -0.7650 H     1 <1>   0.0800 
 31 H       -6.1930     7.3500    -2.0150 H     1 <1>   0.0800 
 32 H       -5.8510     5.6530    -2.0250 H     1 <1>   0.0800 
 33 H       -9.4020     5.9170     1.0910 H     1 <1>   0.0800 
 34 H       -8.2310     5.9790    -1.6150 H     1 <1>   0.0800 
 35 H       -7.8970     7.1040    -0.3380 H     1 <1>   0.0800 
 36 H       -6.7320     3.7020    -1.2790 H     1 <1>   0.0800 
 37 H       -6.9970     2.9770     0.2740 H     1 <1>   0.0800 
 38 H       -8.5570     3.3460     1.8610 H     1 <1>   0.4000 
 39 H      -10.5900     3.6010     0.3670 H     1 <1>   0.0800 
 40 H      -10.2330     4.8120    -0.8350 H     1 <1>   0.0800 
 41 H       -8.9580     2.1910    -0.5480 H     1 <1>   0.0800 
 42 H       -8.9390     3.2950    -1.9060 H     1 <1>   0.0800 
@<TRIPOS>BOND
  1   1   2  1   
  2   2   3  ar  
  3   2   4  ar  
  4   3   5  1   
  5   3   6  ar  
  6   4   7  ar  
  7   4  23  1   
  8   6   8  ar  
  9   6  24  1   
 10   7   8  ar  
 11   7   9  1   
 12   8  25  1   
 13   9  10  am  
 14   9  26  1   
 15  10  11  2   
 16  10  12  am  
 17  12  13  1   
 18  12  14  1   
 19  13  15  1   
 20  13  27  1   
 21  13  28  1   
 22  14  16  1   
 23  14  29  1   
 24  14  30  1   
 25  15  17  1   
 26  15  18  1   
 27  15  19  1   
 28  16  18  1   
 29  16  31  1   
 30  16  32  1   
 31  17  20  1   
 32  17  21  1   
 33  17  33  1   
 34  18  34  1   
 35  18  35  1   
 36  19  22  1   
 37  19  36  1   
 38  19  37  1   
 39  20  38  1   
 40  21  22  1   
 41  21  39  1   
 42  21  40  1   
 43  22  41  1   
 44  22  42  1   
@<TRIPOS>SUBSTRUCTURE
  1 ****  10 GROUP 4 **** **** 0

# MOE 2024.06 (io_trps.svl 2023.06)
