@<TRIPOS>MOLECULE
NONAME
61 64 1 0 0 
SMALL
USER_CHARGES


@<TRIPOS>ATOM
  1 O        1.4160    -0.4980     0.4220 O.3   1 <1>  -0.3630 
  2 C        1.2090    -1.8220     0.6210 C.ar  1 <1>   0.0830 
  3 C        1.1140     0.0300    -0.8550 C.3   1 <1>   0.2640 
  4 C        1.7920    -2.8230    -0.1630 C.ar  1 <1>   0.0820 
  5 C        0.3700    -2.1770     1.6630 C.ar  1 <1>  -0.1500 
  6 C        0.9640     1.5400    -0.7490 C.ar  1 <1>  -0.1440 
  7 O        2.6640    -2.5570    -1.1640 O.3   1 <1>  -0.3630 
  8 C        1.4880    -4.1520     0.0780 C.ar  1 <1>  -0.1500 
  9 C        0.0790    -3.5080     1.9070 C.ar  1 <1>  -0.1500 
 10 C        1.9930     2.3100    -0.2260 C.ar  1 <1>  -0.1500 
 11 C       -0.1960     2.1630    -1.1820 C.ar  1 <1>  -0.1500 
 12 C        3.9310    -2.0730    -0.7720 C.3   1 <1>   0.0400 
 13 C        0.6270    -4.5030     1.1090 C.ar  1 <1>  -0.1430 
 14 C        1.8720     3.6870    -0.1350 C.ar  1 <1>  -0.1430 
 15 C       -0.3230     3.5390    -1.0950 C.ar  1 <1>  -0.1500 
 16 C        0.2860    -5.9580     1.3690 C.3   1 <1>   0.4860 
 17 C        0.7090     4.2990    -0.5740 C.ar  1 <1>  -0.1500 
 18 C        3.0060     4.5160     0.4410 C.3   1 <1>  -0.0970 
 19 N       -0.6050    -6.4550     0.2830 N.4   1 <1>  -0.9590 
 20 C       -1.9100    -5.7210     0.2850 C.3   1 <1>   0.3430 
 21 C       -0.9230    -7.9040     0.4910 C.3   1 <1>   0.3430 
 22 C       -2.8910    -6.6310     1.0280 C.3   1 <1>   0.2000 
 23 C       -2.4520    -8.0300     0.6020 C.3   1 <1>  -0.0800 
 24 O       -2.6620    -6.5010     2.3950 O.3   1 <1>  -0.6800 
 25 C       -3.1120    -8.4470    -0.7320 C.3   1 <1>  -0.0170 
 26 C       -2.7490    -9.8680    -1.1360 C.ar  1 <1>   0.1670 
 27 N       -1.5280   -10.0460    -1.6160 N.ar  1 <1>  -0.6200 
 28 C       -3.6800   -10.8970    -0.9990 C.ar  1 <1>   0.1600 
 29 C       -1.3070   -11.3080    -1.9570 C.ar  1 <1>   0.1600 
 30 N       -3.4540   -12.1570    -1.3260 N.ar  1 <1>  -0.6200 
 31 C       -2.2390   -12.3290    -1.8150 C.ar  1 <1>   0.1600 
 32 H        1.9130    -0.2120    -1.5300 H     1 <1>   0.0800 
 33 H        0.2010    -0.4210    -1.2020 H     1 <1>   0.0800 
 34 H       -0.0540    -1.4010     2.2770 H     1 <1>   0.1500 
 35 H        1.9460    -4.8970    -0.5490 H     1 <1>   0.1500 
 36 H       -0.5780    -3.7550     2.7250 H     1 <1>   0.1500 
 37 H        2.8920     1.8290     0.1150 H     1 <1>   0.1500 
 38 H       -1.0060     1.5850    -1.5880 H     1 <1>   0.1500 
 39 H        4.5250    -1.9270    -1.6560 H     1 <1>   0.0800 
 40 H        4.3980    -2.8010    -0.1310 H     1 <1>   0.0800 
 41 H        3.8140    -1.1400    -0.2500 H     1 <1>   0.0800 
 42 H       -1.2240     4.0180    -1.4320 H     1 <1>   0.1500 
 43 H       -0.2100    -6.0510     2.3220 H     1 <1>   0.0800 
 44 H        1.1940    -6.5380     1.3990 H     1 <1>   0.0800 
 45 H        0.6030     5.3670    -0.5110 H     1 <1>   0.1500 
 46 H        2.6270     5.4240     0.8740 H     1 <1>   0.0800 
 47 H        3.7040     4.7650    -0.3370 H     1 <1>   0.0800 
 48 H        3.5200     3.9640     1.2070 H     1 <1>   0.0800 
 49 H       -0.1250    -6.3070    -0.6140 H     1 <1>   0.4500 
 50 H       -1.8430    -4.7540     0.7550 H     1 <1>   0.0800 
 51 H       -2.2490    -5.5930    -0.7290 H     1 <1>   0.0800 
 52 H       -0.5270    -8.4990    -0.3140 H     1 <1>   0.0800 
 53 H       -0.4800    -8.2450     1.4120 H     1 <1>   0.0800 
 54 H       -3.9220    -6.3970     0.8210 H     1 <1>   0.0800 
 55 H       -2.7120    -8.7610     1.3480 H     1 <1>   0.0800 
 56 H       -3.3800    -6.9180     2.9180 H     1 <1>   0.4000 
 57 H       -2.8190    -7.7840    -1.5270 H     1 <1>   0.0800 
 58 H       -4.1820    -8.3760    -0.6360 H     1 <1>   0.0800 
 59 H       -4.6550   -10.6760    -0.6020 H     1 <1>   0.1500 
 60 H       -0.3430   -11.5500    -2.3690 H     1 <1>   0.1500 
 61 H       -1.9680   -13.3250    -2.1180 H     1 <1>   0.1500 
@<TRIPOS>BOND
  1   1   2  1   
  2   1   3  1   
  3   2   4  ar  
  4   2   5  ar  
  5   3   6  1   
  6   3  32  1   
  7   3  33  1   
  8   4   7  1   
  9   4   8  ar  
 10   5   9  ar  
 11   5  34  1   
 12   6  10  ar  
 13   6  11  ar  
 14   7  12  1   
 15   8  13  ar  
 16   8  35  1   
 17   9  13  ar  
 18   9  36  1   
 19  10  14  ar  
 20  10  37  1   
 21  11  15  ar  
 22  11  38  1   
 23  12  39  1   
 24  12  40  1   
 25  12  41  1   
 26  13  16  1   
 27  14  17  ar  
 28  14  18  1   
 29  15  17  ar  
 30  15  42  1   
 31  16  19  1   
 32  16  43  1   
 33  16  44  1   
 34  17  45  1   
 35  18  46  1   
 36  18  47  1   
 37  18  48  1   
 38  19  20  1   
 39  19  21  1   
 40  19  49  1   
 41  20  22  1   
 42  20  50  1   
 43  20  51  1   
 44  21  23  1   
 45  21  52  1   
 46  21  53  1   
 47  22  23  1   
 48  22  24  1   
 49  22  54  1   
 50  23  25  1   
 51  23  55  1   
 52  24  56  1   
 53  25  26  1   
 54  25  57  1   
 55  25  58  1   
 56  26  27  ar  
 57  26  28  ar  
 58  27  29  ar  
 59  28  30  ar  
 60  28  59  1   
 61  29  31  ar  
 62  29  60  1   
 63  30  31  ar  
 64  31  61  1   
@<TRIPOS>SUBSTRUCTURE
  1 ****  13 GROUP 4 **** **** 0

# MOE 2024.06 (io_trps.svl 2023.06)
