@<TRIPOS>MOLECULE
NONAME
44 46 1 0 0 
SMALL
USER_CHARGES


@<TRIPOS>ATOM
  1 O        1.4000    -0.6110     1.6850 O.3   1 <1>  -0.0190 
  2 N        1.5650     0.6690     1.5450 N.2   1 <1>  -0.4100 
  3 C        1.4520    -1.0720     0.4610 C.2   1 <1>   0.2980 
  4 C        1.6980     0.8990     0.2980 C.2   1 <1>   0.3350 
  5 N        1.6350    -0.1970    -0.4480 N.2   1 <1>  -0.5650 
  6 C        1.2980    -2.5720     0.2350 C.3   1 <1>   0.2900 
  7 C        1.9200     2.2700    -0.3460 C.3   1 <1>   0.1010 
  8 N       -0.0540    -3.0770     0.5690 N.3   1 <1>  -0.8100 
  9 C        3.4150     2.5180    -0.5860 C.3   1 <1>  -0.2400 
 10 C        1.3230     3.4150     0.4880 C.3   1 <1>  -0.2400 
 11 C       -1.1210    -2.4090    -0.1940 C.3   1 <1>   0.1100 
 12 C       -0.2060    -4.5230     0.3330 C.3   1 <1>   0.1100 
 13 C       -2.2930    -3.3770    -0.1180 C.3   1 <1>   0.2000 
 14 C       -1.5970    -4.7270    -0.2890 C.3   1 <1>  -0.0800 
 15 O       -2.8190    -3.2850     1.1590 O.3   1 <1>  -0.6800 
 16 C       -2.3600    -5.9440     0.2670 C.3   1 <1>  -0.0170 
 17 C       -1.5970    -7.2330    -0.0030 C.ar  1 <1>  -0.1440 
 18 C       -1.5820    -7.8220    -1.2510 C.ar  1 <1>  -0.1500 
 19 C       -0.8760    -7.8760     0.9830 C.ar  1 <1>  -0.1500 
 20 C       -0.8610    -8.9870    -1.4500 C.ar  1 <1>   0.1600 
 21 C       -0.1890    -9.0400     0.6800 C.ar  1 <1>   0.1600 
 22 N       -0.1590    -9.6080    -0.5150 N.ar  1 <1>  -0.6200 
 23 H        2.0240    -3.0820     0.8430 H     1 <1>   0.0800 
 24 H        1.5170    -2.7840    -0.7970 H     1 <1>   0.0800 
 25 H        1.4200     2.2610    -1.2990 H     1 <1>   0.0800 
 26 H        3.9460     2.5240     0.3500 H     1 <1>   0.0800 
 27 H        3.5670     3.4610    -1.0800 H     1 <1>   0.0800 
 28 H        3.8210     1.7370    -1.2040 H     1 <1>   0.0800 
 29 H        1.8100     3.4760     1.4460 H     1 <1>   0.0800 
 30 H        0.2740     3.2420     0.6500 H     1 <1>   0.0800 
 31 H        1.4420     4.3540    -0.0220 H     1 <1>   0.0800 
 32 H       -1.3670    -1.4460     0.2230 H     1 <1>   0.0800 
 33 H       -0.8230    -2.2860    -1.2220 H     1 <1>   0.0800 
 34 H        0.5520    -4.9010    -0.3340 H     1 <1>   0.0800 
 35 H       -0.1260    -5.0380     1.2750 H     1 <1>   0.0800 
 36 H       -3.0710    -3.1870    -0.8370 H     1 <1>   0.0800 
 37 H       -1.4530    -4.8800    -1.3440 H     1 <1>   0.0800 
 38 H       -2.0520    -3.1950     1.7650 H     1 <1>   0.4000 
 39 H       -3.3300    -6.0000    -0.1940 H     1 <1>   0.0800 
 40 H       -2.5140    -5.8350     1.3270 H     1 <1>   0.0800 
 41 H       -2.1240    -7.3860    -2.0700 H     1 <1>   0.1500 
 42 H       -0.8430    -7.4860     1.9840 H     1 <1>   0.1500 
 43 H       -0.8600    -9.4330    -2.4300 H     1 <1>   0.1500 
 44 H        0.3670    -9.5290     1.4610 H     1 <1>   0.1500 
@<TRIPOS>BOND
  1   1   2  1   
  2   1   3  1   
  3   2   4  2   
  4   3   5  2   
  5   3   6  1   
  6   4   5  1   
  7   4   7  1   
  8   6   8  1   
  9   6  23  1   
 10   6  24  1   
 11   7   9  1   
 12   7  10  1   
 13   7  25  1   
 14   8  11  1   
 15   8  12  1   
 16   9  26  1   
 17   9  27  1   
 18   9  28  1   
 19  10  29  1   
 20  10  30  1   
 21  10  31  1   
 22  11  13  1   
 23  11  32  1   
 24  11  33  1   
 25  12  14  1   
 26  12  34  1   
 27  12  35  1   
 28  13  14  1   
 29  13  15  1   
 30  13  36  1   
 31  14  16  1   
 32  14  37  1   
 33  15  38  1   
 34  16  17  1   
 35  16  39  1   
 36  16  40  1   
 37  17  18  ar  
 38  17  19  ar  
 39  18  20  ar  
 40  18  41  1   
 41  19  21  ar  
 42  19  42  1   
 43  20  22  ar  
 44  20  43  1   
 45  21  22  ar  
 46  21  44  1   
@<TRIPOS>SUBSTRUCTURE
  1 ****   8 GROUP 4 **** **** 0

# MOE 2024.06 (io_trps.svl 2023.06)
