@<TRIPOS>MOLECULE
NONAME
43 45 1 0 0 
SMALL
USER_CHARGES


@<TRIPOS>ATOM
  1 S       -0.6570     1.8070    -2.5780 S.3   1 <1>  -0.0800 
  2 C       -1.1120     2.3290    -0.9770 C.2   1 <1>  -0.1400 
  3 C       -1.6080     0.3590    -2.3440 C.2   1 <1>   0.2280 
  4 C       -1.9180     1.4030    -0.4340 C.2   1 <1>   0.0460 
  5 C       -0.5800     3.6590    -0.4950 C.3   1 <1>   0.5230 
  6 N       -2.1820     0.2920    -1.2100 N.2   1 <1>  -0.5650 
  7 C       -2.5820     1.4240     0.9280 C.3   1 <1>  -0.0590 
  8 N        0.5990     3.4580     0.3950 N.4   1 <1>  -0.9590 
  9 C        1.0950     4.7250     1.0270 C.3   1 <1>   0.4230 
 10 C        1.6850     2.7620    -0.3660 C.3   1 <1>   0.3430 
 11 C        2.2660     4.3870     1.9660 C.3   1 <1>  -0.1600 
 12 C        0.0170     5.4810     1.8410 C.3   1 <1>  -0.1600 
 13 C        2.8420     2.3980     0.5590 C.3   1 <1>  -0.1600 
 14 C        3.3980     3.6390     1.2580 C.3   1 <1>  -0.1600 
 15 C       -0.9670     6.3830     1.0650 C.3   1 <1>   0.0200 
 16 C       -0.3800     6.9420    -0.2180 C.2   1 <1>  -0.1400 
 17 S        1.0840     7.9100    -0.0920 S.3   1 <1>  -0.0800 
 18 C       -0.7800     6.8620    -1.5020 C.2   1 <1>  -0.1500 
 19 C        1.1210     8.1620    -1.8270 C.2   1 <1>  -0.1100 
 20 C        0.0790     7.5500    -2.4170 C.2   1 <1>  -0.1500 
 21 H       -1.6370    -0.3530    -3.1520 H     1 <1>   0.1500 
 22 H       -1.3680     4.1400     0.0530 H     1 <1>   0.0800 
 23 H       -0.3180     4.2810    -1.3360 H     1 <1>   0.0800 
 24 H       -2.3440     2.3200     1.4680 H     1 <1>   0.0800 
 25 H       -2.2610     0.5720     1.4990 H     1 <1>   0.0800 
 26 H       -3.6490     1.3660     0.8050 H     1 <1>   0.0800 
 27 H        0.3130     2.8230     1.1460 H     1 <1>   0.4500 
 28 H        1.4740     5.3750     0.2550 H     1 <1>   0.0800 
 29 H        2.0440     3.4010    -1.1570 H     1 <1>   0.0800 
 30 H        1.3070     1.8550    -0.8110 H     1 <1>   0.0800 
 31 H        1.9100     3.8020     2.7970 H     1 <1>   0.0800 
 32 H        2.6720     5.3000     2.3700 H     1 <1>   0.0800 
 33 H        0.5400     6.1520     2.5020 H     1 <1>   0.0800 
 34 H       -0.5230     4.8010     2.4760 H     1 <1>   0.0800 
 35 H        3.6230     1.9350    -0.0200 H     1 <1>   0.0800 
 36 H        2.5100     1.6770     1.2860 H     1 <1>   0.0800 
 37 H        4.1530     3.3510     1.9720 H     1 <1>   0.0800 
 38 H        3.8620     4.2870     0.5320 H     1 <1>   0.0800 
 39 H       -1.2550     7.2080     1.6940 H     1 <1>   0.0800 
 40 H       -1.8730     5.8510     0.8380 H     1 <1>   0.0800 
 41 H       -1.6580     6.3570    -1.8660 H     1 <1>   0.1500 
 42 H        1.9260     8.7550    -2.2260 H     1 <1>   0.1500 
 43 H       -0.1300     7.5610    -3.4740 H     1 <1>   0.1500 
@<TRIPOS>BOND
  1   1   2  1   
  2   1   3  1   
  3   2   4  2   
  4   2   5  1   
  5   3   6  2   
  6   3  21  1   
  7   4   6  1   
  8   4   7  1   
  9   5   8  1   
 10   5  22  1   
 11   5  23  1   
 12   7  24  1   
 13   7  25  1   
 14   7  26  1   
 15   8   9  1   
 16   8  10  1   
 17   8  27  1   
 18   9  11  1   
 19   9  12  1   
 20   9  28  1   
 21  10  13  1   
 22  10  29  1   
 23  10  30  1   
 24  11  14  1   
 25  11  31  1   
 26  11  32  1   
 27  12  15  1   
 28  12  33  1   
 29  12  34  1   
 30  13  14  1   
 31  13  35  1   
 32  13  36  1   
 33  14  37  1   
 34  14  38  1   
 35  15  16  1   
 36  15  39  1   
 37  15  40  1   
 38  16  17  1   
 39  16  18  2   
 40  17  19  1   
 41  18  20  1   
 42  18  41  1   
 43  19  20  2   
 44  19  42  1   
 45  20  43  1   
@<TRIPOS>SUBSTRUCTURE
  1 ****   5 GROUP 4 **** **** 0

# MOE 2024.06 (io_trps.svl 2023.06)
