@<TRIPOS>MOLECULE
NONAME
51 54 1 0 0 
SMALL
USER_CHARGES


@<TRIPOS>ATOM
  1 O       -1.2680     0.3420     1.4740 O.2   1 <1>  -0.5700 
  2 C       -2.0380     0.7310     0.6290 C.2   1 <1>   0.5690 
  3 N       -3.1010    -0.0330     0.2380 N.am  1 <1>  -0.6600 
  4 C       -1.8220     2.1040     0.0150 C.3   1 <1>  -0.0990 
  5 C       -4.1790     0.3480    -0.7100 C.3   1 <1>   0.1400 
  6 C       -3.3710    -1.3750     0.8150 C.3   1 <1>   0.1400 
  7 C       -0.3590     2.5620     0.0640 C.3   1 <1>   0.0200 
  8 C       -5.2990    -0.6590    -0.4470 C.3   1 <1>   0.2000 
  9 C       -4.5780    -1.9200     0.0380 C.3   1 <1>  -0.0800 
 10 C       -0.2120     3.9300    -0.5840 C.2   1 <1>  -0.3320 
 11 O       -6.0820    -0.1840     0.5920 O.3   1 <1>  -0.6800 
 12 C       -4.1420    -2.7980    -1.1520 C.3   1 <1>  -0.0170 
 13 N       -0.4960     5.1130     0.0100 N.pl3 1 <1>   0.3140 
 14 C        0.2170     4.2170    -1.8310 C.2   1 <1>  -0.1500 
 15 C       -3.5090    -4.1080    -0.6920 C.ar  1 <1>  -0.1440 
 16 N       -0.2730     6.1430    -0.8220 N.2   1 <1>  -0.7070 
 17 C       -0.9730     5.3420     1.3810 C.3   1 <1>   0.0160 
 18 C        0.1560     5.6010    -1.9190 C.2   1 <1>   0.1390 
 19 C       -4.2770    -5.1940    -0.2060 C.ar  1 <1>   0.0000 
 20 C       -2.1550    -4.2680    -0.7420 C.ar  1 <1>  -0.1500 
 21 C       -3.5820    -6.3580     0.2070 C.ar  1 <1>   0.3100 
 22 C       -5.6880    -5.1970    -0.1060 C.ar  1 <1>  -0.1500 
 23 C       -1.5680    -5.4640    -0.3130 C.ar  1 <1>   0.1600 
 24 N       -2.2320    -6.4760     0.1460 N.ar  1 <1>  -0.6200 
 25 C       -4.3160    -7.4480     0.7010 C.ar  1 <1>  -0.1500 
 26 C       -6.3730    -6.2780     0.3790 C.ar  1 <1>  -0.1500 
 27 C       -5.6810    -7.4190     0.7900 C.ar  1 <1>  -0.1500 
 28 H       -2.1320     2.0910    -1.0130 H     1 <1>   0.0800 
 29 H       -2.4390     2.8070     0.5430 H     1 <1>   0.0800 
 30 H       -4.5150     1.3600    -0.5560 H     1 <1>   0.0800 
 31 H       -3.8160     0.2360    -1.7160 H     1 <1>   0.0800 
 32 H       -2.5030    -2.0050     0.7360 H     1 <1>   0.0800 
 33 H       -3.6180    -1.2620     1.8570 H     1 <1>   0.0800 
 34 H        0.2490     1.8500    -0.4680 H     1 <1>   0.0800 
 35 H       -0.0050     2.5950     1.0800 H     1 <1>   0.0800 
 36 H       -5.9360    -0.8190    -1.3010 H     1 <1>   0.0800 
 37 H       -5.2130    -2.4990     0.6860 H     1 <1>   0.0800 
 38 H       -5.5050     0.0460     1.3480 H     1 <1>   0.4000 
 39 H       -3.4390    -2.2570    -1.7610 H     1 <1>   0.0800 
 40 H       -4.9890    -3.0190    -1.7790 H     1 <1>   0.0800 
 41 H        0.5410     3.5490    -2.6090 H     1 <1>   0.1500 
 42 H       -0.3660     4.7840     2.0680 H     1 <1>   0.0800 
 43 H       -1.9970     5.0330     1.4550 H     1 <1>   0.0800 
 44 H       -0.8970     6.3900     1.6070 H     1 <1>   0.0800 
 45 H        0.4300     6.1690    -2.7920 H     1 <1>   0.1500 
 46 H       -1.5070    -3.4900    -1.1040 H     1 <1>   0.1500 
 47 H       -6.2430    -4.3320    -0.4180 H     1 <1>   0.1500 
 48 H       -0.4960    -5.5460    -0.3680 H     1 <1>   0.1500 
 49 H       -3.7610    -8.3150     1.0090 H     1 <1>   0.1500 
 50 H       -7.4470    -6.2650     0.4500 H     1 <1>   0.1500 
 51 H       -6.2290    -8.2630     1.1710 H     1 <1>   0.1500 
@<TRIPOS>BOND
  1   1   2  2   
  2   2   3  am  
  3   2   4  1   
  4   3   5  1   
  5   3   6  1   
  6   4   7  1   
  7   4  28  1   
  8   4  29  1   
  9   5   8  1   
 10   5  30  1   
 11   5  31  1   
 12   6   9  1   
 13   6  32  1   
 14   6  33  1   
 15   7  10  1   
 16   7  34  1   
 17   7  35  1   
 18   8   9  1   
 19   8  11  1   
 20   8  36  1   
 21   9  12  1   
 22   9  37  1   
 23  10  13  1   
 24  10  14  2   
 25  11  38  1   
 26  12  15  1   
 27  12  39  1   
 28  12  40  1   
 29  13  16  1   
 30  13  17  1   
 31  14  18  1   
 32  14  41  1   
 33  15  19  ar  
 34  15  20  ar  
 35  16  18  2   
 36  17  42  1   
 37  17  43  1   
 38  17  44  1   
 39  18  45  1   
 40  19  21  ar  
 41  19  22  ar  
 42  20  23  ar  
 43  20  46  1   
 44  21  24  ar  
 45  21  25  ar  
 46  22  26  ar  
 47  22  47  1   
 48  23  24  ar  
 49  23  48  1   
 50  25  27  ar  
 51  25  49  1   
 52  26  27  ar  
 53  26  50  1   
 54  27  51  1   
@<TRIPOS>SUBSTRUCTURE
  1 ****   6 GROUP 4 **** **** 0

# MOE 2024.06 (io_trps.svl 2023.06)
