@<TRIPOS>MOLECULE
NONAME
38 38 1 0 0 
SMALL
USER_CHARGES


@<TRIPOS>ATOM
  1 O        0.5850     0.3170    -0.2340 O.2   1 <1>  -0.5700 
  2 C        1.6230     0.8910    -0.4760 C.2   1 <1>   0.7800 
  3 O        1.7980     2.1730    -0.1480 O.3   1 <1>  -0.4300 
  4 N        2.7000     0.2410    -1.0240 N.am  1 <1>  -0.6600 
  5 C        0.8240     3.0610     0.3660 C.3   1 <1>   0.2800 
  6 C        4.0110     0.9120    -1.2800 C.3   1 <1>   0.2200 
  7 C        2.6410    -1.2170    -1.3560 C.3   1 <1>   0.1400 
  8 C       -0.3440     3.1960    -0.6180 C.3   1 <1>  -0.2400 
  9 C        1.5370     4.4080     0.4870 C.3   1 <1>  -0.2400 
 10 C        0.3670     2.6050     1.7570 C.3   1 <1>  -0.2400 
 11 C        5.0800     0.2130    -0.4030 C.3   1 <1>   0.4230 
 12 C        4.3220     0.9310    -2.7830 C.3   1 <1>  -0.2400 
 13 C        3.7440    -1.9720    -0.5950 C.3   1 <1>  -0.1600 
 14 N        4.6830     0.3630     1.0170 N.4   1 <1>  -0.8530 
 15 C        5.1310    -1.2960    -0.7050 C.3   1 <1>  -0.1600 
 16 H        3.9660     1.9430    -0.9750 H     1 <1>   0.0800 
 17 H        1.6790    -1.6320    -1.0980 H     1 <1>   0.0800 
 18 H        2.7640    -1.3470    -2.4170 H     1 <1>   0.0800 
 19 H       -1.0110     3.9730    -0.2910 H     1 <1>   0.0800 
 20 H       -0.9140     2.2870    -0.6750 H     1 <1>   0.0800 
 21 H        0.0160     3.4490    -1.5980 H     1 <1>   0.0800 
 22 H        0.8590     5.1530     0.8670 H     1 <1>   0.0800 
 23 H        1.8860     4.7350    -0.4760 H     1 <1>   0.0800 
 24 H        2.3700     4.3390     1.1620 H     1 <1>   0.0800 
 25 H       -0.2740     3.3510     2.1900 H     1 <1>   0.0800 
 26 H        1.2090     2.4650     2.4080 H     1 <1>   0.0800 
 27 H       -0.1990     1.6930     1.7030 H     1 <1>   0.0800 
 28 H        6.0480     0.6590    -0.5710 H     1 <1>   0.0800 
 29 H        4.4230    -0.0540    -3.2000 H     1 <1>   0.0800 
 30 H        5.2370     1.4660    -2.9630 H     1 <1>   0.0800 
 31 H        3.5330     1.4440    -3.3060 H     1 <1>   0.0800 
 32 H        3.4490    -2.0620     0.4350 H     1 <1>   0.0800 
 33 H        3.8040    -2.9740    -0.9850 H     1 <1>   0.0800 
 34 H        3.7080     0.0370     1.0800 H     1 <1>   0.4500 
 35 H        4.6970     1.3430     1.3150 H     1 <1>   0.4500 
 36 H        5.2640    -0.2030     1.6410 H     1 <1>   0.4500 
 37 H        5.5000    -1.4350    -1.7060 H     1 <1>   0.0800 
 38 H        5.8330    -1.7850    -0.0520 H     1 <1>   0.0800 
@<TRIPOS>BOND
  1   1   2  2   
  2   2   3  1   
  3   2   4  am  
  4   3   5  1   
  5   4   6  1   
  6   4   7  1   
  7   5   8  1   
  8   5   9  1   
  9   5  10  1   
 10   6  11  1   
 11   6  12  1   
 12   6  16  1   
 13   7  13  1   
 14   7  17  1   
 15   7  18  1   
 16   8  19  1   
 17   8  20  1   
 18   8  21  1   
 19   9  22  1   
 20   9  23  1   
 21   9  24  1   
 22  10  25  1   
 23  10  26  1   
 24  10  27  1   
 25  11  14  1   
 26  11  15  1   
 27  11  28  1   
 28  12  29  1   
 29  12  30  1   
 30  12  31  1   
 31  13  15  1   
 32  13  32  1   
 33  13  33  1   
 34  14  34  1   
 35  14  35  1   
 36  14  36  1   
 37  15  37  1   
 38  15  38  1   
@<TRIPOS>SUBSTRUCTURE
  1 ****   2 GROUP 4 **** **** 0

# MOE 2024.06 (io_trps.svl 2023.06)
