@<TRIPOS>MOLECULE
NONAME
43 45 1 0 0 
SMALL
USER_CHARGES


@<TRIPOS>ATOM
  1 F       -0.5910     1.3390    -1.1390 F     1 <1>  -0.3400 
  2 C       -1.3900     0.9260    -0.1590 C.3   1 <1>   1.1640 
  3 F       -0.7820     1.2580     0.9770 F     1 <1>  -0.3400 
  4 F       -1.3520    -0.4040    -0.2070 F     1 <1>  -0.3400 
  5 C       -2.8230     1.5030    -0.2760 C.ar  1 <1>   0.1660 
  6 N       -3.0260     2.8020    -0.0860 N.ar  1 <1>  -0.6200 
  7 C       -3.8790     0.6800    -0.5820 C.ar  1 <1>  -0.1500 
  8 C       -4.2760     3.2350    -0.2050 C.ar  1 <1>   0.7200 
  9 C       -5.1450     1.2200    -0.6750 C.ar  1 <1>   0.4100 
 10 N       -5.3400     2.5050    -0.4970 N.ar  1 <1>  -0.6200 
 11 N       -4.4830     4.5830    -0.0140 N.pl3 1 <1>  -0.8380 
 12 N       -6.2390     0.4250    -0.9670 N.pl3 1 <1>  -0.8380 
 13 C       -5.8410     5.1480     0.1380 C.3   1 <1>   0.2090 
 14 C       -3.4580     5.5010     0.5280 C.3   1 <1>   0.2090 
 15 C       -6.4210    -0.9160    -0.3220 C.3   1 <1>   0.2090 
 16 C       -7.4970     1.0120    -1.5090 C.3   1 <1>   0.2090 
 17 C       -5.6100     6.6040     0.5200 C.3   1 <1>  -0.1600 
 18 C       -4.2500     6.6090     1.2140 C.3   1 <1>  -0.1600 
 19 C       -7.4680    -0.8410     0.7890 C.3   1 <1>  -0.1860 
 20 C       -8.5390     1.1230    -0.3960 C.3   1 <1>  -0.1600 
 21 C       -7.7160    -2.2170     1.3640 C.2   1 <1>   0.9060 
 22 C       -8.7670    -0.2400     0.2500 C.3   1 <1>   0.2000 
 23 O       -7.0290    -3.1720     0.9870 O.co2 1 <1>  -0.9000 
 24 O       -8.6230    -2.3490     2.1970 O.co2 1 <1>  -0.9000 
 25 O       -9.6480    -0.0830     1.2960 O.3   1 <1>  -0.6800 
 26 H       -3.7480    -0.3690    -0.7610 H     1 <1>   0.1500 
 27 H       -6.3970     5.0580    -0.7790 H     1 <1>   0.0800 
 28 H       -6.3560     4.6240     0.9270 H     1 <1>   0.0800 
 29 H       -2.8050     5.0020     1.2240 H     1 <1>   0.0800 
 30 H       -2.8790     5.8970    -0.2900 H     1 <1>   0.0800 
 31 H       -6.7340    -1.6270    -1.0680 H     1 <1>   0.0800 
 32 H       -5.5000    -1.2750     0.1020 H     1 <1>   0.0800 
 33 H       -7.3090     1.9820    -1.9360 H     1 <1>   0.0800 
 34 H       -7.8680     0.3740    -2.2920 H     1 <1>   0.0800 
 35 H       -5.5640     7.1930    -0.3790 H     1 <1>   0.0800 
 36 H       -6.3960     6.9810     1.1500 H     1 <1>   0.0800 
 37 H       -4.3690     6.3550     2.2520 H     1 <1>   0.0800 
 38 H       -3.7520     7.5590     1.1390 H     1 <1>   0.0800 
 39 H       -7.0820    -0.2210     1.5740 H     1 <1>   0.0800 
 40 H       -9.4620     1.4880    -0.8050 H     1 <1>   0.0800 
 41 H       -8.1830     1.8220     0.3400 H     1 <1>   0.0800 
 42 H       -9.2160    -0.9210    -0.4540 H     1 <1>   0.0800 
 43 H       -9.5440    -0.9060     1.8600 H     1 <1>   0.4000 
@<TRIPOS>BOND
  1   1   2  1   
  2   2   3  1   
  3   2   4  1   
  4   2   5  1   
  5   5   6  ar  
  6   5   7  ar  
  7   6   8  ar  
  8   7   9  ar  
  9   7  26  1   
 10   8  10  ar  
 11   8  11  1   
 12   9  10  ar  
 13   9  12  1   
 14  11  13  1   
 15  11  14  1   
 16  12  15  1   
 17  12  16  1   
 18  13  17  1   
 19  13  27  1   
 20  13  28  1   
 21  14  18  1   
 22  14  29  1   
 23  14  30  1   
 24  15  19  1   
 25  15  31  1   
 26  15  32  1   
 27  16  20  1   
 28  16  33  1   
 29  16  34  1   
 30  17  18  1   
 31  17  35  1   
 32  17  36  1   
 33  18  37  1   
 34  18  38  1   
 35  19  21  1   
 36  19  22  1   
 37  19  39  1   
 38  20  22  1   
 39  20  40  1   
 40  20  41  1   
 41  21  23  ar  
 42  21  24  ar  
 43  22  25  1   
 44  22  42  1   
 45  25  43  1   
@<TRIPOS>SUBSTRUCTURE
  1 ****   9 GROUP 4 **** **** 0

# MOE 2024.06 (io_trps.svl 2023.06)
