@<TRIPOS>MOLECULE
NONAME
44 46 1 0 0 
SMALL
USER_CHARGES


@<TRIPOS>ATOM
  1 CL      -1.3600    -1.4950    -0.6490 Cl    1 <1>  -0.1770 
  2 C       -2.1070     0.0790    -0.4750 C.ar  1 <1>   0.1770 
  3 C       -3.1910     0.2570     0.3660 C.ar  1 <1>  -0.1440 
  4 C       -1.5830     1.1450    -1.1910 C.ar  1 <1>   0.1600 
  5 C       -3.6710     1.5520     0.4220 C.ar  1 <1>   0.1770 
  6 C       -3.7930    -0.8940     1.1550 C.3   1 <1>   0.2540 
  7 N       -2.0450     2.3890    -1.1390 N.ar  1 <1>  -0.6200 
  8 CL      -5.0290     1.9620     1.4440 Cl    1 <1>  -0.1770 
  9 C       -3.0830     2.5600    -0.3300 C.ar  1 <1>   0.1600 
 10 N       -4.5650    -1.7620     0.2540 N.3   1 <1>  -0.8100 
 11 C       -4.7280    -3.1110     0.8350 C.3   1 <1>   0.1100 
 12 C       -5.8750    -1.1570    -0.0630 C.3   1 <1>   0.1100 
 13 C       -5.4670    -4.0470    -0.1550 C.3   1 <1>   0.4230 
 14 C       -6.6460    -2.0460    -1.0470 C.3   1 <1>  -0.1600 
 15 N       -5.5910    -5.4710     0.3110 N.4   1 <1>  -0.9590 
 16 C       -6.8590    -3.4750    -0.4830 C.3   1 <1>  -0.1060 
 17 C       -6.1920    -6.3470    -0.7270 C.3   1 <1>   0.3430 
 18 C       -4.3690    -6.0600     0.9160 C.3   1 <1>   0.2630 
 19 C       -7.7080    -3.4400     0.8030 C.2   1 <1>   0.9060 
 20 C       -7.5380    -4.3500    -1.5620 C.3   1 <1>  -0.1600 
 21 C       -7.5720    -5.8270    -1.1380 C.3   1 <1>  -0.1600 
 22 O       -7.4860    -4.2770     1.6950 O.co2 1 <1>  -0.9000 
 23 O       -8.5970    -2.5990     0.9220 O.co2 1 <1>  -0.9000 
 24 H       -0.7400     0.9590    -1.8350 H     1 <1>   0.1500 
 25 H       -4.4190    -0.5440     1.9590 H     1 <1>   0.0800 
 26 H       -2.9870    -1.4550     1.5970 H     1 <1>   0.0800 
 27 H       -3.4920     3.5530    -0.2560 H     1 <1>   0.1500 
 28 H       -3.7490    -3.5070     1.0310 H     1 <1>   0.0800 
 29 H       -5.2690    -3.0430     1.7640 H     1 <1>   0.0800 
 30 H       -6.4530    -1.0220     0.8380 H     1 <1>   0.0800 
 31 H       -5.7330    -0.1900    -0.5140 H     1 <1>   0.0800 
 32 H       -4.8890    -4.0450    -1.0630 H     1 <1>   0.0800 
 33 H       -7.6020    -1.5910    -1.2420 H     1 <1>   0.0800 
 34 H       -6.1050    -2.0780    -1.9760 H     1 <1>   0.0800 
 35 H       -6.3250    -5.3590     1.0620 H     1 <1>   0.4500 
 36 H       -5.5480    -6.3750    -1.5910 H     1 <1>   0.0800 
 37 H       -6.2950    -7.3480    -0.3440 H     1 <1>   0.0800 
 38 H       -3.5680    -6.0800     0.1960 H     1 <1>   0.0800 
 39 H       -4.5690    -7.0650     1.2480 H     1 <1>   0.0800 
 40 H       -4.0610    -5.4790     1.7690 H     1 <1>   0.0800 
 41 H       -8.5440    -3.9990    -1.7230 H     1 <1>   0.0800 
 42 H       -7.0050    -4.2620    -2.4930 H     1 <1>   0.0800 
 43 H       -7.9480    -6.4230    -1.9500 H     1 <1>   0.0800 
 44 H       -8.2520    -5.9510    -0.3110 H     1 <1>   0.0800 
@<TRIPOS>BOND
  1   1   2  1   
  2   2   3  ar  
  3   2   4  ar  
  4   3   5  ar  
  5   3   6  1   
  6   4   7  ar  
  7   4  24  1   
  8   5   8  1   
  9   5   9  ar  
 10   6  10  1   
 11   6  25  1   
 12   6  26  1   
 13   7   9  ar  
 14   9  27  1   
 15  10  11  1   
 16  10  12  1   
 17  11  13  1   
 18  11  28  1   
 19  11  29  1   
 20  12  14  1   
 21  12  30  1   
 22  12  31  1   
 23  13  15  1   
 24  13  16  1   
 25  13  32  1   
 26  14  16  1   
 27  14  33  1   
 28  14  34  1   
 29  15  17  1   
 30  15  18  1   
 31  15  35  1   
 32  16  19  1   
 33  16  20  1   
 34  17  21  1   
 35  17  36  1   
 36  17  37  1   
 37  18  38  1   
 38  18  39  1   
 39  18  40  1   
 40  19  22  ar  
 41  19  23  ar  
 42  20  21  1   
 43  20  41  1   
 44  20  42  1   
 45  21  43  1   
 46  21  44  1   
@<TRIPOS>SUBSTRUCTURE
  1 ****  10 GROUP 4 **** **** 0

# MOE 2024.06 (io_trps.svl 2023.06)
