@<TRIPOS>MOLECULE
NONAME
46 48 1 0 0 
SMALL
USER_CHARGES


@<TRIPOS>ATOM
  1 CL      -5.1050    -3.1050     4.3370 Cl    1 <1>  -0.1240 
  2 C       -4.4910    -2.7720     2.7390 C.2   1 <1>   0.2640 
  3 O       -4.9890    -3.4470     1.7260 O.3   1 <1>  -0.2800 
  4 C       -3.5490    -1.8920     2.3480 C.2   1 <1>  -0.1500 
  5 C       -4.3700    -3.0130     0.6410 C.2   1 <1>  -0.0400 
  6 C       -3.4690    -2.0520     0.9560 C.2   1 <1>  -0.1500 
  7 C       -4.7630    -3.6230    -0.6930 C.3   1 <1>   0.5230 
  8 N       -6.2420    -3.5520    -0.8310 N.4   1 <1>  -0.9590 
  9 C       -6.7840    -4.4370    -1.9120 C.3   1 <1>   0.3430 
 10 C       -6.7780    -2.1640    -0.8540 C.3   1 <1>   0.3430 
 11 C       -8.3100    -4.6510    -1.7890 C.3   1 <1>   0.1400 
 12 C       -7.9360    -2.0510     0.1420 C.3   1 <1>  -0.1600 
 13 N       -8.8000    -4.3180    -0.4150 N.am  1 <1>  -0.6600 
 14 C       -9.1720    -2.8900    -0.2060 C.3   1 <1>   0.1400 
 15 C       -8.8460    -5.2250     0.6250 C.2   1 <1>   0.5440 
 16 O       -8.9880    -4.7990     1.7530 O.2   1 <1>  -0.5700 
 17 C       -8.6600    -6.6380     0.4240 C.ar  1 <1>   0.0860 
 18 C       -7.3860    -7.1960     0.3810 C.ar  1 <1>   0.1900 
 19 C       -9.7360    -7.5190     0.2610 C.ar  1 <1>   0.0830 
 20 F       -6.3440    -6.4090     0.4840 F     1 <1>  -0.1900 
 21 C       -7.1940    -8.5540     0.2020 C.ar  1 <1>   0.1900 
 22 O      -10.9960    -7.0500     0.2420 O.3   1 <1>  -0.3630 
 23 C       -9.5420    -8.8840     0.0770 C.ar  1 <1>  -0.1500 
 24 F       -5.9810    -9.0430     0.1540 F     1 <1>  -0.1900 
 25 C       -8.2640    -9.4160     0.0510 C.ar  1 <1>  -0.1500 
 26 C      -11.6530    -6.9310     1.4860 C.3   1 <1>   0.0400 
 27 H       -2.9750    -1.2120     2.9520 H     1 <1>   0.1500 
 28 H       -2.8040    -1.4950     0.3160 H     1 <1>   0.1500 
 29 H       -4.4460    -4.6540    -0.7040 H     1 <1>   0.0800 
 30 H       -4.2780    -3.1010    -1.5000 H     1 <1>   0.0800 
 31 H       -6.6090    -3.9430     0.0570 H     1 <1>   0.4500 
 32 H       -6.3110    -5.4030    -1.8440 H     1 <1>   0.0800 
 33 H       -6.5540    -4.0320    -2.8840 H     1 <1>   0.0800 
 34 H       -7.1100    -1.9010    -1.8450 H     1 <1>   0.0800 
 35 H       -6.0080    -1.4680    -0.5590 H     1 <1>   0.0800 
 36 H       -8.5540    -5.6690    -2.0370 H     1 <1>   0.0800 
 37 H       -8.8150    -4.0290    -2.5080 H     1 <1>   0.0800 
 38 H       -8.2410    -1.0210     0.1890 H     1 <1>   0.0800 
 39 H       -7.5950    -2.3140     1.1290 H     1 <1>   0.0800 
 40 H       -9.6480    -2.5050    -1.0920 H     1 <1>   0.0800 
 41 H       -9.8880    -2.8170     0.5970 H     1 <1>   0.0800 
 42 H      -10.3990    -9.5250    -0.0480 H     1 <1>   0.1500 
 43 H       -8.0980   -10.4710    -0.0860 H     1 <1>   0.1500 
 44 H      -12.6450    -6.5550     1.3080 H     1 <1>   0.0800 
 45 H      -11.1090    -6.2440     2.1120 H     1 <1>   0.0800 
 46 H      -11.7040    -7.9000     1.9500 H     1 <1>   0.0800 
@<TRIPOS>BOND
  1   1   2  1   
  2   2   3  1   
  3   2   4  2   
  4   3   5  1   
  5   4   6  1   
  6   4  27  1   
  7   5   6  2   
  8   5   7  1   
  9   6  28  1   
 10   7   8  1   
 11   7  29  1   
 12   7  30  1   
 13   8   9  1   
 14   8  10  1   
 15   8  31  1   
 16   9  11  1   
 17   9  32  1   
 18   9  33  1   
 19  10  12  1   
 20  10  34  1   
 21  10  35  1   
 22  11  13  1   
 23  11  36  1   
 24  11  37  1   
 25  12  14  1   
 26  12  38  1   
 27  12  39  1   
 28  13  14  1   
 29  13  15  am  
 30  14  40  1   
 31  14  41  1   
 32  15  16  2   
 33  15  17  1   
 34  17  18  ar  
 35  17  19  ar  
 36  18  20  1   
 37  18  21  ar  
 38  19  22  1   
 39  19  23  ar  
 40  21  24  1   
 41  21  25  ar  
 42  22  26  1   
 43  23  25  ar  
 44  23  42  1   
 45  25  43  1   
 46  26  44  1   
 47  26  45  1   
 48  26  46  1   
@<TRIPOS>SUBSTRUCTURE
  1 ****  15 GROUP 4 **** **** 0

# MOE 2024.06 (io_trps.svl 2023.06)
