@<TRIPOS>MOLECULE
NONAME
42 43 1 0 0 
SMALL
USER_CHARGES


@<TRIPOS>ATOM
  1 F       -1.7100    -1.4590     2.6500 F     1 <1>  -0.1900 
  2 C       -2.2130    -1.5080     1.4420 C.ar  1 <1>   0.1900 
  3 C       -2.5900    -0.3310     0.8040 C.ar  1 <1>   0.0830 
  4 C       -2.3510    -2.7500     0.8530 C.ar  1 <1>  -0.1500 
  5 O       -2.4270     0.8530     1.4560 O.3   1 <1>  -0.3630 
  6 C       -3.1220    -0.4320    -0.4790 C.ar  1 <1>  -0.1500 
  7 C       -2.8980    -2.8390    -0.4210 C.ar  1 <1>  -0.1430 
  8 C       -2.6630     2.0880     0.8180 C.3   1 <1>   0.0400 
  9 C       -3.2710    -1.6730    -1.0800 C.ar  1 <1>  -0.1500 
 10 C       -3.1040    -4.1970    -1.0950 C.3   1 <1>   0.4610 
 11 N       -4.1940    -4.9460    -0.3470 N.4   1 <1>  -0.9590 
 12 C       -1.8020    -5.0270    -1.1750 C.2   1 <1>   0.9060 
 13 C       -4.4160    -6.2800    -0.9690 C.3   1 <1>   0.5240 
 14 C       -5.4310    -4.1610    -0.0650 C.3   1 <1>   0.2630 
 15 O       -1.5370    -5.7380    -0.1920 O.co2 1 <1>  -0.9000 
 16 O       -1.2070    -5.1150    -2.2490 O.co2 1 <1>  -0.9000 
 17 C       -5.2930    -7.0930    -0.0490 C.2   1 <1>  -0.1810 
 18 C       -4.9630    -7.7170     1.0930 C.2   1 <1>  -0.0400 
 19 C       -6.6530    -7.3650    -0.1880 C.2   1 <1>   0.1080 
 20 O       -6.0440    -8.2720     1.5690 O.3   1 <1>  -0.0190 
 21 C       -3.6540    -7.8670     1.8440 C.3   1 <1>  -0.0600 
 22 N       -7.0750    -8.0630     0.8020 N.2   1 <1>  -0.4100 
 23 C       -7.5470    -6.9340    -1.3330 C.3   1 <1>  -0.0590 
 24 H       -2.0240    -3.6250     1.3900 H     1 <1>   0.1500 
 25 H       -3.4220     0.4440    -1.0240 H     1 <1>   0.1500 
 26 H       -2.4180     2.8720     1.5110 H     1 <1>   0.0800 
 27 H       -3.7030     2.1510     0.5500 H     1 <1>   0.0800 
 28 H       -2.0330     2.1590    -0.0510 H     1 <1>   0.0800 
 29 H       -3.6800    -1.7210    -2.0760 H     1 <1>   0.1500 
 30 H       -3.4170    -4.0310    -2.1090 H     1 <1>   0.0800 
 31 H       -3.7140    -5.1790     0.5380 H     1 <1>   0.4500 
 32 H       -3.4750    -6.7950    -1.0930 H     1 <1>   0.0800 
 33 H       -4.8790    -6.1760    -1.9360 H     1 <1>   0.0800 
 34 H       -5.9210    -3.8920    -0.9850 H     1 <1>   0.0800 
 35 H       -5.1860    -3.2600     0.4730 H     1 <1>   0.0800 
 36 H       -6.1110    -4.7420     0.5380 H     1 <1>   0.0800 
 37 H       -2.8450    -7.4020     1.3100 H     1 <1>   0.0800 
 38 H       -3.4240    -8.9100     1.9660 H     1 <1>   0.0800 
 39 H       -3.7340    -7.4160     2.8170 H     1 <1>   0.0800 
 40 H       -7.6240    -5.8640    -1.3670 H     1 <1>   0.0800 
 41 H       -8.5320    -7.3440    -1.1990 H     1 <1>   0.0800 
 42 H       -7.1530    -7.2970    -2.2650 H     1 <1>   0.0800 
@<TRIPOS>BOND
  1   1   2  1   
  2   2   3  ar  
  3   2   4  ar  
  4   3   5  1   
  5   3   6  ar  
  6   4   7  ar  
  7   4  24  1   
  8   5   8  1   
  9   6   9  ar  
 10   6  25  1   
 11   7   9  ar  
 12   7  10  1   
 13   8  26  1   
 14   8  27  1   
 15   8  28  1   
 16   9  29  1   
 17  10  11  1   
 18  10  12  1   
 19  10  30  1   
 20  11  13  1   
 21  11  14  1   
 22  11  31  1   
 23  12  15  ar  
 24  12  16  ar  
 25  13  17  1   
 26  13  32  1   
 27  13  33  1   
 28  14  34  1   
 29  14  35  1   
 30  14  36  1   
 31  17  18  2   
 32  17  19  1   
 33  18  20  1   
 34  18  21  1   
 35  19  22  2   
 36  19  23  1   
 37  20  22  1   
 38  21  37  1   
 39  21  38  1   
 40  21  39  1   
 41  23  40  1   
 42  23  41  1   
 43  23  42  1   
@<TRIPOS>SUBSTRUCTURE
  1 ****  11 GROUP 4 **** **** 0

# MOE 2024.06 (io_trps.svl 2023.06)
