@<TRIPOS>MOLECULE
NONAME
46 48 1 0 0 
SMALL
USER_CHARGES


@<TRIPOS>ATOM
  1 O        1.5440     1.9020     0.5100 O.co2 1 <1>  -0.9030 
  2 C        1.6940     0.6700     0.5010 C.2   1 <1>   0.9770 
  3 O        0.7080    -0.0700     0.6430 O.co2 1 <1>  -0.9030 
  4 C        3.0230     0.1060     0.3240 C.ar  1 <1>  -0.1870 
  5 C        4.1270     0.9350     0.1450 C.ar  1 <1>  -0.1170 
  6 C        3.2370    -1.2870     0.3290 C.ar  1 <1>  -0.1580 
  7 C        5.3820     0.3780    -0.0220 C.ar  1 <1>   0.3020 
  8 C        4.4910    -1.8390     0.1650 C.ar  1 <1>  -0.1170 
  9 N        6.6230     0.9380    -0.2090 N.pl3 1 <1>  -0.7040 
 10 C        5.5750    -0.9870    -0.0130 C.ar  1 <1>   0.3020 
 11 C        7.5410    -0.0110    -0.2780 C.cat 1 <1>   1.0690 
 12 N        6.9370    -1.2180    -0.1990 N.pl3 1 <1>  -0.7680 
 13 N        8.8610     0.2550    -0.4130 N.pl3 1 <1>  -0.5970 
 14 C        7.4640    -2.5740    -0.4920 C.3   1 <1>   0.2670 
 15 C        9.3270     1.4980    -1.1270 C.3   1 <1>   0.1600 
 16 C        9.9440    -0.6710     0.0310 C.3   1 <1>   0.1600 
 17 C        9.4430     2.7590    -0.2420 C.3   1 <1>   0.1920 
 18 C       10.9260     0.0130     0.9810 C.3   1 <1>  -0.2470 
 19 O        8.1920     3.0570     0.3110 O.3   1 <1>  -0.5650 
 20 C        9.9220     3.9680    -1.0620 C.3   1 <1>  -0.1680 
 21 C        8.1900     4.1200     1.2200 C.3   1 <1>   0.1120 
 22 C        9.9440     5.2390    -0.2070 C.3   1 <1>  -0.1680 
 23 C        8.5930     5.4090     0.4960 C.3   1 <1>  -0.1680 
 24 H        4.0000     2.0040     0.1370 H     1 <1>   0.1420 
 25 H        2.3770    -1.9260     0.4700 H     1 <1>   0.1420 
 26 H        4.6220    -2.9050     0.1790 H     1 <1>   0.1420 
 27 H        6.8870     1.9270    -0.1060 H     1 <1>   0.4440 
 28 H        6.7140    -3.1600    -0.9960 H     1 <1>   0.0710 
 29 H        7.7320    -3.0690     0.4260 H     1 <1>   0.0710 
 30 H        8.3250    -2.5150    -1.1350 H     1 <1>   0.0710 
 31 H        8.6500     1.7150    -1.9360 H     1 <1>   0.0710 
 32 H       10.2870     1.3040    -1.5740 H     1 <1>   0.0710 
 33 H       10.4710    -1.0510    -0.8290 H     1 <1>   0.0710 
 34 H        9.5220    -1.5030     0.5650 H     1 <1>   0.0710 
 35 H       10.1310     2.5820     0.5660 H     1 <1>   0.0710 
 36 H       11.5190     0.7470     0.4660 H     1 <1>   0.0710 
 37 H       11.6000    -0.7210     1.3840 H     1 <1>   0.0710 
 38 H       10.4030     0.4720     1.8020 H     1 <1>   0.0710 
 39 H        9.2650     4.1140    -1.9020 H     1 <1>   0.0710 
 40 H       10.9100     3.7810    -1.4450 H     1 <1>   0.0710 
 41 H        8.8740     3.8940     2.0200 H     1 <1>   0.0710 
 42 H        7.1960     4.2120     1.6240 H     1 <1>   0.0710 
 43 H       10.1520     6.0980    -0.8210 H     1 <1>   0.0710 
 44 H       10.7220     5.1600     0.5330 H     1 <1>   0.0710 
 45 H        8.6500     6.2170     1.2040 H     1 <1>   0.0710 
 46 H        7.8330     5.6570    -0.2240 H     1 <1>   0.0710 
@<TRIPOS>BOND
  1   1   2  ar  
  2   2   3  ar  
  3   2   4  1   
  4   4   5  ar  
  5   4   6  ar  
  6   5   7  ar  
  7   5  24  1   
  8   6   8  ar  
  9   6  25  1   
 10   7   9  1   
 11   7  10  ar  
 12   8  10  ar  
 13   8  26  1   
 14   9  11  ar  
 15   9  27  1   
 16  10  12  1   
 17  11  12  ar  
 18  11  13  ar  
 19  12  14  1   
 20  13  15  1   
 21  13  16  1   
 22  14  28  1   
 23  14  29  1   
 24  14  30  1   
 25  15  17  1   
 26  15  31  1   
 27  15  32  1   
 28  16  18  1   
 29  16  33  1   
 30  16  34  1   
 31  17  19  1   
 32  17  20  1   
 33  17  35  1   
 34  18  36  1   
 35  18  37  1   
 36  18  38  1   
 37  19  21  1   
 38  20  22  1   
 39  20  39  1   
 40  20  40  1   
 41  21  23  1   
 42  21  41  1   
 43  21  42  1   
 44  22  23  1   
 45  22  43  1   
 46  22  44  1   
 47  23  45  1   
 48  23  46  1   
@<TRIPOS>SUBSTRUCTURE
  1 ****   9 GROUP 4 **** **** 0

# MOE 2024.06 (io_trps.svl 2023.06)
