@<TRIPOS>MOLECULE
NONAME
46 47 1 0 0 
SMALL
USER_CHARGES


@<TRIPOS>ATOM
  1 S       -0.7710    -0.5550     1.4200 S.3   1 <1>  -0.4600 
  2 C       -1.5260     0.4870     0.1400 C.3   1 <1>   0.0700 
  3 C       -1.0170    -2.2220     0.7580 C.3   1 <1>  -0.0100 
  4 C       -1.5770     1.9260     0.6550 C.3   1 <1>  -0.1600 
  5 C       -1.9510     2.9150    -0.4610 C.3   1 <1>   0.1830 
  6 N       -1.9540     4.2940     0.1310 N.pl3 1 <1>  -0.8690 
  7 C       -3.3120     2.6040    -1.1370 C.2   1 <1>   0.9060 
  8 C       -0.9670     5.2030     0.1210 C.ar  1 <1>   0.4100 
  9 O       -3.4110     1.6390    -1.9080 O.co2 1 <1>  -0.9000 
 10 O       -4.2690     3.3620    -0.8970 O.co2 1 <1>  -0.9000 
 11 N        0.2600     4.7510    -0.0230 N.ar  1 <1>  -0.6200 
 12 C       -1.2660     6.5800     0.2700 C.ar  1 <1>  -0.1430 
 13 C        1.2450     5.6240     0.0010 C.ar  1 <1>   0.7710 
 14 C       -0.2200     7.4530     0.3070 C.ar  1 <1>   0.2180 
 15 C       -2.7410     6.9930     0.3650 C.3   1 <1>  -0.0960 
 16 N        1.0250     6.9360     0.1640 N.ar  1 <1>  -0.1790 
 17 N        2.5210     5.1830    -0.1370 N.pl3 1 <1>  -0.8380 
 18 C       -0.3140     8.9630     0.4910 C.3   1 <1>  -0.0970 
 19 C        2.8150     3.7270    -0.2680 C.3   1 <1>   0.2090 
 20 C        3.7810     5.9670    -0.2140 C.3   1 <1>   0.2090 
 21 C        4.3320     3.6200    -0.2020 C.3   1 <1>  -0.1600 
 22 C        4.8330     4.9740    -0.6900 C.3   1 <1>  -0.1600 
 23 H       -0.9180     0.4030    -0.7440 H     1 <1>   0.0800 
 24 H       -2.5130     0.1040    -0.0570 H     1 <1>   0.0800 
 25 H       -0.5940    -2.9180     1.4590 H     1 <1>   0.0800 
 26 H       -0.5170    -2.2770    -0.1920 H     1 <1>   0.0800 
 27 H       -2.0750    -2.3800     0.6480 H     1 <1>   0.0800 
 28 H       -2.3030     1.9900     1.4450 H     1 <1>   0.0800 
 29 H       -0.6110     2.1960     1.0430 H     1 <1>   0.0800 
 30 H       -1.2060     2.8680    -1.2330 H     1 <1>   0.0800 
 31 H       -2.9480     4.5840     0.1510 H     1 <1>   0.4000 
 32 H       -2.8910     8.0520     0.2840 H     1 <1>   0.0800 
 33 H       -3.1550     6.6560     1.3000 H     1 <1>   0.0800 
 34 H       -3.3020     6.5340    -0.4320 H     1 <1>   0.0800 
 35 H        1.8550     7.5090     0.1800 H     1 <1>   0.4570 
 36 H       -1.2200     9.2420     0.9960 H     1 <1>   0.0800 
 37 H       -0.2920     9.4520    -0.4670 H     1 <1>   0.0800 
 38 H        0.5030     9.3260     1.0880 H     1 <1>   0.0800 
 39 H        2.3470     3.1590     0.5210 H     1 <1>   0.0800 
 40 H        2.4530     3.3740    -1.2200 H     1 <1>   0.0800 
 41 H        3.7000     6.7900    -0.9040 H     1 <1>   0.0800 
 42 H        4.0420     6.3250     0.7680 H     1 <1>   0.0800 
 43 H        4.6280     3.4620     0.8200 H     1 <1>   0.0800 
 44 H        4.6990     2.8050    -0.8010 H     1 <1>   0.0800 
 45 H        4.8670     4.9840    -1.7660 H     1 <1>   0.0800 
 46 H        5.8110     5.2090    -0.3080 H     1 <1>   0.0800 
@<TRIPOS>BOND
  1   1   2  1   
  2   1   3  1   
  3   2   4  1   
  4   2  23  1   
  5   2  24  1   
  6   3  25  1   
  7   3  26  1   
  8   3  27  1   
  9   4   5  1   
 10   4  28  1   
 11   4  29  1   
 12   5   6  1   
 13   5   7  1   
 14   5  30  1   
 15   6   8  1   
 16   6  31  1   
 17   7   9  ar  
 18   7  10  ar  
 19   8  11  ar  
 20   8  12  ar  
 21  11  13  ar  
 22  12  14  ar  
 23  12  15  1   
 24  13  16  ar  
 25  13  17  1   
 26  14  16  ar  
 27  14  18  1   
 28  15  32  1   
 29  15  33  1   
 30  15  34  1   
 31  16  35  1   
 32  17  19  1   
 33  17  20  1   
 34  18  36  1   
 35  18  37  1   
 36  18  38  1   
 37  19  21  1   
 38  19  39  1   
 39  19  40  1   
 40  20  22  1   
 41  20  41  1   
 42  20  42  1   
 43  21  22  1   
 44  21  43  1   
 45  21  44  1   
 46  22  45  1   
 47  22  46  1   
@<TRIPOS>SUBSTRUCTURE
  1 ****  11 GROUP 4 **** **** 0

# MOE 2024.06 (io_trps.svl 2023.06)
