@<TRIPOS>MOLECULE
NONAME
48 50 1 0 0 
SMALL
USER_CHARGES


@<TRIPOS>ATOM
  1 S        0.4130    -0.0320     1.5840 S.o2  1 <1>   1.4470 
  2 O        1.1890    -1.1040     2.1720 O.2   1 <1>  -0.6500 
  3 O       -0.1180     0.9770     2.4770 O.2   1 <1>  -0.6500 
  4 N        1.5120     0.7550     0.5570 N.am  1 <1>  -0.8490 
  5 C       -0.9260    -0.6300     0.4740 C.ar  1 <1>  -0.0090 
  6 C        2.4770     1.5680     1.3270 C.3   1 <1>   0.1960 
  7 C        2.1580    -0.1800    -0.3800 C.3   1 <1>   0.1960 
  8 C       -1.4060    -1.9480     0.5310 C.ar  1 <1>  -0.1440 
  9 C       -1.5210     0.2260    -0.4670 C.ar  1 <1>  -0.1440 
 10 C        3.3550     2.5440     0.4980 C.3   1 <1>   0.2200 
 11 C        2.9480     0.4940    -1.5190 C.3   1 <1>  -0.0190 
 12 C       -2.3860    -2.3890    -0.3450 C.ar  1 <1>  -0.1500 
 13 C       -0.9040    -2.9720     1.5450 C.3   1 <1>  -0.0960 
 14 C       -2.4970    -0.2360    -1.3340 C.ar  1 <1>  -0.1500 
 15 C       -1.1510     1.7010    -0.6070 C.3   1 <1>  -0.0960 
 16 N        2.7570     2.8910    -0.8300 N.am  1 <1>  -0.6600 
 17 C        4.8010     2.0340     0.3340 C.3   1 <1>   0.1200 
 18 C        2.5290     1.9290    -1.7780 C.2   1 <1>   0.5690 
 19 C        4.4700     0.3940    -1.3440 C.3   1 <1>   0.1200 
 20 C       -2.9320    -1.5430    -1.2860 C.ar  1 <1>  -0.1440 
 21 C        2.2720     4.2890    -0.9900 C.3   1 <1>   0.0600 
 22 O        4.8650     0.6890    -0.0400 O.3   1 <1>  -0.5600 
 23 O        2.0200     2.1840    -2.8450 O.2   1 <1>  -0.5700 
 24 C       -4.0010    -2.0370    -2.2430 C.3   1 <1>  -0.0970 
 25 H        1.9270     2.1790     2.0220 H     1 <1>   0.0800 
 26 H        3.1040     0.9210     1.9180 H     1 <1>   0.0800 
 27 H        2.7980    -0.8590     0.1630 H     1 <1>   0.0800 
 28 H        1.3890    -0.7750    -0.8430 H     1 <1>   0.0800 
 29 H        3.4320     3.4520     1.0680 H     1 <1>   0.0800 
 30 H        2.7260    -0.0530    -2.4160 H     1 <1>   0.0800 
 31 H       -2.7350    -3.4050    -0.2960 H     1 <1>   0.1500 
 32 H       -1.5170    -3.8540     1.5480 H     1 <1>   0.0800 
 33 H       -0.9270    -2.5610     2.5390 H     1 <1>   0.0800 
 34 H        0.1020    -3.2690     1.3080 H     1 <1>   0.0800 
 35 H       -2.9300     0.4310    -2.0600 H     1 <1>   0.1500 
 36 H       -1.9400     2.2500    -1.0900 H     1 <1>   0.0800 
 37 H       -0.2640     1.8060    -1.2040 H     1 <1>   0.0800 
 38 H       -0.9870     2.1600     0.3500 H     1 <1>   0.0800 
 39 H        5.3060     2.1090     1.2800 H     1 <1>   0.0800 
 40 H        5.3400     2.6300    -0.3830 H     1 <1>   0.0800 
 41 H        4.9870     1.0460    -2.0280 H     1 <1>   0.0800 
 42 H        4.7850    -0.6170    -1.5380 H     1 <1>   0.0800 
 43 H        3.0900     4.9760    -0.8610 H     1 <1>   0.0800 
 44 H        1.5120     4.4940    -0.2570 H     1 <1>   0.0800 
 45 H        1.8520     4.4370    -1.9700 H     1 <1>   0.0800 
 46 H       -3.8770    -3.0870    -2.4390 H     1 <1>   0.0800 
 47 H       -3.9410    -1.5090    -3.1780 H     1 <1>   0.0800 
 48 H       -4.9740    -1.8750    -1.8150 H     1 <1>   0.0800 
@<TRIPOS>BOND
  1   1   2  2   
  2   1   3  2   
  3   1   4  am  
  4   1   5  1   
  5   4   6  1   
  6   4   7  1   
  7   5   8  ar  
  8   5   9  ar  
  9   6  10  1   
 10   6  25  1   
 11   6  26  1   
 12   7  11  1   
 13   7  27  1   
 14   7  28  1   
 15   8  12  ar  
 16   8  13  1   
 17   9  14  ar  
 18   9  15  1   
 19  10  16  1   
 20  10  17  1   
 21  10  29  1   
 22  11  18  1   
 23  11  19  1   
 24  11  30  1   
 25  12  20  ar  
 26  12  31  1   
 27  13  32  1   
 28  13  33  1   
 29  13  34  1   
 30  14  20  ar  
 31  14  35  1   
 32  15  36  1   
 33  15  37  1   
 34  15  38  1   
 35  16  18  am  
 36  16  21  1   
 37  17  22  1   
 38  17  39  1   
 39  17  40  1   
 40  18  23  2   
 41  19  22  1   
 42  19  41  1   
 43  19  42  1   
 44  20  24  1   
 45  21  43  1   
 46  21  44  1   
 47  21  45  1   
 48  24  46  1   
 49  24  47  1   
 50  24  48  1   
@<TRIPOS>SUBSTRUCTURE
  1 ****   4 GROUP 4 **** **** 0

# MOE 2024.06 (io_trps.svl 2023.06)
