@<TRIPOS>MOLECULE
NONAME
55 58 1 0 0 
SMALL
USER_CHARGES


@<TRIPOS>ATOM
  1 O       -0.5090    -0.6480     0.1530 O.2   1 <1>  -0.5700 
  2 C       -1.4680     0.0690     0.3570 C.2   1 <1>   0.7160 
  3 N       -2.5620    -0.4580     0.9730 N.am  1 <1>  -0.7300 
  4 C       -1.4600     1.4480    -0.0320 C.2   1 <1>  -0.0860 
  5 C       -2.8780    -1.8770     1.2720 C.3   1 <1>   0.3000 
  6 C       -2.5820     2.2810    -0.1410 C.2   1 <1>   0.3720 
  7 C       -0.4340     2.2690    -0.3940 C.2   1 <1>   0.0870 
  8 C       -4.2210    -1.8950     2.0330 C.3   1 <1>  -0.1600 
  9 C       -3.0390    -2.6530    -0.0510 C.3   1 <1>  -0.1600 
 10 C       -1.7730    -2.5250     2.1470 C.3   1 <1>   0.1200 
 11 N       -2.2560     3.4610    -0.5310 N.2   1 <1>  -0.4100 
 12 N       -3.9080     1.9090     0.1190 N.pl3 1 <1>  -0.8210 
 13 O       -0.9610     3.4320    -0.6820 O.3   1 <1>  -0.0190 
 14 C        0.9950     2.1050    -0.4960 C.ar  1 <1>   0.0530 
 15 C       -5.4180    -1.4110     1.1960 C.3   1 <1>  -0.1600 
 16 C       -4.2110    -2.1490    -0.9110 C.3   1 <1>  -0.1600 
 17 O       -1.4990    -1.7490     3.2700 O.3   1 <1>  -0.6800 
 18 C       -4.5960     2.7330     1.1690 C.3   1 <1>   0.2090 
 19 C       -4.7490     1.7600    -1.1160 C.3   1 <1>   0.2090 
 20 C        1.7270     1.3690     0.4360 C.ar  1 <1>  -0.1500 
 21 C        1.7030     2.7050    -1.5370 C.ar  1 <1>  -0.1500 
 22 C       -5.5270    -2.1840    -0.1240 C.3   1 <1>  -0.1600 
 23 C       -5.2890     3.9850     0.5950 C.3   1 <1>   0.1200 
 24 C       -5.4180     3.0790    -1.5450 C.3   1 <1>   0.1200 
 25 C        3.0980     1.2310     0.3300 C.ar  1 <1>  -0.1500 
 26 C        3.0750     2.5740    -1.6480 C.ar  1 <1>  -0.1500 
 27 O       -6.1190     3.6450    -0.4770 O.3   1 <1>  -0.5600 
 28 C        3.7770     1.8340    -0.7140 C.ar  1 <1>  -0.1500 
 29 H       -3.3910     0.1470     0.9300 H     1 <1>   0.3700 
 30 H       -4.1380    -1.3000     2.9260 H     1 <1>   0.0800 
 31 H       -4.4200    -2.9050     2.3490 H     1 <1>   0.0800 
 32 H       -3.2090    -3.6900     0.1770 H     1 <1>   0.0800 
 33 H       -2.1260    -2.6020    -0.6180 H     1 <1>   0.0800 
 34 H       -0.8610    -2.6360     1.5870 H     1 <1>   0.0800 
 35 H       -2.0800    -3.4990     2.4850 H     1 <1>   0.0800 
 36 H       -5.3180    -0.3610     0.9910 H     1 <1>   0.0800 
 37 H       -6.3250    -1.5410     1.7620 H     1 <1>   0.0800 
 38 H       -4.3020    -2.7650    -1.7890 H     1 <1>   0.0800 
 39 H       -4.0110    -1.1440    -1.2390 H     1 <1>   0.0800 
 40 H       -1.3070    -0.8390     2.9690 H     1 <1>   0.4000 
 41 H       -3.8800     3.0400     1.9120 H     1 <1>   0.0800 
 42 H       -5.3350     2.1260     1.6620 H     1 <1>   0.0800 
 43 H       -5.5160     1.0280    -0.9340 H     1 <1>   0.0800 
 44 H       -4.1390     1.3970    -1.9250 H     1 <1>   0.0800 
 45 H        1.2170     0.8960     1.2550 H     1 <1>   0.1500 
 46 H        1.1690     3.2830    -2.2700 H     1 <1>   0.1500 
 47 H       -6.3190    -1.7660    -0.7230 H     1 <1>   0.0800 
 48 H       -5.7840    -3.2080     0.0880 H     1 <1>   0.0800 
 49 H       -4.5600     4.7010     0.2560 H     1 <1>   0.0800 
 50 H       -5.8990     4.4480     1.3490 H     1 <1>   0.0800 
 51 H       -6.1190     2.8970    -2.3390 H     1 <1>   0.0800 
 52 H       -4.6810     3.7830    -1.8900 H     1 <1>   0.0800 
 53 H        3.6380     0.6530     1.0600 H     1 <1>   0.1500 
 54 H        3.5990     3.0460    -2.4620 H     1 <1>   0.1500 
 55 H        4.8440     1.7280    -0.7980 H     1 <1>   0.1500 
@<TRIPOS>BOND
  1   1   2  2   
  2   2   3  am  
  3   2   4  1   
  4   3   5  1   
  5   3  29  1   
  6   4   6  1   
  7   4   7  2   
  8   5   8  1   
  9   5   9  1   
 10   5  10  1   
 11   6  11  2   
 12   6  12  1   
 13   7  13  1   
 14   7  14  1   
 15   8  15  1   
 16   8  30  1   
 17   8  31  1   
 18   9  16  1   
 19   9  32  1   
 20   9  33  1   
 21  10  17  1   
 22  10  34  1   
 23  10  35  1   
 24  11  13  1   
 25  12  18  1   
 26  12  19  1   
 27  14  20  ar  
 28  14  21  ar  
 29  15  22  1   
 30  15  36  1   
 31  15  37  1   
 32  16  22  1   
 33  16  38  1   
 34  16  39  1   
 35  17  40  1   
 36  18  23  1   
 37  18  41  1   
 38  18  42  1   
 39  19  24  1   
 40  19  43  1   
 41  19  44  1   
 42  20  25  ar  
 43  20  45  1   
 44  21  26  ar  
 45  21  46  1   
 46  22  47  1   
 47  22  48  1   
 48  23  27  1   
 49  23  49  1   
 50  23  50  1   
 51  24  27  1   
 52  24  51  1   
 53  24  52  1   
 54  25  28  ar  
 55  25  53  1   
 56  26  28  ar  
 57  26  54  1   
 58  28  55  1   
@<TRIPOS>SUBSTRUCTURE
  1 ****   4 GROUP 4 **** **** 0

# MOE 2024.06 (io_trps.svl 2023.06)
