@<TRIPOS>MOLECULE
NONAME
50 52 1 0 0 
SMALL
USER_CHARGES


@<TRIPOS>ATOM
  1 O        3.7790    -0.7450     0.8280 O.2   1 <1>  -0.5700 
  2 C        2.5940    -0.9750     0.8510 C.2   1 <1>   0.5690 
  3 N        1.6660     0.0100     0.9670 N.am  1 <1>  -0.7300 
  4 C        2.1060    -2.4220     0.7380 C.3   1 <1>   0.1710 
  5 C        1.9470     1.4590     1.0750 C.3   1 <1>   0.1400 
  6 N        0.7700    -2.5770     0.0870 N.3   1 <1>  -0.8100 
  7 C        1.7480     2.1300    -0.2830 C.3   1 <1>  -0.0170 
  8 C        0.7950    -2.2020    -1.3390 C.3   1 <1>   0.1100 
  9 C        0.2810    -3.9670     0.1390 C.3   1 <1>   0.1100 
 10 C        2.0070     3.6240    -0.1760 C.ar  1 <1>  -0.1440 
 11 C       -0.4110    -2.9170    -1.9320 C.3   1 <1>   0.2000 
 12 C       -0.3430    -4.2740    -1.2330 C.3   1 <1>  -0.0800 
 13 C        3.3050     4.1090    -0.2310 C.ar  1 <1>  -0.1500 
 14 C        0.9550     4.5130    -0.0180 C.ar  1 <1>  -0.1500 
 15 O       -1.5380    -2.2350    -1.5120 O.3   1 <1>  -0.6800 
 16 C       -1.6680    -5.0560    -1.1580 C.3   1 <1>  -0.0170 
 17 C        3.5490     5.4680    -0.1290 C.ar  1 <1>  -0.1500 
 18 C        1.1980     5.8730     0.0840 C.ar  1 <1>  -0.1500 
 19 C       -1.4640    -6.3940    -0.4620 C.ar  1 <1>  -0.1440 
 20 C        2.4950     6.3510     0.0280 C.ar  1 <1>  -0.1500 
 21 C       -0.8600    -7.4600    -1.0960 C.ar  1 <1>  -0.1500 
 22 C       -1.8640    -6.6070     0.8420 C.ar  1 <1>  -0.1500 
 23 C       -0.6810    -8.6510    -0.4120 C.ar  1 <1>   0.1600 
 24 C       -1.6380    -7.8380     1.4350 C.ar  1 <1>   0.1600 
 25 N       -1.0510    -8.8630     0.8400 N.ar  1 <1>  -0.6200 
 26 H        0.6870    -0.2810     0.9000 H     1 <1>   0.3700 
 27 H        2.0550    -2.8190     1.7360 H     1 <1>   0.0800 
 28 H        2.8440    -2.9880     0.1970 H     1 <1>   0.0800 
 29 H        1.2890     1.8990     1.8050 H     1 <1>   0.0800 
 30 H        2.9620     1.6080     1.4050 H     1 <1>   0.0800 
 31 H        2.4310     1.7000    -0.9950 H     1 <1>   0.0800 
 32 H        0.7450     1.9590    -0.6290 H     1 <1>   0.0800 
 33 H        0.7370    -1.1360    -1.4760 H     1 <1>   0.0800 
 34 H        1.6930    -2.5720    -1.8050 H     1 <1>   0.0800 
 35 H        1.0790    -4.6630     0.3400 H     1 <1>   0.0800 
 36 H       -0.4510    -4.0470     0.9240 H     1 <1>   0.0800 
 37 H       -0.4070    -2.9720    -3.0070 H     1 <1>   0.0800 
 38 H        0.3660    -4.8760    -1.7730 H     1 <1>   0.0800 
 39 H        4.1310     3.4300    -0.3520 H     1 <1>   0.1500 
 40 H       -0.0580     4.1530     0.0270 H     1 <1>   0.1500 
 41 H       -1.4050    -2.0490    -0.5590 H     1 <1>   0.4000 
 42 H       -2.0420    -5.2240    -2.1520 H     1 <1>   0.0800 
 43 H       -2.4100    -4.4860    -0.6270 H     1 <1>   0.0800 
 44 H        4.5580     5.8380    -0.1730 H     1 <1>   0.1500 
 45 H        0.3770     6.5580     0.2060 H     1 <1>   0.1500 
 46 H        2.6840     7.4070     0.1070 H     1 <1>   0.1500 
 47 H       -0.5270    -7.3760    -2.1140 H     1 <1>   0.1500 
 48 H       -2.3490    -5.8300     1.4040 H     1 <1>   0.1500 
 49 H       -0.2080    -9.4730    -0.9230 H     1 <1>   0.1500 
 50 H       -1.9570    -7.9870     2.4530 H     1 <1>   0.1500 
@<TRIPOS>BOND
  1   1   2  2   
  2   2   3  am  
  3   2   4  1   
  4   3   5  1   
  5   3  26  1   
  6   4   6  1   
  7   4  27  1   
  8   4  28  1   
  9   5   7  1   
 10   5  29  1   
 11   5  30  1   
 12   6   8  1   
 13   6   9  1   
 14   7  10  1   
 15   7  31  1   
 16   7  32  1   
 17   8  11  1   
 18   8  33  1   
 19   8  34  1   
 20   9  12  1   
 21   9  35  1   
 22   9  36  1   
 23  10  13  ar  
 24  10  14  ar  
 25  11  12  1   
 26  11  15  1   
 27  11  37  1   
 28  12  16  1   
 29  12  38  1   
 30  13  17  ar  
 31  13  39  1   
 32  14  18  ar  
 33  14  40  1   
 34  15  41  1   
 35  16  19  1   
 36  16  42  1   
 37  16  43  1   
 38  17  20  ar  
 39  17  44  1   
 40  18  20  ar  
 41  18  45  1   
 42  19  21  ar  
 43  19  22  ar  
 44  20  46  1   
 45  21  23  ar  
 46  21  47  1   
 47  22  24  ar  
 48  22  48  1   
 49  23  25  ar  
 50  23  49  1   
 51  24  25  ar  
 52  24  50  1   
@<TRIPOS>SUBSTRUCTURE
  1 ****   6 GROUP 4 **** **** 0

# MOE 2024.06 (io_trps.svl 2023.06)
