@<TRIPOS>MOLECULE
NONAME
53 55 1 0 0 
SMALL
USER_CHARGES


@<TRIPOS>ATOM
  1 O       -1.6220     0.5220     2.2200 O.2   1 <1>  -0.5700 
  2 C       -1.8330     0.9850     1.1140 C.2   1 <1>   0.5440 
  3 N       -2.3340     0.1680     0.1250 N.am  1 <1>  -0.6600 
  4 C       -1.5610     2.3820     0.8730 C.ar  1 <1>   0.0860 
  5 C       -2.3920    -1.3190     0.3370 C.3   1 <1>   0.3640 
  6 C       -2.9060     0.7360    -1.1330 C.3   1 <1>   0.1400 
  7 C       -0.5530     2.8220     0.0070 C.ar  1 <1>   0.0830 
  8 C       -2.3320     3.3550     1.5050 C.ar  1 <1>  -0.1500 
  9 C       -1.0210    -1.9370     0.0430 C.ar  1 <1>  -0.1440 
 10 C       -3.4960    -2.0590    -0.4790 C.3   1 <1>   0.2000 
 11 C       -3.5670    -0.3130    -2.0360 C.3   1 <1>   0.1200 
 12 O        0.2620     1.9630    -0.6450 O.3   1 <1>  -0.3630 
 13 C       -0.3580     4.1720    -0.2350 C.ar  1 <1>  -0.1500 
 14 C       -2.1500     4.7050     1.2750 C.ar  1 <1>   0.0830 
 15 C       -0.4800    -2.8380     0.9490 C.ar  1 <1>  -0.1500 
 16 C       -0.3000    -1.6320    -1.1050 C.ar  1 <1>  -0.1500 
 17 O       -4.2960    -1.2100    -1.2620 O.3   1 <1>  -0.5600 
 18 C       -4.4460    -2.8540     0.4280 C.3   1 <1>   0.1200 
 19 C        1.1580     1.1870     0.1290 C.3   1 <1>   0.0400 
 20 C       -1.1410     5.1330     0.3950 C.ar  1 <1>   0.0830 
 21 O       -2.9990     5.5260     1.9570 O.3   1 <1>  -0.3630 
 22 C        0.7500    -3.4270     0.7140 C.ar  1 <1>  -0.1500 
 23 C        0.9300    -2.2200    -1.3440 C.ar  1 <1>  -0.1500 
 24 O       -3.7530    -3.8410     1.1240 O.3   1 <1>  -0.6800 
 25 O       -0.9340     6.4630     0.1900 O.3   1 <1>  -0.3630 
 26 C       -3.4920     6.7060     1.3600 C.3   1 <1>   0.0400 
 27 C        1.4560    -3.1190    -0.4350 C.ar  1 <1>  -0.1500 
 28 C        0.1610     6.9530    -0.5530 C.3   1 <1>   0.0400 
 29 H       -2.6010    -1.4900     1.3790 H     1 <1>   0.0800 
 30 H       -3.6470     1.4720    -0.8710 H     1 <1>   0.0800 
 31 H       -2.1310     1.2350    -1.6880 H     1 <1>   0.0800 
 32 H       -3.0970     3.0430     2.1930 H     1 <1>   0.1500 
 33 H       -3.0290    -2.7510    -1.1580 H     1 <1>   0.0800 
 34 H       -2.8350    -0.8570    -2.6070 H     1 <1>   0.0800 
 35 H       -4.2470     0.1640    -2.7190 H     1 <1>   0.0800 
 36 H        0.4210     4.4410    -0.9200 H     1 <1>   0.1500 
 37 H       -1.0190    -3.0850     1.8500 H     1 <1>   0.1500 
 38 H       -0.6840    -0.9250    -1.8160 H     1 <1>   0.1500 
 39 H       -5.2120    -3.3320    -0.1570 H     1 <1>   0.0800 
 40 H       -4.9010    -2.1990     1.1510 H     1 <1>   0.0800 
 41 H        1.8750     0.7400    -0.5350 H     1 <1>   0.0800 
 42 H        0.6200     0.4130     0.6440 H     1 <1>   0.0800 
 43 H        1.6580     1.8270     0.8350 H     1 <1>   0.0800 
 44 H        1.1570    -4.1220     1.4270 H     1 <1>   0.1500 
 45 H        1.4790    -1.9760    -2.2370 H     1 <1>   0.1500 
 46 H       -3.4140    -4.5270     0.5150 H     1 <1>   0.4000 
 47 H       -4.4020     6.9800     1.8620 H     1 <1>   0.0800 
 48 H       -3.6860     6.5210     0.3180 H     1 <1>   0.0800 
 49 H       -2.7640     7.4870     1.4800 H     1 <1>   0.0800 
 50 H        2.4120    -3.5770    -0.6190 H     1 <1>   0.1500 
 51 H        0.1360     8.0280    -0.5150 H     1 <1>   0.0800 
 52 H        0.0690     6.6230    -1.5730 H     1 <1>   0.0800 
 53 H        1.0730     6.5940    -0.1100 H     1 <1>   0.0800 
@<TRIPOS>BOND
  1   1   2  2   
  2   2   3  am  
  3   2   4  1   
  4   3   5  1   
  5   3   6  1   
  6   4   7  ar  
  7   4   8  ar  
  8   5   9  1   
  9   5  10  1   
 10   5  29  1   
 11   6  11  1   
 12   6  30  1   
 13   6  31  1   
 14   7  12  1   
 15   7  13  ar  
 16   8  14  ar  
 17   8  32  1   
 18   9  15  ar  
 19   9  16  ar  
 20  10  17  1   
 21  10  18  1   
 22  10  33  1   
 23  11  17  1   
 24  11  34  1   
 25  11  35  1   
 26  12  19  1   
 27  13  20  ar  
 28  13  36  1   
 29  14  20  ar  
 30  14  21  1   
 31  15  22  ar  
 32  15  37  1   
 33  16  23  ar  
 34  16  38  1   
 35  18  24  1   
 36  18  39  1   
 37  18  40  1   
 38  19  41  1   
 39  19  42  1   
 40  19  43  1   
 41  20  25  1   
 42  21  26  1   
 43  22  27  ar  
 44  22  44  1   
 45  23  27  ar  
 46  23  45  1   
 47  24  46  1   
 48  25  28  1   
 49  26  47  1   
 50  26  48  1   
 51  26  49  1   
 52  27  50  1   
 53  28  51  1   
 54  28  52  1   
 55  28  53  1   
@<TRIPOS>SUBSTRUCTURE
  1 ****   2 GROUP 4 **** **** 0

# MOE 2024.06 (io_trps.svl 2023.06)
