@<TRIPOS>MOLECULE
NONAME
51 54 1 0 0 
SMALL
USER_CHARGES


@<TRIPOS>ATOM
  1 F        4.8960    -1.2450     0.5030 F     1 <1>  -0.3400 
  2 C        4.1230    -0.2680     0.0520 C.3   1 <1>   0.2600 
  3 C        4.7170     0.2100    -1.2750 C.3   1 <1>  -0.1600 
  4 C        4.1000     0.8290     1.1170 C.3   1 <1>  -0.1600 
  5 C        3.9850     1.4600    -1.7690 C.3   1 <1>   0.1400 
  6 C        3.3730     2.0670     0.5890 C.3   1 <1>   0.1400 
  7 N        3.9970     2.4930    -0.6960 N.am  1 <1>  -0.6600 
  8 C        4.5460     3.7460    -0.8890 C.2   1 <1>   0.7160 
  9 O        4.9580     4.0490    -1.9950 O.2   1 <1>  -0.5700 
 10 C        4.6740     4.6800     0.1810 C.2   1 <1>  -0.0860 
 11 C        3.6440     5.4700     0.6990 C.2   1 <1>   0.3720 
 12 C        5.7520     5.0060     0.9420 C.2   1 <1>   0.0870 
 13 N        4.0690     6.1850     1.6810 N.2   1 <1>  -0.4100 
 14 N        2.3170     5.4610     0.2400 N.pl3 1 <1>  -0.8210 
 15 O        5.3390     5.9000     1.8050 O.3   1 <1>  -0.0190 
 16 C        7.1220     4.5520     0.9590 C.ar  1 <1>   0.0530 
 17 C        2.1230     5.7100    -1.2150 C.3   1 <1>   0.2090 
 18 C        1.3170     6.2540     1.0020 C.3   1 <1>   0.2090 
 19 C        7.5130     3.3340     0.3970 C.ar  1 <1>  -0.1500 
 20 C        8.1210     5.3230     1.5580 C.ar  1 <1>  -0.1500 
 21 C        0.9940     6.7280    -1.3230 C.3   1 <1>  -0.1600 
 22 C        0.2360     6.6010    -0.0100 C.3   1 <1>  -0.1600 
 23 C        8.8270     2.9070     0.4260 C.ar  1 <1>  -0.1500 
 24 C        9.4370     4.9020     1.5920 C.ar  1 <1>  -0.1500 
 25 C        9.8040     3.6920     1.0280 C.ar  1 <1>   0.0830 
 26 O       11.1110     3.3490     1.1030 O.3   1 <1>  -0.3630 
 27 C       11.5900     2.1430     0.5520 C.3   1 <1>   0.0400 
 28 H        3.1440    -0.6930    -0.0910 H     1 <1>   0.0800 
 29 H        4.6290    -0.5670    -2.0120 H     1 <1>   0.0800 
 30 H        5.7570     0.4490    -1.1450 H     1 <1>   0.0800 
 31 H        5.1050     1.1050     1.3830 H     1 <1>   0.0800 
 32 H        3.5970     0.4700     1.9960 H     1 <1>   0.0800 
 33 H        2.9640     1.2200    -2.0130 H     1 <1>   0.0800 
 34 H        4.4630     1.8240    -2.6630 H     1 <1>   0.0800 
 35 H        3.4130     2.8480     1.3280 H     1 <1>   0.0800 
 36 H        2.3350     1.8400     0.4130 H     1 <1>   0.0800 
 37 H        1.8400     4.7870    -1.6910 H     1 <1>   0.0800 
 38 H        3.0230     6.0850    -1.6770 H     1 <1>   0.0800 
 39 H        1.7640     7.1610     1.3760 H     1 <1>   0.0800 
 40 H        0.9240     5.6820     1.8240 H     1 <1>   0.0800 
 41 H        6.7830     2.7020    -0.0720 H     1 <1>   0.1500 
 42 H        7.8640     6.2690     2.0020 H     1 <1>   0.1500 
 43 H        0.3710     6.5440    -2.1790 H     1 <1>   0.0800 
 44 H        1.4220     7.7120    -1.4050 H     1 <1>   0.0800 
 45 H       -0.2860     7.5030     0.2560 H     1 <1>   0.0800 
 46 H       -0.4650     5.7870    -0.0650 H     1 <1>   0.0800 
 47 H        9.0720     1.9630    -0.0220 H     1 <1>   0.1500 
 48 H       10.1920     5.5100     2.0570 H     1 <1>   0.1500 
 49 H       12.6490     2.0920     0.7300 H     1 <1>   0.0800 
 50 H       11.3970     2.1410    -0.5060 H     1 <1>   0.0800 
 51 H       11.0980     1.3180     1.0370 H     1 <1>   0.0800 
@<TRIPOS>BOND
  1   1   2  1   
  2   2   3  1   
  3   2   4  1   
  4   2  28  1   
  5   3   5  1   
  6   3  29  1   
  7   3  30  1   
  8   4   6  1   
  9   4  31  1   
 10   4  32  1   
 11   5   7  1   
 12   5  33  1   
 13   5  34  1   
 14   6   7  1   
 15   6  35  1   
 16   6  36  1   
 17   7   8  am  
 18   8   9  2   
 19   8  10  1   
 20  10  11  1   
 21  10  12  2   
 22  11  13  2   
 23  11  14  1   
 24  12  15  1   
 25  12  16  1   
 26  13  15  1   
 27  14  17  1   
 28  14  18  1   
 29  16  19  ar  
 30  16  20  ar  
 31  17  21  1   
 32  17  37  1   
 33  17  38  1   
 34  18  22  1   
 35  18  39  1   
 36  18  40  1   
 37  19  23  ar  
 38  19  41  1   
 39  20  24  ar  
 40  20  42  1   
 41  21  22  1   
 42  21  43  1   
 43  21  44  1   
 44  22  45  1   
 45  22  46  1   
 46  23  25  ar  
 47  23  47  1   
 48  24  25  ar  
 49  24  48  1   
 50  25  26  1   
 51  26  27  1   
 52  27  49  1   
 53  27  50  1   
 54  27  51  1   
@<TRIPOS>SUBSTRUCTURE
  1 ****  10 GROUP 4 **** **** 0

# MOE 2024.06 (io_trps.svl 2023.06)
