@<TRIPOS>MOLECULE
NONAME
58 61 1 0 0 
SMALL
USER_CHARGES


@<TRIPOS>ATOM
  1 O       -1.3230     1.3140    -1.9900 O.2   1 <1>  -0.5700 
  2 C       -2.1180     1.3620    -1.0800 C.2   1 <1>   0.5690 
  3 N       -3.3220     0.7040    -1.1480 N.am  1 <1>  -0.6600 
  4 C       -1.7640     2.1890     0.1540 C.3   1 <1>  -0.0990 
  5 C       -4.4390     0.8190    -0.1700 C.3   1 <1>   0.1400 
  6 C       -3.6360    -0.2200    -2.2750 C.3   1 <1>   0.1400 
  7 C       -0.2670     2.5220     0.3110 C.3   1 <1>  -0.0800 
  8 C       -4.7130    -0.5600     0.4320 C.3   1 <1>  -0.1600 
  9 C       -3.9170    -1.6160    -1.7140 C.3   1 <1>  -0.1600 
 10 C        0.6180     1.2970     0.5440 C.3   1 <1>  -0.1600 
 11 C        0.0190     3.4020     1.5250 C.3   1 <1>  -0.1600 
 12 C       -5.0330    -1.6000    -0.6580 C.3   1 <1>   0.4240 
 13 C        1.8720     1.8280     1.2430 C.3   1 <1>  -0.1600 
 14 C        1.5100     3.2110     1.7980 C.3   1 <1>  -0.1600 
 15 O       -6.1850    -1.1690    -1.3450 O.3   1 <1>  -0.5600 
 16 C       -5.2220    -3.0060    -0.0490 C.ar  1 <1>  -0.1440 
 17 C       -7.4250    -1.4860    -0.7920 C.3   1 <1>   0.1200 
 18 C       -6.4390    -3.6700    -0.1280 C.ar  1 <1>  -0.1440 
 19 C       -4.1710    -3.6390     0.6020 C.ar  1 <1>  -0.1500 
 20 C       -7.6070    -3.0000    -0.8240 C.3   1 <1>  -0.0170 
 21 C       -6.5930    -4.9310     0.4270 C.ar  1 <1>  -0.1500 
 22 C       -4.3040    -4.9000     1.1570 C.ar  1 <1>   0.0820 
 23 C       -5.5400    -5.5620     1.0820 C.ar  1 <1>   0.0820 
 24 O       -3.1730    -5.3820     1.7480 O.3   1 <1>  -0.3630 
 25 O       -5.6960    -6.7900     1.6590 O.3   1 <1>  -0.3620 
 26 C       -2.8970    -6.7650     1.7900 C.3   1 <1>   0.0400 
 27 C       -6.9530    -7.4240     1.7520 C.3   1 <1>   0.0400 
 28 H       -2.0790     1.6550     1.0300 H     1 <1>   0.0800 
 29 H       -2.3190     3.1070     0.0990 H     1 <1>   0.0800 
 30 H       -5.3160     1.1730    -0.6850 H     1 <1>   0.0800 
 31 H       -4.2130     1.5220     0.6100 H     1 <1>   0.0800 
 32 H       -2.8150    -0.2710    -2.9700 H     1 <1>   0.0800 
 33 H       -4.4980     0.1480    -2.8050 H     1 <1>   0.0800 
 34 H        0.0820     3.0350    -0.5710 H     1 <1>   0.0800 
 35 H       -5.5210    -0.5030     1.1350 H     1 <1>   0.0800 
 36 H       -3.8410    -0.8680     0.9780 H     1 <1>   0.0800 
 37 H       -3.0060    -1.9900    -1.2870 H     1 <1>   0.0800 
 38 H       -4.1960    -2.2800    -2.5100 H     1 <1>   0.0800 
 39 H        0.8550     0.7980    -0.3800 H     1 <1>   0.0800 
 40 H        0.1180     0.6020     1.1970 H     1 <1>   0.0800 
 41 H       -0.5410     3.0500     2.3740 H     1 <1>   0.0800 
 42 H       -0.2260     4.4340     1.3420 H     1 <1>   0.0800 
 43 H        2.6770     1.9210     0.5340 H     1 <1>   0.0800 
 44 H        2.1770     1.1600     2.0290 H     1 <1>   0.0800 
 45 H        1.7290     3.2880     2.8490 H     1 <1>   0.0800 
 46 H        2.0710     3.9630     1.2690 H     1 <1>   0.0800 
 47 H       -8.1830    -1.0030    -1.3840 H     1 <1>   0.0800 
 48 H       -7.4710    -1.1110     0.2150 H     1 <1>   0.0800 
 49 H       -3.2140    -3.1580     0.6880 H     1 <1>   0.1500 
 50 H       -7.6590    -3.3320    -1.8460 H     1 <1>   0.0800 
 51 H       -8.5300    -3.2550    -0.3360 H     1 <1>   0.0800 
 52 H       -7.5500    -5.4070     0.3370 H     1 <1>   0.1500 
 53 H       -1.8450    -6.8910     1.9670 H     1 <1>   0.0800 
 54 H       -3.1700    -7.2070     0.8480 H     1 <1>   0.0800 
 55 H       -3.4560    -7.2060     2.5950 H     1 <1>   0.0800 
 56 H       -6.8250    -8.3380     2.3030 H     1 <1>   0.0800 
 57 H       -7.3070    -7.6430     0.7600 H     1 <1>   0.0800 
 58 H       -7.6340    -6.7750     2.2740 H     1 <1>   0.0800 
@<TRIPOS>BOND
  1   1   2  2   
  2   2   3  am  
  3   2   4  1   
  4   3   5  1   
  5   3   6  1   
  6   4   7  1   
  7   4  28  1   
  8   4  29  1   
  9   5   8  1   
 10   5  30  1   
 11   5  31  1   
 12   6   9  1   
 13   6  32  1   
 14   6  33  1   
 15   7  10  1   
 16   7  11  1   
 17   7  34  1   
 18   8  12  1   
 19   8  35  1   
 20   8  36  1   
 21   9  12  1   
 22   9  37  1   
 23   9  38  1   
 24  10  13  1   
 25  10  39  1   
 26  10  40  1   
 27  11  14  1   
 28  11  41  1   
 29  11  42  1   
 30  12  15  1   
 31  12  16  1   
 32  13  14  1   
 33  13  43  1   
 34  13  44  1   
 35  14  45  1   
 36  14  46  1   
 37  15  17  1   
 38  16  18  ar  
 39  16  19  ar  
 40  17  20  1   
 41  17  47  1   
 42  17  48  1   
 43  18  20  1   
 44  18  21  ar  
 45  19  22  ar  
 46  19  49  1   
 47  20  50  1   
 48  20  51  1   
 49  21  23  ar  
 50  21  52  1   
 51  22  23  ar  
 52  22  24  1   
 53  23  25  1   
 54  24  26  1   
 55  25  27  1   
 56  26  53  1   
 57  26  54  1   
 58  26  55  1   
 59  27  56  1   
 60  27  57  1   
 61  27  58  1   
@<TRIPOS>SUBSTRUCTURE
  1 ****   8 GROUP 4 **** **** 0

# MOE 2024.06 (io_trps.svl 2023.06)
