@<TRIPOS>MOLECULE
NONAME
53 55 1 0 0 
SMALL
USER_CHARGES


@<TRIPOS>ATOM
  1 O       -0.7930    -2.2050    -0.3360 O.2   1 <1>  -0.5700 
  2 C        0.3510    -2.5750    -0.4380 C.2   1 <1>   0.5690 
  3 N        0.9950    -2.7130    -1.6370 N.am  1 <1>  -0.6600 
  4 C        1.1280    -2.9150     0.8180 C.3   1 <1>  -0.0990 
  5 C        2.4040    -3.1810    -1.6840 C.3   1 <1>   0.1400 
  6 C        0.3300    -2.4500    -2.9410 C.3   1 <1>   0.0600 
  7 C        2.5370    -2.2980     0.7650 C.3   1 <1>  -0.0800 
  8 C        3.2350    -2.4600    -0.6060 C.3   1 <1>  -0.0800 
  9 C        3.4920    -2.8820     1.8150 C.3   1 <1>  -0.1600 
 10 C        4.5710    -3.1600    -0.3220 C.3   1 <1>  -0.1600 
 11 C        4.8620    -2.8400     1.1400 C.3   1 <1>   0.2200 
 12 N        5.8830    -3.7570     1.7330 N.am  1 <1>  -0.6600 
 13 C        7.1940    -3.3780     1.9430 C.2   1 <1>   0.5690 
 14 C        5.4600    -5.1550     2.0620 C.3   1 <1>   0.0600 
 15 O        7.9890    -4.1270     2.4620 O.2   1 <1>  -0.5700 
 16 C        7.7150    -1.9900     1.5680 C.3   1 <1>   0.1810 
 17 O        7.5360    -1.7170     0.1880 O.3   1 <1>  -0.3630 
 18 C        7.9980    -0.5230    -0.2320 C.ar  1 <1>   0.0820 
 19 C        9.2830    -0.3980    -0.7570 C.ar  1 <1>  -0.1440 
 20 C        7.1580     0.5740    -0.1320 C.ar  1 <1>  -0.1500 
 21 C        9.7260     0.8620    -1.1550 C.ar  1 <1>  -0.1440 
 22 C       10.1870    -1.6230    -0.8890 C.3   1 <1>  -0.0970 
 23 C        7.6010     1.8170    -0.5370 C.ar  1 <1>  -0.1500 
 24 C        8.8810     1.9570    -1.0430 C.ar  1 <1>  -0.1500 
 25 C       11.1240     1.0790    -1.7180 C.3   1 <1>  -0.0970 
 26 H        0.5960    -2.5520     1.6790 H     1 <1>   0.0800 
 27 H        1.1840    -3.9860     0.8830 H     1 <1>   0.0800 
 28 H        2.4110    -4.2440    -1.5120 H     1 <1>   0.0800 
 29 H        2.8280    -2.9910    -2.6550 H     1 <1>   0.0800 
 30 H        0.8490    -1.6650    -3.4620 H     1 <1>   0.0800 
 31 H       -0.6910    -2.1450    -2.7890 H     1 <1>   0.0800 
 32 H        0.3370    -3.3430    -3.5400 H     1 <1>   0.0800 
 33 H        2.4370    -1.2400     0.9480 H     1 <1>   0.0800 
 34 H        3.4540    -1.4730    -0.9770 H     1 <1>   0.0800 
 35 H        3.2020    -3.8930     2.0330 H     1 <1>   0.0800 
 36 H        3.4840    -2.3050     2.7220 H     1 <1>   0.0800 
 37 H        5.3520    -2.7960    -0.9660 H     1 <1>   0.0800 
 38 H        4.4670    -4.2210    -0.4520 H     1 <1>   0.0800 
 39 H        5.2030    -1.8220     1.1930 H     1 <1>   0.0800 
 40 H        4.7840    -5.5340     1.3170 H     1 <1>   0.0800 
 41 H        4.9760    -5.1690     3.0220 H     1 <1>   0.0800 
 42 H        6.3130    -5.8120     2.1000 H     1 <1>   0.0800 
 43 H        8.7670    -1.9350     1.7830 H     1 <1>   0.0800 
 44 H        7.2000    -1.2400     2.1380 H     1 <1>   0.0800 
 45 H        6.1650     0.4530     0.2590 H     1 <1>   0.1500 
 46 H       10.6950    -1.6170    -1.8350 H     1 <1>   0.0800 
 47 H        9.6260    -2.5380    -0.8350 H     1 <1>   0.0800 
 48 H       10.9160    -1.6240    -0.1000 H     1 <1>   0.0800 
 49 H        6.9550     2.6750    -0.4620 H     1 <1>   0.1500 
 50 H        9.2150     2.9310    -1.3520 H     1 <1>   0.1500 
 51 H       11.3420     2.1270    -1.8170 H     1 <1>   0.0800 
 52 H       11.2030     0.6230    -2.6880 H     1 <1>   0.0800 
 53 H       11.8600     0.6470    -1.0640 H     1 <1>   0.0800 
@<TRIPOS>BOND
  1   1   2  2   
  2   2   3  am  
  3   2   4  1   
  4   3   5  1   
  5   3   6  1   
  6   4   7  1   
  7   4  26  1   
  8   4  27  1   
  9   5   8  1   
 10   5  28  1   
 11   5  29  1   
 12   6  30  1   
 13   6  31  1   
 14   6  32  1   
 15   7   8  1   
 16   7   9  1   
 17   7  33  1   
 18   8  10  1   
 19   8  34  1   
 20   9  11  1   
 21   9  35  1   
 22   9  36  1   
 23  10  11  1   
 24  10  37  1   
 25  10  38  1   
 26  11  12  1   
 27  11  39  1   
 28  12  13  am  
 29  12  14  1   
 30  13  15  2   
 31  13  16  1   
 32  14  40  1   
 33  14  41  1   
 34  14  42  1   
 35  16  17  1   
 36  16  43  1   
 37  16  44  1   
 38  17  18  1   
 39  18  19  ar  
 40  18  20  ar  
 41  19  21  ar  
 42  19  22  1   
 43  20  23  ar  
 44  20  45  1   
 45  21  24  ar  
 46  21  25  1   
 47  22  46  1   
 48  22  47  1   
 49  22  48  1   
 50  23  24  ar  
 51  23  49  1   
 52  24  50  1   
 53  25  51  1   
 54  25  52  1   
 55  25  53  1   
@<TRIPOS>SUBSTRUCTURE
  1 ****  10 GROUP 4 **** **** 0

# MOE 2024.06 (io_trps.svl 2023.06)
