@<TRIPOS>MOLECULE
NONAME
58 60 1 0 0 
SMALL
USER_CHARGES


@<TRIPOS>ATOM
  1 O       -0.5200    -0.1440     2.8870 O.2   1 <1>  -0.5700 
  2 C       -0.8960     0.6900     2.0970 C.2   1 <1>   0.5690 
  3 N       -1.7120     0.3310     1.0470 N.am  1 <1>  -0.6600 
  4 C       -0.4390     2.1280     2.3230 C.3   1 <1>   0.0440 
  5 C       -1.9470    -1.1040     0.7240 C.3   1 <1>   0.1400 
  6 C       -2.3950     1.2870     0.1290 C.3   1 <1>   0.1400 
  7 C        0.2910     2.7220     1.1210 C.ar  1 <1>  -0.1440 
  8 C       -3.4590    -1.4110     0.7280 C.3   1 <1>   0.4230 
  9 C       -3.9010     0.9950     0.1420 C.3   1 <1>  -0.1600 
 10 C       -0.0580     3.9700     0.6300 C.ar  1 <1>  -0.1500 
 11 C        1.3110     2.0170     0.5030 C.ar  1 <1>  -0.1500 
 12 N       -3.7850    -2.8910     0.5590 N.4   1 <1>  -0.9590 
 13 C       -4.2560    -0.4740    -0.2270 C.3   1 <1>   0.0000 
 14 C        0.5910     4.4950    -0.4740 C.ar  1 <1>  -0.1500 
 15 C        1.9580     2.5430    -0.6010 C.ar  1 <1>  -0.1500 
 16 C       -5.2000    -3.1640     0.1430 C.3   1 <1>   0.3430 
 17 C       -2.8400    -3.6640    -0.3140 C.3   1 <1>   0.2630 
 18 C       -5.7820    -0.6890    -0.0020 C.3   1 <1>  -0.1600 
 19 C       -3.8770    -0.7640    -1.7080 C.3   1 <1>   0.1200 
 20 C        1.6030     3.7860    -1.1040 C.ar  1 <1>  -0.1430 
 21 C       -6.1340    -2.0540     0.6210 C.3   1 <1>  -0.1600 
 22 O       -4.4190     0.1750    -2.5690 O.3   1 <1>  -0.6800 
 23 C        2.3020     4.3770    -2.3250 C.3   1 <1>   0.0630 
 24 C        2.0890     3.4910    -3.5570 C.3   1 <1>  -0.2400 
 25 C        3.7960     4.5840    -2.0550 C.3   1 <1>  -0.2400 
 26 H       -1.2960     2.7210     2.5770 H     1 <1>   0.0800 
 27 H        0.2270     2.1480     3.1660 H     1 <1>   0.0800 
 28 H       -1.5110    -1.3040    -0.2370 H     1 <1>   0.0800 
 29 H       -1.4600    -1.7320     1.4490 H     1 <1>   0.0800 
 30 H       -2.2390     2.3040     0.4400 H     1 <1>   0.0800 
 31 H       -1.9920     1.1870    -0.8660 H     1 <1>   0.0800 
 32 H       -3.7900    -1.1440     1.7190 H     1 <1>   0.0800 
 33 H       -4.2610     1.2230     1.1300 H     1 <1>   0.0800 
 34 H       -4.3880     1.6820    -0.5280 H     1 <1>   0.0800 
 35 H       -0.8370     4.5450     1.1000 H     1 <1>   0.1500 
 36 H        1.6080     1.0520     0.8760 H     1 <1>   0.1500 
 37 H       -3.6910    -3.2820     1.5090 H     1 <1>   0.4500 
 38 H        0.3020     5.4640    -0.8410 H     1 <1>   0.1500 
 39 H        2.7440     1.9760    -1.0660 H     1 <1>   0.1500 
 40 H       -5.2600    -3.2200    -0.9320 H     1 <1>   0.0800 
 41 H       -5.5240    -4.1120     0.5430 H     1 <1>   0.0800 
 42 H       -2.8500    -3.2770    -1.3190 H     1 <1>   0.0800 
 43 H       -3.1260    -4.7040    -0.3440 H     1 <1>   0.0800 
 44 H       -1.8350    -3.6040     0.0700 H     1 <1>   0.0800 
 45 H       -6.1800     0.0710     0.6500 H     1 <1>   0.0800 
 46 H       -6.3120    -0.5850    -0.9330 H     1 <1>   0.0800 
 47 H       -4.2280    -1.7290    -2.0260 H     1 <1>   0.0800 
 48 H       -2.8120    -0.7260    -1.8550 H     1 <1>   0.0800 
 49 H       -7.1480    -2.3080     0.3620 H     1 <1>   0.0800 
 50 H       -6.0910    -1.9950     1.6950 H     1 <1>   0.0800 
 51 H       -5.3960     0.1640    -2.5660 H     1 <1>   0.4000 
 52 H        1.8720     5.3410    -2.5370 H     1 <1>   0.0800 
 53 H        2.5480     2.5290    -3.4210 H     1 <1>   0.0800 
 54 H        2.5150     3.9550    -4.4280 H     1 <1>   0.0800 
 55 H        1.0360     3.3490    -3.7250 H     1 <1>   0.0800 
 56 H        4.2890     3.6440    -1.8860 H     1 <1>   0.0800 
 57 H        3.9270     5.2010    -1.1840 H     1 <1>   0.0800 
 58 H        4.2630     5.0710    -2.8930 H     1 <1>   0.0800 
@<TRIPOS>BOND
  1   1   2  2   
  2   2   3  am  
  3   2   4  1   
  4   3   5  1   
  5   3   6  1   
  6   4   7  1   
  7   4  26  1   
  8   4  27  1   
  9   5   8  1   
 10   5  28  1   
 11   5  29  1   
 12   6   9  1   
 13   6  30  1   
 14   6  31  1   
 15   7  10  ar  
 16   7  11  ar  
 17   8  12  1   
 18   8  13  1   
 19   8  32  1   
 20   9  13  1   
 21   9  33  1   
 22   9  34  1   
 23  10  14  ar  
 24  10  35  1   
 25  11  15  ar  
 26  11  36  1   
 27  12  16  1   
 28  12  17  1   
 29  12  37  1   
 30  13  18  1   
 31  13  19  1   
 32  14  20  ar  
 33  14  38  1   
 34  15  20  ar  
 35  15  39  1   
 36  16  21  1   
 37  16  40  1   
 38  16  41  1   
 39  17  42  1   
 40  17  43  1   
 41  17  44  1   
 42  18  21  1   
 43  18  45  1   
 44  18  46  1   
 45  19  22  1   
 46  19  47  1   
 47  19  48  1   
 48  20  23  1   
 49  21  49  1   
 50  21  50  1   
 51  22  51  1   
 52  23  24  1   
 53  23  25  1   
 54  23  52  1   
 55  24  53  1   
 56  24  54  1   
 57  24  55  1   
 58  25  56  1   
 59  25  57  1   
 60  25  58  1   
@<TRIPOS>SUBSTRUCTURE
  1 ****   6 GROUP 4 **** **** 0

# MOE 2024.06 (io_trps.svl 2023.06)
