@<TRIPOS>MOLECULE
NONAME
47 50 1 0 0 
SMALL
USER_CHARGES


@<TRIPOS>ATOM
  1 S        0.0730     0.1840     0.7080 S.3   1 <1>  -0.0800 
  2 C       -1.0200     1.3740     0.0050 C.2   1 <1>   0.4620 
  3 C        1.4250     1.0250     0.0060 C.2   1 <1>  -0.1100 
  4 N       -0.4070     2.2850    -0.6650 N.2   1 <1>  -0.5650 
  5 N       -2.3820     1.2690     0.2040 N.pl3 1 <1>  -0.8220 
  6 C        0.9640     2.0900    -0.6680 C.2   1 <1>   0.0460 
  7 C       -3.3250     2.2450    -0.4290 C.3   1 <1>   0.2090 
  8 C       -3.0390     0.2990     1.1220 C.3   1 <1>   0.2090 
  9 C        1.7990     3.1030    -1.4410 C.3   1 <1>   0.3010 
 10 C       -4.0790     3.0520     0.6440 C.3   1 <1>   0.1440 
 11 C       -3.7910     1.0640     2.2180 C.3   1 <1>  -0.1600 
 12 O        3.1370     3.0120    -1.0770 O.3   1 <1>  -0.6800 
 13 C       -5.0570     3.9780    -0.0530 C.ar  1 <1>   0.1670 
 14 C       -4.7790     2.0890     1.6300 C.3   1 <1>  -0.1600 
 15 C       -3.1380     4.0500     1.3720 C.3   1 <1>  -0.1600 
 16 N       -6.1780     3.6100    -0.6220 N.ar  1 <1>  -0.6200 
 17 C       -4.6220     5.2680    -0.0370 C.ar  1 <1>  -0.1430 
 18 C       -3.2950     5.4070     0.6650 C.3   1 <1>  -0.0170 
 19 C       -6.8850     4.5960    -1.1810 C.ar  1 <1>   0.7200 
 20 C       -5.4120     6.2140    -0.6400 C.ar  1 <1>   0.1600 
 21 N       -6.5460     5.8900    -1.2130 N.ar  1 <1>  -0.6200 
 22 N       -8.0770     4.2450    -1.7840 N.pl3 1 <1>  -0.8380 
 23 C       -9.0950     5.2600    -2.1720 C.3   1 <1>   0.1290 
 24 C       -8.4220     2.8300    -2.0920 C.3   1 <1>   0.1290 
 25 H        2.4100     0.6280     0.1680 H     1 <1>   0.1500 
 26 H       -4.0350     1.7020    -1.0280 H     1 <1>   0.0800 
 27 H       -2.7970     2.9170    -1.0830 H     1 <1>   0.0800 
 28 H       -2.3250    -0.3650     1.5750 H     1 <1>   0.0800 
 29 H       -3.7320    -0.2990     0.5550 H     1 <1>   0.0800 
 30 H        1.4620     4.1010    -1.2250 H     1 <1>   0.0800 
 31 H        1.7200     2.9230    -2.4990 H     1 <1>   0.0800 
 32 H       -3.0720     1.5620     2.8450 H     1 <1>   0.0800 
 33 H       -4.3270     0.3620     2.8320 H     1 <1>   0.0800 
 34 H        3.2170     3.1420    -0.1130 H     1 <1>   0.4000 
 35 H       -5.5530     1.5580     1.1030 H     1 <1>   0.0800 
 36 H       -5.2530     2.6460     2.4190 H     1 <1>   0.0800 
 37 H       -2.1130     3.7220     1.3740 H     1 <1>   0.0800 
 38 H       -3.4570     4.1660     2.3920 H     1 <1>   0.0800 
 39 H       -2.5130     5.5460    -0.0620 H     1 <1>   0.0800 
 40 H       -3.2940     6.2220     1.3670 H     1 <1>   0.0800 
 41 H       -5.1100     7.2470    -0.6530 H     1 <1>   0.1500 
 42 H       -9.0410     6.1170    -1.5220 H     1 <1>   0.0800 
 43 H      -10.0830     4.8420    -2.0970 H     1 <1>   0.0800 
 44 H       -8.9170     5.5780    -3.1840 H     1 <1>   0.0800 
 45 H       -7.5290     2.2560    -2.2740 H     1 <1>   0.0800 
 46 H       -9.0400     2.7810    -2.9710 H     1 <1>   0.0800 
 47 H       -8.9500     2.4000    -1.2590 H     1 <1>   0.0800 
@<TRIPOS>BOND
  1   1   2  1   
  2   1   3  1   
  3   2   4  2   
  4   2   5  1   
  5   3   6  2   
  6   3  25  1   
  7   4   6  1   
  8   5   7  1   
  9   5   8  1   
 10   6   9  1   
 11   7  10  1   
 12   7  26  1   
 13   7  27  1   
 14   8  11  1   
 15   8  28  1   
 16   8  29  1   
 17   9  12  1   
 18   9  30  1   
 19   9  31  1   
 20  10  13  1   
 21  10  14  1   
 22  10  15  1   
 23  11  14  1   
 24  11  32  1   
 25  11  33  1   
 26  12  34  1   
 27  13  16  ar  
 28  13  17  ar  
 29  14  35  1   
 30  14  36  1   
 31  15  18  1   
 32  15  37  1   
 33  15  38  1   
 34  16  19  ar  
 35  17  18  1   
 36  17  20  ar  
 37  18  39  1   
 38  18  40  1   
 39  19  21  ar  
 40  19  22  1   
 41  20  21  ar  
 42  20  41  1   
 43  22  23  1   
 44  22  24  1   
 45  23  42  1   
 46  23  43  1   
 47  23  44  1   
 48  24  45  1   
 49  24  46  1   
 50  24  47  1   
@<TRIPOS>SUBSTRUCTURE
  1 ****   7 GROUP 4 **** **** 0

# MOE 2024.06 (io_trps.svl 2023.06)
