@<TRIPOS>MOLECULE
NONAME
49 50 1 0 0 
SMALL
USER_CHARGES


@<TRIPOS>ATOM
  1 S        1.0470     0.1350     0.5130 S.o2  1 <1>   1.3330 
  2 O        1.8110     0.0980     1.7400 O.2   1 <1>  -0.6500 
  3 O        1.7170    -0.0280    -0.7570 O.2   1 <1>  -0.6500 
  4 N       -0.1770    -1.0380     0.6090 N.am  1 <1>  -0.8490 
  5 C        0.1240     1.6690     0.4910 C.3   1 <1>  -0.0550 
  6 C       -0.7470    -1.3950    -0.6950 C.3   1 <1>   0.1160 
  7 C        0.2670    -2.2490     1.3070 C.3   1 <1>   0.1160 
  8 C        1.0200     2.9190     0.5210 C.3   1 <1>  -0.0800 
  9 C        0.2080     4.2100     0.5760 C.3   1 <1>   0.2000 
 10 C        1.9050     3.0950    -0.7160 C.3   1 <1>   0.1400 
 11 O       -0.1760     4.4750     1.8800 O.3   1 <1>  -0.6800 
 12 C        1.1300     5.2930     0.0220 C.3   1 <1>   0.1400 
 13 N        2.0760     4.5610    -0.8580 N.am  1 <1>  -0.6600 
 14 C        3.0550     5.1140    -1.6430 C.2   1 <1>   0.5690 
 15 O        3.7800     4.4230    -2.3190 O.2   1 <1>  -0.5700 
 16 C        3.2340     6.6240    -1.7330 C.3   1 <1>   0.1310 
 17 S        3.8180     7.3350    -0.1180 S.3   1 <1>  -0.3310 
 18 C        3.8880     9.1230    -0.3370 C.ar  1 <1>   0.1010 
 19 C        4.1720     9.8820     0.7820 C.ar  1 <1>  -0.1500 
 20 C        3.6680     9.7240    -1.5670 C.ar  1 <1>  -0.1500 
 21 C        4.2350    11.2620     0.6850 C.ar  1 <1>   0.0820 
 22 C        3.7310    11.1040    -1.6660 C.ar  1 <1>  -0.1500 
 23 O        4.5170    11.9430     1.8240 O.3   1 <1>  -0.3620 
 24 C        4.0120    11.8720    -0.5480 C.ar  1 <1>  -0.1500 
 25 C        4.6230    13.3490     1.8330 C.3   1 <1>   0.0400 
 26 H       -0.5010     1.6980    -0.3790 H     1 <1>   0.0800 
 27 H       -0.5160     1.6920     1.3530 H     1 <1>   0.0800 
 28 H       -1.5750    -2.0710    -0.5640 H     1 <1>   0.0800 
 29 H       -0.0020    -1.8680    -1.3150 H     1 <1>   0.0800 
 30 H       -1.1050    -0.5140    -1.1980 H     1 <1>   0.0800 
 31 H       -0.5360    -2.9630     1.3630 H     1 <1>   0.0800 
 32 H        0.5700    -2.0050     2.3120 H     1 <1>   0.0800 
 33 H        1.1030    -2.6930     0.7920 H     1 <1>   0.0800 
 34 H        1.6730     2.8710     1.3760 H     1 <1>   0.0800 
 35 H       -0.6790     4.1420    -0.0310 H     1 <1>   0.0800 
 36 H        1.4240     2.7120    -1.6000 H     1 <1>   0.0800 
 37 H        2.8600     2.6080    -0.5940 H     1 <1>   0.0800 
 38 H        0.6070     4.5400     2.4620 H     1 <1>   0.4000 
 39 H        1.6780     5.7660     0.8190 H     1 <1>   0.0800 
 40 H        0.5730     6.0240    -0.5380 H     1 <1>   0.0800 
 41 H        2.3040     7.0990    -1.9800 H     1 <1>   0.0800 
 42 H        3.9800     6.8600    -2.4690 H     1 <1>   0.0800 
 43 H        4.3450     9.4060     1.7290 H     1 <1>   0.1500 
 44 H        3.4550     9.1480    -2.4450 H     1 <1>   0.1500 
 45 H        3.5620    11.5830    -2.6160 H     1 <1>   0.1500 
 46 H        4.0540    12.9390    -0.6550 H     1 <1>   0.1500 
 47 H        4.8570    13.6590     2.8350 H     1 <1>   0.0800 
 48 H        3.6810    13.7720     1.5300 H     1 <1>   0.0800 
 49 H        5.4130    13.6440     1.1650 H     1 <1>   0.0800 
@<TRIPOS>BOND
  1   1   2  2   
  2   1   3  2   
  3   1   4  am  
  4   1   5  1   
  5   4   6  1   
  6   4   7  1   
  7   5   8  1   
  8   5  26  1   
  9   5  27  1   
 10   6  28  1   
 11   6  29  1   
 12   6  30  1   
 13   7  31  1   
 14   7  32  1   
 15   7  33  1   
 16   8   9  1   
 17   8  10  1   
 18   8  34  1   
 19   9  11  1   
 20   9  12  1   
 21   9  35  1   
 22  10  13  1   
 23  10  36  1   
 24  10  37  1   
 25  11  38  1   
 26  12  13  1   
 27  12  39  1   
 28  12  40  1   
 29  13  14  am  
 30  14  15  2   
 31  14  16  1   
 32  16  17  1   
 33  16  41  1   
 34  16  42  1   
 35  17  18  1   
 36  18  19  ar  
 37  18  20  ar  
 38  19  21  ar  
 39  19  43  1   
 40  20  22  ar  
 41  20  44  1   
 42  21  23  1   
 43  21  24  ar  
 44  22  24  ar  
 45  22  45  1   
 46  23  25  1   
 47  24  46  1   
 48  25  47  1   
 49  25  48  1   
 50  25  49  1   
@<TRIPOS>SUBSTRUCTURE
  1 ****  12 GROUP 4 **** **** 0

# MOE 2024.06 (io_trps.svl 2023.06)
