@<TRIPOS>MOLECULE
NONAME
60 63 1 0 0 
SMALL
USER_CHARGES


@<TRIPOS>ATOM
  1 O        0.3950    -0.6420    -1.9500 O.2   1 <1>  -0.5700 
  2 C        0.9160    -1.1200    -0.9600 C.2   1 <1>   0.5440 
  3 N        1.4410    -0.2810    -0.0140 N.am  1 <1>  -0.7300 
  4 C        1.0120    -2.5540    -0.8120 C.ar  1 <1>   0.0860 
  5 C        1.5220     1.2000    -0.1290 C.3   1 <1>   0.1400 
  6 C        0.0960    -3.2890    -0.0540 C.ar  1 <1>   0.0830 
  7 C        2.0340    -3.2460    -1.4600 C.ar  1 <1>  -0.1500 
  8 C        0.4690     1.9050     0.7470 C.3   1 <1>  -0.0800 
  9 O       -0.8910    -2.6080     0.5760 O.3   1 <1>  -0.3630 
 10 C        0.2080    -4.6800     0.0600 C.ar  1 <1>   0.0830 
 11 C        2.1500    -4.6180    -1.3570 C.ar  1 <1>  -0.1500 
 12 C       -0.9430     1.3660     0.4540 C.3   1 <1>  -0.1600 
 13 C        0.5190     3.4330     0.5230 C.3   1 <1>  -0.1600 
 14 C       -2.2320    -2.8970     0.2480 C.3   1 <1>   0.1200 
 15 O       -0.7020    -5.3470     0.8280 O.3   1 <1>  -0.3630 
 16 C        1.2410    -5.3360    -0.6000 C.ar  1 <1>  -0.1500 
 17 C       -2.0300     2.1570     1.1750 C.3   1 <1>   0.1400 
 18 C       -0.6210     4.1790     1.2350 C.3   1 <1>   0.1400 
 19 C       -2.9720    -1.5650     0.2740 C.3   1 <1>  -0.1600 
 20 C       -0.5460    -6.7140     1.1440 C.3   1 <1>   0.0400 
 21 N       -1.9130     3.5870     0.8090 N.am  1 <1>  -0.6600 
 22 C       -4.4740    -1.6640    -0.0230 C.3   1 <1>   0.0960 
 23 C       -2.8250     4.3100     0.0830 C.2   1 <1>   0.5690 
 24 N       -5.0610    -0.3160     0.1140 N.pl3 1 <1>   0.3140 
 25 O       -2.8550     5.5170     0.1330 O.2   1 <1>  -0.5700 
 26 C       -3.7850     3.6480    -0.8960 C.3   1 <1>  -0.0990 
 27 N       -5.7100     0.0870     1.2100 N.2   1 <1>  -0.4180 
 28 C       -4.7930     0.7410    -0.6530 C.2   1 <1>  -0.3020 
 29 C       -5.1590     3.2730    -0.3060 C.3   1 <1>   0.0210 
 30 N       -5.8520     1.3660     1.1530 N.2   1 <1>  -0.2270 
 31 C       -5.2700     1.7940     0.0290 C.2   1 <1>   0.0460 
 32 H        1.7470    -0.6830     0.8740 H     1 <1>   0.3700 
 33 H        1.3720     1.4820    -1.1590 H     1 <1>   0.0800 
 34 H        2.5090     1.5200     0.1560 H     1 <1>   0.0800 
 35 H        2.7380    -2.6910    -2.0560 H     1 <1>   0.1500 
 36 H        0.7010     1.7110     1.7800 H     1 <1>   0.0800 
 37 H        2.9470    -5.1310    -1.8680 H     1 <1>   0.1500 
 38 H       -0.9980     0.3450     0.7790 H     1 <1>   0.0800 
 39 H       -1.1350     1.3870    -0.6040 H     1 <1>   0.0800 
 40 H        0.4460     3.6460    -0.5290 H     1 <1>   0.0800 
 41 H        1.4600     3.8200     0.8690 H     1 <1>   0.0800 
 42 H       -2.6170    -3.5830     0.9820 H     1 <1>   0.0800 
 43 H       -2.2670    -3.3440    -0.7320 H     1 <1>   0.0800 
 44 H        1.3590    -6.4020    -0.5420 H     1 <1>   0.1500 
 45 H       -1.9070     2.0570     2.2400 H     1 <1>   0.0800 
 46 H       -2.9930     1.7700     0.9300 H     1 <1>   0.0800 
 47 H       -0.5840     5.2260     0.9830 H     1 <1>   0.0800 
 48 H       -0.5220     4.0870     2.3030 H     1 <1>   0.0800 
 49 H       -2.5170    -0.9260    -0.4620 H     1 <1>   0.0800 
 50 H       -2.8460    -1.1310     1.2510 H     1 <1>   0.0800 
 51 H       -1.3360    -6.9930     1.8180 H     1 <1>   0.0800 
 52 H        0.4080    -6.8560     1.6210 H     1 <1>   0.0800 
 53 H       -0.6160    -7.2930     0.2400 H     1 <1>   0.0800 
 54 H       -4.9560    -2.3210     0.6790 H     1 <1>   0.0800 
 55 H       -4.6470    -2.0210    -1.0220 H     1 <1>   0.0800 
 56 H       -3.3000     2.8050    -1.3470 H     1 <1>   0.0800 
 57 H       -3.9520     4.3570    -1.6860 H     1 <1>   0.0800 
 58 H       -4.2630     0.6810    -1.5840 H     1 <1>   0.1500 
 59 H       -5.9310     3.5060    -1.0170 H     1 <1>   0.0800 
 60 H       -5.3450     3.8610     0.5770 H     1 <1>   0.0800 
@<TRIPOS>BOND
  1   1   2  2   
  2   2   3  am  
  3   2   4  1   
  4   3   5  1   
  5   3  32  1   
  6   4   6  ar  
  7   4   7  ar  
  8   5   8  1   
  9   5  33  1   
 10   5  34  1   
 11   6   9  1   
 12   6  10  ar  
 13   7  11  ar  
 14   7  35  1   
 15   8  12  1   
 16   8  13  1   
 17   8  36  1   
 18   9  14  1   
 19  10  15  1   
 20  10  16  ar  
 21  11  16  ar  
 22  11  37  1   
 23  12  17  1   
 24  12  38  1   
 25  12  39  1   
 26  13  18  1   
 27  13  40  1   
 28  13  41  1   
 29  14  19  1   
 30  14  42  1   
 31  14  43  1   
 32  15  20  1   
 33  16  44  1   
 34  17  21  1   
 35  17  45  1   
 36  17  46  1   
 37  18  21  1   
 38  18  47  1   
 39  18  48  1   
 40  19  22  1   
 41  19  49  1   
 42  19  50  1   
 43  20  51  1   
 44  20  52  1   
 45  20  53  1   
 46  21  23  am  
 47  22  24  1   
 48  22  54  1   
 49  22  55  1   
 50  23  25  2   
 51  23  26  1   
 52  24  27  1   
 53  24  28  1   
 54  26  29  1   
 55  26  56  1   
 56  26  57  1   
 57  27  30  2   
 58  28  31  2   
 59  28  58  1   
 60  29  31  1   
 61  29  59  1   
 62  29  60  1   
 63  30  31  1   
@<TRIPOS>SUBSTRUCTURE
  1 ****  12 GROUP 4 **** **** 0

# MOE 2024.06 (io_trps.svl 2023.06)
