@<TRIPOS>MOLECULE
NONAME
49 52 1 0 0 
SMALL
USER_CHARGES


@<TRIPOS>ATOM
  1 O       -0.6520     0.2460     1.6280 O.2   1 <1>  -0.5700 
  2 C       -1.5590     0.8860     1.1330 C.2   1 <1>   0.5440 
  3 N       -2.6620     0.2100     0.6660 N.am  1 <1>  -0.6600 
  4 C       -1.4500     2.3280     1.0390 C.ar  1 <1>   0.0860 
  5 C       -3.7350     0.7830    -0.1880 C.3   1 <1>   0.1400 
  6 C       -2.7440    -1.2730     0.6620 C.3   1 <1>   0.1400 
  7 C       -0.4140     2.9260     0.3520 C.ar  1 <1>  -0.1500 
  8 C       -2.3960     3.1690     1.6560 C.ar  1 <1>  -0.1500 
  9 C       -4.7520    -0.3490    -0.3240 C.3   1 <1>   0.2000 
 10 C       -3.8880    -1.6140    -0.3000 C.3   1 <1>  -0.0800 
 11 C       -0.2930     4.3160     0.2320 C.ar  1 <1>   0.3100 
 12 C       -2.3030     4.5330     1.5610 C.ar  1 <1>  -0.1500 
 13 O       -5.5720    -0.3250     0.7940 O.3   1 <1>  -0.6800 
 14 C       -4.6330    -2.9160     0.0510 C.3   1 <1>  -0.0170 
 15 N        0.7440     4.8320    -0.4750 N.ar  1 <1>  -0.6200 
 16 C       -1.2600     5.1440     0.8490 C.ar  1 <1>   0.3100 
 17 C       -3.7040    -4.1160    -0.0450 C.ar  1 <1>  -0.1430 
 18 C        0.7690     6.1270    -0.5290 C.ar  1 <1>   0.1670 
 19 N       -1.2090     6.4950     0.7720 N.ar  1 <1>  -0.6200 
 20 C       -3.0670    -4.6410     1.0610 C.ar  1 <1>  -0.1500 
 21 C       -3.4470    -4.7400    -1.2490 C.ar  1 <1>  -0.1500 
 22 C       -0.2060     6.9570     0.0930 C.ar  1 <1>   0.1670 
 23 C        1.9190     6.7390    -1.3100 C.3   1 <1>  -0.0970 
 24 C       -2.2250    -5.7310     0.9140 C.ar  1 <1>   0.1600 
 25 C       -2.5880    -5.8260    -1.2880 C.ar  1 <1>   0.1600 
 26 C       -0.1120     8.4700    -0.0140 C.3   1 <1>  -0.0970 
 27 N       -1.9700    -6.3360    -0.2350 N.ar  1 <1>  -0.6200 
 28 H       -4.1800     1.6610     0.2460 H     1 <1>   0.0800 
 29 H       -3.3230     1.0250    -1.1530 H     1 <1>   0.0800 
 30 H       -1.8140    -1.7100     0.3360 H     1 <1>   0.0800 
 31 H       -2.9620    -1.6110     1.6610 H     1 <1>   0.0800 
 32 H        0.3390     2.3180    -0.1160 H     1 <1>   0.1500 
 33 H       -3.1970     2.7150     2.2150 H     1 <1>   0.1500 
 34 H       -5.3680    -0.2640    -1.2040 H     1 <1>   0.0800 
 35 H       -3.4560    -1.7290    -1.2780 H     1 <1>   0.0800 
 36 H       -3.0240     5.1760     2.0320 H     1 <1>   0.1500 
 37 H       -5.0070    -0.2810     1.5920 H     1 <1>   0.4000 
 38 H       -5.4570    -3.0490    -0.6280 H     1 <1>   0.0800 
 39 H       -5.0430    -2.8600     1.0440 H     1 <1>   0.0800 
 40 H       -3.2150    -4.2150     2.0370 H     1 <1>   0.1500 
 41 H       -3.9050    -4.3940    -2.1560 H     1 <1>   0.1500 
 42 H        1.5420     7.3170    -2.1330 H     1 <1>   0.0800 
 43 H        2.5560     5.9670    -1.7040 H     1 <1>   0.0800 
 44 H        2.5090     7.3670    -0.6690 H     1 <1>   0.0800 
 45 H       -1.7360    -6.1260     1.7880 H     1 <1>   0.1500 
 46 H       -2.4000    -6.3010    -2.2350 H     1 <1>   0.1500 
 47 H        0.8060     8.8160     0.4220 H     1 <1>   0.0800 
 48 H       -0.9290     8.9330     0.5110 H     1 <1>   0.0800 
 49 H       -0.1590     8.7730    -1.0430 H     1 <1>   0.0800 
@<TRIPOS>BOND
  1   1   2  2   
  2   2   3  am  
  3   2   4  1   
  4   3   5  1   
  5   3   6  1   
  6   4   7  ar  
  7   4   8  ar  
  8   5   9  1   
  9   5  28  1   
 10   5  29  1   
 11   6  10  1   
 12   6  30  1   
 13   6  31  1   
 14   7  11  ar  
 15   7  32  1   
 16   8  12  ar  
 17   8  33  1   
 18   9  10  1   
 19   9  13  1   
 20   9  34  1   
 21  10  14  1   
 22  10  35  1   
 23  11  15  ar  
 24  11  16  ar  
 25  12  16  ar  
 26  12  36  1   
 27  13  37  1   
 28  14  17  1   
 29  14  38  1   
 30  14  39  1   
 31  15  18  ar  
 32  16  19  ar  
 33  17  20  ar  
 34  17  21  ar  
 35  18  22  ar  
 36  18  23  1   
 37  19  22  ar  
 38  20  24  ar  
 39  20  40  1   
 40  21  25  ar  
 41  21  41  1   
 42  22  26  1   
 43  23  42  1   
 44  23  43  1   
 45  23  44  1   
 46  24  27  ar  
 47  24  45  1   
 48  25  27  ar  
 49  25  46  1   
 50  26  47  1   
 51  26  48  1   
 52  26  49  1   
@<TRIPOS>SUBSTRUCTURE
  1 ****   2 GROUP 4 **** **** 0

# MOE 2024.06 (io_trps.svl 2023.06)
