@<TRIPOS>MOLECULE
NONAME
50 52 1 0 0 
SMALL
USER_CHARGES


@<TRIPOS>ATOM
  1 F       -1.0000    -0.1530     1.6560 F     1 <1>  -0.1900 
  2 C       -0.9250    -1.3850     1.2330 C.ar  1 <1>   0.1900 
  3 C       -1.7000    -1.7640     0.1560 C.ar  1 <1>  -0.1500 
  4 C       -0.0780    -2.2620     1.8750 C.ar  1 <1>  -0.1500 
  5 C       -1.6330    -3.0750    -0.2990 C.ar  1 <1>  -0.1440 
  6 C       -0.0080    -3.5650     1.4140 C.ar  1 <1>  -0.1500 
  7 C       -0.7770    -3.9790     0.3330 C.ar  1 <1>  -0.1430 
  8 C       -2.5090    -3.4840    -1.4720 C.3   1 <1>   0.4870 
  9 C       -0.6460    -5.4240    -0.1330 C.3   1 <1>  -0.0970 
 10 N       -3.9300    -3.4220    -1.0470 N.4   1 <1>  -0.9590 
 11 C       -4.2430    -4.2930     0.1220 C.3   1 <1>   0.3430 
 12 C       -4.9090    -3.5920    -2.1440 C.3   1 <1>   0.3430 
 13 C       -5.7330    -4.2160     0.4750 C.3   1 <1>  -0.1600 
 14 C       -6.2760    -3.0670    -1.6890 C.3   1 <1>  -0.1600 
 15 C       -6.4540    -3.0090    -0.1530 C.3   1 <1>   0.2800 
 16 O       -5.7410    -1.8590     0.2700 O.3   1 <1>  -0.5600 
 17 C       -7.9460    -2.9730     0.2970 C.3   1 <1>   0.2000 
 18 C       -6.4190    -0.8580     0.9830 C.3   1 <1>   0.1200 
 19 O       -8.6670    -4.0440    -0.2400 O.3   1 <1>  -0.6800 
 20 C       -8.6480    -1.6070     0.0370 C.3   1 <1>   0.2800 
 21 C       -7.6600    -0.4370     0.1930 C.3   1 <1>  -0.1600 
 22 O       -9.6070    -1.4720     1.0210 O.3   1 <1>  -0.6800 
 23 C       -9.4120    -1.4950    -1.2900 C.3   1 <1>  -0.2400 
 24 H       -2.3370    -1.0290    -0.3040 H     1 <1>   0.1500 
 25 H        0.5130    -1.9310     2.7100 H     1 <1>   0.1500 
 26 H        0.6580    -4.2530     1.9090 H     1 <1>   0.1500 
 27 H       -2.2640    -4.4810    -1.7980 H     1 <1>   0.0800 
 28 H       -2.3400    -2.8060    -2.2920 H     1 <1>   0.0800 
 29 H        0.0630    -5.9600     0.4730 H     1 <1>   0.0800 
 30 H       -0.2970    -5.4580    -1.1500 H     1 <1>   0.0800 
 31 H       -1.5890    -5.9340    -0.0630 H     1 <1>   0.0800 
 32 H       -4.1080    -2.4710    -0.6740 H     1 <1>   0.4500 
 33 H       -3.9730    -5.3150    -0.0870 H     1 <1>   0.0800 
 34 H       -3.6660    -3.9610     0.9710 H     1 <1>   0.0800 
 35 H       -4.5930    -3.0520    -3.0230 H     1 <1>   0.0800 
 36 H       -4.9880    -4.6380    -2.3950 H     1 <1>   0.0800 
 37 H       -5.8410    -4.1940     1.5450 H     1 <1>   0.0800 
 38 H       -6.2090    -5.1200     0.1380 H     1 <1>   0.0800 
 39 H       -7.0180    -3.7110    -2.1240 H     1 <1>   0.0800 
 40 H       -6.4350    -2.0900    -2.1060 H     1 <1>   0.0800 
 41 H       -7.9460    -3.1320     1.3620 H     1 <1>   0.0800 
 42 H       -6.6790    -1.2350     1.9590 H     1 <1>   0.0800 
 43 H       -5.7460    -0.0260     1.1020 H     1 <1>   0.0800 
 44 H       -9.5890    -3.9910     0.0920 H     1 <1>   0.4000 
 45 H       -7.3270    -0.1000    -0.7720 H     1 <1>   0.0800 
 46 H       -8.1320     0.4000     0.6750 H     1 <1>   0.0800 
 47 H      -10.1530    -0.6820     0.8460 H     1 <1>   0.4000 
 48 H       -8.7520    -1.6570    -2.1200 H     1 <1>   0.0800 
 49 H       -9.8450    -0.5170    -1.3980 H     1 <1>   0.0800 
 50 H      -10.1970    -2.2290    -1.3450 H     1 <1>   0.0800 
@<TRIPOS>BOND
  1   1   2  1   
  2   2   3  ar  
  3   2   4  ar  
  4   3   5  ar  
  5   3  24  1   
  6   4   6  ar  
  7   4  25  1   
  8   5   7  ar  
  9   5   8  1   
 10   6   7  ar  
 11   6  26  1   
 12   7   9  1   
 13   8  10  1   
 14   8  27  1   
 15   8  28  1   
 16   9  29  1   
 17   9  30  1   
 18   9  31  1   
 19  10  11  1   
 20  10  12  1   
 21  10  32  1   
 22  11  13  1   
 23  11  33  1   
 24  11  34  1   
 25  12  14  1   
 26  12  35  1   
 27  12  36  1   
 28  13  15  1   
 29  13  37  1   
 30  13  38  1   
 31  14  15  1   
 32  14  39  1   
 33  14  40  1   
 34  15  16  1   
 35  15  17  1   
 36  16  18  1   
 37  17  19  1   
 38  17  20  1   
 39  17  41  1   
 40  18  21  1   
 41  18  42  1   
 42  18  43  1   
 43  19  44  1   
 44  20  21  1   
 45  20  22  1   
 46  20  23  1   
 47  21  45  1   
 48  21  46  1   
 49  22  47  1   
 50  23  48  1   
 51  23  49  1   
 52  23  50  1   
@<TRIPOS>SUBSTRUCTURE
  1 ****  16 GROUP 4 **** **** 0

# MOE 2024.06 (io_trps.svl 2023.06)
