@<TRIPOS>MOLECULE
NONAME
45 47 1 0 0 
SMALL
USER_CHARGES


@<TRIPOS>ATOM
  1 CL      -1.5110     0.6790     1.6030 Cl    1 <1>  -0.1770 
  2 C       -0.6980     2.0680     0.9350 C.ar  1 <1>   0.1770 
  3 C       -1.2870     3.3130     1.0290 C.ar  1 <1>  -0.1500 
  4 C        0.5240     1.9080     0.3160 C.ar  1 <1>  -0.1500 
  5 C       -0.6490     4.4270     0.5040 C.ar  1 <1>  -0.1440 
  6 C        1.1630     3.0180    -0.2040 C.ar  1 <1>  -0.1500 
  7 C        0.6070     4.2980    -0.1140 C.ar  1 <1>   0.0860 
  8 C       -1.3630     5.7700     0.6050 C.3   1 <1>  -0.0960 
  9 C        1.3580     5.4220    -0.6520 C.2   1 <1>   0.5440 
 10 O        1.9260     5.3380    -1.7260 O.2   1 <1>  -0.5700 
 11 N        1.5760     6.5670     0.0730 N.am  1 <1>  -0.6600 
 12 C        2.3960     6.4170     1.3270 C.3   1 <1>   0.2200 
 13 C        1.5950     7.8890    -0.6380 C.3   1 <1>   0.1400 
 14 C        2.1760     7.5670     2.3230 C.3   1 <1>   0.1200 
 15 C        3.8990     6.2380     0.9850 C.3   1 <1>   0.3430 
 16 C        2.8160     8.7820    -0.3430 C.3   1 <1>  -0.0800 
 17 O        3.0410     8.6300     2.0690 O.3   1 <1>  -0.5600 
 18 N        4.2220     6.6540    -0.4260 N.4   1 <1>  -0.9590 
 19 C        2.7050     9.4780     1.0230 C.3   1 <1>   0.1200 
 20 C        4.2020     8.1400    -0.5700 C.3   1 <1>   0.3430 
 21 C        5.6050     6.1390    -0.7880 C.3   1 <1>   0.2370 
 22 C        6.7230     6.6200     0.1430 C.2   1 <1>   0.9060 
 23 O        7.2720     7.6940    -0.1200 O.co2 1 <1>  -0.9000 
 24 O        6.9260     5.9770     1.1770 O.co2 1 <1>  -0.9000 
 25 H       -2.2460     3.3930     1.5100 H     1 <1>   0.1500 
 26 H        0.9620     0.9280     0.2430 H     1 <1>   0.1500 
 27 H        2.1140     2.8950    -0.6950 H     1 <1>   0.1500 
 28 H       -2.4040     5.6370     0.8440 H     1 <1>   0.0800 
 29 H       -1.3050     6.2970    -0.3310 H     1 <1>   0.0800 
 30 H       -0.9140     6.3720     1.3750 H     1 <1>   0.0800 
 31 H        2.0720     5.5230     1.8300 H     1 <1>   0.0800 
 32 H        1.5480     7.7220    -1.7020 H     1 <1>   0.0800 
 33 H        0.6980     8.4230    -0.3740 H     1 <1>   0.0800 
 34 H        2.4150     7.2190     3.3130 H     1 <1>   0.0800 
 35 H        1.1570     7.9110     2.3210 H     1 <1>   0.0800 
 36 H        4.1560     5.2000     1.1100 H     1 <1>   0.0800 
 37 H        4.5070     6.7940     1.6820 H     1 <1>   0.0800 
 38 H        2.7580     9.5880    -1.0520 H     1 <1>   0.0800 
 39 H        3.4960     6.2430    -1.0460 H     1 <1>   0.4500 
 40 H        1.7150     9.8660     1.1940 H     1 <1>   0.0800 
 41 H        3.3980    10.3020     1.0640 H     1 <1>   0.0800 
 42 H        4.9160     8.5760     0.1140 H     1 <1>   0.0800 
 43 H        4.5320     8.3850    -1.5660 H     1 <1>   0.0800 
 44 H        5.6110     5.0650    -0.7570 H     1 <1>   0.0800 
 45 H        5.8620     6.4500    -1.7830 H     1 <1>   0.0800 
@<TRIPOS>BOND
  1   1   2  1   
  2   2   3  ar  
  3   2   4  ar  
  4   3   5  ar  
  5   3  25  1   
  6   4   6  ar  
  7   4  26  1   
  8   5   7  ar  
  9   5   8  1   
 10   6   7  ar  
 11   6  27  1   
 12   7   9  1   
 13   8  28  1   
 14   8  29  1   
 15   8  30  1   
 16   9  10  2   
 17   9  11  am  
 18  11  12  1   
 19  11  13  1   
 20  12  14  1   
 21  12  15  1   
 22  12  31  1   
 23  13  16  1   
 24  13  32  1   
 25  13  33  1   
 26  14  17  1   
 27  14  34  1   
 28  14  35  1   
 29  15  18  1   
 30  15  36  1   
 31  15  37  1   
 32  16  19  1   
 33  16  20  1   
 34  16  38  1   
 35  17  19  1   
 36  18  20  1   
 37  18  21  1   
 38  18  39  1   
 39  19  40  1   
 40  19  41  1   
 41  20  42  1   
 42  20  43  1   
 43  21  22  1   
 44  21  44  1   
 45  21  45  1   
 46  22  23  ar  
 47  22  24  ar  
@<TRIPOS>SUBSTRUCTURE
  1 ****  11 GROUP 4 **** **** 0

# MOE 2024.06 (io_trps.svl 2023.06)
