@<TRIPOS>MOLECULE
NONAME
50 52 1 0 0 
SMALL
USER_CHARGES


@<TRIPOS>ATOM
  1 O        0.2350    -0.2930    -1.6370 O.2   1 <1>  -0.5700 
  2 C        0.9600    -0.7420    -0.7860 C.2   1 <1>   0.5690 
  3 N        1.7380     0.0380     0.0020 N.am  1 <1>  -0.7300 
  4 C        0.9840    -2.2330    -0.5750 C.3   1 <1>  -0.0990 
  5 C        1.7980     1.5120    -0.0630 C.3   1 <1>   0.2200 
  6 C       -0.3380    -2.6790     0.0510 C.3   1 <1>   0.0960 
  7 C        3.1580     1.9500    -0.6140 C.3   1 <1>  -0.0160 
  8 C        1.5720     2.0730     1.3400 C.3   1 <1>  -0.1600 
  9 N       -0.2970    -4.1230     0.3450 N.pl3 1 <1>   0.3140 
 10 C        3.4330     3.4340    -0.3960 C.ar  1 <1>  -0.1440 
 11 C        1.5270     3.6040     1.2900 C.3   1 <1>  -0.0160 
 12 N        0.3330    -4.5580     1.4430 N.2   1 <1>  -0.7070 
 13 C       -0.7930    -5.1450    -0.3780 C.2   1 <1>  -0.3320 
 14 C        2.6870     4.1960     0.4980 C.ar  1 <1>  -0.1440 
 15 C        4.4680     4.0270    -1.1030 C.ar  1 <1>  -0.1500 
 16 C        0.2200    -5.8430     1.4090 C.2   1 <1>   0.1080 
 17 C       -0.4950    -6.3040     0.2920 C.2   1 <1>  -0.0860 
 18 C       -1.5120    -4.9390    -1.7070 C.3   1 <1>  -0.0600 
 19 C        2.9890     5.5380     0.6700 C.ar  1 <1>  -0.1500 
 20 C        4.7640     5.3670    -0.9260 C.ar  1 <1>  -0.1500 
 21 C        0.8140    -6.7090     2.5000 C.3   1 <1>  -0.0590 
 22 C       -0.7960    -7.6880     0.0210 C.2   1 <1>   0.5950 
 23 C        4.0240     6.1230    -0.0380 C.ar  1 <1>  -0.1500 
 24 O       -0.1130    -8.6100     0.3900 O.2   1 <1>  -0.5700 
 25 C       -2.0510    -8.0510    -0.7420 C.3   1 <1>  -0.1790 
 26 H        2.3310    -0.3900     0.7140 H     1 <1>   0.3700 
 27 H        1.8020    -2.4990     0.0700 H     1 <1>   0.0800 
 28 H        1.1210    -2.7140    -1.5260 H     1 <1>   0.0800 
 29 H        1.0230     1.8790    -0.7160 H     1 <1>   0.0800 
 30 H       -1.1590    -2.4680    -0.6080 H     1 <1>   0.0800 
 31 H       -0.5010    -2.1560     0.9760 H     1 <1>   0.0800 
 32 H        3.1900     1.7300    -1.6660 H     1 <1>   0.0800 
 33 H        3.9390     1.3960    -0.1250 H     1 <1>   0.0800 
 34 H        2.3750     1.7670     1.9870 H     1 <1>   0.0800 
 35 H        0.6430     1.7060     1.7370 H     1 <1>   0.0800 
 36 H        1.5360     3.9910     2.2940 H     1 <1>   0.0800 
 37 H        0.6090     3.9160     0.8240 H     1 <1>   0.0800 
 38 H        5.0520     3.4460    -1.7950 H     1 <1>   0.1500 
 39 H       -0.9800    -4.2270    -2.3140 H     1 <1>   0.0800 
 40 H       -2.5090    -4.5700    -1.5350 H     1 <1>   0.0800 
 41 H       -1.5710    -5.8530    -2.2650 H     1 <1>   0.0800 
 42 H        2.4170     6.1370     1.3560 H     1 <1>   0.1500 
 43 H        5.5690     5.8180    -1.4790 H     1 <1>   0.1500 
 44 H        1.2050    -6.0930     3.2890 H     1 <1>   0.0800 
 45 H        1.6120    -7.3040     2.0960 H     1 <1>   0.0800 
 46 H        0.0610    -7.3580     2.9060 H     1 <1>   0.0800 
 47 H        4.2500     7.1660     0.1020 H     1 <1>   0.1500 
 48 H       -2.7940    -7.2850    -0.6270 H     1 <1>   0.0800 
 49 H       -2.4470    -8.9730    -0.3570 H     1 <1>   0.0800 
 50 H       -1.8150    -8.1830    -1.7800 H     1 <1>   0.0800 
@<TRIPOS>BOND
  1   1   2  2   
  2   2   3  am  
  3   2   4  1   
  4   3   5  1   
  5   3  26  1   
  6   4   6  1   
  7   4  27  1   
  8   4  28  1   
  9   5   7  1   
 10   5   8  1   
 11   5  29  1   
 12   6   9  1   
 13   6  30  1   
 14   6  31  1   
 15   7  10  1   
 16   7  32  1   
 17   7  33  1   
 18   8  11  1   
 19   8  34  1   
 20   8  35  1   
 21   9  12  1   
 22   9  13  1   
 23  10  14  ar  
 24  10  15  ar  
 25  11  14  1   
 26  11  36  1   
 27  11  37  1   
 28  12  16  2   
 29  13  17  2   
 30  13  18  1   
 31  14  19  ar  
 32  15  20  ar  
 33  15  38  1   
 34  16  17  1   
 35  16  21  1   
 36  17  22  1   
 37  18  39  1   
 38  18  40  1   
 39  18  41  1   
 40  19  23  ar  
 41  19  42  1   
 42  20  23  ar  
 43  20  43  1   
 44  21  44  1   
 45  21  45  1   
 46  21  46  1   
 47  22  24  2   
 48  22  25  1   
 49  23  47  1   
 50  25  48  1   
 51  25  49  1   
 52  25  50  1   
@<TRIPOS>SUBSTRUCTURE
  1 ****   2 GROUP 4 **** **** 0

# MOE 2024.06 (io_trps.svl 2023.06)
