@<TRIPOS>MOLECULE
NONAME
46 48 1 0 0 
SMALL
USER_CHARGES


@<TRIPOS>ATOM
  1 F       -2.1640     3.1050    -1.9900 F     1 <1>  -0.3400 
  2 C       -3.0660     2.1460    -2.1810 C.3   1 <1>   1.1640 
  3 F       -3.8580     2.5680    -3.1620 F     1 <1>  -0.3400 
  4 F       -2.3920     1.1140    -2.6860 F     1 <1>  -0.3400 
  5 C       -3.8470     1.7830    -0.8910 C.ar  1 <1>   0.1660 
  6 N       -4.5980     2.7030    -0.2950 N.ar  1 <1>  -0.6200 
  7 C       -3.7760     0.5150    -0.3650 C.ar  1 <1>  -0.1500 
  8 C       -5.2390     2.3430     0.8120 C.ar  1 <1>   0.7200 
  9 C       -4.4950     0.2470     0.7780 C.ar  1 <1>   0.4100 
 10 N       -5.2060     1.1510     1.3870 N.ar  1 <1>  -0.6200 
 11 N       -6.0410     3.2980     1.4060 N.pl3 1 <1>  -0.8380 
 12 N       -4.5470    -0.9940     1.3290 N.pl3 1 <1>  -0.8690 
 13 C       -6.3900     4.5750     0.7210 C.3   1 <1>   0.1290 
 14 C       -6.4520     3.2030     2.8360 C.3   1 <1>   0.1290 
 15 C       -5.3410    -2.0310     0.6250 C.3   1 <1>   0.2890 
 16 C       -6.8250    -1.6780     0.6170 C.3   1 <1>  -0.0800 
 17 C       -5.3110    -3.3790     1.3330 C.3   1 <1>   0.1200 
 18 C       -7.5260    -2.9890     0.9860 C.3   1 <1>   0.1200 
 19 C       -7.2770    -1.0960    -0.7330 C.3   1 <1>  -0.0170 
 20 O       -6.5360    -3.9670     1.0330 O.3   1 <1>  -0.5600 
 21 C       -8.6420    -0.4430    -0.6100 C.ar  1 <1>  -0.1430 
 22 C       -9.8040    -1.0510    -1.0370 C.ar  1 <1>  -0.1500 
 23 C       -8.7770     0.8140    -0.0560 C.ar  1 <1>  -0.1500 
 24 C      -11.0130    -0.3900    -0.8910 C.ar  1 <1>   0.1600 
 25 C      -10.0320     1.3870     0.0430 C.ar  1 <1>   0.1600 
 26 N      -11.1550     0.8150    -0.3610 N.ar  1 <1>  -0.6200 
 27 H       -3.1900    -0.2700    -0.8030 H     1 <1>   0.1500 
 28 H       -4.8570    -0.9140     2.3010 H     1 <1>   0.4000 
 29 H       -7.3330     4.9450     1.0840 H     1 <1>   0.0800 
 30 H       -6.4720     4.4230    -0.3410 H     1 <1>   0.0800 
 31 H       -5.6240     5.3070     0.9110 H     1 <1>   0.0800 
 32 H       -6.4520     4.1790     3.2880 H     1 <1>   0.0800 
 33 H       -5.7700     2.5780     3.3870 H     1 <1>   0.0800 
 34 H       -7.4400     2.7820     2.9000 H     1 <1>   0.0800 
 35 H       -4.9700    -2.1640    -0.3780 H     1 <1>   0.0800 
 36 H       -7.0390    -0.9660     1.3950 H     1 <1>   0.0800 
 37 H       -5.2500    -3.2610     2.4000 H     1 <1>   0.0800 
 38 H       -4.5190    -4.0110     0.9730 H     1 <1>   0.0800 
 39 H       -8.2670    -3.2860     0.2640 H     1 <1>   0.0800 
 40 H       -7.9780    -2.9220     1.9610 H     1 <1>   0.0800 
 41 H       -7.2930    -1.8650    -1.4860 H     1 <1>   0.0800 
 42 H       -6.5790    -0.3430    -1.0540 H     1 <1>   0.0800 
 43 H       -9.7840    -2.0290    -1.4810 H     1 <1>   0.1500 
 44 H       -7.9160     1.3540     0.3000 H     1 <1>   0.1500 
 45 H      -11.9110    -0.8770    -1.2290 H     1 <1>   0.1500 
 46 H      -10.1150     2.3690     0.4760 H     1 <1>   0.1500 
@<TRIPOS>BOND
  1   1   2  1   
  2   2   3  1   
  3   2   4  1   
  4   2   5  1   
  5   5   6  ar  
  6   5   7  ar  
  7   6   8  ar  
  8   7   9  ar  
  9   7  27  1   
 10   8  10  ar  
 11   8  11  1   
 12   9  10  ar  
 13   9  12  1   
 14  11  13  1   
 15  11  14  1   
 16  12  15  1   
 17  12  28  1   
 18  13  29  1   
 19  13  30  1   
 20  13  31  1   
 21  14  32  1   
 22  14  33  1   
 23  14  34  1   
 24  15  16  1   
 25  15  17  1   
 26  15  35  1   
 27  16  18  1   
 28  16  19  1   
 29  16  36  1   
 30  17  20  1   
 31  17  37  1   
 32  17  38  1   
 33  18  20  1   
 34  18  39  1   
 35  18  40  1   
 36  19  21  1   
 37  19  41  1   
 38  19  42  1   
 39  21  22  ar  
 40  21  23  ar  
 41  22  24  ar  
 42  22  43  1   
 43  23  25  ar  
 44  23  44  1   
 45  24  26  ar  
 46  24  45  1   
 47  25  26  ar  
 48  25  46  1   
@<TRIPOS>SUBSTRUCTURE
  1 ****  10 GROUP 4 **** **** 0

# MOE 2024.06 (io_trps.svl 2023.06)
