@<TRIPOS>MOLECULE
NONAME
46 49 1 0 0 
SMALL
USER_CHARGES


@<TRIPOS>ATOM
  1 F       -0.5890     0.1710    -0.7970 F     1 <1>  -0.1370 
  2 C       -1.7510     0.5240    -0.3060 C.2   1 <1>  -0.0150 
  3 N       -2.0420     1.8100    -0.1090 N.pl3 1 <1>   0.3340 
  4 C       -2.7920    -0.2790     0.0560 C.2   1 <1>   0.1410 
  5 C       -3.3230     1.7590     0.3900 C.2   1 <1>   0.1410 
  6 C       -1.3790     3.0180    -0.2970 C.2   1 <1>  -0.1810 
  7 N       -3.7960     0.5370     0.4990 N.2   1 <1>  -0.5650 
  8 C       -2.8350    -1.7370    -0.0010 C.2   1 <1>   0.7160 
  9 C       -3.9640     2.9820     0.7160 C.2   1 <1>  -0.1050 
 10 C       -1.9930     4.1900     0.0150 C.2   1 <1>  -0.1380 
 11 O       -1.7980    -2.3700    -0.1110 O.2   1 <1>  -0.5700 
 12 N       -4.0080    -2.4690     0.0530 N.am  1 <1>  -0.6600 
 13 C       -3.3180     4.1670     0.5340 C.2   1 <1>  -0.1500 
 14 C       -1.3140     5.5340    -0.1710 C.3   1 <1>  -0.1020 
 15 C       -5.3870    -1.9220     0.0140 C.3   1 <1>   0.1400 
 16 C       -4.0330    -3.9530     0.0350 C.3   1 <1>   0.1400 
 17 C       -6.2810    -3.1300    -0.2600 C.3   1 <1>   0.2000 
 18 C       -5.4970    -4.3350     0.2550 C.3   1 <1>  -0.0800 
 19 O       -7.4960    -3.0310     0.3980 O.3   1 <1>  -0.6800 
 20 C       -5.9000    -5.6520    -0.4260 C.3   1 <1>   0.0210 
 21 C       -5.0310    -6.8000     0.0480 C.2   1 <1>   0.1080 
 22 N       -5.0440    -7.2350     1.2690 N.2   1 <1>  -0.7070 
 23 C       -4.1310    -7.4990    -0.7500 C.2   1 <1>  -0.1500 
 24 N       -4.1440    -8.2360     1.2830 N.pl3 1 <1>   0.3000 
 25 C       -3.5760    -8.4140     0.0720 C.2   1 <1>  -0.3320 
 26 C       -2.5220    -9.4640    -0.2290 C.3   1 <1>  -0.0600 
 27 H       -0.3820     2.9530    -0.6930 H     1 <1>   0.1500 
 28 H       -4.9640     2.9270     1.1070 H     1 <1>   0.1500 
 29 H       -3.7920     5.1030     0.7780 H     1 <1>   0.1500 
 30 H       -1.8820     6.1420    -0.8530 H     1 <1>   0.0800 
 31 H       -0.3230     5.4090    -0.5690 H     1 <1>   0.0800 
 32 H       -1.2420     6.0440     0.7730 H     1 <1>   0.0800 
 33 H       -5.6180    -1.4800     0.9680 H     1 <1>   0.0800 
 34 H       -5.4830    -1.1890    -0.7680 H     1 <1>   0.0800 
 35 H       -3.6810    -4.2960    -0.9230 H     1 <1>   0.0800 
 36 H       -3.4020    -4.3580     0.8100 H     1 <1>   0.0800 
 37 H       -6.4720    -3.2060    -1.3160 H     1 <1>   0.0800 
 38 H       -5.6400    -4.4330     1.3170 H     1 <1>   0.0800 
 39 H       -7.3570    -3.0550     1.3650 H     1 <1>   0.4000 
 40 H       -5.8170    -5.5590    -1.4930 H     1 <1>   0.0800 
 41 H       -6.9250    -5.8770    -0.1900 H     1 <1>   0.0800 
 42 H       -3.9370    -7.3250    -1.7930 H     1 <1>   0.1500 
 43 H       -3.9420    -8.7760     2.1330 H     1 <1>   0.2700 
 44 H       -2.2280    -9.4060    -1.2620 H     1 <1>   0.0800 
 45 H       -2.9120   -10.4480    -0.0390 H     1 <1>   0.0800 
 46 H       -1.6520    -9.3050     0.3830 H     1 <1>   0.0800 
@<TRIPOS>BOND
  1   1   2  1   
  2   2   3  1   
  3   2   4  2   
  4   3   5  1   
  5   3   6  1   
  6   4   7  1   
  7   4   8  1   
  8   5   7  2   
  9   5   9  1   
 10   6  10  2   
 11   6  27  1   
 12   8  11  2   
 13   8  12  am  
 14   9  13  2   
 15   9  28  1   
 16  10  13  1   
 17  10  14  1   
 18  12  15  1   
 19  12  16  1   
 20  13  29  1   
 21  14  30  1   
 22  14  31  1   
 23  14  32  1   
 24  15  17  1   
 25  15  33  1   
 26  15  34  1   
 27  16  18  1   
 28  16  35  1   
 29  16  36  1   
 30  17  18  1   
 31  17  19  1   
 32  17  37  1   
 33  18  20  1   
 34  18  38  1   
 35  19  39  1   
 36  20  21  1   
 37  20  40  1   
 38  20  41  1   
 39  21  22  2   
 40  21  23  1   
 41  22  24  1   
 42  23  25  2   
 43  23  42  1   
 44  24  25  1   
 45  24  43  1   
 46  25  26  1   
 47  26  44  1   
 48  26  45  1   
 49  26  46  1   
@<TRIPOS>SUBSTRUCTURE
  1 ****  12 GROUP 4 **** **** 0

# MOE 2024.06 (io_trps.svl 2023.06)
