@<TRIPOS>MOLECULE
NONAME
38 39 1 0 0 
SMALL
USER_CHARGES


@<TRIPOS>ATOM
  1 O        1.0400     0.4370     1.3860 O.co2 1 <1>  -0.9000 
  2 C        1.5330     0.5140     0.2500 C.2   1 <1>   0.9060 
  3 O        1.0120     1.2350    -0.6210 O.co2 1 <1>  -0.9000 
  4 C        2.8260    -0.2910    -0.1320 C.3   1 <1>   0.2630 
  5 N        3.5960     0.3680    -1.2580 N.pl3 1 <1>  -0.8690 
  6 C        2.4730    -1.6990    -0.6250 C.3   1 <1>  -0.1600 
  7 C        3.7530    -0.6210     1.0540 C.3   1 <1>  -0.1600 
  8 C        4.4720     1.3790    -0.9700 C.ar  1 <1>   0.4100 
  9 C        3.7420    -2.5450    -0.4530 C.3   1 <1>  -0.1600 
 10 C        4.5780    -1.8370     0.6200 C.3   1 <1>  -0.1600 
 11 N        5.7600     1.1110    -1.0400 N.ar  1 <1>  -0.6200 
 12 C        4.0190     2.6250    -0.6200 C.ar  1 <1>  -0.1500 
 13 C        6.5510     2.1160    -0.7280 C.ar  1 <1>   0.4700 
 14 C        4.9360     3.5970    -0.2930 C.ar  1 <1>   0.4100 
 15 N        6.2340     3.3410    -0.3570 N.ar  1 <1>  -0.6200 
 16 N        4.5320     4.8570     0.1250 N.pl3 1 <1>  -0.8380 
 17 C        5.4360     6.0360     0.0760 C.3   1 <1>   0.2090 
 18 C        3.2970     4.9950     0.9530 C.3   1 <1>   0.1290 
 19 C        4.7610     7.1580    -0.7070 C.3   1 <1>  -0.2400 
 20 H        2.8360     0.7370    -1.8440 H     1 <1>   0.4000 
 21 H        2.1140    -1.6880    -1.6380 H     1 <1>   0.0800 
 22 H        1.7000    -2.0950     0.0090 H     1 <1>   0.0800 
 23 H        3.1430    -0.9070     1.8930 H     1 <1>   0.0800 
 24 H        4.3590     0.2120     1.3590 H     1 <1>   0.0800 
 25 H        4.2920    -2.5550    -1.3790 H     1 <1>   0.0800 
 26 H        3.4990    -3.5530    -0.1710 H     1 <1>   0.0800 
 27 H        4.7910    -2.4810     1.4550 H     1 <1>   0.0800 
 28 H        5.5030    -1.5000     0.1840 H     1 <1>   0.0800 
 29 H        2.9670     2.8260    -0.5980 H     1 <1>   0.1500 
 30 H        7.6050     1.9070    -0.7830 H     1 <1>   0.1500 
 31 H        6.3610     5.7830    -0.4120 H     1 <1>   0.0800 
 32 H        5.6640     6.3560     1.0780 H     1 <1>   0.0800 
 33 H        3.0350     4.0510     1.4020 H     1 <1>   0.0800 
 34 H        2.4810     5.3220     0.3320 H     1 <1>   0.0800 
 35 H        3.4530     5.7110     1.7400 H     1 <1>   0.0800 
 36 H        4.5100     6.8100    -1.6930 H     1 <1>   0.0800 
 37 H        5.4340     7.9910    -0.7960 H     1 <1>   0.0800 
 38 H        3.8710     7.4890    -0.2060 H     1 <1>   0.0800 
@<TRIPOS>BOND
  1   1   2  ar  
  2   2   3  ar  
  3   2   4  1   
  4   4   5  1   
  5   4   6  1   
  6   4   7  1   
  7   5   8  1   
  8   5  20  1   
  9   6   9  1   
 10   6  21  1   
 11   6  22  1   
 12   7  10  1   
 13   7  23  1   
 14   7  24  1   
 15   8  11  ar  
 16   8  12  ar  
 17   9  10  1   
 18   9  25  1   
 19   9  26  1   
 20  10  27  1   
 21  10  28  1   
 22  11  13  ar  
 23  12  14  ar  
 24  12  29  1   
 25  13  15  ar  
 26  13  30  1   
 27  14  15  ar  
 28  14  16  1   
 29  16  17  1   
 30  16  18  1   
 31  17  19  1   
 32  17  31  1   
 33  17  32  1   
 34  18  33  1   
 35  18  34  1   
 36  18  35  1   
 37  19  36  1   
 38  19  37  1   
 39  19  38  1   
@<TRIPOS>SUBSTRUCTURE
  1 ****  12 GROUP 4 **** **** 0

# MOE 2024.06 (io_trps.svl 2023.06)
