@<TRIPOS>MOLECULE
NONAME
50 53 1 0 0 
SMALL
USER_CHARGES


@<TRIPOS>ATOM
  1 S       -0.5930    -0.7650    -0.8480 S.3   1 <1>  -0.0800 
  2 C        0.6300    -1.7910    -0.1110 C.2   1 <1>  -0.1400 
  3 C        0.2910    -0.7240    -2.3630 C.2   1 <1>  -0.1100 
  4 C        1.6140    -2.0560    -0.9910 C.2   1 <1>  -0.1500 
  5 C        0.4180    -2.2100     1.3300 C.3   1 <1>   0.3200 
  6 C        1.4220    -1.4490    -2.2730 C.2   1 <1>  -0.1500 
  7 N       -0.7760    -3.0610     1.3950 N.am  1 <1>  -0.7300 
  8 C       -0.9150    -4.1150     2.2270 C.2   1 <1>   0.6900 
  9 O       -0.0630    -4.3250     3.0720 O.2   1 <1>  -0.5700 
 10 N       -2.0010    -4.9390     2.0940 N.am  1 <1>  -0.6600 
 11 C       -3.2410    -4.5970     1.3480 C.3   1 <1>   0.1400 
 12 C       -2.0560    -6.2670     2.7630 C.3   1 <1>   0.1400 
 13 C       -3.4790    -5.6490     0.2620 C.3   1 <1>  -0.1600 
 14 C       -2.2920    -7.3530     1.7080 C.3   1 <1>  -0.1600 
 15 C       -3.5400    -7.0750     0.8500 C.3   1 <1>   0.4240 
 16 O       -4.5970    -7.0820     1.7860 O.3   1 <1>  -0.5600 
 17 C       -3.7360    -8.1640    -0.2440 C.ar  1 <1>  -0.1430 
 18 C       -5.8850    -7.3050     1.3140 C.3   1 <1>   0.1200 
 19 C       -2.7890    -8.3890    -1.2540 C.ar  1 <1>   0.0830 
 20 C       -4.8870    -8.9530    -0.2400 C.ar  1 <1>  -0.1430 
 21 C       -5.9590    -8.7360     0.8080 C.3   1 <1>  -0.0160 
 22 O       -1.6720    -7.6150    -1.2920 O.3   1 <1>  -0.3620 
 23 C       -2.9990    -9.3870    -2.2040 C.ar  1 <1>  -0.1500 
 24 C       -5.0830    -9.9440    -1.1880 C.ar  1 <1>  -0.1500 
 25 C       -0.6190    -7.8340    -2.2030 C.3   1 <1>   0.0400 
 26 C       -4.1390   -10.1620    -2.1700 C.ar  1 <1>  -0.1500 
 27 H       -0.1340    -0.1540    -3.1700 H     1 <1>   0.1500 
 28 H        2.4810    -2.6630    -0.7950 H     1 <1>   0.1500 
 29 H        0.2760    -1.3430     1.9520 H     1 <1>   0.0800 
 30 H        1.2780    -2.7530     1.6850 H     1 <1>   0.0800 
 31 H        2.1410    -1.5850    -3.0620 H     1 <1>   0.1500 
 32 H       -1.3470    -3.0470     0.5560 H     1 <1>   0.3700 
 33 H       -3.1730    -3.6190     0.9050 H     1 <1>   0.0800 
 34 H       -4.0680    -4.5880     2.0370 H     1 <1>   0.0800 
 35 H       -2.8580    -6.2660     3.4810 H     1 <1>   0.0800 
 36 H       -1.1380    -6.4690     3.2870 H     1 <1>   0.0800 
 37 H       -2.6760    -5.5720    -0.4440 H     1 <1>   0.0800 
 38 H       -4.3840    -5.4330    -0.2720 H     1 <1>   0.0800 
 39 H       -2.4030    -8.3070     2.1870 H     1 <1>   0.0800 
 40 H       -1.4120    -7.4040     1.0990 H     1 <1>   0.0800 
 41 H       -6.1080    -6.6010     0.5310 H     1 <1>   0.0800 
 42 H       -6.5680    -7.1570     2.1320 H     1 <1>   0.0800 
 43 H       -6.9330    -8.9130     0.3900 H     1 <1>   0.0800 
 44 H       -5.8100    -9.4160     1.6280 H     1 <1>   0.0800 
 45 H       -2.2870    -9.5770    -2.9830 H     1 <1>   0.1500 
 46 H       -5.9720   -10.5490    -1.1670 H     1 <1>   0.1500 
 47 H        0.1580    -7.1210    -1.9910 H     1 <1>   0.0800 
 48 H       -0.9860    -7.6870    -3.2040 H     1 <1>   0.0800 
 49 H       -0.2430    -8.8330    -2.0700 H     1 <1>   0.0800 
 50 H       -4.2940   -10.9330    -2.9050 H     1 <1>   0.1500 
@<TRIPOS>BOND
  1   1   2  1   
  2   1   3  1   
  3   2   4  2   
  4   2   5  1   
  5   3   6  2   
  6   3  27  1   
  7   4   6  1   
  8   4  28  1   
  9   5   7  1   
 10   5  29  1   
 11   5  30  1   
 12   6  31  1   
 13   7   8  am  
 14   7  32  1   
 15   8   9  2   
 16   8  10  am  
 17  10  11  1   
 18  10  12  1   
 19  11  13  1   
 20  11  33  1   
 21  11  34  1   
 22  12  14  1   
 23  12  35  1   
 24  12  36  1   
 25  13  15  1   
 26  13  37  1   
 27  13  38  1   
 28  14  15  1   
 29  14  39  1   
 30  14  40  1   
 31  15  16  1   
 32  15  17  1   
 33  16  18  1   
 34  17  19  ar  
 35  17  20  ar  
 36  18  21  1   
 37  18  41  1   
 38  18  42  1   
 39  19  22  1   
 40  19  23  ar  
 41  20  21  1   
 42  20  24  ar  
 43  21  43  1   
 44  21  44  1   
 45  22  25  1   
 46  23  26  ar  
 47  23  45  1   
 48  24  26  ar  
 49  24  46  1   
 50  25  47  1   
 51  25  48  1   
 52  25  49  1   
 53  26  50  1   
@<TRIPOS>SUBSTRUCTURE
  1 ****  13 GROUP 4 **** **** 0

# MOE 2024.06 (io_trps.svl 2023.06)
