@<TRIPOS>MOLECULE
NONAME
42 45 1 0 0 
SMALL
USER_CHARGES


@<TRIPOS>ATOM
  1 O       -0.4430     0.1810    -0.4450 O.2   1 <1>  -0.5700 
  2 C       -1.4640     0.8270    -0.2870 C.2   1 <1>   0.7150 
  3 N       -2.6530     0.1290    -0.2010 N.am  1 <1>  -0.6600 
  4 C       -1.3650     2.2670    -0.2090 C.2   1 <1>   0.0550 
  5 C       -4.0240     0.6990    -0.2540 C.3   1 <1>   0.1400 
  6 C       -2.7030    -1.3520    -0.2280 C.3   1 <1>   0.1400 
  7 O       -2.3820     3.0440     0.0940 O.3   1 <1>  -0.0190 
  8 C       -0.3130     3.0950    -0.3950 C.2   1 <1>  -0.1500 
  9 C       -4.9450    -0.5020    -0.4690 C.3   1 <1>   0.2000 
 10 C       -4.1650    -1.7130     0.0400 C.3   1 <1>  -0.0800 
 11 N       -2.0760     4.3050     0.1130 N.2   1 <1>  -0.4100 
 12 C       -0.8240     4.3640    -0.1770 C.2   1 <1>   0.2030 
 13 O       -6.1310    -0.3700     0.2340 O.3   1 <1>  -0.6800 
 14 C       -4.6070    -3.0290    -0.6170 C.3   1 <1>  -0.0170 
 15 C       -0.0310     5.6550    -0.2700 C.3   1 <1>  -0.0140 
 16 C       -3.7950    -4.2020    -0.0910 C.ar  1 <1>  -0.1430 
 17 C        1.3370     5.7590     0.3350 C.3   1 <1>  -0.2000 
 18 C        0.1860     6.4830     0.9600 C.3   1 <1>  -0.2000 
 19 C       -2.7060    -4.7070    -0.7720 C.ar  1 <1>  -0.1500 
 20 C       -4.1080    -4.8210     1.1020 C.ar  1 <1>  -0.1500 
 21 C       -1.9990    -5.7730    -0.2390 C.ar  1 <1>   0.1600 
 22 C       -3.3360    -5.8820     1.5460 C.ar  1 <1>   0.1600 
 23 N       -2.2880    -6.3720     0.9040 N.ar  1 <1>  -0.6200 
 24 H       -4.2420     1.1880     0.6800 H     1 <1>   0.0800 
 25 H       -4.1140     1.3970    -1.0690 H     1 <1>   0.0800 
 26 H       -2.3940    -1.6920    -1.2020 H     1 <1>   0.0800 
 27 H       -2.0500    -1.7740     0.5180 H     1 <1>   0.0800 
 28 H        0.6990     2.8420    -0.6520 H     1 <1>   0.1500 
 29 H       -5.1800    -0.5980    -1.5160 H     1 <1>   0.0800 
 30 H       -4.2810    -1.7900     1.1070 H     1 <1>   0.0800 
 31 H       -5.9560    -0.2770     1.1900 H     1 <1>   0.4000 
 32 H       -4.4990    -2.9630    -1.6860 H     1 <1>   0.0800 
 33 H       -5.6500    -3.1980    -0.4090 H     1 <1>   0.0800 
 34 H       -0.2190     6.1820    -1.1890 H     1 <1>   0.1000 
 35 H        1.7480     4.9130     0.8570 H     1 <1>   0.1000 
 36 H        2.0880     6.3290    -0.1840 H     1 <1>   0.1000 
 37 H        0.1280     7.5540     0.8710 H     1 <1>   0.1000 
 38 H       -0.2170     6.1240     1.8910 H     1 <1>   0.1000 
 39 H       -2.3970    -4.2850    -1.7110 H     1 <1>   0.1500 
 40 H       -4.9440    -4.4900     1.6910 H     1 <1>   0.1500 
 41 H       -1.1510    -6.1530    -0.7830 H     1 <1>   0.1500 
 42 H       -3.5950    -6.3530     2.4790 H     1 <1>   0.1500 
@<TRIPOS>BOND
  1   1   2  2   
  2   2   3  am  
  3   2   4  1   
  4   3   5  1   
  5   3   6  1   
  6   4   7  1   
  7   4   8  2   
  8   5   9  1   
  9   5  24  1   
 10   5  25  1   
 11   6  10  1   
 12   6  26  1   
 13   6  27  1   
 14   7  11  1   
 15   8  12  1   
 16   8  28  1   
 17   9  10  1   
 18   9  13  1   
 19   9  29  1   
 20  10  14  1   
 21  10  30  1   
 22  11  12  2   
 23  12  15  1   
 24  13  31  1   
 25  14  16  1   
 26  14  32  1   
 27  14  33  1   
 28  15  17  1   
 29  15  18  1   
 30  15  34  1   
 31  16  19  ar  
 32  16  20  ar  
 33  17  18  1   
 34  17  35  1   
 35  17  36  1   
 36  18  37  1   
 37  18  38  1   
 38  19  21  ar  
 39  19  39  1   
 40  20  22  ar  
 41  20  40  1   
 42  21  23  ar  
 43  21  41  1   
 44  22  23  ar  
 45  22  42  1   
@<TRIPOS>SUBSTRUCTURE
  1 ****   3 GROUP 4 **** **** 0

# MOE 2024.06 (io_trps.svl 2023.06)
