@<TRIPOS>MOLECULE
NONAME
50 52 1 0 0 
SMALL
USER_CHARGES


@<TRIPOS>ATOM
  1 O        4.0740    -0.8640     1.1850 O.2   1 <1>  -0.5700 
  2 C        3.0430    -1.0500     0.5620 C.2   1 <1>   0.7160 
  3 N        2.4900     0.0530    -0.0360 N.am  1 <1>  -0.6600 
  4 C        2.5310    -2.3790     0.3310 C.2   1 <1>  -0.0860 
  5 C        2.7410     0.2750    -1.4890 C.3   1 <1>   0.1400 
  6 C        2.1310     1.2590     0.7600 C.3   1 <1>   0.1400 
  7 C        1.3280    -2.8250    -0.1340 C.2   1 <1>  -0.0400 
  8 C        3.2660    -3.5620     0.5590 C.2   1 <1>  -0.1500 
  9 C        4.2330     0.5750    -1.7650 C.3   1 <1>   0.3430 
 10 C        3.3390     2.1640     1.0500 C.3   1 <1>  -0.1600 
 11 O        1.3130    -4.1320    -0.2160 O.3   1 <1>  -0.2800 
 12 C        0.0550    -2.1070    -0.5400 C.3   1 <1>  -0.0600 
 13 C        2.4710    -4.5870     0.2030 C.2   1 <1>  -0.0400 
 14 N        4.9120     1.2370    -0.6020 N.4   1 <1>  -0.9590 
 15 C        4.2320     2.4850    -0.1510 C.3   1 <1>   0.3430 
 16 C        2.6990    -6.0820     0.2210 C.3   1 <1>  -0.0600 
 17 C        6.3830     1.3710    -0.7950 C.3   1 <1>   0.5240 
 18 C        7.0030     1.9620     0.4490 C.2   1 <1>  -0.1810 
 19 C        7.2130     1.4120     1.6570 C.2   1 <1>  -0.0400 
 20 C        7.4900     3.2620     0.5970 C.2   1 <1>   0.1080 
 21 O        7.7400     2.3260     2.4230 O.3   1 <1>  -0.0190 
 22 C        6.9660     0.0320     2.2330 C.3   1 <1>  -0.0600 
 23 N        7.9110     3.4500     1.7930 N.2   1 <1>  -0.4100 
 24 C        7.5500     4.3370    -0.4700 C.3   1 <1>  -0.0590 
 25 H        2.1370     1.0940    -1.8390 H     1 <1>   0.0800 
 26 H        2.4460    -0.5990    -2.0460 H     1 <1>   0.0800 
 27 H        1.6970     0.9440     1.6950 H     1 <1>   0.0800 
 28 H        1.3760     1.8160     0.2300 H     1 <1>   0.0800 
 29 H        4.2680    -3.5990     0.9490 H     1 <1>   0.1500 
 30 H        4.3160     1.1870    -2.6490 H     1 <1>   0.0800 
 31 H        4.7260    -0.3610    -1.9710 H     1 <1>   0.0800 
 32 H        3.9370     1.7300     1.8330 H     1 <1>   0.0800 
 33 H        2.9640     3.0920     1.4430 H     1 <1>   0.0800 
 34 H        0.1140    -1.0550    -0.3430 H     1 <1>   0.0800 
 35 H       -0.7720    -2.5110     0.0160 H     1 <1>   0.0800 
 36 H       -0.1300    -2.2620    -1.5870 H     1 <1>   0.0800 
 37 H        4.7870     0.5800     0.1980 H     1 <1>   0.4500 
 38 H        4.9600     3.2170     0.1590 H     1 <1>   0.0800 
 39 H        3.6480     2.9110    -0.9500 H     1 <1>   0.0800 
 40 H        3.6840    -6.3050     0.5880 H     1 <1>   0.0800 
 41 H        2.5950    -6.4780    -0.7730 H     1 <1>   0.0800 
 42 H        1.9720    -6.5500     0.8600 H     1 <1>   0.0800 
 43 H        6.5930     2.0040    -1.6410 H     1 <1>   0.0800 
 44 H        6.8170     0.4010    -0.9760 H     1 <1>   0.0800 
 45 H        6.6660    -0.6580     1.4670 H     1 <1>   0.0800 
 46 H        6.1970     0.0790     2.9840 H     1 <1>   0.0800 
 47 H        7.8680    -0.3360     2.6890 H     1 <1>   0.0800 
 48 H        6.5690     4.5570    -0.8440 H     1 <1>   0.0800 
 49 H        8.1830     4.0190    -1.2780 H     1 <1>   0.0800 
 50 H        7.9650     5.2380    -0.0520 H     1 <1>   0.0800 
@<TRIPOS>BOND
  1   1   2  2   
  2   2   3  am  
  3   2   4  1   
  4   3   5  1   
  5   3   6  1   
  6   4   7  2   
  7   4   8  1   
  8   5   9  1   
  9   5  25  1   
 10   5  26  1   
 11   6  10  1   
 12   6  27  1   
 13   6  28  1   
 14   7  11  1   
 15   7  12  1   
 16   8  13  2   
 17   8  29  1   
 18   9  14  1   
 19   9  30  1   
 20   9  31  1   
 21  10  15  1   
 22  10  32  1   
 23  10  33  1   
 24  11  13  1   
 25  12  34  1   
 26  12  35  1   
 27  12  36  1   
 28  13  16  1   
 29  14  15  1   
 30  14  17  1   
 31  14  37  1   
 32  15  38  1   
 33  15  39  1   
 34  16  40  1   
 35  16  41  1   
 36  16  42  1   
 37  17  18  1   
 38  17  43  1   
 39  17  44  1   
 40  18  19  2   
 41  18  20  1   
 42  19  21  1   
 43  19  22  1   
 44  20  23  2   
 45  20  24  1   
 46  21  23  1   
 47  22  45  1   
 48  22  46  1   
 49  22  47  1   
 50  24  48  1   
 51  24  49  1   
 52  24  50  1   
@<TRIPOS>SUBSTRUCTURE
  1 ****   1 GROUP 4 **** **** 0

# MOE 2024.06 (io_trps.svl 2023.06)
