@<TRIPOS>MOLECULE
NONAME
47 49 1 0 0 
SMALL
USER_CHARGES


@<TRIPOS>ATOM
  1 CL       2.7700     4.3140     2.1200 Cl    1 <1>  -0.1770 
  2 C        1.5310     3.3010     1.4140 C.ar  1 <1>   0.1770 
  3 C        1.8320     2.4170     0.3840 C.ar  1 <1>  -0.1440 
  4 C        0.2480     3.4150     1.9190 C.ar  1 <1>  -0.1500 
  5 C        0.8000     1.6420    -0.1350 C.ar  1 <1>  -0.1500 
  6 C        3.2490     2.3060    -0.1740 C.3   1 <1>   0.3640 
  7 C       -0.7660     2.6350     1.3930 C.ar  1 <1>  -0.1500 
  8 C       -0.4870     1.7500     0.3660 C.ar  1 <1>  -0.1500 
  9 N        3.5980     0.8710    -0.3170 N.am  1 <1>  -0.7300 
 10 C        3.3960     3.0530    -1.5230 C.3   1 <1>   0.2610 
 11 C        4.2580     0.3660    -1.3830 C.2   1 <1>   0.5690 
 12 O        4.6010     2.6690    -2.1720 O.3   1 <1>  -0.5600 
 13 C        3.3560     4.5630    -1.2870 C.2   1 <1>   0.5690 
 14 O        4.5140    -0.8090    -1.4460 O.2   1 <1>  -0.5700 
 15 C        4.6520     1.3030    -2.5310 C.3   1 <1>   0.1810 
 16 O        2.2910     5.1310    -1.2890 O.2   1 <1>  -0.5700 
 17 N        4.5130     5.2380    -1.0710 N.am  1 <1>  -0.7300 
 18 C        4.6030     6.6700    -0.7540 C.3   1 <1>   0.3210 
 19 C        5.8350     6.8860     0.0970 C.2   1 <1>  -0.1810 
 20 C        5.9940     6.4810     1.4160 C.2   1 <1>   0.1390 
 21 C        7.0020     7.4910    -0.2170 C.2   1 <1>  -0.3020 
 22 N        7.1590     6.8020     1.8900 N.2   1 <1>  -0.7070 
 23 N        7.7850     7.4310     0.8790 N.pl3 1 <1>   0.3140 
 24 C        9.1540     7.9630     1.0170 C.3   1 <1>   0.0960 
 25 C        9.1290     9.4680     1.3200 C.3   1 <1>  -0.1600 
 26 C       10.5470    10.0330     1.4640 C.3   1 <1>  -0.2400 
 27 H        0.0490     4.1110     2.7140 H     1 <1>   0.1500 
 28 H        0.9890     0.9460    -0.9360 H     1 <1>   0.1500 
 29 H        3.9510     2.7340     0.5190 H     1 <1>   0.0800 
 30 H       -1.7680     2.7180     1.7780 H     1 <1>   0.1500 
 31 H       -1.2760     1.1430    -0.0450 H     1 <1>   0.1500 
 32 H        3.3510     0.2460     0.4520 H     1 <1>   0.3700 
 33 H        2.5760     2.7990    -2.1690 H     1 <1>   0.0800 
 34 H        3.9910     1.1460    -3.3640 H     1 <1>   0.0800 
 35 H        5.6580     1.0820    -2.8410 H     1 <1>   0.0800 
 36 H        5.4080     4.7540    -1.1780 H     1 <1>   0.3700 
 37 H        4.6800     7.2340    -1.6670 H     1 <1>   0.0800 
 38 H        3.7220     6.9890    -0.2220 H     1 <1>   0.0800 
 39 H        5.2440     5.9600     1.9890 H     1 <1>   0.1500 
 40 H        7.3140     7.9520    -1.1350 H     1 <1>   0.1500 
 41 H        9.6390     7.4340     1.8170 H     1 <1>   0.0800 
 42 H        9.6870     7.7730     0.1050 H     1 <1>   0.0800 
 43 H        8.6200     9.9870     0.5260 H     1 <1>   0.0800 
 44 H        8.5870     9.6330     2.2370 H     1 <1>   0.0800 
 45 H       11.1040     9.8960     0.5540 H     1 <1>   0.0800 
 46 H       11.0670     9.5420     2.2690 H     1 <1>   0.0800 
 47 H       10.5020    11.0860     1.6810 H     1 <1>   0.0800 
@<TRIPOS>BOND
  1   1   2  1   
  2   2   3  ar  
  3   2   4  ar  
  4   3   5  ar  
  5   3   6  1   
  6   4   7  ar  
  7   4  27  1   
  8   5   8  ar  
  9   5  28  1   
 10   6   9  1   
 11   6  10  1   
 12   6  29  1   
 13   7   8  ar  
 14   7  30  1   
 15   8  31  1   
 16   9  11  am  
 17   9  32  1   
 18  10  12  1   
 19  10  13  1   
 20  10  33  1   
 21  11  14  2   
 22  11  15  1   
 23  12  15  1   
 24  13  16  2   
 25  13  17  am  
 26  15  34  1   
 27  15  35  1   
 28  17  18  1   
 29  17  36  1   
 30  18  19  1   
 31  18  37  1   
 32  18  38  1   
 33  19  20  1   
 34  19  21  2   
 35  20  22  2   
 36  20  39  1   
 37  21  23  1   
 38  21  40  1   
 39  22  23  1   
 40  23  24  1   
 41  24  25  1   
 42  24  41  1   
 43  24  42  1   
 44  25  26  1   
 45  25  43  1   
 46  25  44  1   
 47  26  45  1   
 48  26  46  1   
 49  26  47  1   
@<TRIPOS>SUBSTRUCTURE
  1 ****  17 GROUP 4 **** **** 0

# MOE 2024.06 (io_trps.svl 2023.06)
