@<TRIPOS>MOLECULE
NONAME
40 41 1 0 0 
SMALL
USER_CHARGES


@<TRIPOS>ATOM
  1 O       -1.5060    -0.0550    -0.0030 O.2   1 <1>  -0.5700 
  2 C       -2.2370     0.7020     0.5980 C.2   1 <1>   0.5690 
  3 N       -3.2610     0.2040     1.3670 N.am  1 <1>  -0.6600 
  4 C       -1.9930     2.2120     0.4480 C.3   1 <1>  -0.0190 
  5 C       -3.3380    -1.2670     1.6250 C.3   1 <1>   0.3200 
  6 C       -4.4230     0.9910     1.8880 C.3   1 <1>   0.1400 
  7 C       -2.8430     2.8020    -0.6990 C.3   1 <1>  -0.1600 
  8 C       -0.5000     2.5490     0.2310 C.3   1 <1>  -0.1600 
  9 C       -4.0260    -1.9790     0.4730 C.2   1 <1>   0.0060 
 10 C       -5.6680     0.7930     1.0130 C.3   1 <1>   0.1200 
 11 C       -2.6160     4.3130    -0.8600 C.3   1 <1>  -0.1600 
 12 C       -0.2730     4.0620     0.0810 C.3   1 <1>  -0.1600 
 13 N       -5.1420    -2.6330     0.5570 N.2   1 <1>  -0.5650 
 14 N       -3.4960    -1.9710    -0.7670 N.pl3 1 <1>   0.0330 
 15 O       -6.6340     1.7140     1.3900 O.3   1 <1>  -0.6800 
 16 C       -1.1300     4.6260    -1.0550 C.3   1 <1>   0.2000 
 17 C       -5.3480    -3.0750    -0.6990 C.2   1 <1>   0.0770 
 18 C       -4.3530    -2.6800    -1.5230 C.2   1 <1>  -0.3020 
 19 O       -0.9750     5.9930    -1.0780 O.3   1 <1>  -0.6800 
 20 H       -2.2760     2.6890     1.3670 H     1 <1>   0.0800 
 21 H       -3.8800    -1.4550     2.5350 H     1 <1>   0.0800 
 22 H       -2.3470    -1.6670     1.7460 H     1 <1>   0.0800 
 23 H       -4.1910     2.0390     1.9110 H     1 <1>   0.0800 
 24 H       -4.6390     0.6790     2.8950 H     1 <1>   0.0800 
 25 H       -3.8870     2.6250    -0.5140 H     1 <1>   0.0800 
 26 H       -2.5860     2.3040    -1.6190 H     1 <1>   0.0800 
 27 H       -0.1450     2.0540    -0.6580 H     1 <1>   0.0800 
 28 H        0.0770     2.1790     1.0610 H     1 <1>   0.0800 
 29 H       -6.0790    -0.1960     1.1240 H     1 <1>   0.0800 
 30 H       -5.4340     0.9690    -0.0210 H     1 <1>   0.0800 
 31 H       -2.9820     4.8160     0.0180 H     1 <1>   0.0800 
 32 H       -3.1680     4.6660    -1.7130 H     1 <1>   0.0800 
 33 H        0.7650     4.2460    -0.1330 H     1 <1>   0.0800 
 34 H       -0.5260     4.5480     1.0070 H     1 <1>   0.0800 
 35 H       -2.6240    -1.4870    -1.0270 H     1 <1>   0.2700 
 36 H       -7.1400     1.3900     2.1620 H     1 <1>   0.4000 
 37 H       -0.7910     4.2400    -2.0020 H     1 <1>   0.0800 
 38 H       -6.2150    -3.6640    -0.9490 H     1 <1>   0.1500 
 39 H       -4.2110    -2.8570    -2.5730 H     1 <1>   0.1500 
 40 H       -1.2700     6.3770    -0.2330 H     1 <1>   0.4000 
@<TRIPOS>BOND
  1   1   2  2   
  2   2   3  am  
  3   2   4  1   
  4   3   5  1   
  5   3   6  1   
  6   4   7  1   
  7   4   8  1   
  8   4  20  1   
  9   5   9  1   
 10   5  21  1   
 11   5  22  1   
 12   6  10  1   
 13   6  23  1   
 14   6  24  1   
 15   7  11  1   
 16   7  25  1   
 17   7  26  1   
 18   8  12  1   
 19   8  27  1   
 20   8  28  1   
 21   9  13  2   
 22   9  14  1   
 23  10  15  1   
 24  10  29  1   
 25  10  30  1   
 26  11  16  1   
 27  11  31  1   
 28  11  32  1   
 29  12  16  1   
 30  12  33  1   
 31  12  34  1   
 32  13  17  1   
 33  14  18  1   
 34  14  35  1   
 35  15  36  1   
 36  16  19  1   
 37  16  37  1   
 38  17  18  2   
 39  17  38  1   
 40  18  39  1   
 41  19  40  1   
@<TRIPOS>SUBSTRUCTURE
  1 ****   2 GROUP 4 **** **** 0

# MOE 2024.06 (io_trps.svl 2023.06)
