@<TRIPOS>MOLECULE
NONAME
49 51 1 0 0 
SMALL
USER_CHARGES


@<TRIPOS>ATOM
  1 CL      -0.0450    -0.8730     2.4430 Cl    1 <1>  -0.1770 
  2 C       -0.4770    -2.4900     1.9390 C.ar  1 <1>   0.1770 
  3 C       -1.2760    -2.6680     0.7850 C.ar  1 <1>   0.0000 
  4 C       -0.0220    -3.5370     2.6870 C.ar  1 <1>  -0.1500 
  5 C       -1.6300    -3.9910     0.4220 C.ar  1 <1>   0.0000 
  6 C       -1.7250    -1.6000    -0.0200 C.ar  1 <1>  -0.1500 
  7 C       -0.3470    -4.8420     2.3110 C.ar  1 <1>  -0.1500 
  8 C       -2.4700    -4.2010    -0.7100 C.ar  1 <1>   0.0860 
  9 C       -1.1260    -5.0550     1.2070 C.ar  1 <1>  -0.1500 
 10 C       -2.4970    -1.8190    -1.1250 C.ar  1 <1>  -0.1500 
 11 C       -2.9260    -5.5260    -1.0700 C.2   1 <1>   0.5440 
 12 C       -2.8660    -3.1200    -1.4650 C.ar  1 <1>  -0.1500 
 13 O       -2.4930    -6.0420    -2.0820 O.2   1 <1>  -0.5700 
 14 N       -3.8480    -6.2170    -0.3030 N.am  1 <1>  -0.6600 
 15 C       -4.2540    -7.6200    -0.6480 C.3   1 <1>   0.1400 
 16 C       -4.5340    -5.6220     0.8800 C.3   1 <1>   0.1400 
 17 C       -5.7850    -7.7460    -0.7500 C.3   1 <1>   0.2000 
 18 C       -6.0540    -5.7390     0.7160 C.3   1 <1>  -0.1600 
 19 O       -6.1160    -9.0780    -0.9880 O.3   1 <1>  -0.6800 
 20 C       -6.5350    -7.1990     0.4990 C.3   1 <1>   0.0000 
 21 C       -6.1900    -8.0730     1.7390 C.3   1 <1>   0.1200 
 22 C       -8.0790    -7.2320     0.2990 C.3   1 <1>  -0.1600 
 23 O       -6.7610    -7.5730     2.9010 O.3   1 <1>  -0.6800 
 24 C       -8.6340    -6.5240    -0.9530 C.3   1 <1>  -0.1600 
 25 C      -10.1630    -6.6100    -0.9890 C.3   1 <1>  -0.2400 
 26 H        0.5860    -3.3660     3.5570 H     1 <1>   0.1500 
 27 H       -1.4480    -0.5930     0.2390 H     1 <1>   0.1500 
 28 H        0.0250    -5.6670     2.8950 H     1 <1>   0.1500 
 29 H       -1.3580    -6.0680     0.9240 H     1 <1>   0.1500 
 30 H       -2.8280    -1.0000    -1.7400 H     1 <1>   0.1500 
 31 H       -3.4760    -3.2770    -2.3380 H     1 <1>   0.1500 
 32 H       -3.8290    -7.9130    -1.5930 H     1 <1>   0.0800 
 33 H       -3.8720    -8.2820     0.1060 H     1 <1>   0.0800 
 34 H       -4.2050    -6.1280     1.7710 H     1 <1>   0.0800 
 35 H       -4.2820    -4.5810     0.9860 H     1 <1>   0.0800 
 36 H       -6.0850    -7.1950    -1.6240 H     1 <1>   0.0800 
 37 H       -6.5380    -5.3080     1.5730 H     1 <1>   0.0800 
 38 H       -6.3260    -5.1340    -0.1290 H     1 <1>   0.0800 
 39 H       -5.8840    -9.6410    -0.2280 H     1 <1>   0.4000 
 40 H       -5.1300    -8.1350     1.9040 H     1 <1>   0.0800 
 41 H       -6.5700    -9.0730     1.6120 H     1 <1>   0.0800 
 42 H       -8.3950    -8.2600     0.2600 H     1 <1>   0.0800 
 43 H       -8.5510    -6.7990     1.1640 H     1 <1>   0.0800 
 44 H       -6.5300    -6.6340     3.0280 H     1 <1>   0.4000 
 45 H       -8.3530    -5.4870    -0.9610 H     1 <1>   0.0800 
 46 H       -8.2500    -6.9880    -1.8440 H     1 <1>   0.0800 
 47 H      -10.5890    -6.1340    -0.1230 H     1 <1>   0.0800 
 48 H      -10.4800    -7.6380    -1.0110 H     1 <1>   0.0800 
 49 H      -10.5380    -6.1190    -1.8690 H     1 <1>   0.0800 
@<TRIPOS>BOND
  1   1   2  1   
  2   2   3  ar  
  3   2   4  ar  
  4   3   5  ar  
  5   3   6  ar  
  6   4   7  ar  
  7   4  26  1   
  8   5   8  ar  
  9   5   9  ar  
 10   6  10  ar  
 11   6  27  1   
 12   7   9  ar  
 13   7  28  1   
 14   8  11  1   
 15   8  12  ar  
 16   9  29  1   
 17  10  12  ar  
 18  10  30  1   
 19  11  13  2   
 20  11  14  am  
 21  12  31  1   
 22  14  15  1   
 23  14  16  1   
 24  15  17  1   
 25  15  32  1   
 26  15  33  1   
 27  16  18  1   
 28  16  34  1   
 29  16  35  1   
 30  17  19  1   
 31  17  20  1   
 32  17  36  1   
 33  18  20  1   
 34  18  37  1   
 35  18  38  1   
 36  19  39  1   
 37  20  21  1   
 38  20  22  1   
 39  21  23  1   
 40  21  40  1   
 41  21  41  1   
 42  22  24  1   
 43  22  42  1   
 44  22  43  1   
 45  23  44  1   
 46  24  25  1   
 47  24  45  1   
 48  24  46  1   
 49  25  47  1   
 50  25  48  1   
 51  25  49  1   
@<TRIPOS>SUBSTRUCTURE
  1 ****  16 GROUP 4 **** **** 0

# MOE 2024.06 (io_trps.svl 2023.06)
