@<TRIPOS>MOLECULE
NONAME
51 54 1 0 0 
SMALL
USER_CHARGES


@<TRIPOS>ATOM
  1 O       -1.3210    -0.6460     1.0180 O.co2 1 <1>  -0.9000 
  2 C       -2.0760    -1.6130     1.1590 C.2   1 <1>   0.9060 
  3 O       -2.3610    -2.1080     2.2530 O.co2 1 <1>  -0.9000 
  4 C       -2.8050    -2.1390    -0.0820 C.3   1 <1>   0.2370 
  5 N       -4.0920    -1.4060    -0.4200 N.4   1 <1>  -0.9590 
  6 C       -5.1000    -1.6200     0.6620 C.3   1 <1>   0.3430 
  7 C       -3.8200     0.0470    -0.6080 C.3   1 <1>   0.3430 
  8 C       -6.5210    -1.2910     0.1430 C.3   1 <1>   0.1900 
  9 C       -5.0350     0.8430    -1.1300 C.3   1 <1>  -0.0800 
 10 N       -6.5480    -1.2130    -1.3650 N.3   1 <1>  -0.8100 
 11 C       -7.0870    -0.0420     0.8450 C.3   1 <1>   0.1200 
 12 C       -5.7080     1.6800    -0.0280 C.3   1 <1>   0.1200 
 13 C       -6.0730     0.0570    -1.9590 C.3   1 <1>   0.1100 
 14 C       -7.8590    -1.5970    -1.9230 C.3   1 <1>   0.2910 
 15 O       -6.0910     0.9120     1.0620 O.3   1 <1>  -0.5600 
 16 C       -8.1460    -3.0540    -1.6360 C.2   1 <1>  -0.1810 
 17 C       -9.0130    -3.5510    -0.7180 C.2   1 <1>  -0.0260 
 18 C       -7.5830    -4.1630    -2.2430 C.2   1 <1>   0.1390 
 19 N       -9.8270    -2.8970     0.1840 N.2   1 <1>  -0.5760 
 20 N       -8.9370    -4.9210    -0.8280 N.pl3 1 <1>   0.6010 
 21 N       -8.0410    -5.2900    -1.7720 N.2   1 <1>  -0.7070 
 22 C      -10.5550    -3.6480     0.9430 C.2   1 <1>   0.3750 
 23 C       -9.7240    -5.7130    -0.0020 C.2   1 <1>  -0.1690 
 24 C      -10.5340    -5.0720     0.8820 C.2   1 <1>  -0.1360 
 25 C      -11.4730    -2.9910     1.9490 C.3   1 <1>  -0.1790 
 26 C       -9.6320    -7.2270    -0.1410 C.3   1 <1>  -0.1020 
 27 H       -3.0130    -3.1790     0.0890 H     1 <1>   0.0800 
 28 H       -2.1180    -2.0610    -0.9050 H     1 <1>   0.0800 
 29 H       -4.5660    -1.7570    -1.2670 H     1 <1>   0.4500 
 30 H       -5.0800    -2.6520     0.9680 H     1 <1>   0.0800 
 31 H       -4.8570    -1.0240     1.5270 H     1 <1>   0.0800 
 32 H       -3.4800     0.4740     0.3240 H     1 <1>   0.0800 
 33 H       -3.0120     0.1510    -1.3130 H     1 <1>   0.0800 
 34 H       -7.1400    -2.1090     0.4600 H     1 <1>   0.0800 
 35 H       -4.6270     1.5770    -1.8010 H     1 <1>   0.0800 
 36 H       -7.4480    -0.3280     1.8170 H     1 <1>   0.0800 
 37 H       -7.9050     0.3940     0.2990 H     1 <1>   0.0800 
 38 H       -6.5730     2.2010    -0.4010 H     1 <1>   0.0800 
 39 H       -5.0120     2.4130     0.3430 H     1 <1>   0.0800 
 40 H       -5.6440    -0.1720    -2.9210 H     1 <1>   0.0800 
 41 H       -6.9160     0.7040    -2.1390 H     1 <1>   0.0800 
 42 H       -8.6380    -0.9830    -1.5030 H     1 <1>   0.0800 
 43 H       -7.8570    -1.4550    -2.9910 H     1 <1>   0.0800 
 44 H       -6.8420    -4.1160    -3.0240 H     1 <1>   0.1500 
 45 H      -11.1760    -5.6110     1.5550 H     1 <1>   0.1500 
 46 H      -12.4890    -3.2900     1.7670 H     1 <1>   0.0800 
 47 H      -11.4110    -1.9210     1.8690 H     1 <1>   0.0800 
 48 H      -11.1900    -3.2790     2.9450 H     1 <1>   0.0800 
 49 H       -9.8950    -7.5200    -1.1420 H     1 <1>   0.0800 
 50 H      -10.2940    -7.7190     0.5480 H     1 <1>   0.0800 
 51 H       -8.6250    -7.5520     0.0550 H     1 <1>   0.0800 
@<TRIPOS>BOND
  1   1   2  ar  
  2   2   3  ar  
  3   2   4  1   
  4   4   5  1   
  5   4  27  1   
  6   4  28  1   
  7   5   6  1   
  8   5   7  1   
  9   5  29  1   
 10   6   8  1   
 11   6  30  1   
 12   6  31  1   
 13   7   9  1   
 14   7  32  1   
 15   7  33  1   
 16   8  10  1   
 17   8  11  1   
 18   8  34  1   
 19   9  12  1   
 20   9  13  1   
 21   9  35  1   
 22  10  13  1   
 23  10  14  1   
 24  11  15  1   
 25  11  36  1   
 26  11  37  1   
 27  12  15  1   
 28  12  38  1   
 29  12  39  1   
 30  13  40  1   
 31  13  41  1   
 32  14  16  1   
 33  14  42  1   
 34  14  43  1   
 35  16  17  2   
 36  16  18  1   
 37  17  19  1   
 38  17  20  1   
 39  18  21  2   
 40  18  44  1   
 41  19  22  2   
 42  20  21  1   
 43  20  23  1   
 44  22  24  1   
 45  22  25  1   
 46  23  24  2   
 47  23  26  1   
 48  24  45  1   
 49  25  46  1   
 50  25  47  1   
 51  25  48  1   
 52  26  49  1   
 53  26  50  1   
 54  26  51  1   
@<TRIPOS>SUBSTRUCTURE
  1 ****   8 GROUP 4 **** **** 0

# MOE 2024.06 (io_trps.svl 2023.06)
