@<TRIPOS>MOLECULE
NONAME
46 49 1 0 0 
SMALL
USER_CHARGES


@<TRIPOS>ATOM
  1 O       -0.2810     0.0470     0.4840 O.2   1 <1>  -0.5700 
  2 C       -1.2610     0.7040     0.7770 C.2   1 <1>   0.5440 
  3 N       -2.4650     0.0610     0.9600 N.am  1 <1>  -0.6600 
  4 C       -1.1510     2.1390     0.9210 C.ar  1 <1>   0.0860 
  5 C       -2.5850    -1.4330     0.9530 C.3   1 <1>   0.1400 
  6 C       -3.7950     0.7440     0.9020 C.3   1 <1>   0.1400 
  7 C       -0.8030     2.9950    -0.1220 C.ar  1 <1>  -0.1440 
  8 C       -1.4220     2.7140     2.1600 C.ar  1 <1>   0.1600 
  9 C       -3.5210    -1.9090    -0.1730 C.3   1 <1>   0.3440 
 10 C       -4.6630     0.1510    -0.2250 C.3   1 <1>   0.2950 
 11 C       -0.7660     4.3460     0.1570 C.ar  1 <1>  -0.1500 
 12 C       -0.4740     2.4770    -1.5160 C.3   1 <1>  -0.0960 
 13 N       -1.4020     4.0070     2.4400 N.ar  1 <1>  -0.6200 
 14 O       -4.7530    -1.2370    -0.0960 O.3   1 <1>  -0.5600 
 15 C       -3.7500    -3.4150    -0.0770 C.ar  1 <1>  -0.1430 
 16 C       -6.0880     0.7110    -0.1880 C.3   1 <1>  -0.1950 
 17 C       -1.0700     4.7940     1.4310 C.ar  1 <1>   0.1600 
 18 C       -4.7930    -3.9450     0.6710 C.ar  1 <1>  -0.1500 
 19 C       -2.8890    -4.2800    -0.7380 C.ar  1 <1>  -0.1500 
 20 C       -6.9560     0.7020    -1.4060 C.3   1 <1>  -0.2000 
 21 C       -6.4290     2.0020    -0.8660 C.3   1 <1>  -0.2000 
 22 C       -4.9720    -5.3150     0.7570 C.ar  1 <1>  -0.1500 
 23 C       -3.0660    -5.6500    -0.6530 C.ar  1 <1>  -0.1500 
 24 C       -4.1080    -6.1690     0.0950 C.ar  1 <1>  -0.1500 
 25 H       -1.6220    -1.8960     0.8270 H     1 <1>   0.0800 
 26 H       -2.9800    -1.7610     1.8980 H     1 <1>   0.0800 
 27 H       -4.3000     0.6150     1.8430 H     1 <1>   0.0800 
 28 H       -3.6810     1.7990     0.7300 H     1 <1>   0.0800 
 29 H       -1.6760     2.0510     2.9700 H     1 <1>   0.1500 
 30 H       -3.0800    -1.6810    -1.1280 H     1 <1>   0.0800 
 31 H       -4.2170     0.3700    -1.1800 H     1 <1>   0.0800 
 32 H       -0.5020     5.0590    -0.6030 H     1 <1>   0.1500 
 33 H       -0.3180     3.2870    -2.2040 H     1 <1>   0.0800 
 34 H       -1.2780     1.8650    -1.8850 H     1 <1>   0.0800 
 35 H        0.4220     1.8820    -1.4800 H     1 <1>   0.0800 
 36 H       -6.5720     0.5130     0.7530 H     1 <1>   0.1000 
 37 H       -1.0370     5.8530     1.6290 H     1 <1>   0.1500 
 38 H       -5.4730    -3.2890     1.1870 H     1 <1>   0.1500 
 39 H       -2.0730    -3.8920    -1.3220 H     1 <1>   0.1500 
 40 H       -6.5520     0.3100    -2.3240 H     1 <1>   0.1000 
 41 H       -8.0000     0.4690    -1.2860 H     1 <1>   0.1000 
 42 H       -7.1180     2.6750    -0.3850 H     1 <1>   0.1000 
 43 H       -5.6790     2.5210    -1.4370 H     1 <1>   0.1000 
 44 H       -5.7850    -5.7140     1.3380 H     1 <1>   0.1500 
 45 H       -2.3940    -6.3130    -1.1690 H     1 <1>   0.1500 
 46 H       -4.2470    -7.2340     0.1610 H     1 <1>   0.1500 
@<TRIPOS>BOND
  1   1   2  2   
  2   2   3  am  
  3   2   4  1   
  4   3   5  1   
  5   3   6  1   
  6   4   7  ar  
  7   4   8  ar  
  8   5   9  1   
  9   5  25  1   
 10   5  26  1   
 11   6  10  1   
 12   6  27  1   
 13   6  28  1   
 14   7  11  ar  
 15   7  12  1   
 16   8  13  ar  
 17   8  29  1   
 18   9  14  1   
 19   9  15  1   
 20   9  30  1   
 21  10  14  1   
 22  10  16  1   
 23  10  31  1   
 24  11  17  ar  
 25  11  32  1   
 26  12  33  1   
 27  12  34  1   
 28  12  35  1   
 29  13  17  ar  
 30  15  18  ar  
 31  15  19  ar  
 32  16  20  1   
 33  16  21  1   
 34  16  36  1   
 35  17  37  1   
 36  18  22  ar  
 37  18  38  1   
 38  19  23  ar  
 39  19  39  1   
 40  20  21  1   
 41  20  40  1   
 42  20  41  1   
 43  21  42  1   
 44  21  43  1   
 45  22  24  ar  
 46  22  44  1   
 47  23  24  ar  
 48  23  45  1   
 49  24  46  1   
@<TRIPOS>SUBSTRUCTURE
  1 ****   3 GROUP 4 **** **** 0

# MOE 2024.06 (io_trps.svl 2023.06)
