@<TRIPOS>MOLECULE
Untitled Document
59 62 1 0 0 
SMALL
USER_CHARGES


@<TRIPOS>ATOM
  1 O        0.7010    -0.6760    -1.5030 O.2   1 <1>  -0.5700 
  2 C        0.7400    -1.6000    -0.7220 C.2   1 <1>   0.5690 
  3 N        1.5390    -1.5540     0.3770 N.am  1 <1>  -0.7300 
  4 C       -0.1730    -2.8250    -0.9470 C.3   1 <1>   0.2510 
  5 C        2.5870    -0.5630     0.6190 C.3   1 <1>   0.3640 
  6 N       -0.2800    -3.3260    -2.3310 N.3   1 <1>  -0.9000 
  7 C        0.2620    -4.0750    -0.1730 C.3   1 <1>   0.2000 
  8 C        3.8920    -1.3110     0.8740 C.ar  1 <1>  -0.1430 
  9 C        2.1750     0.3080     1.8020 C.3   1 <1>  -0.2400 
 10 C       -0.9010    -4.6360    -2.2320 C.3   1 <1>   0.1100 
 11 O       -0.2270    -4.0700     1.1280 O.3   1 <1>  -0.6800 
 12 C       -0.3140    -5.2520    -0.9610 C.3   1 <1>  -0.1600 
 13 C        4.9430    -1.1770    -0.0200 C.ar  1 <1>  -0.1500 
 14 C        4.0570    -2.1430     1.9720 C.ar  1 <1>  -0.1500 
 15 C        6.1300    -1.8550     0.1820 C.ar  1 <1>  -0.1500 
 16 C        5.2470    -2.8200     2.1680 C.ar  1 <1>  -0.1500 
 17 C        6.3160    -2.6960     1.2800 C.ar  1 <1>   0.0540 
 18 C        7.5620    -3.4150     1.4920 C.2   1 <1>   0.4620 
 19 N        7.8040    -4.2260     2.4610 N.2   1 <1>  -0.4100 
 20 N        8.6130    -3.2990     0.6730 N.2   1 <1>  -0.5650 
 21 O        9.0120    -4.6700     2.3170 O.3   1 <1>  -0.0190 
 22 C        9.4400    -4.0800     1.2320 C.2   1 <1>   0.2980 
 23 C       10.8490    -4.3700     0.7490 C.3   1 <1>   0.0200 
 24 C       10.9920    -5.8210     0.2620 C.3   1 <1>  -0.1600 
 25 C       12.4220    -6.1520    -0.1940 C.3   1 <1>  -0.0800 
 26 C       12.8910    -5.3560    -1.4120 C.3   1 <1>  -0.1600 
 27 C       12.5690    -7.6030    -0.6420 C.3   1 <1>  -0.1600 
 28 C       14.0040    -6.1990    -2.0410 C.3   1 <1>  -0.1600 
 29 C       13.8380    -7.6210    -1.4930 C.3   1 <1>  -0.1600 
 30 H        1.5200    -2.3310     1.0410 H     1 <1>   0.3700 
 31 H       -1.1610    -2.5480    -0.6250 H     1 <1>   0.0800 
 32 H        2.6970     0.0640    -0.2510 H     1 <1>   0.0800 
 33 H       -0.8300    -2.6650    -2.8980 H     1 <1>   0.3600 
 34 H        1.3370    -4.1430    -0.1370 H     1 <1>   0.0800 
 35 H        1.9900    -0.2860     2.6770 H     1 <1>   0.0800 
 36 H        1.2860     0.8580     1.5510 H     1 <1>   0.0800 
 37 H        2.9590     1.0100     2.0190 H     1 <1>   0.0800 
 38 H       -1.9680    -4.5230    -2.1330 H     1 <1>   0.0800 
 39 H       -0.6820    -5.2290    -3.1050 H     1 <1>   0.0800 
 40 H       -1.1940    -4.2070     1.1260 H     1 <1>   0.4000 
 41 H        0.4810    -5.9230    -1.2310 H     1 <1>   0.0800 
 42 H       -1.0660    -5.7980    -0.4200 H     1 <1>   0.0800 
 43 H        4.8380    -0.5440    -0.8850 H     1 <1>   0.1500 
 44 H        3.2590    -2.2730     2.6820 H     1 <1>   0.1500 
 45 H        6.9290    -1.7320    -0.5290 H     1 <1>   0.1500 
 46 H        5.3490    -3.4590     3.0280 H     1 <1>   0.1500 
 47 H       11.0790    -3.6900    -0.0520 H     1 <1>   0.0800 
 48 H       11.5350    -4.1820     1.5550 H     1 <1>   0.0800 
 49 H       10.3030    -5.9890    -0.5490 H     1 <1>   0.0800 
 50 H       10.7210    -6.4870     1.0630 H     1 <1>   0.0800 
 51 H       13.1110    -5.9790     0.6170 H     1 <1>   0.0800 
 52 H       12.0840    -5.2610    -2.1180 H     1 <1>   0.0800 
 53 H       13.2420    -4.3750    -1.1440 H     1 <1>   0.0800 
 54 H       12.6350    -8.2790     0.1930 H     1 <1>   0.0800 
 55 H       11.7300    -7.8830    -1.2560 H     1 <1>   0.0800 
 56 H       13.9280    -6.1850    -3.1150 H     1 <1>   0.0800 
 57 H       14.9680    -5.8120    -1.7570 H     1 <1>   0.0800 
 58 H       14.6840    -7.8660    -0.8730 H     1 <1>   0.0800 
 59 H       13.7650    -8.3460    -2.2850 H     1 <1>   0.0800 
@<TRIPOS>BOND
  1   1   2  2   
  2   2   3  am  
  3   2   4  1   
  4   3   5  1   
  5   3  30  1   
  6   4   6  1   
  7   4   7  1   
  8   4  31  1   
  9   5   8  1   
 10   5   9  1   
 11   5  32  1   
 12   6  10  1   
 13   6  33  1   
 14   7  11  1   
 15   7  12  1   
 16   7  34  1   
 17   8  13  ar  
 18   8  14  ar  
 19   9  35  1   
 20   9  36  1   
 21   9  37  1   
 22  10  12  1   
 23  10  38  1   
 24  10  39  1   
 25  11  40  1   
 26  12  41  1   
 27  12  42  1   
 28  13  15  ar  
 29  13  43  1   
 30  14  16  ar  
 31  14  44  1   
 32  15  17  ar  
 33  15  45  1   
 34  16  17  ar  
 35  16  46  1   
 36  17  18  1   
 37  18  19  2   
 38  18  20  1   
 39  19  21  1   
 40  20  22  2   
 41  21  22  1   
 42  22  23  1   
 43  23  24  1   
 44  23  47  1   
 45  23  48  1   
 46  24  25  1   
 47  24  49  1   
 48  24  50  1   
 49  25  26  1   
 50  25  27  1   
 51  25  51  1   
 52  26  28  1   
 53  26  52  1   
 54  26  53  1   
 55  27  29  1   
 56  27  54  1   
 57  27  55  1   
 58  28  29  1   
 59  28  56  1   
 60  28  57  1   
 61  29  58  1   
 62  29  59  1   
@<TRIPOS>SUBSTRUCTURE
  1 ****  17 GROUP 4 **** **** 0

# MOE 2024.06 (io_trps.svl 2023.06)
