@<TRIPOS>MOLECULE
NONAME
43 44 1 0 0 
SMALL
USER_CHARGES


@<TRIPOS>ATOM
  1 CL       1.7780    -1.6680     2.2690 Cl    1 <1>  -0.1770 
  2 C        0.9230    -3.0060     1.5440 C.ar  1 <1>   0.1770 
  3 C        0.5270    -4.0650     2.3360 C.ar  1 <1>  -0.1500 
  4 C        0.6550    -2.9860     0.1860 C.ar  1 <1>  -0.1500 
  5 C       -0.1470    -5.1050     1.7270 C.ar  1 <1>   0.1900 
  6 C       -0.0240    -4.0440    -0.3990 C.ar  1 <1>  -0.1500 
  7 F       -0.5220    -6.1120     2.4780 F     1 <1>  -0.1900 
  8 C       -0.4460    -5.1330     0.3630 C.ar  1 <1>   0.1170 
  9 N       -1.1360    -6.2320    -0.1850 N.am  1 <1>  -0.5470 
 10 C       -1.7500    -6.4480    -1.3860 C.2   1 <1>   0.5690 
 11 O       -1.7980    -5.6370    -2.2790 O.2   1 <1>  -0.5700 
 12 C       -2.4120    -7.8140    -1.5810 C.3   1 <1>   0.1710 
 13 N       -2.7220    -8.5320    -0.3040 N.3   1 <1>  -0.8100 
 14 C       -2.9470    -9.9680    -0.5670 C.3   1 <1>   0.1100 
 15 C       -3.8900    -7.9190     0.3570 C.3   1 <1>   0.0300 
 16 C       -2.8600   -10.8050     0.7130 C.3   1 <1>   0.0210 
 17 C       -2.9310   -12.2830     0.3680 C.2   1 <1>  -0.1810 
 18 C       -1.8570   -13.1120     0.0450 C.2   1 <1>   0.1080 
 19 C       -4.0170   -13.0840     0.2970 C.2   1 <1>  -0.3320 
 20 N       -2.2320   -14.3250    -0.2060 N.2   1 <1>  -0.7070 
 21 C       -0.4040   -12.6980    -0.0130 C.3   1 <1>  -0.0590 
 22 N       -3.5660   -14.3090    -0.0480 N.pl3 1 <1>   0.3000 
 23 C       -5.4870   -12.7800     0.5320 C.3   1 <1>  -0.0600 
 24 H        0.7380    -4.0780     3.3890 H     1 <1>   0.1500 
 25 H        0.9760    -2.1480    -0.4080 H     1 <1>   0.1500 
 26 H       -0.2210    -4.0150    -1.4560 H     1 <1>   0.1500 
 27 H       -1.2930    -7.0210     0.4550 H     1 <1>   0.3700 
 28 H       -1.7280    -8.4030    -2.1660 H     1 <1>   0.0800 
 29 H       -3.3100    -7.6870    -2.1600 H     1 <1>   0.0800 
 30 H       -2.1890   -10.3300    -1.2410 H     1 <1>   0.0800 
 31 H       -3.9040   -10.1200    -1.0380 H     1 <1>   0.0800 
 32 H       -3.7330    -6.8630     0.4990 H     1 <1>   0.0800 
 33 H       -4.0460    -8.3590     1.3270 H     1 <1>   0.0800 
 34 H       -4.7780    -8.0590    -0.2370 H     1 <1>   0.0800 
 35 H       -3.6680   -10.5610     1.3760 H     1 <1>   0.0800 
 36 H       -1.9340   -10.5980     1.2190 H     1 <1>   0.0800 
 37 H       -0.3040   -11.7510    -0.5080 H     1 <1>   0.0800 
 38 H        0.1610   -13.4350    -0.5560 H     1 <1>   0.0800 
 39 H       -0.0110   -12.6240     0.9830 H     1 <1>   0.0800 
 40 H       -4.1390   -15.1500    -0.1830 H     1 <1>   0.2700 
 41 H       -5.6290   -11.7400     0.7620 H     1 <1>   0.0800 
 42 H       -5.8580   -13.3660     1.3550 H     1 <1>   0.0800 
 43 H       -6.0590   -13.0130    -0.3490 H     1 <1>   0.0800 
@<TRIPOS>BOND
  1   1   2  1   
  2   2   3  ar  
  3   2   4  ar  
  4   3   5  ar  
  5   3  24  1   
  6   4   6  ar  
  7   4  25  1   
  8   5   7  1   
  9   5   8  ar  
 10   6   8  ar  
 11   6  26  1   
 12   8   9  1   
 13   9  10  am  
 14   9  27  1   
 15  10  11  2   
 16  10  12  1   
 17  12  13  1   
 18  12  28  1   
 19  12  29  1   
 20  13  14  1   
 21  13  15  1   
 22  14  16  1   
 23  14  30  1   
 24  14  31  1   
 25  15  32  1   
 26  15  33  1   
 27  15  34  1   
 28  16  17  1   
 29  16  35  1   
 30  16  36  1   
 31  17  18  1   
 32  17  19  2   
 33  18  20  2   
 34  18  21  1   
 35  19  22  1   
 36  19  23  1   
 37  20  22  1   
 38  21  37  1   
 39  21  38  1   
 40  21  39  1   
 41  22  40  1   
 42  23  41  1   
 43  23  42  1   
 44  23  43  1   
@<TRIPOS>SUBSTRUCTURE
  1 ****  13 GROUP 4 **** **** 0

# MOE 2024.06 (io_trps.svl 2023.06)
