@<TRIPOS>MOLECULE
NONAME
47 49 1 0 0 
SMALL
USER_CHARGES


@<TRIPOS>ATOM
  1 S       -0.3700     0.1660     1.4620 S.o2  1 <1>   1.4470 
  2 O       -0.6660     1.1490     2.4770 O.2   1 <1>  -0.6500 
  3 O       -0.2600    -1.2340     1.8280 O.2   1 <1>  -0.6500 
  4 N       -1.6570     0.1970     0.3510 N.am  1 <1>  -0.8490 
  5 C        1.0550     0.6780     0.4640 C.ar  1 <1>  -0.0090 
  6 C       -1.6400    -0.9680    -0.5590 C.3   1 <1>   0.1960 
  7 C       -2.9500     0.4250     1.0430 C.3   1 <1>   0.1960 
  8 C        0.9740     1.7710    -0.3920 C.ar  1 <1>  -0.1500 
  9 C        2.2630    -0.0070     0.5330 C.ar  1 <1>  -0.1500 
 10 C       -2.5230    -2.0840     0.0340 C.3   1 <1>   0.4230 
 11 C       -4.1420    -0.1570     0.2640 C.3   1 <1>  -0.1600 
 12 C        2.0540     2.1580    -1.1660 C.ar  1 <1>  -0.1500 
 13 C        3.3480     0.3730    -0.2370 C.ar  1 <1>  -0.1500 
 14 N       -2.2270    -3.5110    -0.3710 N.4   1 <1>  -0.9590 
 15 C       -4.0180    -1.6860    -0.0380 C.3   1 <1>   0.0000 
 16 C        3.2430     1.4560    -1.0900 C.ar  1 <1>  -0.1500 
 17 C       -3.3080    -4.4660     0.0550 C.3   1 <1>   0.3430 
 18 C       -1.8580    -3.7100    -1.8110 C.3   1 <1>   0.2630 
 19 C       -4.7420    -2.5420     1.0370 C.3   1 <1>  -0.1600 
 20 C       -4.6200    -1.9500    -1.4470 C.3   1 <1>   0.1200 
 21 C       -4.0940    -3.9320     1.2630 C.3   1 <1>  -0.1600 
 22 O       -5.9000    -1.4330    -1.5520 O.3   1 <1>  -0.6800 
 23 H       -2.0250    -0.6630    -1.5170 H     1 <1>   0.0800 
 24 H       -0.6300    -1.3130    -0.6990 H     1 <1>   0.0800 
 25 H       -2.9310    -0.0300     2.0210 H     1 <1>   0.0800 
 26 H       -3.0860     1.4860     1.1870 H     1 <1>   0.0800 
 27 H        0.0530     2.3280    -0.4540 H     1 <1>   0.1500 
 28 H        2.3600    -0.8490     1.1980 H     1 <1>   0.1500 
 29 H       -2.2900    -2.0550     1.0860 H     1 <1>   0.0800 
 30 H       -5.0520     0.0430     0.8020 H     1 <1>   0.0800 
 31 H       -4.2110     0.4040    -0.6540 H     1 <1>   0.0800 
 32 H        1.9710     3.0060    -1.8240 H     1 <1>   0.1500 
 33 H        4.2760    -0.1690    -0.1710 H     1 <1>   0.1500 
 34 H       -1.3950    -3.7580     0.1910 H     1 <1>   0.4500 
 35 H        4.0860     1.7560    -1.6900 H     1 <1>   0.1500 
 36 H       -3.9980    -4.6200    -0.7590 H     1 <1>   0.0800 
 37 H       -2.8740    -5.4230     0.2990 H     1 <1>   0.0800 
 38 H       -2.6810    -3.4450    -2.4540 H     1 <1>   0.0800 
 39 H       -1.6030    -4.7420    -1.9900 H     1 <1>   0.0800 
 40 H       -1.0070    -3.1020    -2.0710 H     1 <1>   0.0800 
 41 H       -4.7310    -2.0240     1.9820 H     1 <1>   0.0800 
 42 H       -5.7790    -2.6670     0.7750 H     1 <1>   0.0800 
 43 H       -4.6820    -2.9970    -1.6780 H     1 <1>   0.0800 
 44 H       -4.0310    -1.4660    -2.2070 H     1 <1>   0.0800 
 45 H       -4.8630    -4.6400     1.5230 H     1 <1>   0.0800 
 46 H       -3.4260    -3.8830     2.1060 H     1 <1>   0.0800 
 47 H       -6.5280    -1.8620    -0.9370 H     1 <1>   0.4000 
@<TRIPOS>BOND
  1   1   2  2   
  2   1   3  2   
  3   1   4  am  
  4   1   5  1   
  5   4   6  1   
  6   4   7  1   
  7   5   8  ar  
  8   5   9  ar  
  9   6  10  1   
 10   6  23  1   
 11   6  24  1   
 12   7  11  1   
 13   7  25  1   
 14   7  26  1   
 15   8  12  ar  
 16   8  27  1   
 17   9  13  ar  
 18   9  28  1   
 19  10  14  1   
 20  10  15  1   
 21  10  29  1   
 22  11  15  1   
 23  11  30  1   
 24  11  31  1   
 25  12  16  ar  
 26  12  32  1   
 27  13  16  ar  
 28  13  33  1   
 29  14  17  1   
 30  14  18  1   
 31  14  34  1   
 32  15  19  1   
 33  15  20  1   
 34  16  35  1   
 35  17  21  1   
 36  17  36  1   
 37  17  37  1   
 38  18  38  1   
 39  18  39  1   
 40  18  40  1   
 41  19  21  1   
 42  19  41  1   
 43  19  42  1   
 44  20  22  1   
 45  20  43  1   
 46  20  44  1   
 47  21  45  1   
 48  21  46  1   
 49  22  47  1   
@<TRIPOS>SUBSTRUCTURE
  1 ****   6 GROUP 4 **** **** 0

# MOE 2024.06 (io_trps.svl 2023.06)
