@<TRIPOS>MOLECULE
NONAME
38 40 1 0 0 
SMALL
USER_CHARGES


@<TRIPOS>ATOM
  1 O       -1.0610     0.2870    -0.4690 O.3   1 <1>  -0.3400 
  2 C       -0.6350     1.5580    -0.3150 C.ar  1 <1>   0.0830 
  3 C       -1.7740    -0.2590     0.6250 C.3   1 <1>   0.2580 
  4 C        0.6620     1.8200     0.1200 C.ar  1 <1>  -0.1440 
  5 C       -1.5020     2.5980    -0.6130 C.ar  1 <1>  -0.1500 
  6 C       -2.0280    -1.7690     0.4450 C.3   1 <1>   0.2450 
  7 C       -3.3020    -0.0810     0.4890 C.3   1 <1>   0.2450 
  8 C        1.0640     3.1400     0.2660 C.ar  1 <1>  -0.1500 
  9 C        1.6470     0.6980     0.4270 C.3   1 <1>  -0.0160 
 10 C       -1.0890     3.9090    -0.4610 C.ar  1 <1>  -0.1500 
 11 N       -3.4600    -1.5290     0.8690 N.3   1 <1>  -0.5900 
 12 C        0.1940     4.1790    -0.0190 C.ar  1 <1>  -0.1500 
 13 C        2.3200     0.2050    -0.8550 C.3   1 <1>  -0.2400 
 14 C       -4.4970    -2.2660     0.3340 C.ar  1 <1>   0.4100 
 15 N       -4.2000    -3.3970    -0.3010 N.ar  1 <1>  -0.6200 
 16 C       -5.8100    -1.8220     0.4870 C.ar  1 <1>  -0.1500 
 17 C       -5.2170    -4.0820    -0.7940 C.ar  1 <1>   0.1600 
 18 C       -6.8570    -2.5460    -0.0330 C.ar  1 <1>  -0.1500 
 19 C       -6.5540    -3.7220    -0.7010 C.ar  1 <1>   0.0730 
 20 C       -7.5710    -4.5460    -1.2780 C.1   1 <1>   0.4840 
 21 N       -8.3790    -5.2050    -1.7410 N.1   1 <1>  -0.5570 
 22 H       -1.3520     0.0190     1.5750 H     1 <1>   0.0000 
 23 H       -2.4920     2.3830    -0.9690 H     1 <1>   0.1500 
 24 H       -1.5050    -2.3840     1.1550 H     1 <1>   0.0000 
 25 H       -1.9550    -2.0980    -0.5780 H     1 <1>   0.0000 
 26 H       -3.6390     0.0990    -0.5180 H     1 <1>   0.0000 
 27 H       -3.7300     0.5690     1.2300 H     1 <1>   0.0000 
 28 H        2.0620     3.3660     0.6000 H     1 <1>   0.1500 
 29 H        1.1380    -0.1200     0.9040 H     1 <1>   0.0800 
 30 H        2.3990     1.0510     1.1120 H     1 <1>   0.0800 
 31 H       -1.7620     4.7170    -0.6890 H     1 <1>   0.1500 
 32 H        0.5190     5.1980     0.1000 H     1 <1>   0.1500 
 33 H        1.5790    -0.1750    -1.5370 H     1 <1>   0.0800 
 34 H        3.0190    -0.5800    -0.6310 H     1 <1>   0.0800 
 35 H        2.8440     1.0140    -1.3330 H     1 <1>   0.0800 
 36 H       -5.9900    -0.9080     1.0220 H     1 <1>   0.1500 
 37 H       -4.9710    -4.9970    -1.3080 H     1 <1>   0.1500 
 38 H       -7.8760    -2.2150     0.0760 H     1 <1>   0.1500 
@<TRIPOS>BOND
  1   1   2  1   
  2   1   3  1   
  3   2   4  ar  
  4   2   5  ar  
  5   3   6  1   
  6   3   7  1   
  7   3  22  1   
  8   4   8  ar  
  9   4   9  1   
 10   5  10  ar  
 11   5  23  1   
 12   6  11  1   
 13   6  24  1   
 14   6  25  1   
 15   7  11  1   
 16   7  26  1   
 17   7  27  1   
 18   8  12  ar  
 19   8  28  1   
 20   9  13  1   
 21   9  29  1   
 22   9  30  1   
 23  10  12  ar  
 24  10  31  1   
 25  11  14  1   
 26  12  32  1   
 27  13  33  1   
 28  13  34  1   
 29  13  35  1   
 30  14  15  ar  
 31  14  16  ar  
 32  15  17  ar  
 33  16  18  ar  
 34  16  36  1   
 35  17  19  ar  
 36  17  37  1   
 37  18  19  ar  
 38  18  38  1   
 39  19  20  1   
 40  20  21  3   
@<TRIPOS>SUBSTRUCTURE
  1 ****   7 GROUP 4 **** **** 0

# MOE 2024.06 (io_trps.svl 2023.06)
