@<TRIPOS>MOLECULE
NONAME
50 53 1 0 0 
SMALL
USER_CHARGES


@<TRIPOS>ATOM
  1 O        0.5150     0.1580     0.3990 O.3   1 <1>  -0.6800 
  2 C        1.2880    -0.4190    -0.6020 C.3   1 <1>   0.2000 
  3 C        1.7610    -1.7860    -0.1050 C.3   1 <1>  -0.0800 
  4 C        2.5860     0.3790    -0.7040 C.3   1 <1>   0.3430 
  5 C        3.0240    -1.4840     0.7210 C.3   1 <1>   0.3430 
  6 C        2.0510    -2.7470    -1.2810 C.3   1 <1>  -0.0170 
  7 N        3.3480    -0.0420     0.5050 N.4   1 <1>  -0.9590 
  8 C        2.8540    -3.9650    -0.8330 C.ar  1 <1>  -0.1440 
  9 C        4.7930     0.3000     0.5710 C.3   1 <1>   0.4230 
 10 C        2.3070    -4.9790    -0.0100 C.ar  1 <1>   0.0000 
 11 C        4.1590    -4.0970    -1.2130 C.ar  1 <1>  -0.1500 
 12 C        4.9600     1.8230     0.6320 C.3   1 <1>  -0.1600 
 13 C        5.5860    -0.2950    -0.6060 C.3   1 <1>  -0.1600 
 14 C        3.1750    -6.0090     0.4270 C.ar  1 <1>   0.3100 
 15 C        0.9530    -5.0410     0.3970 C.ar  1 <1>  -0.1500 
 16 C        4.9230    -5.1740    -0.7490 C.ar  1 <1>   0.1600 
 17 C        6.4430     2.2080     0.7320 C.3   1 <1>  -0.1600 
 18 C        7.0710     0.0840    -0.5070 C.3   1 <1>  -0.1600 
 19 N        4.4760    -6.0860     0.0520 N.ar  1 <1>  -0.6200 
 20 C        2.6770    -7.0040     1.2820 C.ar  1 <1>  -0.1500 
 21 C        0.4970    -6.0280     1.2270 C.ar  1 <1>  -0.1500 
 22 C        7.2520     1.6050    -0.4240 C.3   1 <1>  -0.1600 
 23 C        1.3690    -7.0190     1.6830 C.ar  1 <1>  -0.1500 
 24 H       -0.3990    -0.2000     0.3990 H     1 <1>   0.4000 
 25 H        0.7240    -0.4380    -1.5200 H     1 <1>   0.0800 
 26 H        1.0220    -2.2350     0.5330 H     1 <1>   0.0800 
 27 H        2.3930     1.4400    -0.7150 H     1 <1>   0.0800 
 28 H        3.1150     0.0960    -1.5980 H     1 <1>   0.0800 
 29 H        3.8400    -2.1110     0.4040 H     1 <1>   0.0800 
 30 H        2.8390    -1.6690     1.7670 H     1 <1>   0.0800 
 31 H        2.6050    -2.2300    -2.0460 H     1 <1>   0.0800 
 32 H        1.1280    -3.0700    -1.7320 H     1 <1>   0.0800 
 33 H        2.8740     0.4560     1.2750 H     1 <1>   0.4500 
 34 H        5.2010    -0.1090     1.4820 H     1 <1>   0.0800 
 35 H        4.6400    -3.3920    -1.8660 H     1 <1>   0.1500 
 36 H        4.5520     2.2810    -0.2510 H     1 <1>   0.0800 
 37 H        4.4440     2.2130     1.4920 H     1 <1>   0.0800 
 38 H        5.5120    -1.3660    -0.6030 H     1 <1>   0.0800 
 39 H        5.2090     0.0780    -1.5410 H     1 <1>   0.0800 
 40 H        0.2550    -4.3070     0.0440 H     1 <1>   0.1500 
 41 H        5.9480    -5.2470    -1.0730 H     1 <1>   0.1500 
 42 H        6.5420     3.2810     0.7170 H     1 <1>   0.0800 
 43 H        6.8470     1.8580     1.6690 H     1 <1>   0.0800 
 44 H        7.5050    -0.3730     0.3670 H     1 <1>   0.0800 
 45 H        7.6010    -0.2920    -1.3660 H     1 <1>   0.0800 
 46 H        3.3630    -7.7630     1.6110 H     1 <1>   0.1500 
 47 H       -0.5350    -6.0630     1.5350 H     1 <1>   0.1500 
 48 H        8.2960     1.8350    -0.2890 H     1 <1>   0.0800 
 49 H        6.9400     2.0550    -1.3520 H     1 <1>   0.0800 
 50 H        1.0000    -7.7900     2.3390 H     1 <1>   0.1500 
@<TRIPOS>BOND
  1   1   2  1   
  2   1  24  1   
  3   2   3  1   
  4   2   4  1   
  5   2  25  1   
  6   3   5  1   
  7   3   6  1   
  8   3  26  1   
  9   4   7  1   
 10   4  27  1   
 11   4  28  1   
 12   5   7  1   
 13   5  29  1   
 14   5  30  1   
 15   6   8  1   
 16   6  31  1   
 17   6  32  1   
 18   7   9  1   
 19   7  33  1   
 20   8  10  ar  
 21   8  11  ar  
 22   9  12  1   
 23   9  13  1   
 24   9  34  1   
 25  10  14  ar  
 26  10  15  ar  
 27  11  16  ar  
 28  11  35  1   
 29  12  17  1   
 30  12  36  1   
 31  12  37  1   
 32  13  18  1   
 33  13  38  1   
 34  13  39  1   
 35  14  19  ar  
 36  14  20  ar  
 37  15  21  ar  
 38  15  40  1   
 39  16  19  ar  
 40  16  41  1   
 41  17  22  1   
 42  17  42  1   
 43  17  43  1   
 44  18  22  1   
 45  18  44  1   
 46  18  45  1   
 47  20  23  ar  
 48  20  46  1   
 49  21  23  ar  
 50  21  47  1   
 51  22  48  1   
 52  22  49  1   
 53  23  50  1   
@<TRIPOS>SUBSTRUCTURE
  1 ****   5 GROUP 4 **** **** 0

# MOE 2024.06 (io_trps.svl 2023.06)
