@<TRIPOS>MOLECULE
NONAME
50 53 1 0 0 
SMALL
USER_CHARGES


@<TRIPOS>ATOM
  1 O        0.0480     0.1980     1.0980 O.2   1 <1>  -0.5700 
  2 C        1.0520    -0.3890     0.7450 C.2   1 <1>   0.7160 
  3 N        2.1290     0.3000     0.2410 N.am  1 <1>  -0.4940 
  4 C        1.1240    -1.8250     0.8180 C.2   1 <1>  -0.0860 
  5 C        2.3700     1.6960     0.1930 C.2   1 <1>  -0.0880 
  6 C        2.2750    -2.5980     0.9850 C.2   1 <1>   0.1390 
  7 C        0.1410    -2.7610     0.7500 C.2   1 <1>  -0.3020 
  8 N        3.3500     2.3050    -0.5350 N.pl3 1 <1>   0.3140 
  9 C        1.7140     2.6860     0.8430 C.2   1 <1>  -0.1500 
 10 N        2.0360    -3.8660     0.9960 N.2   1 <1>  -0.7070 
 11 N        0.6900    -3.9900     0.8390 N.pl3 1 <1>   0.5930 
 12 N        3.3310     3.6510    -0.3470 N.2   1 <1>  -0.7070 
 13 C        4.3110     1.6190    -1.4550 C.3   1 <1>   0.2710 
 14 C        2.3520     3.8600     0.4720 C.2   1 <1>   0.1080 
 15 C        0.0220    -5.2470     0.8550 C.ar  1 <1>  -0.0230 
 16 C        5.4590     0.9900    -0.6280 C.3   1 <1>  -0.1950 
 17 C        4.7810     2.5540    -2.5870 C.3   1 <1>  -0.2400 
 18 C        1.9770     5.2440     0.9470 C.3   1 <1>  -0.0590 
 19 C       -0.9550    -5.5670    -0.0930 C.ar  1 <1>   0.0830 
 20 C        0.3430    -6.1830     1.8340 C.ar  1 <1>  -0.1500 
 21 C        6.6180     1.7820    -0.1060 C.3   1 <1>  -0.2000 
 22 C        6.8380     0.7300    -1.1570 C.3   1 <1>  -0.2000 
 23 O       -1.2370    -4.6470    -1.0560 O.3   1 <1>  -0.3630 
 24 C       -1.5960    -6.8030    -0.0330 C.ar  1 <1>  -0.1500 
 25 C       -0.2970    -7.4070     1.8860 C.ar  1 <1>  -0.1500 
 26 C       -2.1750    -4.9000    -2.0790 C.3   1 <1>   0.0400 
 27 C       -1.2680    -7.7160     0.9530 C.ar  1 <1>  -0.1500 
 28 H        2.8420    -0.3000    -0.1670 H     1 <1>   0.3700 
 29 H        3.2670    -2.1930     1.1030 H     1 <1>   0.1500 
 30 H       -0.9170    -2.6130     0.6370 H     1 <1>   0.1500 
 31 H        0.8750     2.6010     1.5100 H     1 <1>   0.1500 
 32 H        3.7720     0.8190    -1.9250 H     1 <1>   0.0800 
 33 H        5.0760     0.2400     0.0410 H     1 <1>   0.1000 
 34 H        5.3620     3.3690    -2.1940 H     1 <1>   0.0800 
 35 H        3.9280     2.9590    -3.1010 H     1 <1>   0.0800 
 36 H        5.3760     2.0150    -3.2990 H     1 <1>   0.0800 
 37 H        1.1380     5.1970     1.6150 H     1 <1>   0.0800 
 38 H        1.7230     5.8560     0.1010 H     1 <1>   0.0800 
 39 H        2.8130     5.6850     1.4580 H     1 <1>   0.0800 
 40 H        1.1030    -5.9480     2.5610 H     1 <1>   0.1500 
 41 H        6.9550     1.5950     0.8990 H     1 <1>   0.1000 
 42 H        6.7080     2.8210    -0.3750 H     1 <1>   0.1000 
 43 H        7.1380     1.0650    -2.1350 H     1 <1>   0.1000 
 44 H        7.3420    -0.1780    -0.8710 H     1 <1>   0.1000 
 45 H       -2.3520    -7.0760    -0.7440 H     1 <1>   0.1500 
 46 H       -0.0370    -8.1190     2.6510 H     1 <1>   0.1500 
 47 H       -2.2110    -4.0370    -2.7200 H     1 <1>   0.0800 
 48 H       -3.1410    -5.0640    -1.6360 H     1 <1>   0.0800 
 49 H       -1.8550    -5.7590    -2.6420 H     1 <1>   0.0800 
 50 H       -1.7670    -8.6700     0.9930 H     1 <1>   0.1500 
@<TRIPOS>BOND
  1   1   2  2   
  2   2   3  am  
  3   2   4  1   
  4   3   5  1   
  5   3  28  1   
  6   4   6  1   
  7   4   7  2   
  8   5   8  1   
  9   5   9  2   
 10   6  10  2   
 11   6  29  1   
 12   7  11  1   
 13   7  30  1   
 14   8  12  1   
 15   8  13  1   
 16   9  14  1   
 17   9  31  1   
 18  10  11  1   
 19  11  15  1   
 20  12  14  2   
 21  13  16  1   
 22  13  17  1   
 23  13  32  1   
 24  14  18  1   
 25  15  19  ar  
 26  15  20  ar  
 27  16  21  1   
 28  16  22  1   
 29  16  33  1   
 30  17  34  1   
 31  17  35  1   
 32  17  36  1   
 33  18  37  1   
 34  18  38  1   
 35  18  39  1   
 36  19  23  1   
 37  19  24  ar  
 38  20  25  ar  
 39  20  40  1   
 40  21  22  1   
 41  21  41  1   
 42  21  42  1   
 43  22  43  1   
 44  22  44  1   
 45  23  26  1   
 46  24  27  ar  
 47  24  45  1   
 48  25  27  ar  
 49  25  46  1   
 50  26  47  1   
 51  26  48  1   
 52  26  49  1   
 53  27  50  1   
@<TRIPOS>SUBSTRUCTURE
  1 ****   4 GROUP 4 **** **** 0

# MOE 2024.06 (io_trps.svl 2023.06)
