@<TRIPOS>MOLECULE
NONAME
52 55 1 0 0 
SMALL
USER_CHARGES


@<TRIPOS>ATOM
  1 O        0.7230    -1.2650     0.7070 O.2   1 <1>  -0.5700 
  2 C        1.3330    -0.8210    -0.2400 C.2   1 <1>   0.5690 
  3 N        1.8480     0.4390    -0.2820 N.am  1 <1>  -0.4930 
  4 C        1.5340    -1.7430    -1.4360 C.3   1 <1>  -0.0190 
  5 C        1.7660     1.4560     0.7020 C.2   1 <1>   0.0630 
  6 C        0.2590    -2.5860    -1.6250 C.3   1 <1>   0.3430 
  7 C        2.7980    -2.6210    -1.2440 C.3   1 <1>  -0.1600 
  8 C        1.1460     1.4460     1.9520 C.2   1 <1>   0.1390 
  9 C        2.3000     2.6900     0.6030 C.2   1 <1>  -0.3020 
 10 N        0.2680    -3.7030    -0.6400 N.4   1 <1>  -0.9590 
 11 C        2.5480    -4.0890    -1.6320 C.3   1 <1>  -0.1600 
 12 N        1.2800     2.5760     2.5790 N.2   1 <1>  -0.7070 
 13 N        1.9950     3.3550     1.7430 N.pl3 1 <1>   0.3140 
 14 C        1.3530    -4.7070    -0.8850 C.3   1 <1>   0.3430 
 15 C       -1.0710    -4.3290    -0.4490 C.3   1 <1>   0.5230 
 16 C        2.3740     4.7350     2.1270 C.3   1 <1>   0.2390 
 17 C       -1.0540    -5.2340     0.7700 C.2   1 <1>  -0.0400 
 18 C        2.7700     5.5830     0.9220 C.ar  1 <1>  -0.1440 
 19 O       -0.4410    -6.4010     0.6990 O.3   1 <1>  -0.2800 
 20 C       -1.5890    -5.0570     1.9990 C.2   1 <1>  -0.1500 
 21 C        4.1070     5.8110     0.6320 C.ar  1 <1>  -0.1500 
 22 C        1.7920     6.1300     0.1050 C.ar  1 <1>  -0.1500 
 23 C       -0.5700    -6.9930     1.8700 C.2   1 <1>  -0.0100 
 24 C       -1.2700    -6.2140     2.7210 C.2   1 <1>  -0.1500 
 25 C        4.4620     6.5780    -0.4640 C.ar  1 <1>  -0.1500 
 26 C        2.1470     6.8980    -0.9910 C.ar  1 <1>  -0.1500 
 27 C        3.4830     7.1220    -1.2760 C.ar  1 <1>  -0.1500 
 28 H        2.3860     0.7130    -1.1030 H     1 <1>   0.3700 
 29 H        1.6520    -1.1380    -2.3170 H     1 <1>   0.0800 
 30 H        0.2290    -2.9860    -2.6250 H     1 <1>   0.0800 
 31 H       -0.6070    -1.9610    -1.4760 H     1 <1>   0.0800 
 32 H        3.1050    -2.5970    -0.2100 H     1 <1>   0.0800 
 33 H        3.6130    -2.2220    -1.8250 H     1 <1>   0.0800 
 34 H        0.6150     0.6040     2.3620 H     1 <1>   0.1500 
 35 H        2.8680     3.1340    -0.1940 H     1 <1>   0.1500 
 36 H        0.4810    -3.2450     0.2680 H     1 <1>   0.4500 
 37 H        3.4270    -4.6760    -1.4260 H     1 <1>   0.0800 
 38 H        2.3700    -4.1570    -2.6920 H     1 <1>   0.0800 
 39 H        0.9700    -5.5360    -1.4580 H     1 <1>   0.0800 
 40 H        1.6850    -5.0960     0.0650 H     1 <1>   0.0800 
 41 H       -1.3470    -4.9020    -1.3190 H     1 <1>   0.0800 
 42 H       -1.8090    -3.5600    -0.2960 H     1 <1>   0.0800 
 43 H        3.1860     4.6750     2.8260 H     1 <1>   0.0800 
 44 H        1.5350     5.1830     2.6270 H     1 <1>   0.0800 
 45 H       -2.1500    -4.2260     2.3920 H     1 <1>   0.1500 
 46 H        4.8800     5.3930     1.2540 H     1 <1>   0.1500 
 47 H        0.7500     5.9610     0.3160 H     1 <1>   0.1500 
 48 H       -0.1360    -7.9680     2.0150 H     1 <1>   0.1500 
 49 H       -1.5430    -6.4110     3.7430 H     1 <1>   0.1500 
 50 H        5.5010     6.7540    -0.6850 H     1 <1>   0.1500 
 51 H        1.3850     7.3210    -1.6220 H     1 <1>   0.1500 
 52 H        3.7590     7.7190    -2.1270 H     1 <1>   0.1500 
@<TRIPOS>BOND
  1   1   2  2   
  2   2   3  am  
  3   2   4  1   
  4   3   5  1   
  5   3  28  1   
  6   4   6  1   
  7   4   7  1   
  8   4  29  1   
  9   5   8  1   
 10   5   9  2   
 11   6  10  1   
 12   6  30  1   
 13   6  31  1   
 14   7  11  1   
 15   7  32  1   
 16   7  33  1   
 17   8  12  2   
 18   8  34  1   
 19   9  13  1   
 20   9  35  1   
 21  10  14  1   
 22  10  15  1   
 23  10  36  1   
 24  11  14  1   
 25  11  37  1   
 26  11  38  1   
 27  12  13  1   
 28  13  16  1   
 29  14  39  1   
 30  14  40  1   
 31  15  17  1   
 32  15  41  1   
 33  15  42  1   
 34  16  18  1   
 35  16  43  1   
 36  16  44  1   
 37  17  19  1   
 38  17  20  2   
 39  18  21  ar  
 40  18  22  ar  
 41  19  23  1   
 42  20  24  1   
 43  20  45  1   
 44  21  25  ar  
 45  21  46  1   
 46  22  26  ar  
 47  22  47  1   
 48  23  24  2   
 49  23  48  1   
 50  24  49  1   
 51  25  27  ar  
 52  25  50  1   
 53  26  27  ar  
 54  26  51  1   
 55  27  52  1   
@<TRIPOS>SUBSTRUCTURE
  1 ****   3 GROUP 4 **** **** 0

# MOE 2024.06 (io_trps.svl 2023.06)
