@<TRIPOS>MOLECULE
NONAME
46 47 1 0 0 
SMALL
USER_CHARGES


@<TRIPOS>ATOM
  1 CL       0.1290     1.1270     1.3680 Cl    1 <1>  -0.1770 
  2 C       -1.5140     1.2730     0.8050 C.ar  1 <1>   0.1770 
  3 C       -2.1820     0.1520     0.3530 C.ar  1 <1>  -0.1500 
  4 C       -2.1300     2.5100     0.8150 C.ar  1 <1>  -0.1500 
  5 C       -3.4850     0.2750    -0.0960 C.ar  1 <1>  -0.1500 
  6 C       -3.4340     2.6200     0.3660 C.ar  1 <1>  -0.1500 
  7 C       -4.1420     1.5080    -0.0960 C.ar  1 <1>   0.0530 
  8 C       -5.4970     1.6520    -0.5700 C.2   1 <1>   0.0870 
  9 O       -5.8160     2.7080    -1.2760 O.3   1 <1>  -0.0190 
 10 C       -6.6220     0.8890    -0.4680 C.2   1 <1>  -0.0860 
 11 N       -7.0620     2.7100    -1.6630 N.2   1 <1>  -0.4100 
 12 C       -7.5670     1.6340    -1.1860 C.2   1 <1>   0.3720 
 13 C       -6.8540    -0.3610     0.1910 C.2   1 <1>   0.7160 
 14 N       -8.9040     1.3350    -1.4100 N.pl3 1 <1>  -0.8520 
 15 O       -6.0870    -0.7880     1.0320 O.2   1 <1>  -0.5700 
 16 N       -7.9580    -1.0940    -0.1170 N.am  1 <1>  -0.7300 
 17 C       -9.7930     1.6060    -0.2460 C.3   1 <1>   0.2090 
 18 C       -8.3950    -2.3420     0.5180 C.3   1 <1>   0.2200 
 19 C      -11.1740     0.9980    -0.4900 C.3   1 <1>   0.1200 
 20 C       -8.7940    -3.3230    -0.5920 C.3   1 <1>  -0.1600 
 21 C       -9.5480    -2.0050     1.4620 C.3   1 <1>  -0.2400 
 22 O      -11.9310     1.1420     0.6690 O.3   1 <1>  -0.5600 
 23 C       -9.1610    -4.7190    -0.0670 C.3   1 <1>  -0.2400 
 24 C      -13.2130     0.6080     0.5780 C.3   1 <1>   0.0400 
 25 H       -1.6870    -0.8020     0.3540 H     1 <1>   0.1500 
 26 H       -1.5910     3.3710     1.1700 H     1 <1>   0.1500 
 27 H       -4.0020    -0.6000    -0.4500 H     1 <1>   0.1500 
 28 H       -3.9160     3.5820     0.3730 H     1 <1>   0.1500 
 29 H       -9.2060     1.9330    -2.1880 H     1 <1>   0.4000 
 30 H       -8.6130    -0.6560    -0.7750 H     1 <1>   0.3700 
 31 H       -9.3700     1.1730     0.6450 H     1 <1>   0.0800 
 32 H       -9.8860     2.6690    -0.1040 H     1 <1>   0.0800 
 33 H       -7.5780    -2.7590     1.0860 H     1 <1>   0.0800 
 34 H      -11.0840    -0.0510    -0.7120 H     1 <1>   0.0800 
 35 H      -11.6730     1.5110    -1.2940 H     1 <1>   0.0800 
 36 H       -9.6270    -2.9260    -1.1460 H     1 <1>   0.0800 
 37 H       -7.9620    -3.4290    -1.2670 H     1 <1>   0.0800 
 38 H      -10.4020    -1.6520     0.9160 H     1 <1>   0.0800 
 39 H       -9.2370    -1.2520     2.1640 H     1 <1>   0.0800 
 40 H       -9.8350    -2.8750     2.0220 H     1 <1>   0.0800 
 41 H      -10.0490    -4.6830     0.5380 H     1 <1>   0.0800 
 42 H       -8.3540    -5.1230     0.5200 H     1 <1>   0.0800 
 43 H       -9.3450    -5.3830    -0.8930 H     1 <1>   0.0800 
 44 H      -13.7110     0.7720     1.5180 H     1 <1>   0.0800 
 45 H      -13.1460    -0.4480     0.3830 H     1 <1>   0.0800 
 46 H      -13.7520     1.1070    -0.2090 H     1 <1>   0.0800 
@<TRIPOS>BOND
  1   1   2  1   
  2   2   3  ar  
  3   2   4  ar  
  4   3   5  ar  
  5   3  25  1   
  6   4   6  ar  
  7   4  26  1   
  8   5   7  ar  
  9   5  27  1   
 10   6   7  ar  
 11   6  28  1   
 12   7   8  1   
 13   8   9  1   
 14   8  10  2   
 15   9  11  1   
 16  10  12  1   
 17  10  13  1   
 18  11  12  2   
 19  12  14  1   
 20  13  15  2   
 21  13  16  am  
 22  14  17  1   
 23  14  29  1   
 24  16  18  1   
 25  16  30  1   
 26  17  19  1   
 27  17  31  1   
 28  17  32  1   
 29  18  20  1   
 30  18  21  1   
 31  18  33  1   
 32  19  22  1   
 33  19  34  1   
 34  19  35  1   
 35  20  23  1   
 36  20  36  1   
 37  20  37  1   
 38  21  38  1   
 39  21  39  1   
 40  21  40  1   
 41  22  24  1   
 42  23  41  1   
 43  23  42  1   
 44  23  43  1   
 45  24  44  1   
 46  24  45  1   
 47  24  46  1   
@<TRIPOS>SUBSTRUCTURE
  1 ****  10 GROUP 4 **** **** 0

# MOE 2024.06 (io_trps.svl 2023.06)
