@<TRIPOS>MOLECULE
NONAME
50 52 1 0 0 
SMALL
USER_CHARGES


@<TRIPOS>ATOM
  1 O       -1.5040     1.7360     0.4530 O.2   1 <1>  -0.5700 
  2 C       -0.9600     2.7880     0.6670 C.2   1 <1>   0.5690 
  3 N       -1.6610     3.9440     0.6360 N.am  1 <1>  -0.7300 
  4 C        0.5500     2.8270     0.9430 C.3   1 <1>   0.1810 
  5 C       -1.0600     5.2610     0.9360 C.3   1 <1>   0.3640 
  6 O        1.0080     4.0690     1.4470 O.3   1 <1>  -0.5600 
  7 C       -1.6760     6.3110     0.0130 C.ar  1 <1>  -0.1440 
  8 C        0.4780     5.2030     0.7850 C.3   1 <1>   0.2610 
  9 C       -1.6160     6.1820    -1.3690 C.ar  1 <1>  -0.1500 
 10 C       -2.3060     7.4210     0.5580 C.ar  1 <1>  -0.1500 
 11 C        1.1350     6.5000     1.2680 C.2   1 <1>   0.5690 
 12 C       -2.1690     7.1500    -2.1890 C.ar  1 <1>  -0.1500 
 13 C       -2.8690     8.3840    -0.2610 C.ar  1 <1>  -0.1500 
 14 O        0.5670     7.2270     2.0520 O.2   1 <1>  -0.5700 
 15 N        2.3360     6.8500     0.7410 N.am  1 <1>  -0.7300 
 16 C       -2.7970     8.2520    -1.6360 C.ar  1 <1>  -0.1500 
 17 C        2.9550     8.1860     0.8550 C.3   1 <1>   0.3200 
 18 C        2.9340     8.8310    -0.5180 C.2   1 <1>   0.0060 
 19 N        3.9440     8.8430    -1.3200 N.2   1 <1>  -0.3380 
 20 N        1.8690     9.4370    -1.0580 N.pl3 1 <1>   0.0480 
 21 N        3.5560     9.4750    -2.4280 N.2   1 <1>  -0.3380 
 22 C        2.3280     9.8190    -2.2500 C.2   1 <1>   0.0360 
 23 C        0.5090     9.6420    -0.5150 C.3   1 <1>   0.0960 
 24 C        0.4480    10.9310     0.3090 C.3   1 <1>  -0.1600 
 25 C       -0.9250    11.0970     0.9520 C.3   1 <1>   0.1200 
 26 O       -0.9240    12.3050     1.6320 O.3   1 <1>  -0.5600 
 27 C       -2.1000    12.5670     2.3260 C.3   1 <1>   0.0400 
 28 H       -2.6670     3.9130     0.4600 H     1 <1>   0.3700 
 29 H        1.0800     2.6180     0.0320 H     1 <1>   0.0800 
 30 H        0.7980     2.0710     1.6660 H     1 <1>   0.0800 
 31 H       -1.2930     5.5070     1.9590 H     1 <1>   0.0800 
 32 H        0.7140     5.0980    -0.2580 H     1 <1>   0.0800 
 33 H       -1.1450     5.3240    -1.8170 H     1 <1>   0.1500 
 34 H       -2.3630     7.5410     1.6280 H     1 <1>   0.1500 
 35 H       -2.1180     7.0410    -3.2590 H     1 <1>   0.1500 
 36 H       -3.3690     9.2340     0.1720 H     1 <1>   0.1500 
 37 H        2.8300     6.2230     0.1030 H     1 <1>   0.3700 
 38 H       -3.2360     8.9980    -2.2750 H     1 <1>   0.1500 
 39 H        2.4270     8.7960     1.5670 H     1 <1>   0.0800 
 40 H        3.9730     8.0780     1.1890 H     1 <1>   0.0800 
 41 H        1.7310    10.3510    -2.9690 H     1 <1>   0.1500 
 42 H       -0.1870     9.6920    -1.3340 H     1 <1>   0.0800 
 43 H        0.2430     8.7990     0.0930 H     1 <1>   0.0800 
 44 H        0.6410    11.7760    -0.3290 H     1 <1>   0.0800 
 45 H        1.1880    10.9010     1.0890 H     1 <1>   0.0800 
 46 H       -1.1160    10.3000     1.6530 H     1 <1>   0.0800 
 47 H       -1.6990    11.1270     0.2030 H     1 <1>   0.0800 
 48 H       -1.9940    13.5200     2.8140 H     1 <1>   0.0800 
 49 H       -2.2560    11.7980     3.0640 H     1 <1>   0.0800 
 50 H       -2.9220    12.6040     1.6330 H     1 <1>   0.0800 
@<TRIPOS>BOND
  1   1   2  2   
  2   2   3  am  
  3   2   4  1   
  4   3   5  1   
  5   3  28  1   
  6   4   6  1   
  7   4  29  1   
  8   4  30  1   
  9   5   7  1   
 10   5   8  1   
 11   5  31  1   
 12   6   8  1   
 13   7   9  ar  
 14   7  10  ar  
 15   8  11  1   
 16   8  32  1   
 17   9  12  ar  
 18   9  33  1   
 19  10  13  ar  
 20  10  34  1   
 21  11  14  2   
 22  11  15  am  
 23  12  16  ar  
 24  12  35  1   
 25  13  16  ar  
 26  13  36  1   
 27  15  17  1   
 28  15  37  1   
 29  16  38  1   
 30  17  18  1   
 31  17  39  1   
 32  17  40  1   
 33  18  19  2   
 34  18  20  1   
 35  19  21  1   
 36  20  22  1   
 37  20  23  1   
 38  21  22  2   
 39  22  41  1   
 40  23  24  1   
 41  23  42  1   
 42  23  43  1   
 43  24  25  1   
 44  24  44  1   
 45  24  45  1   
 46  25  26  1   
 47  25  46  1   
 48  25  47  1   
 49  26  27  1   
 50  27  48  1   
 51  27  49  1   
 52  27  50  1   
@<TRIPOS>SUBSTRUCTURE
  1 ****  11 GROUP 4 **** **** 0

# MOE 2024.06 (io_trps.svl 2023.06)
