@<TRIPOS>MOLECULE
NONAME
45 46 1 0 0 
SMALL
USER_CHARGES


@<TRIPOS>ATOM
  1 O       -3.3210     1.9910    -1.7200 O.2   1 <1>  -0.5700 
  2 C       -2.9020     1.8300    -0.6010 C.2   1 <1>   0.5690 
  3 N       -2.6740     0.5980    -0.0880 N.am  1 <1>  -0.7300 
  4 C       -2.6120     3.0400     0.2620 C.3   1 <1>  -0.0990 
  5 C       -2.8380    -0.6720    -0.8290 C.3   1 <1>   0.2200 
  6 C       -1.1010     3.3000     0.3870 C.3   1 <1>  -0.1600 
  7 C       -3.9830    -1.4620    -0.2180 C.3   1 <1>  -0.0800 
  8 C       -1.6490    -1.5780    -0.5370 C.3   1 <1>   0.1200 
  9 C       -0.8160     4.5720     1.1840 C.3   1 <1>   0.1400 
 10 C       -3.2980    -2.2060     0.9380 C.3   1 <1>   0.1200 
 11 C       -4.6110    -2.4260    -1.2430 C.3   1 <1>  -0.0160 
 12 O       -1.9190    -2.1580     0.7030 O.3   1 <1>  -0.5600 
 13 N        0.6460     4.7490     1.2890 N.am  1 <1>  -0.7300 
 14 C       -5.7690    -3.2060    -0.6400 C.ar  1 <1>  -0.1440 
 15 C        1.4550     5.5780     0.5930 C.2   1 <1>   0.5690 
 16 C       -5.6600    -4.5390    -0.2980 C.ar  1 <1>  -0.1500 
 17 C       -6.9950    -2.6160    -0.4040 C.ar  1 <1>  -0.1500 
 18 O        2.6370     5.5870     0.8130 O.2   1 <1>  -0.5700 
 19 C        0.8980     6.4960    -0.4670 C.3   1 <1>  -0.1790 
 20 C       -6.7480    -5.1970     0.2520 C.ar  1 <1>   0.1600 
 21 C       -8.0200    -3.3640     0.1510 C.ar  1 <1>   0.1600 
 22 N       -7.9250    -4.6400     0.4870 N.ar  1 <1>  -0.6200 
 23 H       -2.3010     0.4820     0.8560 H     1 <1>   0.3700 
 24 H       -3.0900     3.8940    -0.1860 H     1 <1>   0.0800 
 25 H       -3.0460     2.8880     1.2330 H     1 <1>   0.0800 
 26 H       -2.9610    -0.4830    -1.8820 H     1 <1>   0.0800 
 27 H       -0.6830     3.4020    -0.6010 H     1 <1>   0.0800 
 28 H       -0.6320     2.4610     0.8700 H     1 <1>   0.0800 
 29 H       -4.7520    -0.8060     0.1500 H     1 <1>   0.0800 
 30 H       -0.7170    -1.0420    -0.4930 H     1 <1>   0.0800 
 31 H       -1.5820    -2.3690    -1.2630 H     1 <1>   0.0800 
 32 H       -1.2320     4.4950     2.1740 H     1 <1>   0.0800 
 33 H       -1.2610     5.4230     0.6960 H     1 <1>   0.0800 
 34 H       -3.5990    -3.2360     1.0120 H     1 <1>   0.0800 
 35 H       -3.4860    -1.7130     1.8750 H     1 <1>   0.0800 
 36 H       -3.8690    -3.1120    -1.6140 H     1 <1>   0.0800 
 37 H       -4.9780    -1.8620    -2.0830 H     1 <1>   0.0800 
 38 H        1.1270     4.1520     1.9640 H     1 <1>   0.3700 
 39 H       -4.7410    -5.0740    -0.4530 H     1 <1>   0.1500 
 40 H       -7.1630    -1.5830    -0.6470 H     1 <1>   0.1500 
 41 H        0.3510     5.9260    -1.1940 H     1 <1>   0.0800 
 42 H        1.7040     7.0060    -0.9620 H     1 <1>   0.0800 
 43 H        0.2540     7.2250    -0.0140 H     1 <1>   0.0800 
 44 H       -6.6440    -6.2360     0.5130 H     1 <1>   0.1500 
 45 H       -8.9680    -2.8860     0.3280 H     1 <1>   0.1500 
@<TRIPOS>BOND
  1   1   2  2   
  2   2   3  am  
  3   2   4  1   
  4   3   5  1   
  5   3  23  1   
  6   4   6  1   
  7   4  24  1   
  8   4  25  1   
  9   5   7  1   
 10   5   8  1   
 11   5  26  1   
 12   6   9  1   
 13   6  27  1   
 14   6  28  1   
 15   7  10  1   
 16   7  11  1   
 17   7  29  1   
 18   8  12  1   
 19   8  30  1   
 20   8  31  1   
 21   9  13  1   
 22   9  32  1   
 23   9  33  1   
 24  10  12  1   
 25  10  34  1   
 26  10  35  1   
 27  11  14  1   
 28  11  36  1   
 29  11  37  1   
 30  13  15  am  
 31  13  38  1   
 32  14  16  ar  
 33  14  17  ar  
 34  15  18  2   
 35  15  19  1   
 36  16  20  ar  
 37  16  39  1   
 38  17  21  ar  
 39  17  40  1   
 40  19  41  1   
 41  19  42  1   
 42  19  43  1   
 43  20  22  ar  
 44  20  44  1   
 45  21  22  ar  
 46  21  45  1   
@<TRIPOS>SUBSTRUCTURE
  1 ****   3 GROUP 4 **** **** 0

# MOE 2024.06 (io_trps.svl 2023.06)
