@<TRIPOS>MOLECULE
NONAME
49 52 1 0 0 
SMALL
USER_CHARGES


@<TRIPOS>ATOM
  1 O        0.3070     0.0410     1.2930 O.2   1 <1>  -0.5700 
  2 C        0.6630     0.2010     0.1490 C.2   1 <1>   0.5690 
  3 N        0.9540     1.4440    -0.3250 N.am  1 <1>  -0.7300 
  4 C        0.7830    -1.0540    -0.7620 C.3   1 <1>   0.4840 
  5 C        1.1360     2.6330     0.5590 C.3   1 <1>   0.3200 
  6 N       -0.0260    -2.2290    -0.2600 N.4   1 <1>  -0.9590 
  7 C        2.2590    -1.4580    -0.8760 C.3   1 <1>  -0.2400 
  8 C        2.6170     2.9460     0.6970 C.2   1 <1>   0.2980 
  9 C        0.1550    -3.5070    -1.0070 C.3   1 <1>   0.4860 
 10 C       -1.4820    -1.9080    -0.1410 C.3   1 <1>   0.3430 
 11 O        3.3520     2.1410     1.4140 O.3   1 <1>  -0.0190 
 12 N        3.2340     3.9100     0.1480 N.2   1 <1>  -0.5650 
 13 C       -0.6690    -4.6210    -0.3820 C.ar  1 <1>  -0.1440 
 14 C       -2.1660    -2.9280     0.7710 C.3   1 <1>  -0.0170 
 15 N        4.5460     2.6260     1.3070 N.2   1 <1>  -0.4100 
 16 C        4.4920     3.6790     0.5630 C.2   1 <1>   0.4620 
 17 C       -1.7600    -4.3550     0.4400 C.ar  1 <1>  -0.1440 
 18 C       -0.3220    -5.9380    -0.6500 C.ar  1 <1>  -0.1500 
 19 C        5.6180     4.5320     0.1830 C.ar  1 <1>   0.3640 
 20 C       -2.4870    -5.4040     0.9810 C.ar  1 <1>  -0.1500 
 21 C       -1.0520    -6.9800    -0.1080 C.ar  1 <1>  -0.1500 
 22 N        6.8690     4.0620     0.3110 N.ar  1 <1>  -0.6200 
 23 C        5.3800     5.8180    -0.3130 C.ar  1 <1>  -0.1500 
 24 C       -2.1360    -6.7130     0.7070 C.ar  1 <1>  -0.1500 
 25 C        7.8570     4.8620    -0.0450 C.ar  1 <1>   0.1600 
 26 C        6.4180     6.6430    -0.6840 C.ar  1 <1>  -0.1500 
 27 C        7.6920     6.1420    -0.5410 C.ar  1 <1>  -0.1500 
 28 H        1.3150     1.5920    -1.2720 H     1 <1>   0.3700 
 29 H        0.4270    -0.7780    -1.7400 H     1 <1>   0.0800 
 30 H        0.7190     2.4550     1.5350 H     1 <1>   0.0800 
 31 H        0.6330     3.4800     0.1260 H     1 <1>   0.0800 
 32 H        0.2930    -2.3970     0.7070 H     1 <1>   0.4500 
 33 H        2.6250    -1.8310     0.0650 H     1 <1>   0.0800 
 34 H        2.8510    -0.5980    -1.1360 H     1 <1>   0.0800 
 35 H        2.4150    -2.1900    -1.6470 H     1 <1>   0.0800 
 36 H        1.1920    -3.8000    -0.9930 H     1 <1>   0.0800 
 37 H       -0.1490    -3.3800    -2.0330 H     1 <1>   0.0800 
 38 H       -1.9420    -1.9360    -1.1150 H     1 <1>   0.0800 
 39 H       -1.6250    -0.9240     0.2770 H     1 <1>   0.0800 
 40 H       -3.2320    -2.8210     0.6760 H     1 <1>   0.0800 
 41 H       -1.9090    -2.7150     1.7940 H     1 <1>   0.0800 
 42 H        0.5160    -6.1730    -1.2840 H     1 <1>   0.1500 
 43 H       -3.3320    -5.2120     1.6210 H     1 <1>   0.1500 
 44 H       -0.7810    -8.0010    -0.3190 H     1 <1>   0.1500 
 45 H        4.3700     6.1710    -0.4070 H     1 <1>   0.1500 
 46 H       -2.7040    -7.5240     1.1300 H     1 <1>   0.1500 
 47 H        8.8570     4.4760     0.0640 H     1 <1>   0.1500 
 48 H        6.2430     7.6350    -1.0660 H     1 <1>   0.1500 
 49 H        8.5490     6.7330    -0.8110 H     1 <1>   0.1500 
@<TRIPOS>BOND
  1   1   2  2   
  2   2   3  am  
  3   2   4  1   
  4   3   5  1   
  5   3  28  1   
  6   4   6  1   
  7   4   7  1   
  8   4  29  1   
  9   5   8  1   
 10   5  30  1   
 11   5  31  1   
 12   6   9  1   
 13   6  10  1   
 14   6  32  1   
 15   7  33  1   
 16   7  34  1   
 17   7  35  1   
 18   8  11  1   
 19   8  12  2   
 20   9  13  1   
 21   9  36  1   
 22   9  37  1   
 23  10  14  1   
 24  10  38  1   
 25  10  39  1   
 26  11  15  1   
 27  12  16  1   
 28  13  17  ar  
 29  13  18  ar  
 30  14  17  1   
 31  14  40  1   
 32  14  41  1   
 33  15  16  2   
 34  16  19  1   
 35  17  20  ar  
 36  18  21  ar  
 37  18  42  1   
 38  19  22  ar  
 39  19  23  ar  
 40  20  24  ar  
 41  20  43  1   
 42  21  24  ar  
 43  21  44  1   
 44  22  25  ar  
 45  23  26  ar  
 46  23  45  1   
 47  24  46  1   
 48  25  27  ar  
 49  25  47  1   
 50  26  27  ar  
 51  26  48  1   
 52  27  49  1   
@<TRIPOS>SUBSTRUCTURE
  1 ****   2 GROUP 4 **** **** 0

# MOE 2024.06 (io_trps.svl 2023.06)
