@<TRIPOS>MOLECULE
NONAME
58 61 1 0 0 
SMALL
USER_CHARGES


@<TRIPOS>ATOM
  1 O        0.3960    -0.8450     2.1720 O.2   1 <1>  -0.5700 
  2 C       -0.2060    -0.2080     1.3350 C.2   1 <1>   0.5690 
  3 N       -1.5790    -0.2370     1.2570 N.am  1 <1>  -0.6600 
  4 C        0.6430     0.6160     0.3510 C.3   1 <1>   0.1710 
  5 C       -2.4000    -1.0640     2.1840 C.3   1 <1>   0.1400 
  6 C       -2.3920     0.5660     0.3030 C.3   1 <1>   0.1400 
  7 N        0.4880     2.1010     0.4210 N.3   1 <1>  -0.8100 
  8 C       -3.2730    -2.0250     1.3720 C.3   1 <1>  -0.1600 
  9 C       -3.2540    -0.3750    -0.5420 C.3   1 <1>  -0.1600 
 10 C        1.3460     2.7540    -0.5820 C.3   1 <1>   0.2530 
 11 C        0.7780     2.5900     1.7810 C.3   1 <1>   0.0300 
 12 C       -4.1370    -1.2890     0.3320 C.3   1 <1>   0.4240 
 13 C        1.0540     4.2460    -0.6800 C.ar  1 <1>  -0.1430 
 14 O       -4.9510    -0.4390     1.1130 O.3   1 <1>  -0.5600 
 15 C       -4.9880    -2.2830    -0.5110 C.ar  1 <1>  -0.1430 
 16 C        2.0610     5.1910    -0.6680 C.ar  1 <1>  -0.1500 
 17 C       -0.2330     4.7330    -0.7910 C.ar  1 <1>  -0.1500 
 18 C       -6.1300     0.0320     0.5500 C.3   1 <1>   0.1200 
 19 C       -4.4040    -3.2660    -1.3230 C.ar  1 <1>   0.0830 
 20 C       -6.3800    -2.2090    -0.4730 C.ar  1 <1>  -0.1430 
 21 C        1.7400     6.5350    -0.7660 C.ar  1 <1>   0.1600 
 22 C       -0.4460     6.0990    -0.8830 C.ar  1 <1>   0.1600 
 23 C       -7.0680    -1.1500     0.3640 C.3   1 <1>  -0.0170 
 24 O       -3.0490    -3.3430    -1.3940 O.3   1 <1>  -0.3630 
 25 C       -5.2060    -4.1440    -2.0490 C.ar  1 <1>  -0.1500 
 26 C       -7.1670    -3.0900    -1.1970 C.ar  1 <1>  -0.1500 
 27 N        0.5110     7.0130    -0.8750 N.ar  1 <1>  -0.6200 
 28 C       -2.3790    -4.4270    -1.9990 C.3   1 <1>   0.0400 
 29 C       -6.5810    -4.0580    -1.9840 C.ar  1 <1>  -0.1500 
 30 H        0.3940     0.2840    -0.6400 H     1 <1>   0.0800 
 31 H        1.6750     0.3640     0.5240 H     1 <1>   0.0800 
 32 H       -3.0190    -0.4140     2.7790 H     1 <1>   0.0800 
 33 H       -1.7710    -1.6270     2.8520 H     1 <1>   0.0800 
 34 H       -1.7700     1.1570    -0.3440 H     1 <1>   0.0800 
 35 H       -3.0180     1.2410     0.8620 H     1 <1>   0.0800 
 36 H       -3.9150    -2.5780     2.0320 H     1 <1>   0.0800 
 37 H       -2.6200    -2.7300     0.9000 H     1 <1>   0.0800 
 38 H       -2.5930    -0.9640    -1.1450 H     1 <1>   0.0800 
 39 H       -3.8670     0.1920    -1.2160 H     1 <1>   0.0800 
 40 H        1.1620     2.3140    -1.5470 H     1 <1>   0.0800 
 41 H        2.3810     2.5950    -0.3320 H     1 <1>   0.0800 
 42 H        0.0990     2.1450     2.4880 H     1 <1>   0.0800 
 43 H        0.6490     3.6580     1.8310 H     1 <1>   0.0800 
 44 H        1.7870     2.3450     2.0650 H     1 <1>   0.0800 
 45 H        3.0900     4.8970    -0.5820 H     1 <1>   0.1500 
 46 H       -1.0670     4.0550    -0.7990 H     1 <1>   0.1500 
 47 H       -5.9140     0.5110    -0.3890 H     1 <1>   0.0800 
 48 H       -6.5570     0.7500     1.2270 H     1 <1>   0.0800 
 49 H        2.5390     7.2570    -0.7550 H     1 <1>   0.1500 
 50 H       -1.4580     6.4570    -0.9660 H     1 <1>   0.1500 
 51 H       -7.9670    -0.8150    -0.1200 H     1 <1>   0.0800 
 52 H       -7.3290    -1.5570     1.3250 H     1 <1>   0.0800 
 53 H       -4.7810    -4.9020    -2.6770 H     1 <1>   0.1500 
 54 H       -8.2400    -3.0250    -1.1510 H     1 <1>   0.1500 
 55 H       -1.3240    -4.3020    -1.8320 H     1 <1>   0.0800 
 56 H       -2.5840    -4.4210    -3.0540 H     1 <1>   0.0800 
 57 H       -2.7140    -5.3430    -1.5430 H     1 <1>   0.0800 
 58 H       -7.1940    -4.7410    -2.5460 H     1 <1>   0.1500 
@<TRIPOS>BOND
  1   1   2  2   
  2   2   3  am  
  3   2   4  1   
  4   3   5  1   
  5   3   6  1   
  6   4   7  1   
  7   4  30  1   
  8   4  31  1   
  9   5   8  1   
 10   5  32  1   
 11   5  33  1   
 12   6   9  1   
 13   6  34  1   
 14   6  35  1   
 15   7  10  1   
 16   7  11  1   
 17   8  12  1   
 18   8  36  1   
 19   8  37  1   
 20   9  12  1   
 21   9  38  1   
 22   9  39  1   
 23  10  13  1   
 24  10  40  1   
 25  10  41  1   
 26  11  42  1   
 27  11  43  1   
 28  11  44  1   
 29  12  14  1   
 30  12  15  1   
 31  13  16  ar  
 32  13  17  ar  
 33  14  18  1   
 34  15  19  ar  
 35  15  20  ar  
 36  16  21  ar  
 37  16  45  1   
 38  17  22  ar  
 39  17  46  1   
 40  18  23  1   
 41  18  47  1   
 42  18  48  1   
 43  19  24  1   
 44  19  25  ar  
 45  20  23  1   
 46  20  26  ar  
 47  21  27  ar  
 48  21  49  1   
 49  22  27  ar  
 50  22  50  1   
 51  23  51  1   
 52  23  52  1   
 53  24  28  1   
 54  25  29  ar  
 55  25  53  1   
 56  26  29  ar  
 57  26  54  1   
 58  28  55  1   
 59  28  56  1   
 60  28  57  1   
 61  29  58  1   
@<TRIPOS>SUBSTRUCTURE
  1 ****   6 GROUP 4 **** **** 0

# MOE 2024.06 (io_trps.svl 2023.06)
