@<TRIPOS>MOLECULE
NONAME
52 54 1 0 0 
SMALL
USER_CHARGES


@<TRIPOS>ATOM
  1 S       -2.7230     1.2960     0.1360 S.3   1 <1>  -0.0800 
  2 C       -1.1130     1.5610    -0.4840 C.2   1 <1>   0.1980 
  3 C       -2.4890     2.6200     1.2270 C.2   1 <1>  -0.1100 
  4 N       -0.4880     2.5220     0.0690 N.2   1 <1>  -0.5650 
  5 C       -0.6420     0.6400    -1.5940 C.3   1 <1>   0.0200 
  6 C       -1.2570     3.1550     1.0710 C.2   1 <1>   0.1410 
  7 C       -0.2260    -0.7330    -1.0470 C.3   1 <1>  -0.1600 
  8 C       -0.7710     4.2980     1.8460 C.2   1 <1>   0.7160 
  9 C        0.2900    -1.6510    -2.1600 C.3   1 <1>  -0.2400 
 10 O       -1.5900     5.0760     2.2980 O.2   1 <1>  -0.5700 
 11 N        0.5730     4.5620     2.0980 N.am  1 <1>  -0.6600 
 12 C        1.6540     3.5580     1.8760 C.3   1 <1>   0.1400 
 13 C        0.9880     5.8120     2.7990 C.3   1 <1>   0.1400 
 14 C        2.2930     3.7360     0.4840 C.3   1 <1>   0.3430 
 15 C        2.2340     6.4380     2.1640 C.3   1 <1>  -0.1600 
 16 N        3.0570     5.0210     0.2900 N.4   1 <1>  -0.9590 
 17 C        2.2950     6.2620     0.6460 C.3   1 <1>   0.3430 
 18 C        3.5600     5.0920    -1.1090 C.3   1 <1>   0.5240 
 19 C        4.5610     6.2170    -1.2020 C.2   1 <1>  -0.1810 
 20 C        5.8110     6.3040    -0.7180 C.2   1 <1>  -0.0400 
 21 C        4.3710     7.4480    -1.8330 C.2   1 <1>   0.1080 
 22 O        6.2740     7.4840    -1.0250 O.3   1 <1>  -0.0190 
 23 C        6.7050     5.3530     0.0540 C.3   1 <1>  -0.0600 
 24 N        5.4100     8.1850    -1.6960 N.2   1 <1>  -0.4100 
 25 C        3.1410     7.9010    -2.5950 C.3   1 <1>  -0.0590 
 26 H       -3.2960     2.8850     1.8870 H     1 <1>   0.1500 
 27 H        0.1950     1.0970    -2.0900 H     1 <1>   0.0800 
 28 H       -1.4320     0.5250    -2.3150 H     1 <1>   0.0800 
 29 H       -1.0710    -1.1990    -0.5690 H     1 <1>   0.0800 
 30 H        0.5430    -0.6050    -0.3050 H     1 <1>   0.0800 
 31 H       -0.4730    -1.8120    -2.9020 H     1 <1>   0.0800 
 32 H        0.5690    -2.6050    -1.7490 H     1 <1>   0.0800 
 33 H        1.1530    -1.2220    -2.6380 H     1 <1>   0.0800 
 34 H        1.2420     2.5670     1.9510 H     1 <1>   0.0800 
 35 H        2.4030     3.6410     2.6440 H     1 <1>   0.0800 
 36 H        1.1660     5.5990     3.8400 H     1 <1>   0.0800 
 37 H        0.1900     6.5360     2.7540 H     1 <1>   0.0800 
 38 H        1.5090     3.6770    -0.2520 H     1 <1>   0.0800 
 39 H        2.9540     2.9030     0.3130 H     1 <1>   0.0800 
 40 H        3.1250     6.0610     2.6330 H     1 <1>   0.0800 
 41 H        2.2010     7.4920     2.3800 H     1 <1>   0.0800 
 42 H        3.8900     5.0130     0.8890 H     1 <1>   0.4500 
 43 H        2.8010     7.1220     0.2380 H     1 <1>   0.0800 
 44 H        1.2990     6.2310     0.2340 H     1 <1>   0.0800 
 45 H        2.7450     5.2580    -1.7950 H     1 <1>   0.0800 
 46 H        4.0480     4.1680    -1.3740 H     1 <1>   0.0800 
 47 H        6.2240     4.4070     0.2130 H     1 <1>   0.0800 
 48 H        6.9630     5.7850     1.0050 H     1 <1>   0.0800 
 49 H        7.6140     5.1880    -0.4990 H     1 <1>   0.0800 
 50 H        2.9090     7.2020    -3.3780 H     1 <1>   0.0800 
 51 H        3.3280     8.8600    -3.0450 H     1 <1>   0.0800 
 52 H        2.3000     7.9960    -1.9340 H     1 <1>   0.0800 
@<TRIPOS>BOND
  1   1   2  1   
  2   1   3  1   
  3   2   4  2   
  4   2   5  1   
  5   3   6  2   
  6   3  26  1   
  7   4   6  1   
  8   5   7  1   
  9   5  27  1   
 10   5  28  1   
 11   6   8  1   
 12   7   9  1   
 13   7  29  1   
 14   7  30  1   
 15   8  10  2   
 16   8  11  am  
 17   9  31  1   
 18   9  32  1   
 19   9  33  1   
 20  11  12  1   
 21  11  13  1   
 22  12  14  1   
 23  12  34  1   
 24  12  35  1   
 25  13  15  1   
 26  13  36  1   
 27  13  37  1   
 28  14  16  1   
 29  14  38  1   
 30  14  39  1   
 31  15  17  1   
 32  15  40  1   
 33  15  41  1   
 34  16  17  1   
 35  16  18  1   
 36  16  42  1   
 37  17  43  1   
 38  17  44  1   
 39  18  19  1   
 40  18  45  1   
 41  18  46  1   
 42  19  20  2   
 43  19  21  1   
 44  20  22  1   
 45  20  23  1   
 46  21  24  2   
 47  21  25  1   
 48  22  24  1   
 49  23  47  1   
 50  23  48  1   
 51  23  49  1   
 52  25  50  1   
 53  25  51  1   
 54  25  52  1   
@<TRIPOS>SUBSTRUCTURE
  1 ****  14 GROUP 4 **** **** 0

# MOE 2024.06 (io_trps.svl 2023.06)
