@<TRIPOS>MOLECULE
NONAME
50 52 1 0 0 
SMALL
USER_CHARGES


@<TRIPOS>ATOM
  1 O       -0.2370     0.3120     0.8510 O.2   1 <1>  -0.5700 
  2 C       -0.1870     1.4510     0.4260 C.2   1 <1>   0.6900 
  3 N       -1.3350     2.1940     0.3100 N.am  1 <1>  -0.6600 
  4 N        1.0030     2.0280     0.0840 N.am  1 <1>  -0.5470 
  5 C       -2.5920     1.7020     0.9450 C.3   1 <1>   0.1400 
  6 C       -1.4470     3.3930    -0.5750 C.3   1 <1>   0.1400 
  7 C        2.2980     1.4960    -0.0160 C.ar  1 <1>   0.1170 
  8 C       -3.5410     2.8740     1.2070 C.3   1 <1>  -0.1600 
  9 C       -2.8510     3.4590    -1.1760 C.3   1 <1>  -0.1600 
 10 C        3.3870     2.3490     0.1200 C.ar  1 <1>  -0.1500 
 11 C        2.5410     0.1500    -0.2680 C.ar  1 <1>  -0.1500 
 12 C       -3.9300     3.6310    -0.0900 C.3   1 <1>   0.2800 
 13 C        4.6840     1.8780     0.0110 C.ar  1 <1>  -0.1500 
 14 C        3.8340    -0.3280    -0.3770 C.ar  1 <1>  -0.1500 
 15 O       -3.9450     5.0050     0.1990 O.3   1 <1>  -0.5600 
 16 C       -5.3100     3.2000    -0.6590 C.3   1 <1>  -0.1600 
 17 C        4.9140     0.5280    -0.2400 C.ar  1 <1>   0.0820 
 18 C       -4.8810     5.4830     1.1320 C.3   1 <1>   0.1200 
 19 C       -6.4110     4.2490    -0.4810 C.3   1 <1>   0.2800 
 20 O        6.1520    -0.0210    -0.3620 O.3   1 <1>  -0.3630 
 21 C       -6.2830     4.9000     0.8940 C.3   1 <1>  -0.1600 
 22 O       -6.2000     5.2270    -1.4170 O.3   1 <1>  -0.6800 
 23 C       -7.8050     3.6830    -0.7370 C.3   1 <1>  -0.2400 
 24 C        7.3130     0.7630    -0.2010 C.3   1 <1>   0.0400 
 25 H        0.9350     3.0350     0.0000 H     1 <1>   0.3700 
 26 H       -2.3560     1.2140     1.8760 H     1 <1>   0.0800 
 27 H       -3.0570     0.9800     0.2960 H     1 <1>   0.0800 
 28 H       -0.7270     3.3330    -1.3730 H     1 <1>   0.0800 
 29 H       -1.2580     4.2830     0.0010 H     1 <1>   0.0800 
 30 H       -3.0290     3.5370     1.8810 H     1 <1>   0.0800 
 31 H       -4.4160     2.5110     1.7140 H     1 <1>   0.0800 
 32 H       -3.0090     2.5460    -1.7230 H     1 <1>   0.0800 
 33 H       -2.9150     4.2690    -1.8810 H     1 <1>   0.0800 
 34 H        3.2220     3.3920     0.3170 H     1 <1>   0.1500 
 35 H        1.7170    -0.5310    -0.3810 H     1 <1>   0.1500 
 36 H        5.4960     2.5700     0.1240 H     1 <1>   0.1500 
 37 H        4.0130    -1.3700    -0.5700 H     1 <1>   0.1500 
 38 H       -5.6140     2.2900    -0.1760 H     1 <1>   0.0800 
 39 H       -5.2420     2.9580    -1.7050 H     1 <1>   0.0800 
 40 H       -4.9100     6.5540     1.0210 H     1 <1>   0.0800 
 41 H       -4.5340     5.2590     2.1250 H     1 <1>   0.0800 
 42 H       -7.0250     5.6690     1.0130 H     1 <1>   0.0800 
 43 H       -6.4780     4.1600     1.6490 H     1 <1>   0.0800 
 44 H       -5.2980     5.5760    -1.2540 H     1 <1>   0.4000 
 45 H       -8.0340     2.9150    -0.0220 H     1 <1>   0.0800 
 46 H       -7.8580     3.2590    -1.7240 H     1 <1>   0.0800 
 47 H       -8.5430     4.4610    -0.6510 H     1 <1>   0.0800 
 48 H        8.1670     0.1230    -0.3250 H     1 <1>   0.0800 
 49 H        7.3130     1.1870     0.7880 H     1 <1>   0.0800 
 50 H        7.3210     1.5330    -0.9520 H     1 <1>   0.0800 
@<TRIPOS>BOND
  1   1   2  2   
  2   2   3  am  
  3   2   4  am  
  4   3   5  1   
  5   3   6  1   
  6   4   7  1   
  7   4  25  1   
  8   5   8  1   
  9   5  26  1   
 10   5  27  1   
 11   6   9  1   
 12   6  28  1   
 13   6  29  1   
 14   7  10  ar  
 15   7  11  ar  
 16   8  12  1   
 17   8  30  1   
 18   8  31  1   
 19   9  12  1   
 20   9  32  1   
 21   9  33  1   
 22  10  13  ar  
 23  10  34  1   
 24  11  14  ar  
 25  11  35  1   
 26  12  15  1   
 27  12  16  1   
 28  13  17  ar  
 29  13  36  1   
 30  14  17  ar  
 31  14  37  1   
 32  15  18  1   
 33  16  19  1   
 34  16  38  1   
 35  16  39  1   
 36  17  20  1   
 37  18  21  1   
 38  18  40  1   
 39  18  41  1   
 40  19  21  1   
 41  19  22  1   
 42  19  23  1   
 43  20  24  1   
 44  21  42  1   
 45  21  43  1   
 46  22  44  1   
 47  23  45  1   
 48  23  46  1   
 49  23  47  1   
 50  24  48  1   
 51  24  49  1   
 52  24  50  1   
@<TRIPOS>SUBSTRUCTURE
  1 ****   3 GROUP 4 **** **** 0

# MOE 2024.06 (io_trps.svl 2023.06)
