@<TRIPOS>MOLECULE
NONAME
37 38 1 0 0 
SMALL
USER_CHARGES


@<TRIPOS>ATOM
  1 O        0.6020    -2.2490     1.0980 O.co2 1 <1>  -0.9000 
  2 C       -0.4980    -2.2760     0.5510 C.2   1 <1>   0.9060 
  3 O       -0.7090    -2.7510    -0.5770 O.co2 1 <1>  -0.9000 
  4 C       -1.7090    -1.6410     1.2380 C.3   1 <1>   0.2370 
  5 N       -2.7910    -1.3310     0.2260 N.4   1 <1>  -0.9590 
  6 C       -4.1770    -1.4960     0.7430 C.3   1 <1>   0.3430 
  7 C       -2.5410    -0.0410    -0.4560 C.3   1 <1>   0.3430 
  8 C       -5.2120    -1.3570    -0.3940 C.3   1 <1>   0.0000 
  9 C       -3.5360     0.1330    -1.6060 C.3   1 <1>  -0.1600 
 10 C       -6.6300    -1.4620     0.1870 C.3   1 <1>   0.2000 
 11 C       -4.9940    -0.0220    -1.1390 C.3   1 <1>  -0.1600 
 12 C       -5.1510    -2.5740    -1.3330 C.3   1 <1>  -0.1600 
 13 O       -6.6880    -0.8350     1.4320 O.3   1 <1>  -0.5600 
 14 C       -6.9260    -2.9610     0.3090 C.3   1 <1>  -0.1600 
 15 C       -5.9260    -3.6770    -0.6090 C.3   1 <1>  -0.1600 
 16 C       -7.9780    -0.5750     1.8960 C.3   1 <1>   0.0400 
 17 H       -1.3900    -0.7520     1.7500 H     1 <1>   0.0800 
 18 H       -2.0670    -2.3500     1.9600 H     1 <1>   0.0800 
 19 H       -2.5850    -2.0610    -0.4920 H     1 <1>   0.4500 
 20 H       -4.2850    -2.4620     1.2060 H     1 <1>   0.0800 
 21 H       -4.3710    -0.7440     1.4900 H     1 <1>   0.0800 
 22 H       -2.6510     0.7670     0.2470 H     1 <1>   0.0800 
 23 H       -1.5330    -0.0260    -0.8440 H     1 <1>   0.0800 
 24 H       -3.4000     1.1090    -2.0380 H     1 <1>   0.0800 
 25 H       -3.3120    -0.5890    -2.3720 H     1 <1>   0.0800 
 26 H       -7.3330    -0.9950    -0.4840 H     1 <1>   0.0800 
 27 H       -5.6550     0.0460    -1.9860 H     1 <1>   0.0800 
 28 H       -5.2360     0.7910    -0.4740 H     1 <1>   0.0800 
 29 H       -5.6590    -2.3460    -2.2540 H     1 <1>   0.0800 
 30 H       -4.1480    -2.8850    -1.5690 H     1 <1>   0.0800 
 31 H       -6.7940    -3.2980     1.3230 H     1 <1>   0.0800 
 32 H       -7.9350    -3.1630    -0.0050 H     1 <1>   0.0800 
 33 H       -5.2500    -4.2710    -0.0160 H     1 <1>   0.0800 
 34 H       -6.4250    -4.3250    -1.3100 H     1 <1>   0.0800 
 35 H       -7.8990    -0.0890     2.8520 H     1 <1>   0.0800 
 36 H       -8.5150    -1.5010     2.0070 H     1 <1>   0.0800 
 37 H       -8.4830     0.0740     1.2020 H     1 <1>   0.0800 
@<TRIPOS>BOND
  1   1   2  ar  
  2   2   3  ar  
  3   2   4  1   
  4   4   5  1   
  5   4  17  1   
  6   4  18  1   
  7   5   6  1   
  8   5   7  1   
  9   5  19  1   
 10   6   8  1   
 11   6  20  1   
 12   6  21  1   
 13   7   9  1   
 14   7  22  1   
 15   7  23  1   
 16   8  10  1   
 17   8  11  1   
 18   8  12  1   
 19   9  11  1   
 20   9  24  1   
 21   9  25  1   
 22  10  13  1   
 23  10  14  1   
 24  10  26  1   
 25  11  27  1   
 26  11  28  1   
 27  12  15  1   
 28  12  29  1   
 29  12  30  1   
 30  13  16  1   
 31  14  15  1   
 32  14  31  1   
 33  14  32  1   
 34  15  33  1   
 35  15  34  1   
 36  16  35  1   
 37  16  36  1   
 38  16  37  1   
@<TRIPOS>SUBSTRUCTURE
  1 ****   6 GROUP 4 **** **** 0

# MOE 2024.06 (io_trps.svl 2023.06)
