@<TRIPOS>MOLECULE
NONAME
49 51 1 0 0 
SMALL
USER_CHARGES


@<TRIPOS>ATOM
  1 O        0.2910    -0.3140    -0.6150 O.3   1 <1>  -0.5600 
  2 C        1.5510    -0.9220    -0.7810 C.3   1 <1>   0.2000 
  3 C        0.2430     1.0550    -0.8880 C.3   1 <1>   0.1200 
  4 C        2.6370    -0.2080     0.0690 C.3   1 <1>   0.5660 
  5 C        1.4370    -2.4010    -0.3750 C.3   1 <1>   0.1200 
  6 C        1.1970     1.8140     0.0490 C.3   1 <1>   0.3430 
  7 N        2.5970     1.2840    -0.0480 N.4   1 <1>  -0.9590 
  8 C        4.0350    -0.6690    -0.3210 C.ar  1 <1>  -0.1440 
  9 O        1.3780    -2.5160     1.0130 O.3   1 <1>  -0.6800 
 10 C        3.5100     1.9290     0.9300 C.3   1 <1>   0.4870 
 11 C        4.5760    -0.3870    -1.5710 C.ar  1 <1>  -0.1500 
 12 C        4.7900    -1.3830     0.5990 C.ar  1 <1>  -0.1500 
 13 C        3.6400     3.3860     0.5420 C.ar  1 <1>  -0.1440 
 14 C        5.8570    -0.8030    -1.8860 C.ar  1 <1>  -0.1500 
 15 C        6.0710    -1.7980     0.2810 C.ar  1 <1>  -0.1500 
 16 C        2.9340     4.3620     1.2270 C.ar  1 <1>  -0.1500 
 17 C        4.4600     3.7520    -0.5120 C.ar  1 <1>  -0.1500 
 18 C        6.6050    -1.5070    -0.9600 C.ar  1 <1>  -0.1500 
 19 C        3.0250     5.6950     0.8570 C.ar  1 <1>  -0.1440 
 20 C        4.5540     5.0790    -0.8850 C.ar  1 <1>  -0.1500 
 21 C        3.8400     6.0560    -0.2100 C.ar  1 <1>  -0.1440 
 22 C        2.2330     6.7380     1.6350 C.3   1 <1>  -0.0970 
 23 C        3.9750     7.5070    -0.6530 C.3   1 <1>  -0.0970 
 24 H        1.7980    -0.8700    -1.8270 H     1 <1>   0.0800 
 25 H        0.4950     1.2170    -1.9220 H     1 <1>   0.0800 
 26 H       -0.7700     1.3830    -0.7270 H     1 <1>   0.0800 
 27 H        2.4630    -0.4780     1.0980 H     1 <1>   0.0800 
 28 H        2.2960    -2.9550    -0.7150 H     1 <1>   0.0800 
 29 H        0.5460    -2.8340    -0.7990 H     1 <1>   0.0800 
 30 H        0.8350     1.7100     1.0590 H     1 <1>   0.0800 
 31 H        1.1840     2.8630    -0.2020 H     1 <1>   0.0800 
 32 H        2.9660     1.5240    -0.9710 H     1 <1>   0.4500 
 33 H        1.0660    -3.4100     1.2710 H     1 <1>   0.4000 
 34 H        3.1200     1.8390     1.9310 H     1 <1>   0.0800 
 35 H        4.4850     1.4680     0.8970 H     1 <1>   0.0800 
 36 H        4.0190     0.1500    -2.3190 H     1 <1>   0.1500 
 37 H        4.3900    -1.6290     1.5700 H     1 <1>   0.1500 
 38 H        6.2780    -0.5860    -2.8540 H     1 <1>   0.1500 
 39 H        6.6540    -2.3520     0.9980 H     1 <1>   0.1500 
 40 H        2.3070     4.0940     2.0600 H     1 <1>   0.1500 
 41 H        5.0360     3.0190    -1.0510 H     1 <1>   0.1500 
 42 H        7.6030    -1.8310    -1.2060 H     1 <1>   0.1500 
 43 H        5.1960     5.3530    -1.7060 H     1 <1>   0.1500 
 44 H        1.6560     6.2860     2.4210 H     1 <1>   0.0800 
 45 H        1.5580     7.2570     0.9780 H     1 <1>   0.0800 
 46 H        2.9030     7.4520     2.0790 H     1 <1>   0.0800 
 47 H        4.6430     7.5970    -1.4900 H     1 <1>   0.0800 
 48 H        4.3650     8.1040     0.1520 H     1 <1>   0.0800 
 49 H        3.0170     7.8960    -0.9450 H     1 <1>   0.0800 
@<TRIPOS>BOND
  1   1   2  1   
  2   1   3  1   
  3   2   4  1   
  4   2   5  1   
  5   2  24  1   
  6   3   6  1   
  7   3  25  1   
  8   3  26  1   
  9   4   7  1   
 10   4   8  1   
 11   4  27  1   
 12   5   9  1   
 13   5  28  1   
 14   5  29  1   
 15   6   7  1   
 16   6  30  1   
 17   6  31  1   
 18   7  10  1   
 19   7  32  1   
 20   8  11  ar  
 21   8  12  ar  
 22   9  33  1   
 23  10  13  1   
 24  10  34  1   
 25  10  35  1   
 26  11  14  ar  
 27  11  36  1   
 28  12  15  ar  
 29  12  37  1   
 30  13  16  ar  
 31  13  17  ar  
 32  14  18  ar  
 33  14  38  1   
 34  15  18  ar  
 35  15  39  1   
 36  16  19  ar  
 37  16  40  1   
 38  17  20  ar  
 39  17  41  1   
 40  18  42  1   
 41  19  21  ar  
 42  19  22  1   
 43  20  21  ar  
 44  20  43  1   
 45  21  23  1   
 46  22  44  1   
 47  22  45  1   
 48  22  46  1   
 49  23  47  1   
 50  23  48  1   
 51  23  49  1   
@<TRIPOS>SUBSTRUCTURE
  1 ****   7 GROUP 4 **** **** 0

# MOE 2024.06 (io_trps.svl 2023.06)
