@<TRIPOS>MOLECULE
NONAME
40 41 1 0 0 
SMALL
USER_CHARGES


@<TRIPOS>ATOM
  1 S       -0.3450     0.2370    -0.8650 S.o2  1 <1>   1.3330 
  2 O       -1.2390    -0.8820    -1.0550 O.2   1 <1>  -0.6500 
  3 O        0.0940     1.0130    -2.0020 O.2   1 <1>  -0.6500 
  4 N        1.0440    -0.3620    -0.0870 N.am  1 <1>  -0.8490 
  5 C       -1.0510     1.3510     0.3580 C.3   1 <1>  -0.0550 
  6 C        2.0430    -0.8290    -1.0570 C.3   1 <1>   0.1160 
  7 C        0.7530    -1.4490     0.8580 C.3   1 <1>   0.1160 
  8 C       -0.3720     2.7290     0.5330 C.3   1 <1>  -0.0800 
  9 C       -0.7130     3.7310    -0.5700 C.3   1 <1>   0.2000 
 10 C        1.1550     2.7570     0.5980 C.3   1 <1>   0.2090 
 11 O       -1.9500     4.3020    -0.3010 O.3   1 <1>  -0.6800 
 12 C        0.4130     4.7710    -0.5370 C.3   1 <1>   0.2090 
 13 N        1.5110     4.1610     0.2750 N.pl3 1 <1>  -0.8380 
 14 C        2.6710     4.8030     0.5630 C.ar  1 <1>   0.4100 
 15 N        2.7410     6.0910     0.2800 N.ar  1 <1>  -0.6200 
 16 C        3.7620     4.1190     1.1370 C.ar  1 <1>  -0.1500 
 17 C        3.8610     6.7210     0.5550 C.ar  1 <1>   0.7710 
 18 C        4.9010     4.7990     1.4070 C.ar  1 <1>   0.2110 
 19 N        4.9310     6.1200     1.1040 N.ar  1 <1>  -0.1790 
 20 N        3.8980     8.0180     0.2610 N.pl3 1 <1>  -0.9000 
 21 H       -2.0770     1.5280     0.0980 H     1 <1>   0.0800 
 22 H       -1.0570     0.8540     1.3070 H     1 <1>   0.0800 
 23 H        2.9130    -1.2070    -0.5480 H     1 <1>   0.0800 
 24 H        2.3520    -0.0160    -1.6920 H     1 <1>   0.0800 
 25 H        1.6290    -1.6090    -1.6750 H     1 <1>   0.0800 
 26 H        1.6510    -1.7410     1.3750 H     1 <1>   0.0800 
 27 H        0.3580    -2.3070     0.3370 H     1 <1>   0.0800 
 28 H        0.0310    -1.1290     1.5880 H     1 <1>   0.0800 
 29 H       -0.7150     3.1400     1.4660 H     1 <1>   0.0800 
 30 H       -0.7570     3.2740    -1.5430 H     1 <1>   0.0800 
 31 H        1.5990     2.1230    -0.1490 H     1 <1>   0.0800 
 32 H        1.5030     2.4700     1.5760 H     1 <1>   0.0800 
 33 H       -1.9240     4.7990     0.5390 H     1 <1>   0.4000 
 34 H        0.0830     5.6850    -0.0750 H     1 <1>   0.0800 
 35 H        0.7630     4.9720    -1.5340 H     1 <1>   0.0800 
 36 H        3.6770     3.0700     1.3460 H     1 <1>   0.1500 
 37 H        5.7720     4.3360     1.8440 H     1 <1>   0.1500 
 38 H        5.7480     6.6970     1.2740 H     1 <1>   0.4570 
 39 H        4.6560     8.6900     0.3890 H     1 <1>   0.4000 
 40 H        3.0550     8.4250    -0.1590 H     1 <1>   0.4000 
@<TRIPOS>BOND
  1   1   2  2   
  2   1   3  2   
  3   1   4  am  
  4   1   5  1   
  5   4   6  1   
  6   4   7  1   
  7   5   8  1   
  8   5  21  1   
  9   5  22  1   
 10   6  23  1   
 11   6  24  1   
 12   6  25  1   
 13   7  26  1   
 14   7  27  1   
 15   7  28  1   
 16   8   9  1   
 17   8  10  1   
 18   8  29  1   
 19   9  11  1   
 20   9  12  1   
 21   9  30  1   
 22  10  13  1   
 23  10  31  1   
 24  10  32  1   
 25  11  33  1   
 26  12  13  1   
 27  12  34  1   
 28  12  35  1   
 29  13  14  1   
 30  14  15  ar  
 31  14  16  ar  
 32  15  17  ar  
 33  16  18  ar  
 34  16  36  1   
 35  17  19  ar  
 36  17  20  1   
 37  18  19  ar  
 38  18  37  1   
 39  19  38  1   
 40  20  39  1   
 41  20  40  1   
@<TRIPOS>SUBSTRUCTURE
  1 ****  10 GROUP 4 **** **** 0

# MOE 2024.06 (io_trps.svl 2023.06)
