@<TRIPOS>MOLECULE
NONAME
45 46 1 0 0 
SMALL
USER_CHARGES


@<TRIPOS>ATOM
  1 O        1.4010     0.3030     3.2080 O.2   1 <1>  -0.5700 
  2 C        1.6190    -0.3920     2.2460 C.2   1 <1>   0.5690 
  3 N        1.9880     0.0950     1.0220 N.am  1 <1>  -0.4940 
  4 C        1.4810    -1.8960     2.3980 C.3   1 <1>  -0.0990 
  5 C        2.2070     1.4370     0.6210 C.2   1 <1>  -0.0880 
  6 C        0.4750    -2.5050     1.4060 C.3   1 <1>  -0.1600 
  7 N        2.4250     1.8460    -0.6590 N.pl3 1 <1>   0.3140 
  8 C        2.2510     2.5550     1.3820 C.2   1 <1>  -0.1500 
  9 C        0.2800    -4.0070     1.6420 C.3   1 <1>  -0.0160 
 10 N        2.6090     3.1830    -0.7300 N.2   1 <1>  -0.7070 
 11 C        2.4400     1.0110    -1.8770 C.3   1 <1>   0.0960 
 12 C        2.5020     3.5930     0.4960 C.2   1 <1>   0.1390 
 13 C       -0.6580    -4.5780     0.5920 C.ar  1 <1>  -0.1440 
 14 C        3.7830     0.2820    -2.0320 C.3   1 <1>  -0.1600 
 15 C       -2.0310    -4.4770     0.7540 C.ar  1 <1>  -0.1500 
 16 C       -0.1510    -5.1960    -0.5410 C.ar  1 <1>  -0.1500 
 17 C        3.7870    -0.6210    -3.2710 C.3   1 <1>  -0.2400 
 18 C       -2.8920    -4.9860    -0.2030 C.ar  1 <1>  -0.1500 
 19 C       -1.0090    -5.7050    -1.4990 C.ar  1 <1>  -0.1500 
 20 C       -2.3810    -5.6050    -1.3400 C.ar  1 <1>   0.0820 
 21 O       -3.1510    -6.1290    -2.3260 O.3   1 <1>  -0.3620 
 22 C       -4.5580    -6.1060    -2.2470 C.3   1 <1>   0.0400 
 23 H        2.1110    -0.6150     0.3030 H     1 <1>   0.3700 
 24 H        1.1580    -2.1020     3.4030 H     1 <1>   0.0800 
 25 H        2.4490    -2.3430     2.2680 H     1 <1>   0.0800 
 26 H        0.8140    -2.3560     0.3960 H     1 <1>   0.0800 
 27 H       -0.4750    -2.0070     1.5110 H     1 <1>   0.0800 
 28 H        2.1220     2.6430     2.4460 H     1 <1>   0.1500 
 29 H       -0.1330    -4.1750     2.6220 H     1 <1>   0.0800 
 30 H        1.2270    -4.5150     1.5940 H     1 <1>   0.0800 
 31 H        2.2720     1.6530    -2.7230 H     1 <1>   0.0800 
 32 H        1.6300     0.3080    -1.8190 H     1 <1>   0.0800 
 33 H        2.5980     4.6270     0.7840 H     1 <1>   0.1500 
 34 H        3.9810    -0.3150    -1.1590 H     1 <1>   0.0800 
 35 H        4.5680     1.0140    -2.1260 H     1 <1>   0.0800 
 36 H       -2.4360    -4.0000     1.6290 H     1 <1>   0.1500 
 37 H        0.9110    -5.2840    -0.6830 H     1 <1>   0.1500 
 38 H        3.0210    -1.3730    -3.1980 H     1 <1>   0.0800 
 39 H        4.7400    -1.1120    -3.3640 H     1 <1>   0.0800 
 40 H        3.6190    -0.0390    -4.1610 H     1 <1>   0.0800 
 41 H       -3.9490    -4.8920    -0.0470 H     1 <1>   0.1500 
 42 H       -0.6200    -6.1870    -2.3780 H     1 <1>   0.1500 
 43 H       -4.9490    -6.5850    -3.1260 H     1 <1>   0.0800 
 44 H       -4.8890    -5.0830    -2.2090 H     1 <1>   0.0800 
 45 H       -4.8670    -6.6450    -1.3690 H     1 <1>   0.0800 
@<TRIPOS>BOND
  1   1   2  2   
  2   2   3  am  
  3   2   4  1   
  4   3   5  1   
  5   3  23  1   
  6   4   6  1   
  7   4  24  1   
  8   4  25  1   
  9   5   7  1   
 10   5   8  2   
 11   6   9  1   
 12   6  26  1   
 13   6  27  1   
 14   7  10  1   
 15   7  11  1   
 16   8  12  1   
 17   8  28  1   
 18   9  13  1   
 19   9  29  1   
 20   9  30  1   
 21  10  12  2   
 22  11  14  1   
 23  11  31  1   
 24  11  32  1   
 25  12  33  1   
 26  13  15  ar  
 27  13  16  ar  
 28  14  17  1   
 29  14  34  1   
 30  14  35  1   
 31  15  18  ar  
 32  15  36  1   
 33  16  19  ar  
 34  16  37  1   
 35  17  38  1   
 36  17  39  1   
 37  17  40  1   
 38  18  20  ar  
 39  18  41  1   
 40  19  20  ar  
 41  19  42  1   
 42  20  21  1   
 43  21  22  1   
 44  22  43  1   
 45  22  44  1   
 46  22  45  1   
@<TRIPOS>SUBSTRUCTURE
  1 ****   6 GROUP 4 **** **** 0

# MOE 2024.06 (io_trps.svl 2023.06)
