@<TRIPOS>MOLECULE
NONAME
51 54 1 0 0 
SMALL
USER_CHARGES


@<TRIPOS>ATOM
  1 O       -3.0540     0.7890    -2.2010 O.2   1 <1>  -0.5700 
  2 C       -2.5620     1.1070    -1.1340 C.2   1 <1>   0.5440 
  3 N       -2.5030     0.1290    -0.1660 N.am  1 <1>  -0.6600 
  4 C       -2.1440     2.4730    -0.8750 C.ar  1 <1>   0.0860 
  5 C       -3.1750     0.3450     1.1490 C.3   1 <1>   0.1400 
  6 C       -2.4540    -1.3020    -0.5790 C.3   1 <1>   0.1400 
  7 C       -1.1390     2.7680     0.0480 C.ar  1 <1>  -0.1500 
  8 C       -2.7450     3.5450    -1.5360 C.ar  1 <1>  -0.1500 
  9 C       -4.6000    -0.2670     1.1580 C.3   1 <1>   0.4230 
 10 C       -3.8800    -1.8780    -0.6300 C.3   1 <1>   0.3430 
 11 C       -0.7600     4.0700     0.3220 C.ar  1 <1>  -0.1440 
 12 C       -2.3860     4.8570    -1.2840 C.ar  1 <1>  -0.1440 
 13 N       -4.6080    -1.7140     0.6880 N.4   1 <1>  -0.9590 
 14 C       -5.5750     0.5940     0.3180 C.3   1 <1>   0.1200 
 15 C       -1.3910     5.1130    -0.3460 C.ar  1 <1>   0.0830 
 16 C        0.3400     4.3480     1.3370 C.3   1 <1>  -0.0970 
 17 C       -3.0820     5.9830    -2.0390 C.3   1 <1>  -0.0970 
 18 C       -6.0230    -2.2210     0.6360 C.3   1 <1>   0.5180 
 19 O       -6.8570     0.0360     0.3490 O.3   1 <1>  -0.5600 
 20 O       -1.0310     6.3780    -0.0850 O.3   1 <1>  -0.5330 
 21 C       -6.0280    -3.6810     0.1380 C.3   1 <1>  -0.1950 
 22 C       -6.9370    -1.2630    -0.1680 C.3   1 <1>   0.1200 
 23 C       -6.0960    -4.0940    -1.3050 C.3   1 <1>  -0.2000 
 24 C       -7.2580    -4.3560    -0.3900 C.3   1 <1>  -0.2000 
 25 H       -2.5830    -0.1070     1.9260 H     1 <1>   0.0800 
 26 H       -3.2370     1.3980     1.3670 H     1 <1>   0.0800 
 27 H       -2.0010    -1.3850    -1.5530 H     1 <1>   0.0800 
 28 H       -1.8470    -1.8610     0.1120 H     1 <1>   0.0800 
 29 H       -0.6420     1.9580     0.5510 H     1 <1>   0.1500 
 30 H       -3.5080     3.3310    -2.2650 H     1 <1>   0.1500 
 31 H       -4.9580    -0.2290     2.1730 H     1 <1>   0.0800 
 32 H       -3.8220    -2.9210    -0.8940 H     1 <1>   0.0800 
 33 H       -4.4170    -1.3680    -1.4130 H     1 <1>   0.0800 
 34 H       -4.1130    -2.2780     1.3850 H     1 <1>   0.4500 
 35 H       -5.2580     0.6710    -0.7080 H     1 <1>   0.0800 
 36 H       -5.6440     1.5860     0.7270 H     1 <1>   0.0800 
 37 H        0.7300     3.4380     1.7540 H     1 <1>   0.0800 
 38 H       -0.0470     4.9560     2.1360 H     1 <1>   0.0800 
 39 H        1.1450     4.8800     0.8620 H     1 <1>   0.0800 
 40 H       -3.8130     5.5920    -2.7240 H     1 <1>   0.0800 
 41 H       -2.3630     6.5480    -2.6040 H     1 <1>   0.0800 
 42 H       -3.5860     6.6350    -1.3480 H     1 <1>   0.0800 
 43 H       -6.4140    -2.2340     1.6400 H     1 <1>   0.0800 
 44 H       -1.5140     7.0270    -0.6240 H     1 <1>   0.4500 
 45 H       -5.4410    -4.3010     0.7940 H     1 <1>   0.1000 
 46 H       -7.9630    -1.5750    -0.0870 H     1 <1>   0.0800 
 47 H       -6.6700    -1.2370    -1.2100 H     1 <1>   0.0800 
 48 H       -6.2470    -3.3780    -2.0940 H     1 <1>   0.1000 
 49 H       -5.5230    -4.9450    -1.6390 H     1 <1>   0.1000 
 50 H       -7.4570    -5.3760    -0.1010 H     1 <1>   0.1000 
 51 H       -8.1690    -3.8120    -0.5730 H     1 <1>   0.1000 
@<TRIPOS>BOND
  1   1   2  2   
  2   2   3  am  
  3   2   4  1   
  4   3   5  1   
  5   3   6  1   
  6   4   7  ar  
  7   4   8  ar  
  8   5   9  1   
  9   5  25  1   
 10   5  26  1   
 11   6  10  1   
 12   6  27  1   
 13   6  28  1   
 14   7  11  ar  
 15   7  29  1   
 16   8  12  ar  
 17   8  30  1   
 18   9  13  1   
 19   9  14  1   
 20   9  31  1   
 21  10  13  1   
 22  10  32  1   
 23  10  33  1   
 24  11  15  ar  
 25  11  16  1   
 26  12  15  ar  
 27  12  17  1   
 28  13  18  1   
 29  13  34  1   
 30  14  19  1   
 31  14  35  1   
 32  14  36  1   
 33  15  20  1   
 34  16  37  1   
 35  16  38  1   
 36  16  39  1   
 37  17  40  1   
 38  17  41  1   
 39  17  42  1   
 40  18  21  1   
 41  18  22  1   
 42  18  43  1   
 43  19  22  1   
 44  20  44  1   
 45  21  23  1   
 46  21  24  1   
 47  21  45  1   
 48  22  46  1   
 49  22  47  1   
 50  23  24  1   
 51  23  48  1   
 52  23  49  1   
 53  24  50  1   
 54  24  51  1   
@<TRIPOS>SUBSTRUCTURE
  1 ****   3 GROUP 4 **** **** 0

# MOE 2024.06 (io_trps.svl 2023.06)
