@<TRIPOS>MOLECULE
NONAME
61 64 1 0 0 
SMALL
USER_CHARGES


@<TRIPOS>ATOM
  1 O        0.3740    -1.3530    -2.3120 O.3   1 <1>  -0.6800 
  2 C       -0.1160    -1.5110    -1.0150 C.3   1 <1>   0.1200 
  3 C        1.0860    -1.9190    -0.0360 C.3   1 <1>   0.0000 
  4 C        2.2480    -2.2710     1.0070 C.3   1 <1>   0.4230 
  5 C        1.3340    -0.3380     0.2560 C.3   1 <1>  -0.1600 
  6 C        0.8230    -3.4730    -0.4230 C.3   1 <1>  -0.1600 
  7 N        2.2120    -3.5790     1.7780 N.4   1 <1>  -0.9590 
  8 C        3.6360    -1.9430     0.3860 C.3   1 <1>   0.2090 
  9 C        2.6480     0.3110     0.7710 C.3   1 <1>   0.2090 
 10 C        1.9560    -4.5280    -0.4250 C.3   1 <1>  -0.1600 
 11 C        2.5940    -4.7290     0.9360 C.3   1 <1>   0.3430 
 12 C        3.0040    -3.5330     3.0470 C.3   1 <1>   0.2630 
 13 N        3.8240    -0.4690     0.2930 N.pl3 1 <1>  -0.8380 
 14 C        4.9570     0.1420    -0.1590 C.ar  1 <1>   0.4100 
 15 N        5.1490     1.3990     0.1910 N.ar  1 <1>  -0.6200 
 16 C        5.8890    -0.5370    -0.9700 C.ar  1 <1>  -0.1500 
 17 C        6.2340     2.0210    -0.2470 C.ar  1 <1>   0.7710 
 18 C        6.9920     0.1170    -1.4100 C.ar  1 <1>   0.2170 
 19 N        7.1350     1.4080    -1.0300 N.ar  1 <1>  -0.1790 
 20 N        6.4430     3.3140     0.1020 N.pl3 1 <1>  -0.8380 
 21 C        8.0550    -0.5130    -2.3020 C.3   1 <1>  -0.0170 
 22 C        7.6090     4.1850    -0.2140 C.3   1 <1>   0.2090 
 23 C        5.4630     4.0630     0.9380 C.3   1 <1>   0.2090 
 24 C        9.4300    -0.5640    -1.6210 C.3   1 <1>  -0.2400 
 25 C        7.4530     5.3980     0.6920 C.3   1 <1>  -0.1600 
 26 C        5.9530     5.5040     0.9350 C.3   1 <1>  -0.1600 
 27 H       -0.3330    -1.0700    -2.9280 H     1 <1>   0.4000 
 28 H       -0.6360    -0.5990    -0.7600 H     1 <1>   0.0800 
 29 H       -0.9320    -2.2170    -1.0540 H     1 <1>   0.0800 
 30 H        2.1300    -1.5730     1.8150 H     1 <1>   0.0800 
 31 H        0.5620     0.0100     0.9240 H     1 <1>   0.0800 
 32 H        1.2290     0.2470    -0.6470 H     1 <1>   0.0800 
 33 H        0.0320    -3.8430     0.2110 H     1 <1>   0.0800 
 34 H        0.4650    -3.6250    -1.4330 H     1 <1>   0.0800 
 35 H        1.2230    -3.7190     2.0260 H     1 <1>   0.4500 
 36 H        3.6950    -2.3590    -0.6030 H     1 <1>   0.0800 
 37 H        4.4260    -2.3470     0.9920 H     1 <1>   0.0800 
 38 H        2.6640     0.3440     1.8480 H     1 <1>   0.0800 
 39 H        2.6960     1.3310     0.4240 H     1 <1>   0.0800 
 40 H        2.7080    -4.2550    -1.1440 H     1 <1>   0.0800 
 41 H        1.5630    -5.4760    -0.7530 H     1 <1>   0.0800 
 42 H        3.6660    -4.7930     0.8330 H     1 <1>   0.0800 
 43 H        2.2360    -5.6440     1.3820 H     1 <1>   0.0800 
 44 H        4.0530    -3.4020     2.8360 H     1 <1>   0.0800 
 45 H        2.8780    -4.4500     3.6000 H     1 <1>   0.0800 
 46 H        2.6730    -2.7140     3.6660 H     1 <1>   0.0800 
 47 H        5.7070    -1.5570    -1.2410 H     1 <1>   0.1500 
 48 H        7.9210     1.9720    -1.3170 H     1 <1>   0.4570 
 49 H        7.7600    -1.5170    -2.5560 H     1 <1>   0.0800 
 50 H        8.1280     0.0390    -3.2230 H     1 <1>   0.0800 
 51 H        8.5460     3.6890    -0.0210 H     1 <1>   0.0800 
 52 H        7.5560     4.4970    -1.2450 H     1 <1>   0.0800 
 53 H        4.4660     3.9900     0.5350 H     1 <1>   0.0800 
 54 H        5.4740     3.6680     1.9410 H     1 <1>   0.0800 
 55 H        9.3740    -1.1130    -0.6960 H     1 <1>   0.0800 
 56 H        9.8090     0.4220    -1.4180 H     1 <1>   0.0800 
 57 H       10.1350    -1.0650    -2.2620 H     1 <1>   0.0800 
 58 H        7.9600     5.2110     1.6240 H     1 <1>   0.0800 
 59 H        7.8600     6.2890     0.2470 H     1 <1>   0.0800 
 60 H        5.4840     6.0330     0.1230 H     1 <1>   0.0800 
 61 H        5.7200     6.0070     1.8570 H     1 <1>   0.0800 
@<TRIPOS>BOND
  1   1   2  1   
  2   1  27  1   
  3   2   3  1   
  4   2  28  1   
  5   2  29  1   
  6   3   4  1   
  7   3   5  1   
  8   3   6  1   
  9   4   7  1   
 10   4   8  1   
 11   4  30  1   
 12   5   9  1   
 13   5  31  1   
 14   5  32  1   
 15   6  10  1   
 16   6  33  1   
 17   6  34  1   
 18   7  11  1   
 19   7  12  1   
 20   7  35  1   
 21   8  13  1   
 22   8  36  1   
 23   8  37  1   
 24   9  13  1   
 25   9  38  1   
 26   9  39  1   
 27  10  11  1   
 28  10  40  1   
 29  10  41  1   
 30  11  42  1   
 31  11  43  1   
 32  12  44  1   
 33  12  45  1   
 34  12  46  1   
 35  13  14  1   
 36  14  15  ar  
 37  14  16  ar  
 38  15  17  ar  
 39  16  18  ar  
 40  16  47  1   
 41  17  19  ar  
 42  17  20  1   
 43  18  19  ar  
 44  18  21  1   
 45  19  48  1   
 46  20  22  1   
 47  20  23  1   
 48  21  24  1   
 49  21  49  1   
 50  21  50  1   
 51  22  25  1   
 52  22  51  1   
 53  22  52  1   
 54  23  26  1   
 55  23  53  1   
 56  23  54  1   
 57  24  55  1   
 58  24  56  1   
 59  24  57  1   
 60  25  26  1   
 61  25  58  1   
 62  25  59  1   
 63  26  60  1   
 64  26  61  1   
@<TRIPOS>SUBSTRUCTURE
  1 ****  13 GROUP 4 **** **** 0

# MOE 2024.06 (io_trps.svl 2023.06)
