@<TRIPOS>MOLECULE
NONAME
38 38 1 0 0 
SMALL
USER_CHARGES


@<TRIPOS>ATOM
  1 O       -0.1390    -1.7490     0.4560 O.2   1 <1>  -0.5700 
  2 C        0.7860    -1.8070    -0.3350 C.2   1 <1>   0.6900 
  3 N        2.0050    -1.2490    -0.0430 N.am  1 <1>  -0.6600 
  4 N        0.6200    -2.4580    -1.5100 N.am  1 <1>  -0.7300 
  5 C        2.3040    -0.7220     1.3160 C.3   1 <1>   0.0600 
  6 C        3.0590    -0.9810    -1.0600 C.3   1 <1>   0.0600 
  7 C       -0.6170    -3.2270    -1.8450 C.3   1 <1>   0.2010 
  8 C       -0.8110    -4.4490    -0.9370 C.2   1 <1>   0.5690 
  9 O        0.0210    -5.3300    -1.0010 O.2   1 <1>  -0.5700 
 10 N       -1.8820    -4.5620    -0.0880 N.am  1 <1>  -0.6600 
 11 C       -1.8360    -5.5460     1.0300 C.3   1 <1>   0.3200 
 12 C       -3.2290    -3.9550    -0.3200 C.3   1 <1>   0.1400 
 13 C       -2.3540    -6.8940     0.5620 C.2   1 <1>   0.0060 
 14 C       -3.5050    -2.7400     0.5780 C.3   1 <1>   0.1200 
 15 N       -3.4190    -7.4860     1.0030 N.2   1 <1>  -0.5650 
 16 N       -1.7050    -7.5890    -0.3940 N.pl3 1 <1>   0.0330 
 17 O       -2.7960    -1.6350     0.1380 O.3   1 <1>  -0.6800 
 18 C       -3.4630    -8.6320     0.2960 C.2   1 <1>   0.0770 
 19 C       -2.4240    -8.7130    -0.5640 C.2   1 <1>  -0.3020 
 20 H        1.4760    -2.8480    -1.8970 H     1 <1>   0.3700 
 21 H        1.6020    -1.1080     2.0360 H     1 <1>   0.0800 
 22 H        2.2370     0.3510     1.3110 H     1 <1>   0.0800 
 23 H        3.2940    -1.0180     1.6140 H     1 <1>   0.0800 
 24 H        2.6470    -0.9980    -2.0540 H     1 <1>   0.0800 
 25 H        3.8330    -1.7240    -0.9820 H     1 <1>   0.0800 
 26 H        3.4870    -0.0080    -0.8930 H     1 <1>   0.0800 
 27 H       -0.5500    -3.5680    -2.8610 H     1 <1>   0.0800 
 28 H       -1.4600    -2.5670    -1.7760 H     1 <1>   0.0800 
 29 H       -2.4340    -5.1960     1.8520 H     1 <1>   0.0800 
 30 H       -0.8240    -5.6520     1.3800 H     1 <1>   0.0800 
 31 H       -3.9770    -4.7030    -0.1170 H     1 <1>   0.0800 
 32 H       -3.3450    -3.6710    -1.3510 H     1 <1>   0.0800 
 33 H       -3.2420    -2.9370     1.6020 H     1 <1>   0.0800 
 34 H       -4.5490    -2.4850     0.5280 H     1 <1>   0.0800 
 35 H       -0.8540    -7.2650    -0.8770 H     1 <1>   0.2700 
 36 H       -1.8230    -1.7270     0.3390 H     1 <1>   0.4000 
 37 H       -4.2520    -9.3500     0.4450 H     1 <1>   0.1500 
 38 H       -2.1650    -9.4830    -1.2670 H     1 <1>   0.1500 
@<TRIPOS>BOND
  1   1   2  2   
  2   2   3  am  
  3   2   4  am  
  4   3   5  1   
  5   3   6  1   
  6   4   7  1   
  7   4  20  1   
  8   5  21  1   
  9   5  22  1   
 10   5  23  1   
 11   6  24  1   
 12   6  25  1   
 13   6  26  1   
 14   7   8  1   
 15   7  27  1   
 16   7  28  1   
 17   8   9  2   
 18   8  10  am  
 19  10  11  1   
 20  10  12  1   
 21  11  13  1   
 22  11  29  1   
 23  11  30  1   
 24  12  14  1   
 25  12  31  1   
 26  12  32  1   
 27  13  15  2   
 28  13  16  1   
 29  14  17  1   
 30  14  33  1   
 31  14  34  1   
 32  15  18  1   
 33  16  19  1   
 34  16  35  1   
 35  17  36  1   
 36  18  19  2   
 37  18  37  1   
 38  19  38  1   
@<TRIPOS>SUBSTRUCTURE
  1 ****   8 GROUP 4 **** **** 0

# MOE 2024.06 (io_trps.svl 2023.06)
