@<TRIPOS>MOLECULE
NONAME
49 51 1 0 0 
SMALL
USER_CHARGES


@<TRIPOS>ATOM
  1 O       -0.1040     0.5140     0.2490 O.2   1 <1>  -0.5700 
  2 C       -0.9000     1.4190     0.2430 C.2   1 <1>   0.5690 
  3 N       -2.2620     1.3290     0.1940 N.am  1 <1>  -0.4770 
  4 C       -0.4480     2.8510     0.3010 C.3   1 <1>  -0.0990 
  5 C       -3.0690     0.1730     0.1650 C.ar  1 <1>   0.1170 
  6 C       -2.8670     2.6770     0.2100 C.3   1 <1>   0.1400 
  7 C       -1.7350     3.6060     0.6720 C.3   1 <1>  -0.0190 
  8 C       -2.6930    -0.9860     0.8350 C.ar  1 <1>  -0.1500 
  9 C       -4.2760     0.1610    -0.5270 C.ar  1 <1>  -0.1500 
 10 C       -1.8300     5.0130     0.0970 C.2   1 <1>   0.5690 
 11 C       -3.4950    -2.1130     0.8210 C.ar  1 <1>  -0.1500 
 12 C       -5.0810    -0.9640    -0.5410 C.ar  1 <1>  -0.1500 
 13 O       -2.8700     5.3640    -0.4070 O.2   1 <1>  -0.5700 
 14 N       -0.7370     5.8220     0.1940 N.am  1 <1>  -0.4930 
 15 C       -4.7000    -2.1150     0.1340 C.ar  1 <1>  -0.1430 
 16 C       -0.5690     7.1520    -0.2660 C.2   1 <1>   0.0630 
 17 C       -5.5740    -3.3670     0.1290 C.3   1 <1>   0.0630 
 18 C        0.5530     7.8980    -0.1610 C.2   1 <1>  -0.3320 
 19 C       -1.4860     7.9800    -0.9150 C.2   1 <1>   0.1390 
 20 C       -5.7460    -3.9080    -1.2940 C.3   1 <1>  -0.2400 
 21 C       -6.9350    -3.0870     0.7730 C.3   1 <1>  -0.2400 
 22 N        0.2710     9.0980    -0.7300 N.pl3 1 <1>   0.3140 
 23 C        1.9040     7.5530     0.4520 C.3   1 <1>  -0.0600 
 24 N       -0.9860     9.1460    -1.1950 N.2   1 <1>  -0.7070 
 25 C        1.1670    10.2540    -0.8640 C.3   1 <1>   0.0160 
 26 H       -0.0900     3.1310    -0.6730 H     1 <1>   0.0800 
 27 H        0.3250     2.9770     1.0360 H     1 <1>   0.0800 
 28 H       -3.7070     2.7170     0.8810 H     1 <1>   0.0800 
 29 H       -3.1880     2.9230    -0.7890 H     1 <1>   0.0800 
 30 H       -1.7990     3.6810     1.7430 H     1 <1>   0.0800 
 31 H       -1.7640    -1.0110     1.3740 H     1 <1>   0.1500 
 32 H       -4.5950     1.0320    -1.0670 H     1 <1>   0.1500 
 33 H       -3.1710    -2.9910     1.3500 H     1 <1>   0.1500 
 34 H       -6.0080    -0.9400    -1.0850 H     1 <1>   0.1500 
 35 H        0.0860     5.4400     0.6520 H     1 <1>   0.3700 
 36 H       -5.0860    -4.1300     0.7130 H     1 <1>   0.0800 
 37 H       -2.4940     7.6940    -1.1600 H     1 <1>   0.1500 
 38 H       -6.2730    -3.2030    -1.9110 H     1 <1>   0.0800 
 39 H       -6.2960    -4.8320    -1.2780 H     1 <1>   0.0800 
 40 H       -4.7810    -4.0920    -1.7320 H     1 <1>   0.0800 
 41 H       -7.4880    -2.3640     0.2020 H     1 <1>   0.0800 
 42 H       -6.7950    -2.7020     1.7680 H     1 <1>   0.0800 
 43 H       -7.5120    -3.9920     0.8340 H     1 <1>   0.0800 
 44 H        1.9040     6.5510     0.8400 H     1 <1>   0.0800 
 45 H        2.1270     8.2290     1.2580 H     1 <1>   0.0800 
 46 H        2.6770     7.6280    -0.2920 H     1 <1>   0.0800 
 47 H        2.0220     9.9730    -1.4480 H     1 <1>   0.0800 
 48 H        1.4750    10.5770     0.1120 H     1 <1>   0.0800 
 49 H        0.6410    11.0510    -1.3570 H     1 <1>   0.0800 
@<TRIPOS>BOND
  1   1   2  2   
  2   2   3  am  
  3   2   4  1   
  4   3   5  1   
  5   3   6  1   
  6   4   7  1   
  7   4  26  1   
  8   4  27  1   
  9   5   8  ar  
 10   5   9  ar  
 11   6   7  1   
 12   6  28  1   
 13   6  29  1   
 14   7  10  1   
 15   7  30  1   
 16   8  11  ar  
 17   8  31  1   
 18   9  12  ar  
 19   9  32  1   
 20  10  13  2   
 21  10  14  am  
 22  11  15  ar  
 23  11  33  1   
 24  12  15  ar  
 25  12  34  1   
 26  14  16  1   
 27  14  35  1   
 28  15  17  1   
 29  16  18  2   
 30  16  19  1   
 31  17  20  1   
 32  17  21  1   
 33  17  36  1   
 34  18  22  1   
 35  18  23  1   
 36  19  24  2   
 37  19  37  1   
 38  20  38  1   
 39  20  39  1   
 40  20  40  1   
 41  21  41  1   
 42  21  42  1   
 43  21  43  1   
 44  22  24  1   
 45  22  25  1   
 46  23  44  1   
 47  23  45  1   
 48  23  46  1   
 49  25  47  1   
 50  25  48  1   
 51  25  49  1   
@<TRIPOS>SUBSTRUCTURE
  1 ****   6 GROUP 4 **** **** 0

# MOE 2024.06 (io_trps.svl 2023.06)
