@<TRIPOS>MOLECULE
NONAME
51 54 1 0 0 
SMALL
USER_CHARGES


@<TRIPOS>ATOM
  1 O       -1.4650    -0.0320    -1.6260 O.2   1 <1>  -0.5700 
  2 C       -1.7370     0.4030    -0.5210 C.2   1 <1>   0.7160 
  3 N       -2.0660    -0.4840     0.4850 N.am  1 <1>  -0.6600 
  4 C       -1.7020     1.8130    -0.3000 C.2   1 <1>  -0.0860 
  5 C       -2.3600    -1.9130     0.1800 C.3   1 <1>   0.1400 
  6 C       -2.3350    -0.0440     1.8830 C.3   1 <1>   0.0600 
  7 C       -2.8120     2.6090    -0.0050 C.2   1 <1>   0.3720 
  8 C       -0.6670     2.6940    -0.3210 C.2   1 <1>   0.0870 
  9 C       -3.8100    -2.0770    -0.2950 C.3   1 <1>   0.0000 
 10 N       -2.4650     3.8380     0.1560 N.2   1 <1>  -0.4100 
 11 N       -4.1350     2.1490     0.0980 N.pl3 1 <1>  -0.8210 
 12 O       -1.1750     3.8690    -0.0430 O.3   1 <1>  -0.0190 
 13 C        0.7520     2.5570    -0.5630 C.ar  1 <1>   0.0530 
 14 C       -4.9070    -1.9040     0.7900 C.3   1 <1>   0.0000 
 15 C       -4.2780    -3.5500    -0.4220 C.3   1 <1>   0.0000 
 16 C       -5.1090     3.0410     0.8070 C.3   1 <1>   0.2090 
 17 C       -4.7230     1.6100    -1.1700 C.3   1 <1>   0.2090 
 18 C        1.5340     3.6760    -0.8610 C.ar  1 <1>  -0.1500 
 19 C        1.4050     1.3240    -0.5070 C.ar  1 <1>  -0.1500 
 20 C       -5.6580    -3.0720     0.1000 C.3   1 <1>   0.0000 
 21 C       -5.7420     4.0740    -0.1450 C.3   1 <1>   0.1200 
 22 C       -5.3650     2.7250    -2.0160 C.3   1 <1>   0.1200 
 23 C        2.8930     3.5720    -1.0920 C.ar  1 <1>  -0.1500 
 24 C        2.7630     1.2130    -0.7390 C.ar  1 <1>  -0.1500 
 25 O       -6.3010     3.4450    -1.2650 O.3   1 <1>  -0.5600 
 26 C        3.5120     2.3370    -1.0320 C.ar  1 <1>  -0.1500 
 27 H       -2.1850    -2.5150     1.0550 H     1 <1>   0.0800 
 28 H       -1.6960    -2.2600    -0.5930 H     1 <1>   0.0800 
 29 H       -1.7490     0.8260     2.1250 H     1 <1>   0.0800 
 30 H       -2.0810    -0.8260     2.5760 H     1 <1>   0.0800 
 31 H       -3.3770     0.2010     1.9910 H     1 <1>   0.0800 
 32 H       -4.0280    -1.5220    -1.1930 H     1 <1>   0.0000 
 33 H       -5.4260    -0.9630     0.7410 H     1 <1>   0.0000 
 34 H       -4.5710    -2.1610     1.7800 H     1 <1>   0.0000 
 35 H       -3.7860    -4.2150     0.2680 H     1 <1>   0.0000 
 36 H       -4.2980    -3.9160    -1.4330 H     1 <1>   0.0000 
 37 H       -4.6170     3.5530     1.6160 H     1 <1>   0.0800 
 38 H       -5.8900     2.4360     1.2340 H     1 <1>   0.0800 
 39 H       -5.4730     0.8770    -0.9280 H     1 <1>   0.0800 
 40 H       -3.9680     1.1200    -1.7580 H     1 <1>   0.0800 
 41 H        1.0720     4.6450    -0.9150 H     1 <1>   0.1500 
 42 H        0.8540     0.4310    -0.2800 H     1 <1>   0.1500 
 43 H       -6.3090    -2.7380    -0.6910 H     1 <1>   0.0000 
 44 H       -6.1260    -3.7550     0.7860 H     1 <1>   0.0000 
 45 H       -5.0010     4.7810    -0.4790 H     1 <1>   0.0800 
 46 H       -6.5270     4.6090     0.3570 H     1 <1>   0.0800 
 47 H       -5.8770     2.3010    -2.8610 H     1 <1>   0.0800 
 48 H       -4.6110     3.4050    -2.3740 H     1 <1>   0.0800 
 49 H        3.4700     4.4510    -1.3190 H     1 <1>   0.1500 
 50 H        3.2390     0.2480    -0.6920 H     1 <1>   0.1500 
 51 H        4.5700     2.2520    -1.2120 H     1 <1>   0.1500 
@<TRIPOS>BOND
  1   1   2  2   
  2   2   3  am  
  3   2   4  1   
  4   3   5  1   
  5   3   6  1   
  6   4   7  1   
  7   4   8  2   
  8   5   9  1   
  9   5  27  1   
 10   5  28  1   
 11   6  29  1   
 12   6  30  1   
 13   6  31  1   
 14   7  10  2   
 15   7  11  1   
 16   8  12  1   
 17   8  13  1   
 18   9  14  1   
 19   9  15  1   
 20   9  32  1   
 21  10  12  1   
 22  11  16  1   
 23  11  17  1   
 24  13  18  ar  
 25  13  19  ar  
 26  14  20  1   
 27  14  33  1   
 28  14  34  1   
 29  15  20  1   
 30  15  35  1   
 31  15  36  1   
 32  16  21  1   
 33  16  37  1   
 34  16  38  1   
 35  17  22  1   
 36  17  39  1   
 37  17  40  1   
 38  18  23  ar  
 39  18  41  1   
 40  19  24  ar  
 41  19  42  1   
 42  20  43  1   
 43  20  44  1   
 44  21  25  1   
 45  21  45  1   
 46  21  46  1   
 47  22  25  1   
 48  22  47  1   
 49  22  48  1   
 50  23  26  ar  
 51  23  49  1   
 52  24  26  ar  
 53  24  50  1   
 54  26  51  1   
@<TRIPOS>SUBSTRUCTURE
  1 ****   4 GROUP 4 **** **** 0

# MOE 2024.06 (io_trps.svl 2023.06)
