@<TRIPOS>MOLECULE
NONAME
57 60 1 0 0 
SMALL
USER_CHARGES


@<TRIPOS>ATOM
  1 O        2.0000    -1.1740     0.8510 O.3   1 <1>  -0.5600 
  2 C        1.9960     0.0900     0.2610 C.3   1 <1>   0.2000 
  3 C        1.2200    -2.1490     0.2260 C.3   1 <1>   0.2640 
  4 C        3.0830     0.1520    -0.8140 C.3   1 <1>  -0.1600 
  5 C        2.2730     1.1030     1.3690 C.3   1 <1>  -0.1600 
  6 C       -0.2590    -1.8380     0.4080 C.ar  1 <1>  -0.1440 
  7 C        3.1970     1.5680    -1.3780 C.3   1 <1>   0.2090 
  8 C        2.3880     2.5160     0.8010 C.3   1 <1>   0.2090 
  9 C       -0.7530    -1.4980     1.6590 C.ar  1 <1>   0.1600 
 10 C       -1.1320    -1.8870    -0.6610 C.ar  1 <1>  -0.1500 
 11 N        3.4170     2.5460    -0.2750 N.pl3 1 <1>  -0.8380 
 12 N       -2.0180    -1.2060     1.9220 N.ar  1 <1>  -0.6200 
 13 C       -2.4530    -1.5880    -0.4040 C.ar  1 <1>  -0.1500 
 14 C        4.6280     3.1290    -0.0890 C.ar  1 <1>   0.4100 
 15 C       -2.8370    -1.2590     0.8850 C.ar  1 <1>   0.1600 
 16 N        5.6720     2.3250    -0.1300 N.ar  1 <1>  -0.6200 
 17 C        4.7630     4.5210     0.1380 C.ar  1 <1>  -0.1430 
 18 C        6.8680     2.8300     0.1180 C.ar  1 <1>   0.7710 
 19 C        6.0080     5.0110     0.3820 C.ar  1 <1>   0.2180 
 20 C        3.5460     5.4480     0.0760 C.3   1 <1>  -0.0170 
 21 N        7.0390     4.1350     0.3720 N.ar  1 <1>  -0.1790 
 22 N        7.9570     2.0090     0.1150 N.pl3 1 <1>  -0.8380 
 23 C        6.3140     6.4850     0.6370 C.3   1 <1>  -0.0170 
 24 C        3.9400     6.9210    -0.1010 C.3   1 <1>  -0.1600 
 25 C        9.3430     2.3440     0.5700 C.3   1 <1>   0.1290 
 26 C        7.8320     0.5680    -0.2900 C.3   1 <1>   0.1290 
 27 C        5.0440     7.3100     0.8880 C.3   1 <1>  -0.1600 
 28 H        1.0280     0.2910    -0.1670 H     1 <1>   0.0800 
 29 H        1.4510    -3.0910     0.6920 H     1 <1>   0.0800 
 30 H        1.4890    -2.2030    -0.8130 H     1 <1>   0.0800 
 31 H        2.8540    -0.5220    -1.6170 H     1 <1>   0.0800 
 32 H        4.0300    -0.1270    -0.3880 H     1 <1>   0.0800 
 33 H        3.1930     0.8530     1.8670 H     1 <1>   0.0800 
 34 H        1.4740     1.0740     2.0880 H     1 <1>   0.0800 
 35 H        2.2930     1.8290    -1.9020 H     1 <1>   0.0800 
 36 H        4.0130     1.6150    -2.0800 H     1 <1>   0.0800 
 37 H        2.6610     3.1870     1.5960 H     1 <1>   0.0800 
 38 H        1.4410     2.8310     0.3970 H     1 <1>   0.0800 
 39 H       -0.0650    -1.4610     2.4880 H     1 <1>   0.1500 
 40 H       -0.8050    -2.1470    -1.6530 H     1 <1>   0.1500 
 41 H       -3.1830    -1.6090    -1.1930 H     1 <1>   0.1500 
 42 H       -3.8720    -1.0280     1.0730 H     1 <1>   0.1500 
 43 H        2.9810     5.3480     0.9860 H     1 <1>   0.0800 
 44 H        2.9070     5.1600    -0.7420 H     1 <1>   0.0800 
 45 H        7.9960     4.4210     0.5190 H     1 <1>   0.4570 
 46 H        6.8210     6.8840    -0.2240 H     1 <1>   0.0800 
 47 H        6.9650     6.5900     1.4880 H     1 <1>   0.0800 
 48 H        3.0740     7.5420     0.0550 H     1 <1>   0.0800 
 49 H        4.2810     7.0840    -1.1090 H     1 <1>   0.0800 
 50 H        9.3650     3.2320     1.1760 H     1 <1>   0.0800 
 51 H        9.9860     2.4780    -0.2850 H     1 <1>   0.0800 
 52 H        9.7350     1.5350     1.1650 H     1 <1>   0.0800 
 53 H        7.0040     0.4190    -0.9640 H     1 <1>   0.0800 
 54 H        7.6790    -0.0440     0.5820 H     1 <1>   0.0800 
 55 H        8.7260     0.2420    -0.7940 H     1 <1>   0.0800 
 56 H        5.2680     8.3590     0.7930 H     1 <1>   0.0800 
 57 H        4.6940     7.1400     1.8920 H     1 <1>   0.0800 
@<TRIPOS>BOND
  1   1   2  1   
  2   1   3  1   
  3   2   4  1   
  4   2   5  1   
  5   2  28  1   
  6   3   6  1   
  7   3  29  1   
  8   3  30  1   
  9   4   7  1   
 10   4  31  1   
 11   4  32  1   
 12   5   8  1   
 13   5  33  1   
 14   5  34  1   
 15   6   9  ar  
 16   6  10  ar  
 17   7  11  1   
 18   7  35  1   
 19   7  36  1   
 20   8  11  1   
 21   8  37  1   
 22   8  38  1   
 23   9  12  ar  
 24   9  39  1   
 25  10  13  ar  
 26  10  40  1   
 27  11  14  1   
 28  12  15  ar  
 29  13  15  ar  
 30  13  41  1   
 31  14  16  ar  
 32  14  17  ar  
 33  15  42  1   
 34  16  18  ar  
 35  17  19  ar  
 36  17  20  1   
 37  18  21  ar  
 38  18  22  1   
 39  19  21  ar  
 40  19  23  1   
 41  20  24  1   
 42  20  43  1   
 43  20  44  1   
 44  21  45  1   
 45  22  25  1   
 46  22  26  1   
 47  23  27  1   
 48  23  46  1   
 49  23  47  1   
 50  24  27  1   
 51  24  48  1   
 52  24  49  1   
 53  25  50  1   
 54  25  51  1   
 55  25  52  1   
 56  26  53  1   
 57  26  54  1   
 58  26  55  1   
 59  27  56  1   
 60  27  57  1   
@<TRIPOS>SUBSTRUCTURE
  1 ****  11 GROUP 4 **** **** 0

# MOE 2024.06 (io_trps.svl 2023.06)
