@<TRIPOS>MOLECULE
NONAME
47 49 1 0 0 
SMALL
USER_CHARGES


@<TRIPOS>ATOM
  1 O        1.4260    -1.0420    -2.6890 O.2   1 <1>  -0.5700 
  2 C        1.4630    -1.4960    -1.5570 C.2   1 <1>   0.5440 
  3 N        1.0890    -0.6520    -0.5260 N.am  1 <1>  -0.6600 
  4 C        1.9210    -2.8750    -1.3670 C.ar  1 <1>   0.3960 
  5 C        1.1730    -0.9530     0.9220 C.3   1 <1>   0.1400 
  6 C        0.7310     0.7680    -0.7450 C.3   1 <1>   0.1400 
  7 N        1.4250    -3.6500    -0.3850 N.ar  1 <1>  -0.6200 
  8 C        2.8850    -3.3620    -2.2570 C.ar  1 <1>   0.1600 
  9 C        0.7260     0.3250     1.6240 C.3   1 <1>  -0.1600 
 10 C        0.9570     1.4360     0.6050 C.3   1 <1>  -0.1600 
 11 C        1.9370    -4.8600    -0.3590 C.ar  1 <1>   0.4100 
 12 N        3.4180    -4.5780    -2.2340 N.ar  1 <1>  -0.6200 
 13 N        1.4050    -5.6500     0.6240 N.pl3 1 <1>  -0.8690 
 14 C        2.9210    -5.3020    -1.2550 C.ar  1 <1>   0.1600 
 15 C        0.6520    -6.8540     0.2570 C.3   1 <1>   0.2890 
 16 C       -0.7840    -6.4560    -0.0800 C.3   1 <1>  -0.1600 
 17 C        0.6920    -7.8240     1.4360 C.3   1 <1>  -0.1600 
 18 C       -1.6350    -7.6890    -0.3580 C.3   1 <1>   0.3430 
 19 C       -0.1680    -9.0530     1.1610 C.3   1 <1>   0.3430 
 20 N       -1.5350    -8.6220     0.7920 N.4   1 <1>  -0.9590 
 21 C       -2.5340    -9.7550     0.6510 C.3   1 <1>   0.2370 
 22 C       -3.9270    -9.2860     1.0740 C.2   1 <1>   0.9060 
 23 O       -3.9520    -8.2450     1.7490 O.co2 1 <1>  -0.9000 
 24 O       -4.9220    -9.8990     0.6970 O.co2 1 <1>  -0.9000 
 25 H        2.1910    -1.1920     1.1780 H     1 <1>   0.0800 
 26 H        0.5280    -1.7750     1.1820 H     1 <1>   0.0800 
 27 H       -0.3060     0.8260    -1.0300 H     1 <1>   0.0800 
 28 H        1.3410     1.2110    -1.5140 H     1 <1>   0.0800 
 29 H        3.2330    -2.7000    -3.0320 H     1 <1>   0.1500 
 30 H        1.2680     0.4890     2.5390 H     1 <1>   0.0800 
 31 H       -0.3230     0.2500     1.8490 H     1 <1>   0.0800 
 32 H        0.2980     2.2740     0.7510 H     1 <1>   0.0800 
 33 H        1.9760     1.7770     0.6570 H     1 <1>   0.0800 
 34 H        0.8740    -5.0640     1.2760 H     1 <1>   0.4000 
 35 H        3.2980    -6.3000    -1.1340 H     1 <1>   0.1500 
 36 H        1.1070    -7.3190    -0.6040 H     1 <1>   0.0800 
 37 H       -0.7910    -5.8260    -0.9520 H     1 <1>   0.0800 
 38 H       -1.2250    -5.9080     0.7340 H     1 <1>   0.0800 
 39 H        0.3340    -7.3390     2.3270 H     1 <1>   0.0800 
 40 H        1.7070    -8.1360     1.6070 H     1 <1>   0.0800 
 41 H       -1.2960    -8.1790    -1.2570 H     1 <1>   0.0800 
 42 H       -2.6650    -7.3930    -0.4950 H     1 <1>   0.0800 
 43 H       -0.2060    -9.6750     2.0410 H     1 <1>   0.0800 
 44 H        0.2590    -9.6270     0.3550 H     1 <1>   0.0800 
 45 H       -1.9870    -8.1000     1.5820 H     1 <1>   0.4500 
 46 H       -2.2690   -10.5720     1.2960 H     1 <1>   0.0800 
 47 H       -2.5820   -10.1090    -0.3630 H     1 <1>   0.0800 
@<TRIPOS>BOND
  1   1   2  2   
  2   2   3  am  
  3   2   4  1   
  4   3   5  1   
  5   3   6  1   
  6   4   7  ar  
  7   4   8  ar  
  8   5   9  1   
  9   5  25  1   
 10   5  26  1   
 11   6  10  1   
 12   6  27  1   
 13   6  28  1   
 14   7  11  ar  
 15   8  12  ar  
 16   8  29  1   
 17   9  10  1   
 18   9  30  1   
 19   9  31  1   
 20  10  32  1   
 21  10  33  1   
 22  11  13  1   
 23  11  14  ar  
 24  12  14  ar  
 25  13  15  1   
 26  13  34  1   
 27  14  35  1   
 28  15  16  1   
 29  15  17  1   
 30  15  36  1   
 31  16  18  1   
 32  16  37  1   
 33  16  38  1   
 34  17  19  1   
 35  17  39  1   
 36  17  40  1   
 37  18  20  1   
 38  18  41  1   
 39  18  42  1   
 40  19  20  1   
 41  19  43  1   
 42  19  44  1   
 43  20  21  1   
 44  20  45  1   
 45  21  22  1   
 46  21  46  1   
 47  21  47  1   
 48  22  23  ar  
 49  22  24  ar  
@<TRIPOS>SUBSTRUCTURE
  1 ****  13 GROUP 4 **** **** 0

# MOE 2024.06 (io_trps.svl 2023.06)
