@<TRIPOS>MOLECULE
NONAME
57 59 1 0 0 
SMALL
USER_CHARGES


@<TRIPOS>ATOM
  1 O       -0.7840     0.8560     0.9630 O.2   1 <1>  -0.5700 
  2 C       -1.6390     1.6150     0.5700 C.2   1 <1>   0.5690 
  3 N       -2.9650     1.2420     0.5260 N.am  1 <1>  -0.6600 
  4 C       -1.2060     3.0060     0.1210 C.3   1 <1>  -0.0990 
  5 C       -4.0350     2.0970    -0.0750 C.3   1 <1>   0.2200 
  6 C       -3.3560    -0.0950     1.0740 C.3   1 <1>   0.0600 
  7 C        0.2520     3.3500     0.4610 C.3   1 <1>  -0.0160 
  8 C       -4.9190     2.7500     0.9800 C.3   1 <1>  -0.1600 
  9 C       -5.0250     1.3570    -0.9720 C.3   1 <1>  -0.1600 
 10 C        0.5760     4.7640     0.0060 C.ar  1 <1>  -0.1440 
 11 C       -6.1830     3.1730     0.2150 C.3   1 <1>  -0.0800 
 12 C       -6.2390     2.2960    -1.0480 C.3   1 <1>  -0.0800 
 13 C        1.0370     4.9970    -1.2800 C.ar  1 <1>  -0.1500 
 14 C        0.4080     5.8350     0.8690 C.ar  1 <1>  -0.1500 
 15 C       -7.4890     2.9250     0.9820 C.3   1 <1>  -0.1600 
 16 C       -7.5890     1.5680    -1.0150 C.3   1 <1>  -0.1600 
 17 C        1.3260     6.2850    -1.6970 C.ar  1 <1>  -0.1500 
 18 C        0.6960     7.1230     0.4510 C.ar  1 <1>  -0.1500 
 19 C       -7.9980     1.5840     0.4550 C.3   1 <1>   0.4230 
 20 C        1.1550     7.3560    -0.8350 C.ar  1 <1>  -0.1440 
 21 N       -9.4620     1.3460     0.6580 N.4   1 <1>  -0.9590 
 22 C        1.4740     8.7680    -1.2910 C.3   1 <1>  -0.0970 
 23 C      -10.3720     2.3860     0.0720 C.3   1 <1>   0.2630 
 24 C       -9.7690     1.1580     2.1100 C.3   1 <1>   0.2630 
 25 H       -1.3350     3.0760    -0.9430 H     1 <1>   0.0800 
 26 H       -1.8400     3.7330     0.5920 H     1 <1>   0.0800 
 27 H       -3.5970     2.8780    -0.6720 H     1 <1>   0.0800 
 28 H       -4.3060    -0.0390     1.5730 H     1 <1>   0.0800 
 29 H       -2.6270    -0.4420     1.7860 H     1 <1>   0.0800 
 30 H       -3.4120    -0.8110     0.2720 H     1 <1>   0.0800 
 31 H        0.9140     2.6520    -0.0230 H     1 <1>   0.0800 
 32 H        0.4080     3.2620     1.5220 H     1 <1>   0.0800 
 33 H       -5.1590     2.0360     1.7470 H     1 <1>   0.0800 
 34 H       -4.4280     3.5960     1.4260 H     1 <1>   0.0800 
 35 H       -4.6040     1.1780    -1.9460 H     1 <1>   0.0800 
 36 H       -5.3160     0.4220    -0.5330 H     1 <1>   0.0800 
 37 H       -6.0990     4.2120    -0.0630 H     1 <1>   0.0800 
 38 H       -6.1590     2.9120    -1.9300 H     1 <1>   0.0800 
 39 H        1.1750     4.1760    -1.9610 H     1 <1>   0.1500 
 40 H        0.0530     5.6710     1.8710 H     1 <1>   0.1500 
 41 H       -8.1680     3.7210     0.7390 H     1 <1>   0.0800 
 42 H       -7.3300     2.9070     2.0460 H     1 <1>   0.0800 
 43 H       -7.5160     0.5670    -1.4030 H     1 <1>   0.0800 
 44 H       -8.2790     2.1300    -1.6160 H     1 <1>   0.0800 
 45 H        1.6850     6.4490    -2.6980 H     1 <1>   0.1500 
 46 H        0.5630     7.9430     1.1340 H     1 <1>   0.1500 
 47 H       -7.4400     0.8050     0.9510 H     1 <1>   0.0800 
 48 H       -9.6720     0.4560     0.1810 H     1 <1>   0.4500 
 49 H        1.3200     8.8650    -2.3510 H     1 <1>   0.0800 
 50 H        2.5000     8.9980    -1.0670 H     1 <1>   0.0800 
 51 H        0.8410     9.4770    -0.7900 H     1 <1>   0.0800 
 52 H      -10.2150     3.3390     0.5500 H     1 <1>   0.0800 
 53 H      -11.4020     2.1010     0.2150 H     1 <1>   0.0800 
 54 H      -10.1960     2.4960    -0.9850 H     1 <1>   0.0800 
 55 H       -9.5710     2.0670     2.6550 H     1 <1>   0.0800 
 56 H       -9.1620     0.3690     2.5230 H     1 <1>   0.0800 
 57 H      -10.8070     0.8970     2.2430 H     1 <1>   0.0800 
@<TRIPOS>BOND
  1   1   2  2   
  2   2   3  am  
  3   2   4  1   
  4   3   5  1   
  5   3   6  1   
  6   4   7  1   
  7   4  25  1   
  8   4  26  1   
  9   5   8  1   
 10   5   9  1   
 11   5  27  1   
 12   6  28  1   
 13   6  29  1   
 14   6  30  1   
 15   7  10  1   
 16   7  31  1   
 17   7  32  1   
 18   8  11  1   
 19   8  33  1   
 20   8  34  1   
 21   9  12  1   
 22   9  35  1   
 23   9  36  1   
 24  10  13  ar  
 25  10  14  ar  
 26  11  12  1   
 27  11  15  1   
 28  11  37  1   
 29  12  16  1   
 30  12  38  1   
 31  13  17  ar  
 32  13  39  1   
 33  14  18  ar  
 34  14  40  1   
 35  15  19  1   
 36  15  41  1   
 37  15  42  1   
 38  16  19  1   
 39  16  43  1   
 40  16  44  1   
 41  17  20  ar  
 42  17  45  1   
 43  18  20  ar  
 44  18  46  1   
 45  19  21  1   
 46  19  47  1   
 47  20  22  1   
 48  21  23  1   
 49  21  24  1   
 50  21  48  1   
 51  22  49  1   
 52  22  50  1   
 53  22  51  1   
 54  23  52  1   
 55  23  53  1   
 56  23  54  1   
 57  24  55  1   
 58  24  56  1   
 59  24  57  1   
@<TRIPOS>SUBSTRUCTURE
  1 ****   5 GROUP 4 **** **** 0

# MOE 2024.06 (io_trps.svl 2023.06)
