@<TRIPOS>MOLECULE
NONAME
55 57 1 0 0 
SMALL
USER_CHARGES


@<TRIPOS>ATOM
  1 O        0.0280     0.1060    -0.2900 O.2   1 <1>  -0.5700 
  2 C        1.0900    -0.3040    -0.6960 C.2   1 <1>   0.5690 
  3 N        1.9850     0.4880    -1.3660 N.am  1 <1>  -0.4940 
  4 C        1.4960    -1.7550    -0.3320 C.3   1 <1>   0.4840 
  5 C        2.2420     1.8580    -1.1880 C.2   1 <1>  -0.0880 
  6 N        2.2340    -1.8090     0.9980 N.4   1 <1>  -0.9590 
  7 C        2.2910    -2.4060    -1.4850 C.3   1 <1>  -0.1600 
  8 N        1.3710     2.8990    -1.1430 N.pl3 1 <1>   0.3140 
  9 C        3.4900     2.3710    -1.0180 C.2   1 <1>  -0.0540 
 10 C        2.7050    -3.1470     1.4530 C.3   1 <1>   0.3430 
 11 C        1.3860    -1.2010     2.0750 C.3   1 <1>   0.2630 
 12 C        2.4410    -3.9300    -1.3670 C.3   1 <1>  -0.1600 
 13 N        2.0210     4.0640    -0.9380 N.2   1 <1>  -0.7070 
 14 C       -0.0850     2.8890    -1.3400 C.3   1 <1>   0.0160 
 15 C        4.7310     1.6360    -0.9870 C.ar  1 <1>   0.0540 
 16 C        3.2720     3.7440    -0.8700 C.2   1 <1>   0.1080 
 17 C        3.9660    -3.5600     0.6970 C.3   1 <1>  -0.1600 
 18 C        3.6870    -4.3610    -0.5830 C.3   1 <1>  -0.1600 
 19 C        5.0130     0.6500    -0.0270 C.ar  1 <1>   0.0820 
 20 C        5.6860     1.8720    -1.9720 C.ar  1 <1>  -0.1500 
 21 C        4.3500     4.7820    -0.6460 C.3   1 <1>  -0.0590 
 22 O        4.1560     0.3600     0.9850 O.3   1 <1>  -0.3630 
 23 C        6.1920    -0.0740    -0.0790 C.ar  1 <1>  -0.1500 
 24 C        6.8660     1.1520    -2.0190 C.ar  1 <1>  -0.1500 
 25 C        3.9500     1.3900     1.9370 C.3   1 <1>   0.0400 
 26 C        7.1200     0.1750    -1.0740 C.ar  1 <1>  -0.1500 
 27 H        2.7950     0.0040    -1.7620 H     1 <1>   0.3700 
 28 H        0.5760    -2.3030    -0.2260 H     1 <1>   0.0800 
 29 H        3.0670    -1.1950     0.9020 H     1 <1>   0.4500 
 30 H        3.2560    -1.9440    -1.6030 H     1 <1>   0.0800 
 31 H        1.7410    -2.2200    -2.3920 H     1 <1>   0.0800 
 32 H        1.9320    -3.8880     1.3340 H     1 <1>   0.0800 
 33 H        2.9530    -3.0900     2.5010 H     1 <1>   0.0800 
 34 H        0.4650    -1.7510     2.1840 H     1 <1>   0.0800 
 35 H        1.1460    -0.1770     1.8360 H     1 <1>   0.0800 
 36 H        1.9110    -1.2130     3.0160 H     1 <1>   0.0800 
 37 H        2.5200    -4.3490    -2.3570 H     1 <1>   0.0800 
 38 H        1.5560    -4.3550    -0.9240 H     1 <1>   0.0800 
 39 H       -0.3470     2.1190    -2.0400 H     1 <1>   0.0800 
 40 H       -0.3940     3.8450    -1.7220 H     1 <1>   0.0800 
 41 H       -0.5650     2.7060    -0.3980 H     1 <1>   0.0800 
 42 H        4.5580    -4.1830     1.3450 H     1 <1>   0.0800 
 43 H        4.5620    -2.6930     0.4730 H     1 <1>   0.0800 
 44 H        4.5510    -4.2880    -1.2230 H     1 <1>   0.0800 
 45 H        3.5780    -5.4040    -0.3320 H     1 <1>   0.0800 
 46 H        5.4950     2.6260    -2.7160 H     1 <1>   0.1500 
 47 H        5.2000     4.3440    -0.1570 H     1 <1>   0.0800 
 48 H        3.9650     5.5750    -0.0310 H     1 <1>   0.0800 
 49 H        4.6540     5.1930    -1.5900 H     1 <1>   0.0800 
 50 H        6.3940    -0.8250     0.6630 H     1 <1>   0.1500 
 51 H        7.5900     1.3530    -2.7920 H     1 <1>   0.1500 
 52 H        3.5780     0.9500     2.8440 H     1 <1>   0.0800 
 53 H        3.2330     2.0940     1.5540 H     1 <1>   0.0800 
 54 H        4.8870     1.8840     2.1330 H     1 <1>   0.0800 
 55 H        8.0400    -0.3850    -1.1120 H     1 <1>   0.1500 
@<TRIPOS>BOND
  1   1   2  2   
  2   2   3  am  
  3   2   4  1   
  4   3   5  1   
  5   3  27  1   
  6   4   6  1   
  7   4   7  1   
  8   4  28  1   
  9   5   8  1   
 10   5   9  2   
 11   6  10  1   
 12   6  11  1   
 13   6  29  1   
 14   7  12  1   
 15   7  30  1   
 16   7  31  1   
 17   8  13  1   
 18   8  14  1   
 19   9  15  1   
 20   9  16  1   
 21  10  17  1   
 22  10  32  1   
 23  10  33  1   
 24  11  34  1   
 25  11  35  1   
 26  11  36  1   
 27  12  18  1   
 28  12  37  1   
 29  12  38  1   
 30  13  16  2   
 31  14  39  1   
 32  14  40  1   
 33  14  41  1   
 34  15  19  ar  
 35  15  20  ar  
 36  16  21  1   
 37  17  18  1   
 38  17  42  1   
 39  17  43  1   
 40  18  44  1   
 41  18  45  1   
 42  19  22  1   
 43  19  23  ar  
 44  20  24  ar  
 45  20  46  1   
 46  21  47  1   
 47  21  48  1   
 48  21  49  1   
 49  22  25  1   
 50  23  26  ar  
 51  23  50  1   
 52  24  26  ar  
 53  24  51  1   
 54  25  52  1   
 55  25  53  1   
 56  25  54  1   
 57  26  55  1   
@<TRIPOS>SUBSTRUCTURE
  1 ****   3 GROUP 4 **** **** 0

# MOE 2024.06 (io_trps.svl 2023.06)
