@<TRIPOS>MOLECULE
NONAME
46 48 1 0 0 
SMALL
USER_CHARGES


@<TRIPOS>ATOM
  1 S        0.9650     1.1200    -0.6960 S.o2  1 <1>   1.3330 
  2 O        0.1920     0.8420     0.4950 O.2   1 <1>  -0.6500 
  3 O        0.9540     0.1760    -1.7900 O.2   1 <1>  -0.6500 
  4 N        0.4920     2.6410    -1.2850 N.am  1 <1>  -0.8490 
  5 C        2.6710     1.3980    -0.2310 C.3   1 <1>  -0.0550 
  6 C       -0.4650     2.5450    -2.3910 C.3   1 <1>   0.1160 
  7 C       -0.0280     3.5340    -0.2450 C.3   1 <1>   0.1160 
  8 C        3.3730     0.1370     0.3100 C.3   1 <1>  -0.0800 
  9 C        4.8660     0.2910     0.5740 C.3   1 <1>   0.2200 
 10 C        2.8320    -0.3600     1.6580 C.3   1 <1>   0.1200 
 11 N        5.1650     1.6080     1.1830 N.am  1 <1>  -0.7300 
 12 C        5.0790    -0.7930     1.6200 C.3   1 <1>   0.1200 
 13 O        3.9410    -0.7410     2.4210 O.3   1 <1>  -0.5600 
 14 C        5.5600     2.7180     0.5090 C.2   1 <1>   0.7150 
 15 O        5.7360     2.6390    -0.6910 O.2   1 <1>  -0.5700 
 16 C        5.7200     3.9440     1.2300 C.2   1 <1>  -0.2370 
 17 N        5.4200     5.1740     0.7030 N.pl3 1 <1>   0.2940 
 18 C        6.1690     4.1350     2.5140 C.2   1 <1>  -0.1500 
 19 C        5.6930     6.1060     1.6490 C.2   1 <1>  -0.3020 
 20 C        4.8360     5.4600    -0.6310 C.3   1 <1>  -0.0910 
 21 C        6.1540     5.5010     2.7750 C.2   1 <1>  -0.1500 
 22 C        3.7900     6.5230    -0.8040 C.3   1 <1>  -0.2000 
 23 C        3.4070     5.0800    -0.8860 C.3   1 <1>  -0.2000 
 24 H        3.2060     1.7440    -1.0950 H     1 <1>   0.0800 
 25 H        2.7070     2.1750     0.5060 H     1 <1>   0.0800 
 26 H       -0.7270     3.5270    -2.7450 H     1 <1>   0.0800 
 27 H       -1.3570     2.0330    -2.0700 H     1 <1>   0.0800 
 28 H       -0.0280     1.9980    -3.2100 H     1 <1>   0.0800 
 29 H       -0.2020     4.5160    -0.6530 H     1 <1>   0.0800 
 30 H        0.6810     3.6210     0.5600 H     1 <1>   0.0800 
 31 H       -0.9540     3.1500     0.1530 H     1 <1>   0.0800 
 32 H        3.2430    -0.6570    -0.4060 H     1 <1>   0.0800 
 33 H        5.4660     0.1340    -0.3080 H     1 <1>   0.0800 
 34 H        2.1820    -1.2110     1.5380 H     1 <1>   0.0800 
 35 H        2.3150     0.4150     2.1980 H     1 <1>   0.0800 
 36 H        4.9370     1.6820     2.1750 H     1 <1>   0.3700 
 37 H        5.9570    -0.6310     2.2200 H     1 <1>   0.0800 
 38 H        5.1190    -1.7660     1.1620 H     1 <1>   0.0800 
 39 H        6.4900     3.3800     3.2120 H     1 <1>   0.1500 
 40 H        5.5420     7.1560     1.4740 H     1 <1>   0.1500 
 41 H        5.5500     5.2970    -1.4190 H     1 <1>   0.1000 
 42 H        6.4560     5.9680     3.6990 H     1 <1>   0.1500 
 43 H        3.4640     7.0920     0.0490 H     1 <1>   0.1000 
 44 H        3.7830     7.1010    -1.7120 H     1 <1>   0.1000 
 45 H        3.1460     4.6700    -1.8470 H     1 <1>   0.1000 
 46 H        2.8320     4.6540    -0.0840 H     1 <1>   0.1000 
@<TRIPOS>BOND
  1   1   2  2   
  2   1   3  2   
  3   1   4  am  
  4   1   5  1   
  5   4   6  1   
  6   4   7  1   
  7   5   8  1   
  8   5  24  1   
  9   5  25  1   
 10   6  26  1   
 11   6  27  1   
 12   6  28  1   
 13   7  29  1   
 14   7  30  1   
 15   7  31  1   
 16   8   9  1   
 17   8  10  1   
 18   8  32  1   
 19   9  11  1   
 20   9  12  1   
 21   9  33  1   
 22  10  13  1   
 23  10  34  1   
 24  10  35  1   
 25  11  14  am  
 26  11  36  1   
 27  12  13  1   
 28  12  37  1   
 29  12  38  1   
 30  14  15  2   
 31  14  16  1   
 32  16  17  1   
 33  16  18  2   
 34  17  19  1   
 35  17  20  1   
 36  18  21  1   
 37  18  39  1   
 38  19  21  2   
 39  19  40  1   
 40  20  22  1   
 41  20  23  1   
 42  20  41  1   
 43  21  42  1   
 44  22  23  1   
 45  22  43  1   
 46  22  44  1   
 47  23  45  1   
 48  23  46  1   
@<TRIPOS>SUBSTRUCTURE
  1 ****   5 GROUP 4 **** **** 0

# MOE 2024.06 (io_trps.svl 2023.06)
