@<TRIPOS>MOLECULE
NONAME
61 64 1 0 0 
SMALL
USER_CHARGES


@<TRIPOS>ATOM
  1 O        0.2250     1.6150    -2.8580 O.2   1 <1>  -0.5700 
  2 C        1.1570     1.5450    -2.0800 C.2   1 <1>   0.5440 
  3 N        1.3970     2.6570    -1.3240 N.am  1 <1>  -0.5470 
  4 C        2.0070     0.3850    -2.0460 C.ar  1 <1>   0.0860 
  5 C        2.4150     2.9540    -0.4000 C.ar  1 <1>   0.1170 
  6 C        1.6720    -0.7640    -1.3040 C.ar  1 <1>   0.4100 
  7 C        3.2040     0.3830    -2.7480 C.ar  1 <1>  -0.1500 
  8 C        2.9810     4.2330    -0.3870 C.ar  1 <1>   0.0820 
  9 C        2.8600     2.0120     0.5190 C.ar  1 <1>  -0.1500 
 10 N        2.4420    -1.8520    -1.2450 N.ar  1 <1>  -0.6200 
 11 N        0.5030    -0.8350    -0.5690 N.pl3 1 <1>  -0.8380 
 12 C        3.9940    -0.7410    -2.6850 C.ar  1 <1>  -0.1500 
 13 O        2.4900     5.1380    -1.2870 O.3   1 <1>  -0.3620 
 14 C        3.9970     4.5400     0.5140 C.ar  1 <1>  -0.1500 
 15 C        3.8700     2.3190     1.4120 C.ar  1 <1>  -0.1500 
 16 C        3.5690    -1.8180    -1.9280 C.ar  1 <1>   0.1600 
 17 C       -0.7500    -1.1030    -1.3500 C.3   1 <1>   0.2090 
 18 C        0.5420    -1.4800     0.7850 C.3   1 <1>   0.2090 
 19 C        3.0050     6.4480    -1.3750 C.3   1 <1>   0.0400 
 20 C        4.4460     3.5770     1.4140 C.ar  1 <1>   0.0820 
 21 C       -1.9170    -1.6490    -0.4990 C.3   1 <1>   0.2090 
 22 C       -0.1020    -2.8780     0.7640 C.3   1 <1>   0.2090 
 23 O        5.4330     3.7890     2.3240 O.3   1 <1>  -0.3630 
 24 N       -1.5470    -2.8560     0.3270 N.pl3 1 <1>  -0.8380 
 25 C        6.0870     5.0350     2.4200 C.3   1 <1>   0.0400 
 26 C       -2.3710    -3.9100     0.5710 C.ar  1 <1>   0.4100 
 27 N       -1.8130    -5.0480     0.9470 N.ar  1 <1>  -0.6200 
 28 C       -3.7710    -3.7980     0.4350 C.ar  1 <1>  -0.1500 
 29 C       -2.5990    -6.0810     1.1490 C.ar  1 <1>   0.7710 
 30 C       -4.5550    -4.8810     0.6590 C.ar  1 <1>   0.2180 
 31 N       -3.9350    -6.0320     1.0150 N.ar  1 <1>  -0.1790 
 32 N       -2.0000    -7.2140     1.5040 N.pl3 1 <1>  -0.9000 
 33 C       -6.0690    -4.8660     0.5370 C.3   1 <1>  -0.0960 
 34 H        0.8720     3.4720    -1.6450 H     1 <1>   0.3700 
 35 H        3.4980     1.2440    -3.3230 H     1 <1>   0.1500 
 36 H        2.4150     1.0360     0.5500 H     1 <1>   0.1500 
 37 H        4.9290    -0.7880    -3.2140 H     1 <1>   0.1500 
 38 H        4.4340     5.5150     0.5200 H     1 <1>   0.1500 
 39 H        4.2150     1.5840     2.1160 H     1 <1>   0.1500 
 40 H        4.1910    -2.6960    -1.8850 H     1 <1>   0.1500 
 41 H       -0.5300    -1.8130    -2.1290 H     1 <1>   0.0800 
 42 H       -1.0740    -0.1930    -1.8210 H     1 <1>   0.0800 
 43 H        0.0170    -0.8580     1.4890 H     1 <1>   0.0800 
 44 H        1.5600    -1.5640     1.1250 H     1 <1>   0.0800 
 45 H        2.4710     6.9640    -2.1540 H     1 <1>   0.0800 
 46 H        4.0500     6.3980    -1.6230 H     1 <1>   0.0800 
 47 H        2.8520     6.9490    -0.4360 H     1 <1>   0.0800 
 48 H       -2.7220    -1.8920    -1.1680 H     1 <1>   0.0800 
 49 H       -2.2530    -0.8650     0.1570 H     1 <1>   0.0800 
 50 H       -0.0310    -3.3040     1.7500 H     1 <1>   0.0800 
 51 H        0.4620    -3.5030     0.0920 H     1 <1>   0.0800 
 52 H        6.8230     4.9660     3.2010 H     1 <1>   0.0800 
 53 H        5.3630     5.7910     2.6660 H     1 <1>   0.0800 
 54 H        6.5690     5.2490     1.4820 H     1 <1>   0.0800 
 55 H       -4.1940    -2.8510     0.1650 H     1 <1>   0.1500 
 56 H       -4.4490    -6.8860     1.1960 H     1 <1>   0.4570 
 57 H       -2.4090    -8.1270     1.7040 H     1 <1>   0.4000 
 58 H       -0.9770    -7.1940     1.5840 H     1 <1>   0.4000 
 59 H       -6.4140    -3.8880     0.2500 H     1 <1>   0.0800 
 60 H       -6.5250    -5.1180     1.4780 H     1 <1>   0.0800 
 61 H       -6.3950    -5.5680    -0.2110 H     1 <1>   0.0800 
@<TRIPOS>BOND
  1   1   2  2   
  2   2   3  am  
  3   2   4  1   
  4   3   5  1   
  5   3  34  1   
  6   4   6  ar  
  7   4   7  ar  
  8   5   8  ar  
  9   5   9  ar  
 10   6  10  ar  
 11   6  11  1   
 12   7  12  ar  
 13   7  35  1   
 14   8  13  1   
 15   8  14  ar  
 16   9  15  ar  
 17   9  36  1   
 18  10  16  ar  
 19  11  17  1   
 20  11  18  1   
 21  12  16  ar  
 22  12  37  1   
 23  13  19  1   
 24  14  20  ar  
 25  14  38  1   
 26  15  20  ar  
 27  15  39  1   
 28  16  40  1   
 29  17  21  1   
 30  17  41  1   
 31  17  42  1   
 32  18  22  1   
 33  18  43  1   
 34  18  44  1   
 35  19  45  1   
 36  19  46  1   
 37  19  47  1   
 38  20  23  1   
 39  21  24  1   
 40  21  48  1   
 41  21  49  1   
 42  22  24  1   
 43  22  50  1   
 44  22  51  1   
 45  23  25  1   
 46  24  26  1   
 47  25  52  1   
 48  25  53  1   
 49  25  54  1   
 50  26  27  ar  
 51  26  28  ar  
 52  27  29  ar  
 53  28  30  ar  
 54  28  55  1   
 55  29  31  ar  
 56  29  32  1   
 57  30  31  ar  
 58  30  33  1   
 59  31  56  1   
 60  32  57  1   
 61  32  58  1   
 62  33  59  1   
 63  33  60  1   
 64  33  61  1   
@<TRIPOS>SUBSTRUCTURE
  1 ****  11 GROUP 4 **** **** 0

# MOE 2024.06 (io_trps.svl 2023.06)
