@<TRIPOS>MOLECULE
NONAME
35 37 1 0 0 
SMALL
USER_CHARGES


@<TRIPOS>ATOM
  1 S        1.6880    -0.5010     1.0490 S.3   1 <1>  -0.0800 
  2 C        0.6110    -1.0510    -0.2430 C.2   1 <1>   0.4420 
  3 C        1.2890     1.1580     0.6710 C.ar  1 <1>   0.0400 
  4 N        0.0330    -0.1030    -0.8750 N.2   1 <1>  -0.5650 
  5 N        0.4460    -2.3870    -0.5130 N.am  1 <1>  -0.4940 
  6 C        0.3930     1.1510    -0.3820 C.ar  1 <1>   0.2270 
  7 C        1.7590     2.3060     1.2860 C.ar  1 <1>  -0.1500 
  8 C        0.8990    -3.5220     0.1030 C.2   1 <1>   0.5690 
  9 C       -0.0400     2.4020    -0.8220 C.ar  1 <1>   0.1900 
 10 C        1.3030     3.5300     0.8190 C.ar  1 <1>  -0.1500 
 11 O        1.5870    -3.5050     1.0960 O.2   1 <1>  -0.5700 
 12 C        0.4840    -4.8700    -0.5240 C.3   1 <1>   0.2810 
 13 F       -0.8890     2.4810    -1.8140 F     1 <1>  -0.1900 
 14 C        0.4000     3.5790    -0.2400 C.ar  1 <1>  -0.1500 
 15 N       -1.0050    -5.0260    -0.5550 N.am  1 <1>  -0.6600 
 16 C        1.1310    -6.1050     0.1240 C.3   1 <1>  -0.2400 
 17 C       -1.7870    -4.4070    -1.4610 C.2   1 <1>   0.5690 
 18 C       -1.7790    -5.6140     0.5550 C.3   1 <1>   0.1400 
 19 O       -1.3770    -3.7080    -2.3550 O.2   1 <1>  -0.5700 
 20 C       -3.2420    -4.6260    -1.1620 C.3   1 <1>  -0.0990 
 21 C       -3.2280    -5.1900     0.2700 C.3   1 <1>  -0.1600 
 22 H       -0.1860    -2.5580    -1.3060 H     1 <1>   0.3700 
 23 H        2.4560     2.2400     2.1030 H     1 <1>   0.1500 
 24 H        1.6480     4.4430     1.2740 H     1 <1>   0.1500 
 25 H        0.8230    -4.8410    -1.5450 H     1 <1>   0.0800 
 26 H        0.0410     4.5230    -0.6100 H     1 <1>   0.1500 
 27 H        0.8880    -6.1600     1.1700 H     1 <1>   0.0800 
 28 H        2.2000    -6.0340     0.0370 H     1 <1>   0.0800 
 29 H        0.8080    -7.0010    -0.3750 H     1 <1>   0.0800 
 30 H       -1.4400    -5.2280     1.5030 H     1 <1>   0.0800 
 31 H       -1.6820    -6.6860     0.5370 H     1 <1>   0.0800 
 32 H       -3.6390    -5.3390    -1.8600 H     1 <1>   0.0800 
 33 H       -3.7870    -3.7010    -1.2250 H     1 <1>   0.0800 
 34 H       -3.5090    -4.4200     0.9670 H     1 <1>   0.0800 
 35 H       -3.9070    -6.0170     0.3810 H     1 <1>   0.0800 
@<TRIPOS>BOND
  1   1   2  1   
  2   1   3  1   
  3   2   4  2   
  4   2   5  1   
  5   3   6  ar  
  6   3   7  ar  
  7   4   6  1   
  8   5   8  am  
  9   5  22  1   
 10   6   9  ar  
 11   7  10  ar  
 12   7  23  1   
 13   8  11  2   
 14   8  12  1   
 15   9  13  1   
 16   9  14  ar  
 17  10  14  ar  
 18  10  24  1   
 19  12  15  1   
 20  12  16  1   
 21  12  25  1   
 22  14  26  1   
 23  15  17  am  
 24  15  18  1   
 25  16  27  1   
 26  16  28  1   
 27  16  29  1   
 28  17  19  2   
 29  17  20  1   
 30  18  21  1   
 31  18  30  1   
 32  18  31  1   
 33  20  21  1   
 34  20  32  1   
 35  20  33  1   
 36  21  34  1   
 37  21  35  1   
@<TRIPOS>SUBSTRUCTURE
  1 ****   2 GROUP 4 **** **** 0

# MOE 2024.06 (io_trps.svl 2023.06)
