@<TRIPOS>MOLECULE
NONAME
42 43 1 0 0 
SMALL
USER_CHARGES


@<TRIPOS>ATOM
  1 F        1.4900     2.2020    -3.2510 F     1 <1>  -0.1900 
  2 C        2.2300     2.2840    -2.1790 C.ar  1 <1>   0.1900 
  3 C        2.6400     3.5290    -1.7480 C.ar  1 <1>  -0.1500 
  4 C        2.5740     1.1200    -1.5170 C.ar  1 <1>  -0.1500 
  5 C        3.4250     3.6180    -0.6100 C.ar  1 <1>   0.0830 
  6 C        3.3590     1.2130    -0.3800 C.ar  1 <1>  -0.1500 
  7 O        3.8030     4.8620    -0.2260 O.3   1 <1>  -0.3630 
  8 C        3.7830     2.4530     0.0730 C.ar  1 <1>  -0.1500 
  9 C        4.6370     5.0630     0.9100 C.3   1 <1>   0.1810 
 10 C        4.9270     6.5410     1.1280 C.2   1 <1>   0.5690 
 11 O        5.5950     6.8510     2.0840 O.2   1 <1>  -0.5700 
 12 N        4.4110     7.4410     0.2370 N.am  1 <1>  -0.4940 
 13 C        4.4330     8.8570     0.1930 C.2   1 <1>  -0.0880 
 14 N        5.4610     9.7030     0.5090 N.pl3 1 <1>   0.3140 
 15 C        3.4070     9.6420    -0.2150 C.2   1 <1>  -0.1810 
 16 N        5.1020    10.9960     0.3120 N.2   1 <1>  -0.7070 
 17 C        6.8470     9.3980     0.9340 C.3   1 <1>   0.0960 
 18 C        3.8810    10.9430    -0.1160 C.2   1 <1>   0.1390 
 19 C        2.0180     9.2480    -0.6840 C.3   1 <1>  -0.0590 
 20 C        7.6430     8.6050    -0.1240 C.3   1 <1>  -0.0800 
 21 C        9.0320     8.2530     0.4240 C.3   1 <1>  -0.2400 
 22 C        7.7900     9.3880    -1.4370 C.3   1 <1>  -0.2400 
 23 H        2.3540     4.4110    -2.2880 H     1 <1>   0.1500 
 24 H        2.2330     0.1690    -1.8860 H     1 <1>   0.1500 
 25 H        3.6380     0.3190     0.1520 H     1 <1>   0.1500 
 26 H        4.3900     2.4870     0.9580 H     1 <1>   0.1500 
 27 H        5.5620     4.5400     0.7500 H     1 <1>   0.0800 
 28 H        4.1350     4.6710     1.7750 H     1 <1>   0.0800 
 29 H        3.8130     7.0030    -0.4670 H     1 <1>   0.3700 
 30 H        6.8100     8.8660     1.8630 H     1 <1>   0.0800 
 31 H        7.3440    10.3310     1.1220 H     1 <1>   0.0800 
 32 H        3.3090    11.8210    -0.3640 H     1 <1>   0.1500 
 33 H        1.8470     8.1980    -0.5310 H     1 <1>   0.0800 
 34 H        1.9090     9.4700    -1.7300 H     1 <1>   0.0800 
 35 H        1.2780     9.7970    -0.1310 H     1 <1>   0.0800 
 36 H        7.1290     7.6820    -0.3270 H     1 <1>   0.0800 
 37 H        9.5930     9.1450     0.6420 H     1 <1>   0.0800 
 38 H        9.5810     7.6690    -0.2940 H     1 <1>   0.0800 
 39 H        8.9390     7.6750     1.3280 H     1 <1>   0.0800 
 40 H        8.2860    10.3270    -1.2640 H     1 <1>   0.0800 
 41 H        6.8240     9.5890    -1.8660 H     1 <1>   0.0800 
 42 H        8.3620     8.8220    -2.1500 H     1 <1>   0.0800 
@<TRIPOS>BOND
  1   1   2  1   
  2   2   3  ar  
  3   2   4  ar  
  4   3   5  ar  
  5   3  23  1   
  6   4   6  ar  
  7   4  24  1   
  8   5   7  1   
  9   5   8  ar  
 10   6   8  ar  
 11   6  25  1   
 12   7   9  1   
 13   8  26  1   
 14   9  10  1   
 15   9  27  1   
 16   9  28  1   
 17  10  11  2   
 18  10  12  am  
 19  12  13  1   
 20  12  29  1   
 21  13  14  1   
 22  13  15  2   
 23  14  16  1   
 24  14  17  1   
 25  15  18  1   
 26  15  19  1   
 27  16  18  2   
 28  17  20  1   
 29  17  30  1   
 30  17  31  1   
 31  18  32  1   
 32  19  33  1   
 33  19  34  1   
 34  19  35  1   
 35  20  21  1   
 36  20  22  1   
 37  20  36  1   
 38  21  37  1   
 39  21  38  1   
 40  21  39  1   
 41  22  40  1   
 42  22  41  1   
 43  22  42  1   
@<TRIPOS>SUBSTRUCTURE
  1 ****  12 GROUP 4 **** **** 0

# MOE 2024.06 (io_trps.svl 2023.06)
