@<TRIPOS>MOLECULE
NONAME
49 52 1 0 0 
SMALL
USER_CHARGES


@<TRIPOS>ATOM
  1 O        0.9250    -0.1800    -1.3640 O.2   1 <1>  -0.5700 
  2 C        1.5480    -0.5000    -0.3660 C.2   1 <1>   0.7160 
  3 N        2.2480     0.5020     0.2940 N.am  1 <1>  -0.6600 
  4 C        1.5680    -1.9020     0.0500 C.2   1 <1>   0.2030 
  5 C        2.9110     0.3150     1.6180 C.3   1 <1>   0.1400 
  6 C        2.4960     1.8240    -0.3380 C.3   1 <1>   0.1400 
  7 N        2.5170    -2.5280     0.7350 N.2   1 <1>  -0.7070 
  8 C        0.5430    -2.7970    -0.2640 C.2   1 <1>  -0.1500 
  9 C        4.3910    -0.0920     1.4690 C.3   1 <1>   0.3430 
 10 C        3.7240     1.7480    -1.2530 C.3   1 <1>  -0.1600 
 11 N        2.0800    -3.7950     0.8490 N.pl3 1 <1>   0.3000 
 12 C        0.8850    -4.0000     0.2550 C.2   1 <1>  -0.2050 
 13 N        5.1690     0.8090     0.5530 N.4   1 <1>  -0.9590 
 14 C        4.7660     0.6890    -0.8770 C.3   1 <1>   0.3430 
 15 C        0.1870    -5.2610     0.2380 C.ar  1 <1>   0.0530 
 16 C        6.6390     0.6820     0.7170 C.3   1 <1>   0.5230 
 17 C        0.8630    -6.4710     0.0920 C.ar  1 <1>  -0.1500 
 18 C       -1.1980    -5.3020     0.3690 C.ar  1 <1>  -0.1500 
 19 C        7.2230     2.0820     0.5690 C.2   1 <1>   0.0060 
 20 C        0.1820    -7.6750     0.0910 C.ar  1 <1>  -0.1500 
 21 C       -1.8840    -6.5020     0.3670 C.ar  1 <1>  -0.1500 
 22 N        6.4990     3.1600     0.6200 N.2   1 <1>  -0.5650 
 23 N        8.5410     2.3280     0.3800 N.pl3 1 <1>   0.0330 
 24 C       -1.1940    -7.6930     0.2300 C.ar  1 <1>  -0.1500 
 25 C        7.3890     4.1580     0.4550 C.2   1 <1>   0.0770 
 26 C        8.6380     3.6670     0.3070 C.2   1 <1>  -0.3020 
 27 H        2.3900    -0.4350     2.1870 H     1 <1>   0.0800 
 28 H        2.8470     1.2280     2.1850 H     1 <1>   0.0800 
 29 H        2.6540     2.5660     0.4260 H     1 <1>   0.0800 
 30 H        1.6330     2.1320    -0.9070 H     1 <1>   0.0800 
 31 H       -0.3420    -2.5480    -0.8240 H     1 <1>   0.1500 
 32 H        4.4340    -1.1040     1.1020 H     1 <1>   0.0800 
 33 H        4.8380    -0.0840     2.4500 H     1 <1>   0.0800 
 34 H        4.1900     2.7160    -1.3020 H     1 <1>   0.0800 
 35 H        3.3790     1.5250    -2.2470 H     1 <1>   0.0800 
 36 H        2.5990    -4.5270     1.3500 H     1 <1>   0.2700 
 37 H        5.0180     1.8030     0.8080 H     1 <1>   0.4500 
 38 H        5.6240     0.8200    -1.5170 H     1 <1>   0.0800 
 39 H        4.3600    -0.2940    -1.0580 H     1 <1>   0.0800 
 40 H        7.0480     0.0130    -0.0220 H     1 <1>   0.0800 
 41 H        6.8730     0.3100     1.7000 H     1 <1>   0.0800 
 42 H        1.9300    -6.4780    -0.0320 H     1 <1>   0.1500 
 43 H       -1.7420    -4.3810     0.4790 H     1 <1>   0.1500 
 44 H        0.7200    -8.6010    -0.0230 H     1 <1>   0.1500 
 45 H       -2.9550    -6.5100     0.4730 H     1 <1>   0.1500 
 46 H        9.3210     1.6640     0.3100 H     1 <1>   0.2700 
 47 H       -1.7270    -8.6290     0.2280 H     1 <1>   0.1500 
 48 H        7.0840     5.1930     0.4510 H     1 <1>   0.1500 
 49 H        9.5660     4.1920     0.1580 H     1 <1>   0.1500 
@<TRIPOS>BOND
  1   1   2  2   
  2   2   3  am  
  3   2   4  1   
  4   3   5  1   
  5   3   6  1   
  6   4   7  2   
  7   4   8  1   
  8   5   9  1   
  9   5  27  1   
 10   5  28  1   
 11   6  10  1   
 12   6  29  1   
 13   6  30  1   
 14   7  11  1   
 15   8  12  2   
 16   8  31  1   
 17   9  13  1   
 18   9  32  1   
 19   9  33  1   
 20  10  14  1   
 21  10  34  1   
 22  10  35  1   
 23  11  12  1   
 24  11  36  1   
 25  12  15  1   
 26  13  14  1   
 27  13  16  1   
 28  13  37  1   
 29  14  38  1   
 30  14  39  1   
 31  15  17  ar  
 32  15  18  ar  
 33  16  19  1   
 34  16  40  1   
 35  16  41  1   
 36  17  20  ar  
 37  17  42  1   
 38  18  21  ar  
 39  18  43  1   
 40  19  22  2   
 41  19  23  1   
 42  20  24  ar  
 43  20  44  1   
 44  21  24  ar  
 45  21  45  1   
 46  22  25  1   
 47  23  26  1   
 48  23  46  1   
 49  24  47  1   
 50  25  26  2   
 51  25  48  1   
 52  26  49  1   
@<TRIPOS>SUBSTRUCTURE
  1 ****   7 GROUP 4 **** **** 0

# MOE 2024.06 (io_trps.svl 2023.06)
