@<TRIPOS>MOLECULE
NONAME
40 41 1 0 0 
SMALL
USER_CHARGES


@<TRIPOS>ATOM
  1 O        0.9750     0.3190    -0.0370 O.3   1 <1>  -0.2800 
  2 C        0.6850    -0.5580    -0.9440 C.2   1 <1>   0.2980 
  3 C        0.7680     1.4540    -0.6250 C.2   1 <1>   0.2980 
  4 N        0.3050    -0.0100    -2.0370 N.2   1 <1>  -0.3380 
  5 C        0.8220    -2.0450    -0.6190 C.3   1 <1>   0.1000 
  6 N        0.3570     1.3060    -1.8280 N.2   1 <1>  -0.3380 
  7 C        0.9840     2.7760     0.1100 C.3   1 <1>   0.2900 
  8 C        0.7020    -2.9300    -1.8690 C.3   1 <1>  -0.2400 
  9 C       -0.2220    -2.4720     0.4230 C.3   1 <1>  -0.2400 
 10 N        2.4120     3.0510     0.4350 N.3   1 <1>  -0.8100 
 11 C        2.6820     4.5010     0.5060 C.3   1 <1>   0.1100 
 12 C        2.8330     2.3530     1.6570 C.3   1 <1>   0.1100 
 13 C        2.8990     5.0700    -0.8980 C.3   1 <1>   0.0960 
 14 C        4.3280     2.0570     1.5790 C.3   1 <1>  -0.2400 
 15 N        3.2210     6.5030    -0.8060 N.pl3 1 <1>   0.3140 
 16 N        2.3280     7.4060    -0.3560 N.2   1 <1>  -0.7070 
 17 C        4.3890     7.0930    -1.1300 C.2   1 <1>  -0.3020 
 18 C        2.9490     8.5440    -0.4080 C.2   1 <1>   0.1390 
 19 C        4.2470     8.4130    -0.8850 C.2   1 <1>  -0.1500 
 20 H        1.8020    -2.1920    -0.2000 H     1 <1>   0.0800 
 21 H        0.3940     2.7840     1.0090 H     1 <1>   0.0800 
 22 H        0.6020     3.5510    -0.5310 H     1 <1>   0.0800 
 23 H       -0.2690    -2.8170    -2.3180 H     1 <1>   0.0800 
 24 H        0.8500    -3.9640    -1.6160 H     1 <1>   0.0800 
 25 H        1.4450    -2.6450    -2.5930 H     1 <1>   0.0800 
 26 H       -1.2150    -2.3200     0.0370 H     1 <1>   0.0800 
 27 H       -0.1100    -1.8890     1.3200 H     1 <1>   0.0800 
 28 H       -0.1010    -3.5100     0.6730 H     1 <1>   0.0800 
 29 H        3.5770     4.6810     1.0760 H     1 <1>   0.0800 
 30 H        1.8670     5.0090     0.9940 H     1 <1>   0.0800 
 31 H        2.3150     1.4140     1.7490 H     1 <1>   0.0800 
 32 H        2.6060     2.9450     2.5280 H     1 <1>   0.0800 
 33 H        2.0130     4.9660    -1.4930 H     1 <1>   0.0800 
 34 H        3.7130     4.5590    -1.3770 H     1 <1>   0.0800 
 35 H        4.5400     1.4790     0.6970 H     1 <1>   0.0800 
 36 H        4.6270     1.4870     2.4400 H     1 <1>   0.0800 
 37 H        4.9050     2.9620     1.5580 H     1 <1>   0.0800 
 38 H        5.2370     6.5530    -1.5080 H     1 <1>   0.1500 
 39 H        2.5000     9.4780    -0.1130 H     1 <1>   0.1500 
 40 H        4.9580     9.2090    -1.0190 H     1 <1>   0.1500 
@<TRIPOS>BOND
  1   1   2  1   
  2   1   3  1   
  3   2   4  2   
  4   2   5  1   
  5   3   6  2   
  6   3   7  1   
  7   4   6  1   
  8   5   8  1   
  9   5   9  1   
 10   5  20  1   
 11   7  10  1   
 12   7  21  1   
 13   7  22  1   
 14   8  23  1   
 15   8  24  1   
 16   8  25  1   
 17   9  26  1   
 18   9  27  1   
 19   9  28  1   
 20  10  11  1   
 21  10  12  1   
 22  11  13  1   
 23  11  29  1   
 24  11  30  1   
 25  12  14  1   
 26  12  31  1   
 27  12  32  1   
 28  13  15  1   
 29  13  33  1   
 30  13  34  1   
 31  14  35  1   
 32  14  36  1   
 33  14  37  1   
 34  15  16  1   
 35  15  17  1   
 36  16  18  2   
 37  17  19  2   
 38  17  38  1   
 39  18  19  1   
 40  18  39  1   
 41  19  40  1   
@<TRIPOS>SUBSTRUCTURE
  1 ****  10 GROUP 4 **** **** 0

# MOE 2024.06 (io_trps.svl 2023.06)
