@<TRIPOS>MOLECULE
NONAME
52 54 1 0 0 
SMALL
USER_CHARGES


@<TRIPOS>ATOM
  1 F       -3.3310     0.2510     2.2430 F     1 <1>  -0.1900 
  2 C       -3.1060     0.6370     1.0150 C.ar  1 <1>   0.1900 
  3 C       -2.8490    -0.3110     0.0350 C.ar  1 <1>  -0.1440 
  4 C       -3.1350     1.9940     0.7500 C.ar  1 <1>  -0.1500 
  5 C       -2.6140     0.1420    -1.2560 C.ar  1 <1>  -0.1500 
  6 C       -2.8180    -1.7990     0.3550 C.3   1 <1>   0.2640 
  7 C       -2.8970     2.4260    -0.5440 C.ar  1 <1>  -0.1500 
  8 C       -2.6380     1.4990    -1.5420 C.ar  1 <1>  -0.1500 
  9 O       -3.6320    -2.4850    -0.5750 O.3   1 <1>  -0.3620 
 10 C       -3.8610    -3.7910    -0.3120 C.ar  1 <1>   0.0830 
 11 C       -4.7000    -4.2210     0.7230 C.ar  1 <1>   0.0830 
 12 C       -3.2220    -4.7240    -1.1110 C.ar  1 <1>  -0.1500 
 13 O       -5.4110    -3.3940     1.5310 O.3   1 <1>  -0.3620 
 14 C       -4.8390    -5.5770     0.9640 C.ar  1 <1>  -0.1500 
 15 C       -3.3830    -6.0780    -0.8730 C.ar  1 <1>  -0.1500 
 16 C       -6.1500    -2.3360     0.9530 C.3   1 <1>   0.0400 
 17 C       -4.1930    -6.5120     0.1680 C.ar  1 <1>  -0.1430 
 18 C       -4.3870    -7.9930     0.4330 C.3   1 <1>   0.4860 
 19 N       -5.3680    -8.5290    -0.5440 N.4   1 <1>  -0.9590 
 20 C       -5.3920   -10.0300    -0.4570 C.3   1 <1>   0.3430 
 21 C       -6.7140    -7.8770    -0.3590 C.3   1 <1>   0.3430 
 22 C       -6.4840   -10.4800     0.4910 C.3   1 <1>  -0.1860 
 23 C       -7.8260    -8.7860    -0.8680 C.3   1 <1>  -0.1600 
 24 C       -6.4210   -11.9640     0.6400 C.2   1 <1>   0.9060 
 25 C       -7.8590   -10.0760    -0.0430 C.3   1 <1>   0.2000 
 26 O       -5.5120   -12.5660     0.0650 O.co2 1 <1>  -0.9000 
 27 O       -7.2860   -12.5030     1.3290 O.co2 1 <1>  -0.9000 
 28 O       -8.6500    -9.8630     1.0590 O.3   1 <1>  -0.6800 
 29 H       -3.3380     2.6930     1.5410 H     1 <1>   0.1500 
 30 H       -2.4150    -0.5630    -2.0450 H     1 <1>   0.1500 
 31 H       -3.1880    -1.9970     1.3460 H     1 <1>   0.0800 
 32 H       -1.8170    -2.1800     0.2690 H     1 <1>   0.0800 
 33 H       -2.9140     3.4770    -0.7740 H     1 <1>   0.1500 
 34 H       -2.4550     1.8350    -2.5480 H     1 <1>   0.1500 
 35 H       -2.5920    -4.3810    -1.9140 H     1 <1>   0.1500 
 36 H       -5.4680    -5.8810     1.7820 H     1 <1>   0.1500 
 37 H       -2.8660    -6.7820    -1.5040 H     1 <1>   0.1500 
 38 H       -6.9440    -2.0730     1.6290 H     1 <1>   0.0800 
 39 H       -6.5600    -2.6590     0.0120 H     1 <1>   0.0800 
 40 H       -5.5070    -1.4870     0.8100 H     1 <1>   0.0800 
 41 H       -4.7450    -8.1460     1.4380 H     1 <1>   0.0800 
 42 H       -3.4430    -8.5020     0.3270 H     1 <1>   0.0800 
 43 H       -5.0250    -8.2770    -1.4770 H     1 <1>   0.4500 
 44 H       -5.5930   -10.4570    -1.4270 H     1 <1>   0.0800 
 45 H       -4.4410   -10.4170    -0.1260 H     1 <1>   0.0800 
 46 H       -6.8900    -7.6980     0.6900 H     1 <1>   0.0800 
 47 H       -6.7390    -6.9280    -0.8710 H     1 <1>   0.0800 
 48 H       -6.2980   -10.0600     1.4620 H     1 <1>   0.0800 
 49 H       -7.6480    -9.0180    -1.9020 H     1 <1>   0.0800 
 50 H       -8.7780    -8.2870    -0.8060 H     1 <1>   0.0800 
 51 H       -8.3070   -10.8720    -0.6170 H     1 <1>   0.0800 
 52 H       -8.6690   -10.7160     1.5610 H     1 <1>   0.4000 
@<TRIPOS>BOND
  1   1   2  1   
  2   2   3  ar  
  3   2   4  ar  
  4   3   5  ar  
  5   3   6  1   
  6   4   7  ar  
  7   4  29  1   
  8   5   8  ar  
  9   5  30  1   
 10   6   9  1   
 11   6  31  1   
 12   6  32  1   
 13   7   8  ar  
 14   7  33  1   
 15   8  34  1   
 16   9  10  1   
 17  10  11  ar  
 18  10  12  ar  
 19  11  13  1   
 20  11  14  ar  
 21  12  15  ar  
 22  12  35  1   
 23  13  16  1   
 24  14  17  ar  
 25  14  36  1   
 26  15  17  ar  
 27  15  37  1   
 28  16  38  1   
 29  16  39  1   
 30  16  40  1   
 31  17  18  1   
 32  18  19  1   
 33  18  41  1   
 34  18  42  1   
 35  19  20  1   
 36  19  21  1   
 37  19  43  1   
 38  20  22  1   
 39  20  44  1   
 40  20  45  1   
 41  21  23  1   
 42  21  46  1   
 43  21  47  1   
 44  22  24  1   
 45  22  25  1   
 46  22  48  1   
 47  23  25  1   
 48  23  49  1   
 49  23  50  1   
 50  24  26  ar  
 51  24  27  ar  
 52  25  28  1   
 53  25  51  1   
 54  28  52  1   
@<TRIPOS>SUBSTRUCTURE
  1 ****  14 GROUP 4 **** **** 0

# MOE 2024.06 (io_trps.svl 2023.06)
