@<TRIPOS>MOLECULE
NONAME
59 61 1 0 0 
SMALL
USER_CHARGES


@<TRIPOS>ATOM
  1 O        0.2810     0.6850    -0.7570 O.2   1 <1>  -0.5700 
  2 C       -0.4110     1.6590    -0.6030 C.2   1 <1>   0.5690 
  3 N       -1.7500     1.7370    -0.7690 N.am  1 <1>  -0.6600 
  4 C        0.1490     2.9850    -0.1810 C.3   1 <1>  -0.0990 
  5 C       -2.2720     3.0900    -0.5130 C.3   1 <1>   0.1400 
  6 C       -2.6320     0.6540    -1.2660 C.3   1 <1>   0.0600 
  7 C       -1.1050     3.7900     0.2120 C.3   1 <1>  -0.0190 
  8 C       -0.9810     5.2830    -0.0830 C.2   1 <1>   0.5690 
  9 O       -1.5260     5.7210    -1.0660 O.2   1 <1>  -0.5700 
 10 N       -0.2340     6.1140     0.7210 N.am  1 <1>  -0.6600 
 11 C        0.7160     5.6830     1.7940 C.3   1 <1>   0.1400 
 12 C       -0.2970     7.5870     0.5160 C.3   1 <1>   0.1400 
 13 C        2.1880     5.6990     1.3190 C.3   1 <1>   0.3430 
 14 C        0.7030     8.0230    -0.5600 C.3   1 <1>  -0.1600 
 15 N        2.6180     6.9810     0.6510 N.4   1 <1>  -0.9590 
 16 C        1.9500     7.1450    -0.6780 C.3   1 <1>   0.3430 
 17 C        4.1020     7.0140     0.5200 C.3   1 <1>   0.3430 
 18 C        4.5860     8.4480     0.2850 C.3   1 <1>  -0.1600 
 19 C        6.1190     8.4840     0.2090 C.3   1 <1>  -0.1600 
 20 C        6.6500     9.9020    -0.0150 C.3   1 <1>   0.1200 
 21 O        8.0520     9.8190    -0.0750 O.3   1 <1>  -0.3630 
 22 C        8.8190    10.9210    -0.2670 C.ar  1 <1>   0.0820 
 23 C       10.1900    10.7240    -0.3140 C.ar  1 <1>  -0.1500 
 24 C        8.3070    12.2080    -0.4170 C.ar  1 <1>  -0.1500 
 25 C       11.0470    11.7930    -0.5080 C.ar  1 <1>  -0.1500 
 26 C        9.1660    13.2760    -0.6100 C.ar  1 <1>  -0.1500 
 27 C       10.5340    13.0710    -0.6560 C.ar  1 <1>  -0.1500 
 28 H        0.6480     3.4210    -1.0260 H     1 <1>   0.0800 
 29 H        0.8300     2.8540     0.6380 H     1 <1>   0.0800 
 30 H       -3.1540     3.0550     0.1020 H     1 <1>   0.0800 
 31 H       -2.5050     3.5540    -1.4570 H     1 <1>   0.0800 
 32 H       -2.0560    -0.2410    -1.4290 H     1 <1>   0.0800 
 33 H       -3.0860     0.9510    -2.1950 H     1 <1>   0.0800 
 34 H       -3.3990     0.4480    -0.5410 H     1 <1>   0.0800 
 35 H       -1.2890     3.6630     1.2620 H     1 <1>   0.0800 
 36 H        0.4740     4.6940     2.1370 H     1 <1>   0.0800 
 37 H        0.6100     6.3340     2.6440 H     1 <1>   0.0800 
 38 H       -0.0880     8.0920     1.4440 H     1 <1>   0.0800 
 39 H       -1.2940     7.8730     0.2180 H     1 <1>   0.0800 
 40 H        2.3360     4.8770     0.6380 H     1 <1>   0.0800 
 41 H        2.8140     5.5180     2.1780 H     1 <1>   0.0800 
 42 H        0.9820     9.0480    -0.4000 H     1 <1>   0.0800 
 43 H        0.1950     7.9900    -1.5090 H     1 <1>   0.0800 
 44 H        2.3330     7.7700     1.2440 H     1 <1>   0.4500 
 45 H        2.6240     7.5980    -1.3860 H     1 <1>   0.0800 
 46 H        1.6670     6.1790    -1.0670 H     1 <1>   0.0800 
 47 H        4.4180     6.3800    -0.2940 H     1 <1>   0.0800 
 48 H        4.5550     6.6460     1.4260 H     1 <1>   0.0800 
 49 H        4.2640     9.0760     1.0980 H     1 <1>   0.0800 
 50 H        4.1870     8.8350    -0.6350 H     1 <1>   0.0800 
 51 H        6.4570     7.8630    -0.6040 H     1 <1>   0.0800 
 52 H        6.5390     8.1060     1.1260 H     1 <1>   0.0800 
 53 H        6.3850    10.5500     0.8030 H     1 <1>   0.0800 
 54 H        6.2960    10.3070    -0.9470 H     1 <1>   0.0800 
 55 H       10.5800     9.7300    -0.1990 H     1 <1>   0.1500 
 56 H        7.2520    12.3990    -0.3860 H     1 <1>   0.1500 
 57 H       12.1100    11.6310    -0.5430 H     1 <1>   0.1500 
 58 H        8.7710    14.2710    -0.7260 H     1 <1>   0.1500 
 59 H       11.1990    13.9030    -0.8060 H     1 <1>   0.1500 
@<TRIPOS>BOND
  1   1   2  2   
  2   2   3  am  
  3   2   4  1   
  4   3   5  1   
  5   3   6  1   
  6   4   7  1   
  7   4  28  1   
  8   4  29  1   
  9   5   7  1   
 10   5  30  1   
 11   5  31  1   
 12   6  32  1   
 13   6  33  1   
 14   6  34  1   
 15   7   8  1   
 16   7  35  1   
 17   8   9  2   
 18   8  10  am  
 19  10  11  1   
 20  10  12  1   
 21  11  13  1   
 22  11  36  1   
 23  11  37  1   
 24  12  14  1   
 25  12  38  1   
 26  12  39  1   
 27  13  15  1   
 28  13  40  1   
 29  13  41  1   
 30  14  16  1   
 31  14  42  1   
 32  14  43  1   
 33  15  16  1   
 34  15  17  1   
 35  15  44  1   
 36  16  45  1   
 37  16  46  1   
 38  17  18  1   
 39  17  47  1   
 40  17  48  1   
 41  18  19  1   
 42  18  49  1   
 43  18  50  1   
 44  19  20  1   
 45  19  51  1   
 46  19  52  1   
 47  20  21  1   
 48  20  53  1   
 49  20  54  1   
 50  21  22  1   
 51  22  23  ar  
 52  22  24  ar  
 53  23  25  ar  
 54  23  55  1   
 55  24  26  ar  
 56  24  56  1   
 57  25  27  ar  
 58  25  57  1   
 59  26  27  ar  
 60  26  58  1   
 61  27  59  1   
@<TRIPOS>SUBSTRUCTURE
  1 ****  15 GROUP 4 **** **** 0

# MOE 2024.06 (io_trps.svl 2023.06)
