@<TRIPOS>MOLECULE
NONAME
39 41 1 0 0 
SMALL
USER_CHARGES


@<TRIPOS>ATOM
  1 O       -3.3510     0.0680    -0.6730 O.2   1 <1>  -0.5700 
  2 C       -3.2150    -0.9400    -0.0200 C.2   1 <1>   0.6900 
  3 N       -3.3520    -2.1700    -0.5860 N.am  1 <1>  -0.5390 
  4 N       -2.9220    -0.8790     1.3010 N.am  1 <1>  -0.4900 
  5 C       -3.2070    -3.3720     0.1130 C.2   1 <1>   0.1230 
  6 C       -2.7630    -1.9940     2.0630 C.2   1 <1>   0.6160 
  7 C       -3.3800    -4.6190    -0.6170 C.2   1 <1>   0.6160 
  8 C       -2.9110    -3.2620     1.4390 C.2   1 <1>  -0.1360 
  9 O       -2.5050    -1.8660     3.2410 O.2   1 <1>  -0.5700 
 10 O       -3.5980    -4.6020    -1.8130 O.2   1 <1>  -0.5700 
 11 N       -3.3200    -5.8290     0.0110 N.am  1 <1>  -0.7300 
 12 C       -3.4230    -7.1500    -0.6550 C.3   1 <1>   0.2200 
 13 C       -4.7860    -7.7870    -0.4120 C.3   1 <1>  -0.0800 
 14 C       -2.5270    -8.1310     0.0860 C.3   1 <1>   0.1200 
 15 C       -4.6160    -8.4620     0.9550 C.3   1 <1>   0.1200 
 16 C       -6.0000    -6.8450    -0.5100 C.3   1 <1>  -0.0170 
 17 O       -3.2450    -8.4590     1.2360 O.3   1 <1>  -0.5600 
 18 C       -7.3000    -7.6160    -0.3420 C.ar  1 <1>  -0.1430 
 19 C       -7.9840    -7.6520     0.8570 C.ar  1 <1>  -0.1500 
 20 C       -7.8620    -8.3240    -1.3850 C.ar  1 <1>  -0.1500 
 21 C       -9.1590    -8.3770     0.9530 C.ar  1 <1>   0.1600 
 22 C       -9.0440    -9.0180    -1.1830 C.ar  1 <1>   0.1600 
 23 N       -9.7050    -9.0640    -0.0380 N.ar  1 <1>  -0.6200 
 24 H       -3.5600    -2.1960    -1.5890 H     1 <1>   0.3700 
 25 H       -2.8160     0.0320     1.7340 H     1 <1>   0.3700 
 26 H       -2.7720    -4.1110     2.0780 H     1 <1>   0.1500 
 27 H       -3.1980    -5.9030     1.0230 H     1 <1>   0.3700 
 28 H       -3.1750    -7.0760    -1.7010 H     1 <1>   0.0800 
 29 H       -4.9140    -8.5690    -1.1400 H     1 <1>   0.0800 
 30 H       -1.5750    -7.7100     0.3570 H     1 <1>   0.0800 
 31 H       -2.3840    -9.0310    -0.4860 H     1 <1>   0.0800 
 32 H       -4.9690    -9.4790     0.9420 H     1 <1>   0.0800 
 33 H       -5.1110    -7.9150     1.7390 H     1 <1>   0.0800 
 34 H       -5.9980    -6.3570    -1.4700 H     1 <1>   0.0800 
 35 H       -5.9440    -6.0770     0.2410 H     1 <1>   0.0800 
 36 H       -7.6170    -7.1230     1.7170 H     1 <1>   0.1500 
 37 H       -7.3950    -8.3430    -2.3520 H     1 <1>   0.1500 
 38 H       -9.6790    -8.3940     1.8960 H     1 <1>   0.1500 
 39 H       -9.4680    -9.5640    -2.0080 H     1 <1>   0.1500 
@<TRIPOS>BOND
  1   1   2  2   
  2   2   3  am  
  3   2   4  am  
  4   3   5  1   
  5   3  24  1   
  6   4   6  am  
  7   4  25  1   
  8   5   7  1   
  9   5   8  2   
 10   6   8  1   
 11   6   9  2   
 12   7  10  2   
 13   7  11  am  
 14   8  26  1   
 15  11  12  1   
 16  11  27  1   
 17  12  13  1   
 18  12  14  1   
 19  12  28  1   
 20  13  15  1   
 21  13  16  1   
 22  13  29  1   
 23  14  17  1   
 24  14  30  1   
 25  14  31  1   
 26  15  17  1   
 27  15  32  1   
 28  15  33  1   
 29  16  18  1   
 30  16  34  1   
 31  16  35  1   
 32  18  19  ar  
 33  18  20  ar  
 34  19  21  ar  
 35  19  36  1   
 36  20  22  ar  
 37  20  37  1   
 38  21  23  ar  
 39  21  38  1   
 40  22  23  ar  
 41  22  39  1   
@<TRIPOS>SUBSTRUCTURE
  1 ****  11 GROUP 4 **** **** 0

# MOE 2024.06 (io_trps.svl 2023.06)
