@<TRIPOS>MOLECULE
NONAME
52 55 1 0 0 
SMALL
USER_CHARGES


@<TRIPOS>ATOM
  1 F        0.0740     0.2390     0.4790 F     1 <1>  -0.3400 
  2 C        0.9900    -0.3510     1.2330 C.3   1 <1>   1.1640 
  3 F        0.6100    -0.1930     2.4920 F     1 <1>  -0.3400 
  4 F        2.1090     0.3490     1.0850 F     1 <1>  -0.3400 
  5 C        1.1730    -1.8370     0.8660 C.ar  1 <1>  -0.1440 
  6 C        2.3830    -2.3680     0.4690 C.ar  1 <1>  -0.1500 
  7 C        0.0740    -2.7010     0.9550 C.ar  1 <1>  -0.1500 
  8 C        2.5190    -3.7270     0.1420 C.ar  1 <1>   0.3610 
  9 C        0.1870    -4.0230     0.6120 C.ar  1 <1>  -0.1500 
 10 N        3.7600    -4.2700    -0.1090 N.ar  1 <1>  -0.1790 
 11 C        1.3900    -4.5670     0.1260 C.ar  1 <1>   0.0000 
 12 C        3.9350    -5.5790    -0.3620 C.ar  1 <1>   0.2180 
 13 C        1.5420    -5.9230    -0.3070 C.ar  1 <1>   0.1000 
 14 C        2.8440    -6.4030    -0.4550 C.ar  1 <1>  -0.1500 
 15 C        5.3490    -6.1000    -0.5580 C.3   1 <1>  -0.0970 
 16 N        0.5090    -6.7400    -0.6160 N.pl3 1 <1>  -0.8380 
 17 C       -0.7550    -6.3740    -1.3280 C.3   1 <1>   0.2090 
 18 C        0.3650    -8.1260    -0.0890 C.3   1 <1>   0.2090 
 19 C       -1.8270    -7.3100    -0.7630 C.3   1 <1>   0.2000 
 20 C       -1.0430    -8.5950    -0.4800 C.3   1 <1>  -0.0800 
 21 O       -2.3280    -6.7980     0.4420 O.3   1 <1>  -0.5600 
 22 C       -1.6870    -9.5180     0.5700 C.3   1 <1>   0.0200 
 23 C       -3.4350    -5.9610     0.3120 C.3   1 <1>   0.0400 
 24 C       -0.9680   -10.8500     0.7090 C.2   1 <1>  -0.0400 
 25 O       -1.2580   -11.6170     1.7260 O.3   1 <1>  -0.0190 
 26 C       -0.0360   -11.4810    -0.0240 C.2   1 <1>  -0.1500 
 27 N       -0.5700   -12.7210     1.7160 N.2   1 <1>  -0.4100 
 28 C        0.1750   -12.6680     0.6720 C.2   1 <1>   0.1080 
 29 C        1.1450   -13.7540     0.2640 C.3   1 <1>  -0.0590 
 30 H        3.2530    -1.7350     0.4150 H     1 <1>   0.1500 
 31 H       -0.8740    -2.3210     1.3050 H     1 <1>   0.1500 
 32 H       -0.6620    -4.6730     0.7360 H     1 <1>   0.1500 
 33 H        4.5690    -3.6480    -0.0630 H     1 <1>   0.4570 
 34 H        2.9770    -7.4440    -0.6870 H     1 <1>   0.1500 
 35 H        5.3400    -7.1580    -0.7510 H     1 <1>   0.0800 
 36 H        5.9390    -5.9270     0.3250 H     1 <1>   0.0800 
 37 H        5.8170    -5.6130    -1.3950 H     1 <1>   0.0800 
 38 H       -1.0220    -5.3400    -1.2350 H     1 <1>   0.0800 
 39 H       -0.6220    -6.5920    -2.3730 H     1 <1>   0.0800 
 40 H        1.1140    -8.7780    -0.5030 H     1 <1>   0.0800 
 41 H        0.4670    -8.1000     0.9830 H     1 <1>   0.0800 
 42 H       -2.6390    -7.4790    -1.4490 H     1 <1>   0.0800 
 43 H       -0.9620    -9.1310    -1.4080 H     1 <1>   0.0800 
 44 H       -2.7110    -9.7100     0.3030 H     1 <1>   0.0800 
 45 H       -1.6890    -9.0290     1.5290 H     1 <1>   0.0800 
 46 H       -3.7080    -5.6160     1.2940 H     1 <1>   0.0800 
 47 H       -4.2520    -6.5180    -0.1130 H     1 <1>   0.0800 
 48 H       -3.1830    -5.1210    -0.3100 H     1 <1>   0.0800 
 49 H        0.4540   -11.1890    -0.9340 H     1 <1>   0.1500 
 50 H        0.8950   -14.1180    -0.7160 H     1 <1>   0.0800 
 51 H        1.0940   -14.5710     0.9610 H     1 <1>   0.0800 
 52 H        2.1460   -13.3660     0.2550 H     1 <1>   0.0800 
@<TRIPOS>BOND
  1   1   2  1   
  2   2   3  1   
  3   2   4  1   
  4   2   5  1   
  5   5   6  ar  
  6   5   7  ar  
  7   6   8  ar  
  8   6  30  1   
  9   7   9  ar  
 10   7  31  1   
 11   8  10  ar  
 12   8  11  ar  
 13   9  11  ar  
 14   9  32  1   
 15  10  12  ar  
 16  10  33  1   
 17  11  13  ar  
 18  12  14  ar  
 19  12  15  1   
 20  13  14  ar  
 21  13  16  1   
 22  14  34  1   
 23  15  35  1   
 24  15  36  1   
 25  15  37  1   
 26  16  17  1   
 27  16  18  1   
 28  17  19  1   
 29  17  38  1   
 30  17  39  1   
 31  18  20  1   
 32  18  40  1   
 33  18  41  1   
 34  19  20  1   
 35  19  21  1   
 36  19  42  1   
 37  20  22  1   
 38  20  43  1   
 39  21  23  1   
 40  22  24  1   
 41  22  44  1   
 42  22  45  1   
 43  23  46  1   
 44  23  47  1   
 45  23  48  1   
 46  24  25  1   
 47  24  26  2   
 48  25  27  1   
 49  26  28  1   
 50  26  49  1   
 51  27  28  2   
 52  28  29  1   
 53  29  50  1   
 54  29  51  1   
 55  29  52  1   
@<TRIPOS>SUBSTRUCTURE
  1 ****  16 GROUP 4 **** **** 0

# MOE 2024.06 (io_trps.svl 2023.06)
