@<TRIPOS>MOLECULE
NONAME
53 55 1 0 0 
SMALL
USER_CHARGES


@<TRIPOS>ATOM
  1 O        2.5490    -0.6730     1.9960 O.co2 1 <1>  -0.9000 
  2 C        2.8170    -0.4180     0.8260 C.2   1 <1>   0.9060 
  3 O        3.7970    -0.9410     0.2680 O.co2 1 <1>  -0.9000 
  4 C        2.1210     0.7780     0.1510 C.3   1 <1>  -0.1060 
  5 C        2.7070     1.0880    -1.2610 C.3   1 <1>   0.2000 
  6 C        2.4460     2.0180     1.0270 C.3   1 <1>  -0.1600 
  7 C        0.6010     0.4900     0.0880 C.3   1 <1>  -0.0160 
  8 O        2.8600    -0.0840    -1.9830 O.3   1 <1>  -0.6800 
  9 C        4.0720     1.8200    -1.1970 C.3   1 <1>   0.3430 
 10 C        3.9640     2.1520     1.2640 C.3   1 <1>   0.3430 
 11 C       -0.2310     1.6300    -0.4930 C.ar  1 <1>  -0.1440 
 12 N        4.7530     1.5840     0.1160 N.4   1 <1>  -0.9590 
 13 C       -0.5320     1.6570    -1.8460 C.ar  1 <1>  -0.1500 
 14 C       -0.7070     2.6420     0.3260 C.ar  1 <1>  -0.1500 
 15 C        6.2050     1.8700     0.1450 C.3   1 <1>   0.4860 
 16 C       -1.2810     2.6930    -2.3780 C.ar  1 <1>  -0.1500 
 17 C       -1.4550     3.6790    -0.2030 C.ar  1 <1>  -0.1500 
 18 C        6.4500     3.3620     0.1070 C.ar  1 <1>  -0.1430 
 19 C       -1.7400     3.7070    -1.5560 C.ar  1 <1>  -0.1500 
 20 C        6.4930     4.0620    -1.0750 C.ar  1 <1>   0.1600 
 21 C        6.6370     4.0840     1.2620 C.ar  1 <1>   0.1600 
 22 N        6.6680     5.3560    -1.1120 N.ar  1 <1>  -0.6200 
 23 N        6.8140     5.3790     1.2520 N.ar  1 <1>  -0.6200 
 24 C        6.8200     5.9740     0.0600 C.ar  1 <1>   0.7200 
 25 N        6.9940     7.3410     0.0370 N.pl3 1 <1>  -0.8380 
 26 C        7.4970     8.1000     1.2180 C.3   1 <1>   0.1290 
 27 C        6.7820     8.1530    -1.1940 C.3   1 <1>   0.1290 
 28 H        2.0420     1.7120    -1.8290 H     1 <1>   0.0800 
 29 H        1.9620     1.9300     1.9850 H     1 <1>   0.0800 
 30 H        2.0760     2.9170     0.5650 H     1 <1>   0.0800 
 31 H        0.4400    -0.3990    -0.4990 H     1 <1>   0.0800 
 32 H        0.2420     0.2680     1.0790 H     1 <1>   0.0800 
 33 H        3.2680    -0.7540    -1.3600 H     1 <1>   0.4000 
 34 H        3.9030     2.8770    -1.3150 H     1 <1>   0.0800 
 35 H        4.6840     1.4760    -2.0140 H     1 <1>   0.0800 
 36 H        4.2190     1.6100     2.1610 H     1 <1>   0.0800 
 37 H        4.2040     3.1920     1.4140 H     1 <1>   0.0800 
 38 H        4.6640     0.5380     0.2350 H     1 <1>   0.4500 
 39 H       -0.1830     0.8680    -2.4920 H     1 <1>   0.1500 
 40 H       -0.4980     2.6240     1.3820 H     1 <1>   0.1500 
 41 H        6.6320     1.4580     1.0450 H     1 <1>   0.0800 
 42 H        6.6860     1.3970    -0.6960 H     1 <1>   0.0800 
 43 H       -1.5070     2.7070    -3.4300 H     1 <1>   0.1500 
 44 H       -1.8190     4.4620     0.4390 H     1 <1>   0.1500 
 45 H       -2.3230     4.5120    -1.9690 H     1 <1>   0.1500 
 46 H        6.3790     3.5560    -2.0190 H     1 <1>   0.1500 
 47 H        6.6360     3.5950     2.2220 H     1 <1>   0.1500 
 48 H        8.1310     8.9080     0.8960 H     1 <1>   0.0800 
 49 H        8.0710     7.4630     1.8680 H     1 <1>   0.0800 
 50 H        6.6640     8.5020     1.7690 H     1 <1>   0.0800 
 51 H        6.4310     9.1360    -0.9330 H     1 <1>   0.0800 
 52 H        6.0470     7.6920    -1.8320 H     1 <1>   0.0800 
 53 H        7.7090     8.2390    -1.7340 H     1 <1>   0.0800 
@<TRIPOS>BOND
  1   1   2  ar  
  2   2   3  ar  
  3   2   4  1   
  4   4   5  1   
  5   4   6  1   
  6   4   7  1   
  7   5   8  1   
  8   5   9  1   
  9   5  28  1   
 10   6  10  1   
 11   6  29  1   
 12   6  30  1   
 13   7  11  1   
 14   7  31  1   
 15   7  32  1   
 16   8  33  1   
 17   9  12  1   
 18   9  34  1   
 19   9  35  1   
 20  10  12  1   
 21  10  36  1   
 22  10  37  1   
 23  11  13  ar  
 24  11  14  ar  
 25  12  15  1   
 26  12  38  1   
 27  13  16  ar  
 28  13  39  1   
 29  14  17  ar  
 30  14  40  1   
 31  15  18  1   
 32  15  41  1   
 33  15  42  1   
 34  16  19  ar  
 35  16  43  1   
 36  17  19  ar  
 37  17  44  1   
 38  18  20  ar  
 39  18  21  ar  
 40  19  45  1   
 41  20  22  ar  
 42  20  46  1   
 43  21  23  ar  
 44  21  47  1   
 45  22  24  ar  
 46  23  24  ar  
 47  24  25  1   
 48  25  26  1   
 49  25  27  1   
 50  26  48  1   
 51  26  49  1   
 52  26  50  1   
 53  27  51  1   
 54  27  52  1   
 55  27  53  1   
@<TRIPOS>SUBSTRUCTURE
  1 ****   9 GROUP 4 **** **** 0

# MOE 2024.06 (io_trps.svl 2023.06)
