@<TRIPOS>MOLECULE
NONAME
56 59 1 0 0 
SMALL
USER_CHARGES


@<TRIPOS>ATOM
  1 O        1.3120     0.0400     1.8050 O.3   1 <1>  -0.5600 
  2 C        1.0270    -1.2830     1.4320 C.3   1 <1>   0.1200 
  3 C        1.9070     0.7900     0.7900 C.3   1 <1>   0.1200 
  4 C        2.3060    -2.0240     0.9840 C.3   1 <1>   0.3340 
  5 C        3.2410     0.1420     0.3720 C.3   1 <1>   0.1900 
  6 N        3.0230    -1.2580    -0.0700 N.3   1 <1>  -0.8100 
  7 C        1.9500    -3.4190     0.4770 C.ar  1 <1>  -0.1440 
  8 C        3.9100     0.9620    -0.7500 C.3   1 <1>   0.3430 
  9 C        4.2960    -1.9010    -0.4610 C.3   1 <1>   0.1100 
 10 C        1.2790    -3.5890    -0.7270 C.ar  1 <1>  -0.1500 
 11 C        2.3010    -4.5390     1.2170 C.ar  1 <1>  -0.1500 
 12 N        5.1860     0.3220    -1.2290 N.4   1 <1>  -0.9590 
 13 C        4.9910    -1.1190    -1.5930 C.3   1 <1>   0.3430 
 14 C        0.9650    -4.8570    -1.1840 C.ar  1 <1>  -0.1500 
 15 C        1.9890    -5.8080     0.7600 C.ar  1 <1>  -0.1500 
 16 C        5.8510     1.1060    -2.2970 C.3   1 <1>   0.4860 
 17 C        1.3210    -5.9670    -0.4410 C.ar  1 <1>  -0.1500 
 18 C        6.2040     2.4670    -1.7290 C.ar  1 <1>  -0.1440 
 19 C        7.0420     2.5660    -0.6220 C.ar  1 <1>   0.0820 
 20 C        5.6770     3.6090    -2.3100 C.ar  1 <1>  -0.1500 
 21 O        7.5380     1.3890    -0.1320 O.3   1 <1>  -0.3620 
 22 C        7.3140     3.8260    -0.0640 C.ar  1 <1>   0.0820 
 23 C        5.9680     4.8520    -1.7810 C.ar  1 <1>  -0.1500 
 24 C        8.8760     1.3170     0.3260 C.3   1 <1>   0.0400 
 25 O        8.0720     3.9100     1.0660 O.3   1 <1>  -0.3630 
 26 C        6.7760     4.9610    -0.6650 C.ar  1 <1>  -0.1500 
 27 C        8.3610     5.1420     1.6930 C.3   1 <1>   0.0400 
 28 H        0.5940    -1.7800     2.2810 H     1 <1>   0.0800 
 29 H        0.3010    -1.2680     0.6380 H     1 <1>   0.0800 
 30 H        1.2250     0.8460    -0.0400 H     1 <1>   0.0800 
 31 H        2.0710     1.7810     1.1770 H     1 <1>   0.0800 
 32 H        2.9450    -2.1190     1.8450 H     1 <1>   0.0800 
 33 H        3.8900     0.1520     1.2320 H     1 <1>   0.0800 
 34 H        4.1140     1.9550    -0.3840 H     1 <1>   0.0800 
 35 H        3.2160     1.0440    -1.5700 H     1 <1>   0.0800 
 36 H        4.9530    -1.9710     0.3900 H     1 <1>   0.0800 
 37 H        4.1060    -2.9010    -0.8130 H     1 <1>   0.0800 
 38 H        1.0010    -2.7300    -1.3130 H     1 <1>   0.1500 
 39 H        2.8180    -4.4350     2.1550 H     1 <1>   0.1500 
 40 H        5.8570     0.3740    -0.4420 H     1 <1>   0.4500 
 41 H        4.3780    -1.1920    -2.4760 H     1 <1>   0.0800 
 42 H        5.9430    -1.5780    -1.8070 H     1 <1>   0.0800 
 43 H        0.4430    -4.9800    -2.1170 H     1 <1>   0.1500 
 44 H        2.2640    -6.6730     1.3390 H     1 <1>   0.1500 
 45 H        6.7550     0.6100    -2.6100 H     1 <1>   0.0800 
 46 H        5.1980     1.2110    -3.1480 H     1 <1>   0.0800 
 47 H        1.0780    -6.9540    -0.7960 H     1 <1>   0.1500 
 48 H        5.0390     3.5500    -3.1770 H     1 <1>   0.1500 
 49 H        5.5630     5.7410    -2.2370 H     1 <1>   0.1500 
 50 H        9.2120     0.2990     0.2430 H     1 <1>   0.0800 
 51 H        8.9100     1.6230     1.3570 H     1 <1>   0.0800 
 52 H        9.4950     1.9590    -0.2770 H     1 <1>   0.0800 
 53 H        6.9700     5.9450    -0.2800 H     1 <1>   0.1500 
 54 H        8.9640     4.9430     2.5600 H     1 <1>   0.0800 
 55 H        7.4380     5.6080     1.9920 H     1 <1>   0.0800 
 56 H        8.9060     5.7660     1.0070 H     1 <1>   0.0800 
@<TRIPOS>BOND
  1   1   2  1   
  2   1   3  1   
  3   2   4  1   
  4   2  28  1   
  5   2  29  1   
  6   3   5  1   
  7   3  30  1   
  8   3  31  1   
  9   4   6  1   
 10   4   7  1   
 11   4  32  1   
 12   5   6  1   
 13   5   8  1   
 14   5  33  1   
 15   6   9  1   
 16   7  10  ar  
 17   7  11  ar  
 18   8  12  1   
 19   8  34  1   
 20   8  35  1   
 21   9  13  1   
 22   9  36  1   
 23   9  37  1   
 24  10  14  ar  
 25  10  38  1   
 26  11  15  ar  
 27  11  39  1   
 28  12  13  1   
 29  12  16  1   
 30  12  40  1   
 31  13  41  1   
 32  13  42  1   
 33  14  17  ar  
 34  14  43  1   
 35  15  17  ar  
 36  15  44  1   
 37  16  18  1   
 38  16  45  1   
 39  16  46  1   
 40  17  47  1   
 41  18  19  ar  
 42  18  20  ar  
 43  19  21  1   
 44  19  22  ar  
 45  20  23  ar  
 46  20  48  1   
 47  21  24  1   
 48  22  25  1   
 49  22  26  ar  
 50  23  26  ar  
 51  23  49  1   
 52  24  50  1   
 53  24  51  1   
 54  24  52  1   
 55  25  27  1   
 56  26  53  1   
 57  27  54  1   
 58  27  55  1   
 59  27  56  1   
@<TRIPOS>SUBSTRUCTURE
  1 ****   8 GROUP 4 **** **** 0

# MOE 2024.06 (io_trps.svl 2023.06)
