@<TRIPOS>MOLECULE
NONAME
56 58 1 0 0 
SMALL
USER_CHARGES


@<TRIPOS>ATOM
  1 O       -2.1300     1.1590     0.9900 O.3   1 <1>  -0.3630 
  2 C       -1.4900     2.2860     0.5900 C.ar  1 <1>   0.0830 
  3 C       -1.5420    -0.0650     0.6040 C.3   1 <1>   0.2000 
  4 C       -1.5850     2.7410    -0.7270 C.ar  1 <1>   0.0830 
  5 C       -0.7560     3.0050     1.5170 C.ar  1 <1>  -0.1500 
  6 C       -2.6540    -1.1080     0.5300 C.3   1 <1>  -0.2400 
  7 C       -0.4860    -0.4490     1.6420 C.3   1 <1>  -0.2400 
  8 O       -2.3440     2.0810    -1.6370 O.3   1 <1>  -0.3630 
  9 C       -0.9070     3.8850    -1.1140 C.ar  1 <1>  -0.1500 
 10 C       -0.0910     4.1570     1.1290 C.ar  1 <1>  -0.1500 
 11 C       -3.6690     2.5380    -1.7850 C.3   1 <1>   0.1200 
 12 C       -0.1620     4.5930    -0.1850 C.ar  1 <1>  -0.1500 
 13 C       -4.4710     2.1880    -0.5220 C.3   1 <1>   0.3430 
 14 N       -5.9270     2.5210    -0.6360 N.4   1 <1>  -0.9590 
 15 C       -6.6680     1.9220     0.5200 C.3   1 <1>   0.3430 
 16 C       -6.1660     3.9940    -0.6960 C.3   1 <1>   0.3430 
 17 C       -8.1860     2.0930     0.3520 C.3   1 <1>   0.0000 
 18 C       -7.6550     4.2640    -0.9130 C.3   1 <1>  -0.1600 
 19 C       -8.9040     1.4510     1.5500 C.3   1 <1>   0.2000 
 20 C       -8.5200     3.6010     0.1720 C.3   1 <1>  -0.1600 
 21 C       -8.7710     1.2700    -0.8110 C.3   1 <1>  -0.1600 
 22 O       -8.8540     2.2520     2.6720 O.3   1 <1>  -0.6800 
 23 C      -10.3380     1.2200     1.0900 C.3   1 <1>  -0.1600 
 24 C      -10.2340     0.9970    -0.4270 C.3   1 <1>  -0.1600 
 25 H       -1.0870     0.0540    -0.3660 H     1 <1>   0.0800 
 26 H       -0.7000     2.6610     2.5340 H     1 <1>   0.1500 
 27 H       -3.1490    -1.1980     1.4810 H     1 <1>   0.0800 
 28 H       -2.2380    -2.0640     0.2710 H     1 <1>   0.0800 
 29 H       -3.3650    -0.8380    -0.2280 H     1 <1>   0.0800 
 30 H       -0.9270    -0.5150     2.6210 H     1 <1>   0.0800 
 31 H        0.3060     0.2770     1.6540 H     1 <1>   0.0800 
 32 H       -0.0580    -1.4030     1.3930 H     1 <1>   0.0800 
 33 H       -0.9580     4.2190    -2.1350 H     1 <1>   0.1500 
 34 H        0.4860     4.7130     1.8490 H     1 <1>   0.1500 
 35 H       -3.6380     3.6000    -1.9560 H     1 <1>   0.0800 
 36 H       -4.0780     2.0400    -2.6450 H     1 <1>   0.0800 
 37 H        0.3660     5.4830    -0.4840 H     1 <1>   0.1500 
 38 H       -4.0480     2.7110     0.3190 H     1 <1>   0.0800 
 39 H       -4.3620     1.1310    -0.3430 H     1 <1>   0.0800 
 40 H       -6.3100     2.0990    -1.4900 H     1 <1>   0.4500 
 41 H       -6.4380     0.8730     0.6010 H     1 <1>   0.0800 
 42 H       -6.3650     2.4020     1.4370 H     1 <1>   0.0800 
 43 H       -5.8490     4.4520     0.2280 H     1 <1>   0.0800 
 44 H       -5.6030     4.4330    -1.5040 H     1 <1>   0.0800 
 45 H       -7.8220     5.3280    -0.8900 H     1 <1>   0.0800 
 46 H       -7.9460     3.9240    -1.8910 H     1 <1>   0.0800 
 47 H       -8.4540     0.5020     1.7950 H     1 <1>   0.0800 
 48 H       -9.5620     3.7380    -0.0620 H     1 <1>   0.0800 
 49 H       -8.3370     4.1230     1.0970 H     1 <1>   0.0800 
 50 H       -8.7070     1.7620    -1.7650 H     1 <1>   0.0800 
 51 H       -8.2600     0.3240    -0.8810 H     1 <1>   0.0800 
 52 H       -9.4700     1.9180     3.3560 H     1 <1>   0.4000 
 53 H      -10.7710     0.3650     1.5790 H     1 <1>   0.0800 
 54 H      -10.9410     2.0910     1.2830 H     1 <1>   0.0800 
 55 H      -10.5160    -0.0080    -0.6930 H     1 <1>   0.0800 
 56 H      -10.8900     1.6820    -0.9380 H     1 <1>   0.0800 
@<TRIPOS>BOND
  1   1   2  1   
  2   1   3  1   
  3   2   4  ar  
  4   2   5  ar  
  5   3   6  1   
  6   3   7  1   
  7   3  25  1   
  8   4   8  1   
  9   4   9  ar  
 10   5  10  ar  
 11   5  26  1   
 12   6  27  1   
 13   6  28  1   
 14   6  29  1   
 15   7  30  1   
 16   7  31  1   
 17   7  32  1   
 18   8  11  1   
 19   9  12  ar  
 20   9  33  1   
 21  10  12  ar  
 22  10  34  1   
 23  11  13  1   
 24  11  35  1   
 25  11  36  1   
 26  12  37  1   
 27  13  14  1   
 28  13  38  1   
 29  13  39  1   
 30  14  15  1   
 31  14  16  1   
 32  14  40  1   
 33  15  17  1   
 34  15  41  1   
 35  15  42  1   
 36  16  18  1   
 37  16  43  1   
 38  16  44  1   
 39  17  19  1   
 40  17  20  1   
 41  17  21  1   
 42  18  20  1   
 43  18  45  1   
 44  18  46  1   
 45  19  22  1   
 46  19  23  1   
 47  19  47  1   
 48  20  48  1   
 49  20  49  1   
 50  21  24  1   
 51  21  50  1   
 52  21  51  1   
 53  22  52  1   
 54  23  24  1   
 55  23  53  1   
 56  23  54  1   
 57  24  55  1   
 58  24  56  1   
@<TRIPOS>SUBSTRUCTURE
  1 ****  13 GROUP 4 **** **** 0

# MOE 2024.06 (io_trps.svl 2023.06)
