@<TRIPOS>MOLECULE
NONAME
59 61 1 0 0 
SMALL
USER_CHARGES


@<TRIPOS>ATOM
  1 O       -0.7010     0.6570    -1.4740 O.2   1 <1>  -0.5700 
  2 C       -0.3490     1.7140    -1.0180 C.2   1 <1>   0.5690 
  3 N       -1.1920     2.4540    -0.2640 N.am  1 <1>  -0.7300 
  4 C        1.0590     2.2460    -1.3210 C.3   1 <1>   0.1810 
  5 C       -0.7980     3.7240     0.3800 C.3   1 <1>   0.3640 
  6 O        1.4700     3.3070    -0.4730 O.3   1 <1>  -0.5600 
  7 C       -1.9240     4.7470     0.2710 C.ar  1 <1>  -0.1440 
  8 C        0.4760     4.3010    -0.2730 C.3   1 <1>   0.2610 
  9 C       -2.2350     5.5400     1.3670 C.ar  1 <1>  -0.1500 
 10 C       -2.6240     4.9300    -0.9150 C.ar  1 <1>  -0.1500 
 11 C        1.0150     5.4490     0.5790 C.2   1 <1>   0.5690 
 12 C       -3.2220     6.5050     1.2780 C.ar  1 <1>  -0.1500 
 13 C       -3.6110     5.8960    -1.0040 C.ar  1 <1>  -0.1500 
 14 O        1.1680     5.3230     1.7740 O.2   1 <1>  -0.5700 
 15 N        1.3940     6.6090    -0.0200 N.am  1 <1>  -0.6600 
 16 C       -3.9090     6.6850     0.0910 C.ar  1 <1>  -0.1500 
 17 C        0.5600     7.8230     0.1960 C.3   1 <1>   0.2200 
 18 C        2.6420     6.6650    -0.8440 C.3   1 <1>   0.1400 
 19 C       -0.2150     8.1610    -1.0840 C.3   1 <1>  -0.1600 
 20 C        1.3880     9.0180     0.6870 C.3   1 <1>  -0.1600 
 21 C        3.8930     6.8830     0.0390 C.3   1 <1>   0.3430 
 22 C       -1.1140     9.3860    -0.8650 C.3   1 <1>  -0.1600 
 23 C        0.4850    10.2400     0.9130 C.3   1 <1>  -0.1600 
 24 N        3.9100     5.9820     1.2380 N.4   1 <1>  -0.9590 
 25 C       -0.3050    10.5880    -0.3570 C.3   1 <1>  -0.1600 
 26 C        4.7780     6.5080     2.3300 C.3   1 <1>   0.2630 
 27 C        4.2520     4.5660     0.9010 C.3   1 <1>   0.2630 
 28 H       -2.1250     2.0900    -0.0590 H     1 <1>   0.3700 
 29 H        1.0880     2.5960    -2.3370 H     1 <1>   0.0800 
 30 H        1.7670     1.4450    -1.2130 H     1 <1>   0.0800 
 31 H       -0.6020     3.5230     1.4200 H     1 <1>   0.0800 
 32 H        0.2190     4.6970    -1.2380 H     1 <1>   0.0800 
 33 H       -1.7090     5.4170     2.3000 H     1 <1>   0.1500 
 34 H       -2.4080     4.3240    -1.7790 H     1 <1>   0.1500 
 35 H       -3.4580     7.1160     2.1330 H     1 <1>   0.1500 
 36 H       -4.1500     6.0320    -1.9260 H     1 <1>   0.1500 
 37 H       -4.6780     7.4360     0.0220 H     1 <1>   0.1500 
 38 H       -0.1680     7.5990     0.9610 H     1 <1>   0.0800 
 39 H        2.7530     5.7410    -1.3860 H     1 <1>   0.0800 
 40 H        2.5710     7.4560    -1.5700 H     1 <1>   0.0800 
 41 H        0.4670     8.3720    -1.8880 H     1 <1>   0.0800 
 42 H       -0.8310     7.3260    -1.3640 H     1 <1>   0.0800 
 43 H        1.8710     8.7650     1.6140 H     1 <1>   0.0800 
 44 H        2.1310     9.2840    -0.0420 H     1 <1>   0.0800 
 45 H        3.8860     7.9080     0.3700 H     1 <1>   0.0800 
 46 H        4.7840     6.7360    -0.5490 H     1 <1>   0.0800 
 47 H       -1.6040     9.6450    -1.7880 H     1 <1>   0.0800 
 48 H       -1.8790     9.1420    -0.1470 H     1 <1>   0.0800 
 49 H       -0.2050    10.0340     1.7140 H     1 <1>   0.0800 
 50 H        1.0830    11.0860     1.2060 H     1 <1>   0.0800 
 51 H        2.9250     5.9670     1.5950 H     1 <1>   0.4500 
 52 H       -0.9730    11.4070    -0.1510 H     1 <1>   0.0800 
 53 H        0.3760    10.9100    -1.1260 H     1 <1>   0.0800 
 54 H        5.8070     6.5420     2.0090 H     1 <1>   0.0800 
 55 H        4.7070     5.8730     3.1980 H     1 <1>   0.0800 
 56 H        4.4660     7.5010     2.6080 H     1 <1>   0.0800 
 57 H        5.2610     4.4980     0.5310 H     1 <1>   0.0800 
 58 H        3.5790     4.1850     0.1510 H     1 <1>   0.0800 
 59 H        4.1600     3.9450     1.7780 H     1 <1>   0.0800 
@<TRIPOS>BOND
  1   1   2  2   
  2   2   3  am  
  3   2   4  1   
  4   3   5  1   
  5   3  28  1   
  6   4   6  1   
  7   4  29  1   
  8   4  30  1   
  9   5   7  1   
 10   5   8  1   
 11   5  31  1   
 12   6   8  1   
 13   7   9  ar  
 14   7  10  ar  
 15   8  11  1   
 16   8  32  1   
 17   9  12  ar  
 18   9  33  1   
 19  10  13  ar  
 20  10  34  1   
 21  11  14  2   
 22  11  15  am  
 23  12  16  ar  
 24  12  35  1   
 25  13  16  ar  
 26  13  36  1   
 27  15  17  1   
 28  15  18  1   
 29  16  37  1   
 30  17  19  1   
 31  17  20  1   
 32  17  38  1   
 33  18  21  1   
 34  18  39  1   
 35  18  40  1   
 36  19  22  1   
 37  19  41  1   
 38  19  42  1   
 39  20  23  1   
 40  20  43  1   
 41  20  44  1   
 42  21  24  1   
 43  21  45  1   
 44  21  46  1   
 45  22  25  1   
 46  22  47  1   
 47  22  48  1   
 48  23  25  1   
 49  23  49  1   
 50  23  50  1   
 51  24  26  1   
 52  24  27  1   
 53  24  51  1   
 54  25  52  1   
 55  25  53  1   
 56  26  54  1   
 57  26  55  1   
 58  26  56  1   
 59  27  57  1   
 60  27  58  1   
 61  27  59  1   
@<TRIPOS>SUBSTRUCTURE
  1 ****  11 GROUP 4 **** **** 0

# MOE 2024.06 (io_trps.svl 2023.06)
