@<TRIPOS>MOLECULE
NONAME
45 47 1 0 0 
SMALL
USER_CHARGES


@<TRIPOS>ATOM
  1 O        0.3520     0.3870     1.2080 O.2   1 <1>  -0.5700 
  2 C        0.2670     1.5780     1.0110 C.2   1 <1>   0.5690 
  3 N       -0.9440     2.2120     0.8000 N.am  1 <1>  -0.4770 
  4 C        1.5730     2.3860     1.0060 C.3   1 <1>   0.2700 
  5 C       -2.1900     1.5540     0.7770 C.ar  1 <1>   0.1170 
  6 C       -0.9560     3.6760     0.5230 C.3   1 <1>   0.1400 
  7 N        1.5320     3.7310     0.3150 N.pl3 1 <1>  -0.8380 
  8 C       -2.3850     0.4340    -0.0220 C.ar  1 <1>  -0.1500 
  9 C       -3.2550     2.0250     1.5380 C.ar  1 <1>  -0.1500 
 10 C        0.2410     4.1030    -0.3350 C.3   1 <1>   0.2090 
 11 C        2.6750     4.4690     0.1700 C.ar  1 <1>   0.7200 
 12 C       -3.6200    -0.2020    -0.0670 C.ar  1 <1>   0.0820 
 13 C       -4.4890     1.4010     1.4940 C.ar  1 <1>  -0.1500 
 14 N        2.6240     5.5390    -0.6210 N.ar  1 <1>  -0.6200 
 15 N        3.7530     4.0510     0.8260 N.ar  1 <1>  -0.6200 
 16 O       -3.8700    -1.3030    -0.8190 O.3   1 <1>  -0.3630 
 17 C       -4.6700     0.2910     0.6890 C.ar  1 <1>  -0.1500 
 18 C        3.7200     6.2420    -0.7560 C.ar  1 <1>   0.1670 
 19 C        4.8340     4.7750     0.6840 C.ar  1 <1>   0.1600 
 20 C       -2.8170    -2.0070    -1.4410 C.3   1 <1>   0.0400 
 21 C        4.8970     5.9260    -0.0820 C.ar  1 <1>   0.0860 
 22 C        3.6140     7.4090    -1.7250 C.3   1 <1>  -0.0970 
 23 C        6.1270     6.6670    -0.1160 C.2   1 <1>   0.4230 
 24 O        7.2000     6.1290    -0.1970 O.2   1 <1>  -0.5700 
 25 C        6.1340     8.1770     0.0230 C.3   1 <1>  -0.1790 
 26 H        2.3290     1.7820     0.5360 H     1 <1>   0.0800 
 27 H        1.8690     2.5340     2.0290 H     1 <1>   0.0800 
 28 H       -0.9350     4.2130     1.4540 H     1 <1>   0.0800 
 29 H       -1.8620     3.9350     0.0040 H     1 <1>   0.0800 
 30 H       -1.5550     0.0750    -0.5980 H     1 <1>   0.1500 
 31 H       -3.1170     2.8800     2.1740 H     1 <1>   0.1500 
 32 H        0.1890     5.1680    -0.4830 H     1 <1>   0.0800 
 33 H        0.1800     3.6310    -1.3010 H     1 <1>   0.0800 
 34 H       -5.3080     1.7740     2.0850 H     1 <1>   0.1500 
 35 H       -5.6230    -0.2040     0.6460 H     1 <1>   0.1500 
 36 H        5.7230     4.4540     1.2030 H     1 <1>   0.1500 
 37 H       -3.2290    -2.8880    -1.8990 H     1 <1>   0.0800 
 38 H       -2.0950    -2.2860    -0.6940 H     1 <1>   0.0800 
 39 H       -2.3720    -1.3790    -2.1920 H     1 <1>   0.0800 
 40 H        2.8370     7.2190    -2.4450 H     1 <1>   0.0800 
 41 H        4.5320     7.5450    -2.2650 H     1 <1>   0.0800 
 42 H        3.3670     8.3090    -1.1930 H     1 <1>   0.0800 
 43 H        5.2160     8.5280     0.4560 H     1 <1>   0.0800 
 44 H        6.2810     8.6320    -0.9390 H     1 <1>   0.0800 
 45 H        6.9450     8.4700     0.6640 H     1 <1>   0.0800 
@<TRIPOS>BOND
  1   1   2  2   
  2   2   3  am  
  3   2   4  1   
  4   3   5  1   
  5   3   6  1   
  6   4   7  1   
  7   4  26  1   
  8   4  27  1   
  9   5   8  ar  
 10   5   9  ar  
 11   6  10  1   
 12   6  28  1   
 13   6  29  1   
 14   7  10  1   
 15   7  11  1   
 16   8  12  ar  
 17   8  30  1   
 18   9  13  ar  
 19   9  31  1   
 20  10  32  1   
 21  10  33  1   
 22  11  14  ar  
 23  11  15  ar  
 24  12  16  1   
 25  12  17  ar  
 26  13  17  ar  
 27  13  34  1   
 28  14  18  ar  
 29  15  19  ar  
 30  16  20  1   
 31  17  35  1   
 32  18  21  ar  
 33  18  22  1   
 34  19  21  ar  
 35  19  36  1   
 36  20  37  1   
 37  20  38  1   
 38  20  39  1   
 39  21  23  1   
 40  22  40  1   
 41  22  41  1   
 42  22  42  1   
 43  23  24  2   
 44  23  25  1   
 45  25  43  1   
 46  25  44  1   
 47  25  45  1   
@<TRIPOS>SUBSTRUCTURE
  1 ****   7 GROUP 4 **** **** 0

# MOE 2024.06 (io_trps.svl 2023.06)
