@<TRIPOS>MOLECULE
NONAME
58 60 1 0 0 
SMALL
USER_CHARGES


@<TRIPOS>ATOM
  1 O       -1.5680    -0.3340    -1.3980 O.3   1 <1>  -0.3630 
  2 C       -2.4360    -0.8090    -0.4730 C.ar  1 <1>   0.0830 
  3 C       -1.3970     1.0520    -1.6060 C.3   1 <1>   0.0400 
  4 C       -3.3220    -0.0130     0.2450 C.ar  1 <1>  -0.1500 
  5 C       -2.4160    -2.1790    -0.2660 C.ar  1 <1>  -0.1500 
  6 C       -4.1740    -0.5980     1.1740 C.ar  1 <1>   0.0830 
  7 C       -3.2740    -2.7700     0.6490 C.ar  1 <1>  -0.1430 
  8 O       -5.0850     0.0960     1.8980 O.3   1 <1>  -0.3630 
  9 C       -4.1310    -1.9650     1.3830 C.ar  1 <1>  -0.1500 
 10 C       -3.2850    -4.2740     0.8290 C.3   1 <1>   0.4860 
 11 C       -4.9040     1.4770     2.1340 C.3   1 <1>   0.0400 
 12 N       -3.8640    -4.9460    -0.3840 N.4   1 <1>  -0.9590 
 13 C       -5.3180    -4.7460    -0.6990 C.3   1 <1>   0.4230 
 14 C       -3.5530    -6.4060    -0.3350 C.3   1 <1>   0.2630 
 15 C       -5.5820    -3.4880    -1.5280 C.3   1 <1>  -0.1600 
 16 C       -6.2690    -4.6810     0.5020 C.3   1 <1>  -0.1600 
 17 C       -7.0320    -3.0850    -1.2280 C.3   1 <1>  -0.0800 
 18 C       -7.4620    -3.8270     0.0410 C.3   1 <1>  -0.0800 
 19 C       -7.2400    -1.5900    -0.9360 C.3   1 <1>  -0.1600 
 20 C       -7.9110    -2.7360     1.0300 C.3   1 <1>  -0.1600 
 21 C       -8.2890    -1.5190     0.1790 C.3   1 <1>   0.4230 
 22 N       -9.6750    -1.6570    -0.3760 N.4   1 <1>  -0.9590 
 23 C      -10.0320    -0.5410    -1.3120 C.3   1 <1>   0.2630 
 24 C      -10.7210    -1.7130     0.6980 C.3   1 <1>   0.2630 
 25 H       -0.6200     1.1860    -2.3380 H     1 <1>   0.0800 
 26 H       -1.1060     1.5130    -0.6790 H     1 <1>   0.0800 
 27 H       -2.3180     1.4680    -1.9730 H     1 <1>   0.0800 
 28 H       -3.3520     1.0450     0.0790 H     1 <1>   0.1500 
 29 H       -1.7160    -2.7610    -0.8390 H     1 <1>   0.1500 
 30 H       -4.7810    -2.3780     2.1320 H     1 <1>   0.1500 
 31 H       -3.8430    -4.5390     1.7110 H     1 <1>   0.0800 
 32 H       -2.2690    -4.6020     0.9740 H     1 <1>   0.0800 
 33 H       -5.6220     1.7900     2.8710 H     1 <1>   0.0800 
 34 H       -5.0640     2.0170     1.2180 H     1 <1>   0.0800 
 35 H       -3.9080     1.6420     2.5070 H     1 <1>   0.0800 
 36 H       -3.3540    -4.5390    -1.1800 H     1 <1>   0.4500 
 37 H       -5.6490    -5.5710    -1.3100 H     1 <1>   0.0800 
 38 H       -4.0690    -6.8720     0.4890 H     1 <1>   0.0800 
 39 H       -2.4930    -6.5620    -0.2110 H     1 <1>   0.0800 
 40 H       -3.8620    -6.8860    -1.2500 H     1 <1>   0.0800 
 41 H       -4.9170    -2.6900    -1.2700 H     1 <1>   0.0800 
 42 H       -5.4620    -3.6980    -2.5760 H     1 <1>   0.0800 
 43 H       -6.5980    -5.6690     0.7720 H     1 <1>   0.0800 
 44 H       -5.8140    -4.2310     1.3580 H     1 <1>   0.0800 
 45 H       -7.6690    -3.3910    -2.0430 H     1 <1>   0.0800 
 46 H       -8.2950    -4.4680    -0.1980 H     1 <1>   0.0800 
 47 H       -7.4800    -1.0300    -1.8200 H     1 <1>   0.0800 
 48 H       -6.3350    -1.1680    -0.5350 H     1 <1>   0.0800 
 49 H       -7.0810    -2.4330     1.6430 H     1 <1>   0.0800 
 50 H       -8.6810    -3.0790     1.6940 H     1 <1>   0.0800 
 51 H       -8.1990    -0.6030     0.7430 H     1 <1>   0.0800 
 52 H       -9.6990    -2.5410    -0.9010 H     1 <1>   0.4500 
 53 H       -9.9300     0.4110    -0.8160 H     1 <1>   0.0800 
 54 H      -11.0510    -0.6470    -1.6470 H     1 <1>   0.0800 
 55 H       -9.3930    -0.5480    -2.1790 H     1 <1>   0.0800 
 56 H      -10.6650    -0.8350     1.3210 H     1 <1>   0.0800 
 57 H      -10.5910    -2.5850     1.3160 H     1 <1>   0.0800 
 58 H      -11.7040    -1.7590     0.2580 H     1 <1>   0.0800 
@<TRIPOS>BOND
  1   1   2  1   
  2   1   3  1   
  3   2   4  ar  
  4   2   5  ar  
  5   3  25  1   
  6   3  26  1   
  7   3  27  1   
  8   4   6  ar  
  9   4  28  1   
 10   5   7  ar  
 11   5  29  1   
 12   6   8  1   
 13   6   9  ar  
 14   7   9  ar  
 15   7  10  1   
 16   8  11  1   
 17   9  30  1   
 18  10  12  1   
 19  10  31  1   
 20  10  32  1   
 21  11  33  1   
 22  11  34  1   
 23  11  35  1   
 24  12  13  1   
 25  12  14  1   
 26  12  36  1   
 27  13  15  1   
 28  13  16  1   
 29  13  37  1   
 30  14  38  1   
 31  14  39  1   
 32  14  40  1   
 33  15  17  1   
 34  15  41  1   
 35  15  42  1   
 36  16  18  1   
 37  16  43  1   
 38  16  44  1   
 39  17  18  1   
 40  17  19  1   
 41  17  45  1   
 42  18  20  1   
 43  18  46  1   
 44  19  21  1   
 45  19  47  1   
 46  19  48  1   
 47  20  21  1   
 48  20  49  1   
 49  20  50  1   
 50  21  22  1   
 51  21  51  1   
 52  22  23  1   
 53  22  24  1   
 54  22  52  1   
 55  23  53  1   
 56  23  54  1   
 57  23  55  1   
 58  24  56  1   
 59  24  57  1   
 60  24  58  1   
@<TRIPOS>SUBSTRUCTURE
  1 ****   9 GROUP 4 **** **** 0

# MOE 2024.06 (io_trps.svl 2023.06)
