@<TRIPOS>MOLECULE
NONAME
52 54 1 0 0 
SMALL
USER_CHARGES


@<TRIPOS>ATOM
  1 S       -0.3610     0.5600     0.9240 S.o2  1 <1>   1.3330 
  2 O       -1.0280     0.6570     2.2000 O.2   1 <1>  -0.6500 
  3 O        0.7720     1.3990     0.6150 O.2   1 <1>  -0.6500 
  4 N       -1.5310     0.8070    -0.3350 N.am  1 <1>  -0.6930 
  5 C        0.1160    -1.1300     0.6420 C.3   1 <1>  -0.1350 
  6 C       -2.7340     0.1170    -0.3890 C.ar  1 <1>   0.1990 
  7 C       -1.1480     1.7190    -1.4410 C.3   1 <1>   0.1160 
  8 C       -3.6420     0.1530     0.6640 C.ar  1 <1>  -0.1500 
  9 C       -3.0640    -0.6450    -1.5060 C.ar  1 <1>  -0.1500 
 10 C       -4.8300    -0.5490     0.6050 C.ar  1 <1>  -0.1500 
 11 C       -4.2550    -1.3420    -1.5650 C.ar  1 <1>  -0.1500 
 12 C       -5.1740    -1.3070    -0.5160 C.ar  1 <1>   0.0860 
 13 C       -6.4210    -2.0410    -0.5950 C.2   1 <1>   0.5440 
 14 O       -6.4080    -3.1970    -0.9770 O.2   1 <1>  -0.5700 
 15 N       -7.6320    -1.4680    -0.2640 N.am  1 <1>  -0.6600 
 16 C       -7.8400     0.0110    -0.2210 C.3   1 <1>   0.1400 
 17 C       -8.8450    -2.3280    -0.1140 C.3   1 <1>   0.1400 
 18 C       -9.2360     0.3520    -0.7370 C.3   1 <1>  -0.1600 
 19 C       -9.8990    -1.6240     0.7420 C.3   1 <1>  -0.1600 
 20 C      -10.3230    -0.2620     0.1620 C.3   1 <1>   0.4180 
 21 O      -10.5060     0.5730     1.2800 O.3   1 <1>  -0.5600 
 22 C      -11.6300    -0.4170    -0.6140 C.2   1 <1>  -0.2880 
 23 C      -11.3480     1.6850     1.1410 C.3   1 <1>   0.1200 
 24 C      -12.7560     0.2430    -0.3330 C.2   1 <1>  -0.2760 
 25 C      -12.7780     1.2480     0.8020 C.3   1 <1>  -0.0220 
 26 C      -14.0690     0.0610    -1.0730 C.3   1 <1>  -0.1020 
 27 H        0.8670    -1.4220     1.3490 H     1 <1>   0.0800 
 28 H        0.5110    -1.2430    -0.3480 H     1 <1>   0.0800 
 29 H       -0.7320    -1.7770     0.7540 H     1 <1>   0.0800 
 30 H       -0.8700     2.6780    -1.0360 H     1 <1>   0.0800 
 31 H       -1.9710     1.8570    -2.1200 H     1 <1>   0.0800 
 32 H       -0.3080     1.3120    -1.9760 H     1 <1>   0.0800 
 33 H       -3.4140     0.7390     1.5370 H     1 <1>   0.1500 
 34 H       -2.3760    -0.6950    -2.3300 H     1 <1>   0.1500 
 35 H       -5.5080    -0.5160     1.4400 H     1 <1>   0.1500 
 36 H       -4.4910    -1.9330    -2.4340 H     1 <1>   0.1500 
 37 H       -7.1040     0.5050    -0.8320 H     1 <1>   0.0800 
 38 H       -7.7360     0.3580     0.7940 H     1 <1>   0.0800 
 39 H       -8.5670    -3.2600     0.3490 H     1 <1>   0.0800 
 40 H       -9.2420    -2.5450    -1.0900 H     1 <1>   0.0800 
 41 H       -9.3260    -0.0400    -1.7340 H     1 <1>   0.0800 
 42 H       -9.3550     1.4150    -0.8050 H     1 <1>   0.0800 
 43 H       -9.4830    -1.4900     1.7240 H     1 <1>   0.0800 
 44 H      -10.7600    -2.2600     0.8410 H     1 <1>   0.0800 
 45 H      -11.5530    -1.1310    -1.4140 H     1 <1>   0.1500 
 46 H      -10.9580     2.3190     0.3660 H     1 <1>   0.0800 
 47 H      -11.3330     2.2260     2.0700 H     1 <1>   0.0800 
 48 H      -13.3430     2.1180     0.5200 H     1 <1>   0.0800 
 49 H      -13.2420     0.8110     1.6690 H     1 <1>   0.0800 
 50 H      -14.8350    -0.2640    -0.3910 H     1 <1>   0.0800 
 51 H      -13.9670    -0.6780    -1.8470 H     1 <1>   0.0800 
 52 H      -14.3740     0.9880    -1.5240 H     1 <1>   0.0800 
@<TRIPOS>BOND
  1   1   2  2   
  2   1   3  2   
  3   1   4  am  
  4   1   5  1   
  5   4   6  1   
  6   4   7  1   
  7   5  27  1   
  8   5  28  1   
  9   5  29  1   
 10   6   8  ar  
 11   6   9  ar  
 12   7  30  1   
 13   7  31  1   
 14   7  32  1   
 15   8  10  ar  
 16   8  33  1   
 17   9  11  ar  
 18   9  34  1   
 19  10  12  ar  
 20  10  35  1   
 21  11  12  ar  
 22  11  36  1   
 23  12  13  1   
 24  13  14  2   
 25  13  15  am  
 26  15  16  1   
 27  15  17  1   
 28  16  18  1   
 29  16  37  1   
 30  16  38  1   
 31  17  19  1   
 32  17  39  1   
 33  17  40  1   
 34  18  20  1   
 35  18  41  1   
 36  18  42  1   
 37  19  20  1   
 38  19  43  1   
 39  19  44  1   
 40  20  21  1   
 41  20  22  1   
 42  21  23  1   
 43  22  24  2   
 44  22  45  1   
 45  23  25  1   
 46  23  46  1   
 47  23  47  1   
 48  24  25  1   
 49  24  26  1   
 50  25  48  1   
 51  25  49  1   
 52  26  50  1   
 53  26  51  1   
 54  26  52  1   
@<TRIPOS>SUBSTRUCTURE
  1 ****  16 GROUP 4 **** **** 0

# MOE 2024.06 (io_trps.svl 2023.06)
