@<TRIPOS>MOLECULE
NONAME
46 49 1 0 0 
SMALL
USER_CHARGES


@<TRIPOS>ATOM
  1 F       -1.4710    -1.9560    -0.8750 F     1 <1>  -0.1900 
  2 C       -0.5120    -2.8050    -0.6190 C.ar  1 <1>   0.1900 
  3 C       -0.5800    -4.0720    -1.1620 C.ar  1 <1>  -0.1500 
  4 C        0.5360    -2.4050     0.1840 C.ar  1 <1>  -0.1500 
  5 C        0.4390    -4.9680    -0.8850 C.ar  1 <1>  -0.1500 
  6 C        1.5490    -3.3110     0.4530 C.ar  1 <1>  -0.1500 
  7 C        1.5080    -4.6000    -0.0720 C.ar  1 <1>  -0.1080 
  8 C        2.6500    -5.5690     0.2510 C.3   1 <1>   0.3330 
  9 N        2.2950    -7.0290     0.2010 N.am  1 <1>  -0.5100 
 10 C        2.8910    -5.7380     1.7700 C.3   1 <1>   0.0000 
 11 C        2.3980    -7.8300    -0.8930 C.2   1 <1>   0.5690 
 12 C        2.9440    -7.2580     1.5300 C.3   1 <1>   0.2250 
 13 O        2.4710    -7.3850    -2.0120 O.2   1 <1>  -0.5700 
 14 C        2.4070    -9.3390    -0.7190 C.3   1 <1>  -0.0990 
 15 C        1.0370    -9.8730    -0.2650 C.3   1 <1>  -0.1600 
 16 C        1.0360   -11.4040    -0.1350 C.3   1 <1>   0.0200 
 17 C       -0.3170   -11.9210     0.3150 C.2   1 <1>   0.2980 
 18 O       -0.7210   -11.6550     1.5300 O.3   1 <1>  -0.0190 
 19 N       -1.1190   -12.6070    -0.3880 N.2   1 <1>  -0.5650 
 20 N       -1.8840   -12.2180     1.6070 N.2   1 <1>  -0.4100 
 21 C       -2.1240   -12.7820     0.4760 C.2   1 <1>   0.4620 
 22 C       -3.3230   -13.5230     0.1380 C.ar  1 <1>   0.0540 
 23 C       -4.3590   -13.7220     1.0430 C.ar  1 <1>  -0.1500 
 24 C       -3.5340   -14.0920    -1.1110 C.ar  1 <1>  -0.1500 
 25 C       -5.4840   -14.4350     0.6770 C.ar  1 <1>   0.1600 
 26 C       -4.6970   -14.7880    -1.3800 C.ar  1 <1>   0.1600 
 27 N       -5.6790   -14.9750    -0.5140 N.ar  1 <1>  -0.6200 
 28 H       -1.4090    -4.3490    -1.7880 H     1 <1>   0.1500 
 29 H        0.5570    -1.4080     0.5860 H     1 <1>   0.1500 
 30 H        0.3930    -5.9530    -1.3150 H     1 <1>   0.1500 
 31 H        2.3730    -3.0050     1.0740 H     1 <1>   0.1500 
 32 H        3.5550    -5.3740    -0.2980 H     1 <1>   0.0000 
 33 H        2.0510    -5.4500     2.3790 H     1 <1>   0.0000 
 34 H        3.8210    -5.3200     2.1120 H     1 <1>   0.0000 
 35 H        3.9420    -7.6450     1.4180 H     1 <1>   0.0000 
 36 H        2.3170    -7.8260     2.1930 H     1 <1>   0.0000 
 37 H        3.1660    -9.6080    -0.0080 H     1 <1>   0.0800 
 38 H        2.6700    -9.7840    -1.6620 H     1 <1>   0.0800 
 39 H        0.2890    -9.5810    -0.9830 H     1 <1>   0.0800 
 40 H        0.7740    -9.4330     0.6810 H     1 <1>   0.0800 
 41 H        1.7780   -11.7170     0.5760 H     1 <1>   0.0800 
 42 H        1.2750   -11.8480    -1.0860 H     1 <1>   0.0800 
 43 H       -4.2870   -13.3190     2.0370 H     1 <1>   0.1500 
 44 H       -2.7880   -13.9910    -1.8790 H     1 <1>   0.1500 
 45 H       -6.2680   -14.5710     1.4030 H     1 <1>   0.1500 
 46 H       -4.8280   -15.2170    -2.3590 H     1 <1>   0.1500 
@<TRIPOS>BOND
  1   1   2  1   
  2   2   3  ar  
  3   2   4  ar  
  4   3   5  ar  
  5   3  28  1   
  6   4   6  ar  
  7   4  29  1   
  8   5   7  ar  
  9   5  30  1   
 10   6   7  ar  
 11   6  31  1   
 12   7   8  1   
 13   8   9  1   
 14   8  10  1   
 15   8  32  1   
 16   9  11  am  
 17   9  12  1   
 18  10  12  1   
 19  10  33  1   
 20  10  34  1   
 21  11  13  2   
 22  11  14  1   
 23  12  35  1   
 24  12  36  1   
 25  14  15  1   
 26  14  37  1   
 27  14  38  1   
 28  15  16  1   
 29  15  39  1   
 30  15  40  1   
 31  16  17  1   
 32  16  41  1   
 33  16  42  1   
 34  17  18  1   
 35  17  19  2   
 36  18  20  1   
 37  19  21  1   
 38  20  21  2   
 39  21  22  1   
 40  22  23  ar  
 41  22  24  ar  
 42  23  25  ar  
 43  23  43  1   
 44  24  26  ar  
 45  24  44  1   
 46  25  27  ar  
 47  25  45  1   
 48  26  27  ar  
 49  26  46  1   
@<TRIPOS>SUBSTRUCTURE
  1 ****  15 GROUP 4 **** **** 0

# MOE 2024.06 (io_trps.svl 2023.06)
