@<TRIPOS>MOLECULE
NONAME
45 47 1 0 0 
SMALL
USER_CHARGES


@<TRIPOS>ATOM
  1 O       -0.9430    -0.2310    -0.8880 O.2   1 <1>  -0.5700 
  2 C       -2.1550    -0.3400    -0.8360 C.2   1 <1>   0.5410 
  3 C       -2.8030    -1.5980    -0.7830 C.2   1 <1>  -0.1360 
  4 C       -3.0100     0.7940    -0.8170 C.2   1 <1>  -0.1360 
  5 C       -4.1600    -1.7070    -0.7070 C.2   1 <1>   0.0910 
  6 C       -4.3520     0.6400    -0.7500 C.2   1 <1>  -0.0620 
  7 O       -4.8990    -0.5780    -0.7000 O.3   1 <1>  -0.1530 
  8 C       -4.8780    -2.9690    -0.6640 C.2   1 <1>   0.6160 
  9 C       -5.3580     1.7730    -0.7270 C.3   1 <1>  -0.1020 
 10 O       -4.3740    -3.9320    -1.2120 O.2   1 <1>  -0.5700 
 11 N       -6.0950    -3.1420    -0.0260 N.am  1 <1>  -0.6600 
 12 C       -6.9250    -4.3620    -0.2890 C.3   1 <1>   0.1400 
 13 C       -6.5550    -2.2690     1.0920 C.3   1 <1>   0.1400 
 14 C       -8.3980    -4.0340    -0.5780 C.3   1 <1>   0.1400 
 15 C       -7.7300    -1.4010     0.6260 C.3   1 <1>  -0.1600 
 16 N       -9.1060    -3.5290     0.6430 N.am  1 <1>  -0.6600 
 17 C       -9.1100    -2.0460     0.8200 C.3   1 <1>   0.1400 
 18 C       -9.7900    -4.3370     1.5250 C.2   1 <1>   0.5690 
 19 O      -10.4000    -3.8770     2.4630 O.2   1 <1>  -0.5700 
 20 C       -9.7960    -5.8460     1.4000 C.3   1 <1>   0.1570 
 21 N      -10.7580    -6.2660     0.3750 N.pl3 1 <1>   0.3140 
 22 N      -10.3810    -7.0130    -0.6820 N.2   1 <1>  -0.7070 
 23 C      -12.0810    -6.0050     0.3390 C.2   1 <1>  -0.3020 
 24 C      -11.4720    -7.2070    -1.3600 C.2   1 <1>   0.1390 
 25 C      -12.5720    -6.5970    -0.7700 C.2   1 <1>  -0.1500 
 26 H       -2.1680    -2.4640    -0.8100 H     1 <1>   0.1500 
 27 H       -2.5280     1.7520    -0.8600 H     1 <1>   0.1500 
 28 H       -6.0230     1.6890    -1.5680 H     1 <1>   0.0800 
 29 H       -4.8600     2.7250    -0.7770 H     1 <1>   0.0800 
 30 H       -5.9360     1.7330     0.1780 H     1 <1>   0.0800 
 31 H       -6.8550    -5.0280     0.5530 H     1 <1>   0.0800 
 32 H       -6.5370    -4.8870    -1.1450 H     1 <1>   0.0800 
 33 H       -5.7470    -1.6370     1.4160 H     1 <1>   0.0800 
 34 H       -6.8430    -2.8730     1.9360 H     1 <1>   0.0800 
 35 H       -8.8830    -4.9190    -0.9460 H     1 <1>   0.0800 
 36 H       -8.4530    -3.3030    -1.3650 H     1 <1>   0.0800 
 37 H       -7.5960    -1.1280    -0.4050 H     1 <1>   0.0800 
 38 H       -7.7220    -0.4860     1.1900 H     1 <1>   0.0800 
 39 H       -9.8120    -1.6120     0.1290 H     1 <1>   0.0800 
 40 H       -9.4510    -1.8070     1.8130 H     1 <1>   0.0800 
 41 H      -10.0850    -6.2830     2.3350 H     1 <1>   0.0800 
 42 H       -8.8210    -6.2060     1.1370 H     1 <1>   0.0800 
 43 H      -12.5850    -5.4230     1.0900 H     1 <1>   0.1500 
 44 H      -11.5100    -7.7760    -2.2740 H     1 <1>   0.1500 
 45 H      -13.5820    -6.6130    -1.1390 H     1 <1>   0.1500 
@<TRIPOS>BOND
  1   1   2  2   
  2   2   3  1   
  3   2   4  1   
  4   3   5  2   
  5   3  26  1   
  6   4   6  2   
  7   4  27  1   
  8   5   7  1   
  9   5   8  1   
 10   6   7  1   
 11   6   9  1   
 12   8  10  2   
 13   8  11  am  
 14   9  28  1   
 15   9  29  1   
 16   9  30  1   
 17  11  12  1   
 18  11  13  1   
 19  12  14  1   
 20  12  31  1   
 21  12  32  1   
 22  13  15  1   
 23  13  33  1   
 24  13  34  1   
 25  14  16  1   
 26  14  35  1   
 27  14  36  1   
 28  15  17  1   
 29  15  37  1   
 30  15  38  1   
 31  16  17  1   
 32  16  18  am  
 33  17  39  1   
 34  17  40  1   
 35  18  19  2   
 36  18  20  1   
 37  20  21  1   
 38  20  41  1   
 39  20  42  1   
 40  21  22  1   
 41  21  23  1   
 42  22  24  2   
 43  23  25  2   
 44  23  43  1   
 45  24  25  1   
 46  24  44  1   
 47  25  45  1   
@<TRIPOS>SUBSTRUCTURE
  1 ****  11 GROUP 4 **** **** 0

# MOE 2024.06 (io_trps.svl 2023.06)
