@<TRIPOS>MOLECULE
NONAME
47 49 1 0 0 
SMALL
USER_CHARGES


@<TRIPOS>ATOM
  1 O       -0.3830     0.4840     0.5860 O.2   1 <1>  -0.5700 
  2 C       -1.4660     1.0370     0.5550 C.2   1 <1>   0.5440 
  3 N       -2.5950     0.2630     0.4130 N.am  1 <1>  -0.6600 
  4 C       -1.5390     2.4850     0.6410 C.ar  1 <1>   0.0860 
  5 C       -3.8920     0.7520    -0.1220 C.3   1 <1>   0.1400 
  6 C       -2.5310    -1.2190     0.3440 C.3   1 <1>   0.1400 
  7 C       -0.6860     3.2820    -0.1180 C.ar  1 <1>  -0.1500 
  8 C       -2.4500     3.1270     1.4780 C.ar  1 <1>  -0.1500 
  9 C       -4.5210    -0.4690    -0.7900 C.3   1 <1>   0.2000 
 10 C       -3.9380    -1.6700    -0.0520 C.3   1 <1>  -0.0800 
 11 C       -0.7480     4.6710    -0.0650 C.ar  1 <1>   0.0830 
 12 C       -2.5240     4.5060     1.5380 C.ar  1 <1>  -0.1500 
 13 O       -5.9020    -0.4590    -0.6790 O.3   1 <1>  -0.6800 
 14 C       -3.9570    -2.9620    -0.8830 C.3   1 <1>   0.0210 
 15 O        0.0710     5.4720    -0.7960 O.3   1 <1>  -0.3630 
 16 C       -1.6790     5.2860     0.7660 C.ar  1 <1>  -0.1430 
 17 C       -3.2880    -4.0970    -0.1330 C.2   1 <1>   0.1080 
 18 C        1.1230     4.9430    -1.5730 C.3   1 <1>   0.0400 
 19 C       -1.7710     6.8040     0.8390 C.3   1 <1>  -0.0970 
 20 N       -3.7470    -4.5680     0.9840 N.2   1 <1>  -0.7070 
 21 C       -2.1240    -4.7410    -0.5380 C.2   1 <1>  -0.1500 
 22 N       -2.8800    -5.5400     1.3250 N.pl3 1 <1>   0.3000 
 23 C       -1.8860    -5.6620     0.4190 C.2   1 <1>  -0.3320 
 24 C       -0.7530    -6.6660     0.5270 C.3   1 <1>  -0.0600 
 25 H       -4.5040     1.0930     0.6940 H     1 <1>   0.0800 
 26 H       -3.7400     1.5440    -0.8350 H     1 <1>   0.0800 
 27 H       -1.8080    -1.5050    -0.4010 H     1 <1>   0.0800 
 28 H       -2.2390    -1.6330     1.2950 H     1 <1>   0.0800 
 29 H        0.0240     2.7800    -0.7470 H     1 <1>   0.1500 
 30 H       -3.1020     2.5330     2.0930 H     1 <1>   0.1500 
 31 H       -4.2620    -0.4830    -1.8360 H     1 <1>   0.0800 
 32 H       -4.4830    -1.8330     0.8610 H     1 <1>   0.0800 
 33 H       -3.2410     4.9700     2.1920 H     1 <1>   0.1500 
 34 H       -6.1680    -0.6330     0.2450 H     1 <1>   0.4000 
 35 H       -3.4550    -2.8080    -1.8210 H     1 <1>   0.0800 
 36 H       -4.9750    -3.2400    -1.0900 H     1 <1>   0.0800 
 37 H        1.6600     5.7640    -2.0110 H     1 <1>   0.0800 
 38 H        0.7090     4.3220    -2.3470 H     1 <1>   0.0800 
 39 H        1.7790     4.3780    -0.9340 H     1 <1>   0.0800 
 40 H       -2.5420     7.1170     1.5190 H     1 <1>   0.0800 
 41 H       -1.9880     7.2020    -0.1360 H     1 <1>   0.0800 
 42 H       -0.8320     7.2080     1.1740 H     1 <1>   0.0800 
 43 H       -1.5550    -4.5300    -1.4250 H     1 <1>   0.1500 
 44 H       -2.9930    -6.0980     2.1790 H     1 <1>   0.2700 
 45 H       -0.0910    -6.5670    -0.3150 H     1 <1>   0.0800 
 46 H       -1.1440    -7.6680     0.5390 H     1 <1>   0.0800 
 47 H       -0.1900    -6.4960     1.4270 H     1 <1>   0.0800 
@<TRIPOS>BOND
  1   1   2  2   
  2   2   3  am  
  3   2   4  1   
  4   3   5  1   
  5   3   6  1   
  6   4   7  ar  
  7   4   8  ar  
  8   5   9  1   
  9   5  25  1   
 10   5  26  1   
 11   6  10  1   
 12   6  27  1   
 13   6  28  1   
 14   7  11  ar  
 15   7  29  1   
 16   8  12  ar  
 17   8  30  1   
 18   9  10  1   
 19   9  13  1   
 20   9  31  1   
 21  10  14  1   
 22  10  32  1   
 23  11  15  1   
 24  11  16  ar  
 25  12  16  ar  
 26  12  33  1   
 27  13  34  1   
 28  14  17  1   
 29  14  35  1   
 30  14  36  1   
 31  15  18  1   
 32  16  19  1   
 33  17  20  2   
 34  17  21  1   
 35  18  37  1   
 36  18  38  1   
 37  18  39  1   
 38  19  40  1   
 39  19  41  1   
 40  19  42  1   
 41  20  22  1   
 42  21  23  2   
 43  21  43  1   
 44  22  23  1   
 45  22  44  1   
 46  23  24  1   
 47  24  45  1   
 48  24  46  1   
 49  24  47  1   
@<TRIPOS>SUBSTRUCTURE
  1 ****   3 GROUP 4 **** **** 0

# MOE 2024.06 (io_trps.svl 2023.06)
