@<TRIPOS>MOLECULE
NONAME
41 42 1 0 0 
SMALL
USER_CHARGES


@<TRIPOS>ATOM
  1 CL      -1.5870    -1.0900     1.6510 Cl    1 <1>  -0.1770 
  2 C       -2.6180     0.0600     0.8320 C.ar  1 <1>   0.1770 
  3 C       -3.3870    -0.3160    -0.2770 C.ar  1 <1>   0.0860 
  4 C       -2.6190     1.3520     1.3350 C.ar  1 <1>  -0.1500 
  5 C       -3.4210    -1.6600    -0.8200 C.2   1 <1>   0.5440 
  6 C       -4.1560     0.6830    -0.8780 C.ar  1 <1>  -0.1500 
  7 C       -3.3960     2.3250     0.7310 C.ar  1 <1>  -0.1500 
  8 O       -3.4900    -1.8300    -2.0200 O.2   1 <1>  -0.5700 
  9 N       -3.4380    -2.7620    -0.0190 N.am  1 <1>  -0.7300 
 10 C       -4.1500     1.9660    -0.3690 C.ar  1 <1>   0.1900 
 11 C       -3.3550    -4.1670    -0.4870 C.3   1 <1>   0.2200 
 12 F       -4.8850     2.8750    -0.9470 F     1 <1>  -0.1900 
 13 C       -4.7150    -4.8440    -0.4130 C.3   1 <1>  -0.0800 
 14 C       -2.5800    -4.9800     0.5390 C.3   1 <1>   0.1200 
 15 C       -4.7910    -5.2910     1.0530 C.3   1 <1>   0.1200 
 16 C       -5.8960    -3.9760    -0.8980 C.3   1 <1>  -0.0550 
 17 O       -3.4910    -5.2250     1.5660 O.3   1 <1>  -0.5600 
 18 S       -7.4520    -4.8560    -1.0370 S.o2  1 <1>   1.3330 
 19 O       -7.2020    -6.0980    -1.7350 O.2   1 <1>  -0.6500 
 20 O       -8.4700    -3.9530    -1.5260 O.2   1 <1>  -0.6500 
 21 N       -7.8530    -5.2380     0.5710 N.am  1 <1>  -0.8490 
 22 C       -8.4800    -4.1240     1.2920 C.3   1 <1>   0.1160 
 23 C       -8.7060    -6.4260     0.6590 C.3   1 <1>   0.1160 
 24 H       -2.0120     1.5930     2.1910 H     1 <1>   0.1500 
 25 H       -4.7570     0.4560    -1.7420 H     1 <1>   0.1500 
 26 H       -3.4180     3.3370     1.0980 H     1 <1>   0.1500 
 27 H       -3.3400    -2.6660     0.9970 H     1 <1>   0.3700 
 28 H       -2.9150    -4.2180    -1.4690 H     1 <1>   0.0800 
 29 H       -4.6720    -5.7310    -1.0210 H     1 <1>   0.0800 
 30 H       -1.7220    -4.4590     0.9270 H     1 <1>   0.0800 
 31 H       -2.2800    -5.9290     0.1280 H     1 <1>   0.0800 
 32 H       -5.1540    -6.3010     1.1440 H     1 <1>   0.0800 
 33 H       -5.4030    -4.6310     1.6420 H     1 <1>   0.0800 
 34 H       -5.6440    -3.5900    -1.8680 H     1 <1>   0.0800 
 35 H       -6.0210    -3.1350    -0.2460 H     1 <1>   0.0800 
 36 H       -8.6300    -4.3910     2.3250 H     1 <1>   0.0800 
 37 H       -9.4320    -3.8780     0.8520 H     1 <1>   0.0800 
 38 H       -7.8480    -3.2540     1.2550 H     1 <1>   0.0800 
 39 H       -8.9330    -6.6490     1.6880 H     1 <1>   0.0800 
 40 H       -8.1980    -7.2780     0.2360 H     1 <1>   0.0800 
 41 H       -9.6250    -6.2690     0.1180 H     1 <1>   0.0800 
@<TRIPOS>BOND
  1   1   2  1   
  2   2   3  ar  
  3   2   4  ar  
  4   3   5  1   
  5   3   6  ar  
  6   4   7  ar  
  7   4  24  1   
  8   5   8  2   
  9   5   9  am  
 10   6  10  ar  
 11   6  25  1   
 12   7  10  ar  
 13   7  26  1   
 14   9  11  1   
 15   9  27  1   
 16  10  12  1   
 17  11  13  1   
 18  11  14  1   
 19  11  28  1   
 20  13  15  1   
 21  13  16  1   
 22  13  29  1   
 23  14  17  1   
 24  14  30  1   
 25  14  31  1   
 26  15  17  1   
 27  15  32  1   
 28  15  33  1   
 29  16  18  1   
 30  16  34  1   
 31  16  35  1   
 32  18  19  2   
 33  18  20  2   
 34  18  21  am  
 35  21  22  1   
 36  21  23  1   
 37  22  36  1   
 38  22  37  1   
 39  22  38  1   
 40  23  39  1   
 41  23  40  1   
 42  23  41  1   
@<TRIPOS>SUBSTRUCTURE
  1 ****   9 GROUP 4 **** **** 0

# MOE 2024.06 (io_trps.svl 2023.06)
