@<TRIPOS>MOLECULE
NONAME
53 56 1 0 0 
SMALL
USER_CHARGES


@<TRIPOS>ATOM
  1 F        2.2070     0.8760     0.7410 F     1 <1>  -0.1900 
  2 C        2.8130    -0.2320     0.4100 C.ar  1 <1>   0.1900 
  3 C        2.1520    -1.1550    -0.3960 C.ar  1 <1>   0.0860 
  4 C        4.0870    -0.4300     0.9020 C.ar  1 <1>  -0.1500 
  5 C        2.8340    -2.3420    -0.6890 C.ar  1 <1>   0.0830 
  6 C        0.8280    -0.8840    -0.8960 C.2   1 <1>   0.5440 
  7 C        4.7480    -1.6050     0.5910 C.ar  1 <1>  -0.1500 
  8 O        2.1920    -3.2610    -1.4510 O.3   1 <1>  -0.3630 
  9 C        4.1230    -2.5550    -0.1990 C.ar  1 <1>  -0.1500 
 10 O        0.6920    -0.1000    -1.8190 O.2   1 <1>  -0.5700 
 11 N       -0.2950    -1.4610    -0.3350 N.am  1 <1>  -0.6600 
 12 C        2.8230    -4.4220    -1.9440 C.3   1 <1>   0.0400 
 13 C       -1.6730    -1.1630    -0.8370 C.3   1 <1>   0.1400 
 14 C       -0.2750    -2.3070     0.8870 C.3   1 <1>   0.1400 
 15 C       -2.4920    -0.4290     0.2410 C.3   1 <1>   0.1440 
 16 C       -1.0610    -1.6050     2.0020 C.3   1 <1>  -0.1600 
 17 C       -3.8920    -0.1980    -0.2970 C.ar  1 <1>   0.1670 
 18 C       -2.4900    -1.2490     1.5520 C.3   1 <1>  -0.1600 
 19 C       -1.9770     1.0200     0.4540 C.3   1 <1>  -0.1600 
 20 N       -4.8220    -1.1130    -0.4160 N.ar  1 <1>  -0.6200 
 21 C       -4.0740     1.0990    -0.6690 C.ar  1 <1>  -0.1430 
 22 C       -2.8360     1.9300    -0.4390 C.3   1 <1>  -0.0170 
 23 C       -5.9800    -0.6850    -0.9250 C.ar  1 <1>   0.7200 
 24 C       -5.2970     1.4480    -1.1830 C.ar  1 <1>   0.1600 
 25 N       -6.2580     0.5640    -1.3150 N.ar  1 <1>  -0.6200 
 26 N       -6.9850    -1.6230    -1.0630 N.pl3 1 <1>  -0.8380 
 27 C       -6.9170    -2.9580    -0.4080 C.3   1 <1>   0.1290 
 28 C       -8.2040    -1.3600    -1.8770 C.3   1 <1>   0.1290 
 29 H        4.5510     0.3210     1.5160 H     1 <1>   0.1500 
 30 H        5.7440    -1.7780     0.9620 H     1 <1>   0.1500 
 31 H        4.6580    -3.4600    -0.4200 H     1 <1>   0.1500 
 32 H        2.1210    -4.9410    -2.5710 H     1 <1>   0.0800 
 33 H        3.1040    -5.0470    -1.1150 H     1 <1>   0.0800 
 34 H        3.6840    -4.1340    -2.5220 H     1 <1>   0.0800 
 35 H       -2.1600    -2.0900    -1.0850 H     1 <1>   0.0800 
 36 H       -1.6370    -0.5690    -1.7330 H     1 <1>   0.0800 
 37 H        0.7310    -2.4950     1.2150 H     1 <1>   0.0800 
 38 H       -0.7310    -3.2560     0.6580 H     1 <1>   0.0800 
 39 H       -0.5330    -0.7130     2.2900 H     1 <1>   0.0800 
 40 H       -1.1060    -2.2500     2.8610 H     1 <1>   0.0800 
 41 H       -3.0350    -2.1630     1.3860 H     1 <1>   0.0800 
 42 H       -3.0020    -0.7080     2.3270 H     1 <1>   0.0800 
 43 H       -0.9300     1.1260     0.2320 H     1 <1>   0.0800 
 44 H       -2.1350     1.3100     1.4780 H     1 <1>   0.0800 
 45 H       -2.3410     2.1100    -1.3780 H     1 <1>   0.0800 
 46 H       -3.0610     2.8640     0.0450 H     1 <1>   0.0800 
 47 H       -5.4890     2.4610    -1.4910 H     1 <1>   0.1500 
 48 H       -6.3450    -2.9020     0.5020 H     1 <1>   0.0800 
 49 H       -6.4470    -3.6600    -1.0740 H     1 <1>   0.0800 
 50 H       -7.9060    -3.3030    -0.1650 H     1 <1>   0.0800 
 51 H       -7.9830    -0.6750    -2.6780 H     1 <1>   0.0800 
 52 H       -8.9670    -0.9310    -1.2510 H     1 <1>   0.0800 
 53 H       -8.5680    -2.2760    -2.3070 H     1 <1>   0.0800 
@<TRIPOS>BOND
  1   1   2  1   
  2   2   3  ar  
  3   2   4  ar  
  4   3   5  ar  
  5   3   6  1   
  6   4   7  ar  
  7   4  29  1   
  8   5   8  1   
  9   5   9  ar  
 10   6  10  2   
 11   6  11  am  
 12   7   9  ar  
 13   7  30  1   
 14   8  12  1   
 15   9  31  1   
 16  11  13  1   
 17  11  14  1   
 18  12  32  1   
 19  12  33  1   
 20  12  34  1   
 21  13  15  1   
 22  13  35  1   
 23  13  36  1   
 24  14  16  1   
 25  14  37  1   
 26  14  38  1   
 27  15  17  1   
 28  15  18  1   
 29  15  19  1   
 30  16  18  1   
 31  16  39  1   
 32  16  40  1   
 33  17  20  ar  
 34  17  21  ar  
 35  18  41  1   
 36  18  42  1   
 37  19  22  1   
 38  19  43  1   
 39  19  44  1   
 40  20  23  ar  
 41  21  22  1   
 42  21  24  ar  
 43  22  45  1   
 44  22  46  1   
 45  23  25  ar  
 46  23  26  1   
 47  24  25  ar  
 48  24  47  1   
 49  26  27  1   
 50  26  28  1   
 51  27  48  1   
 52  27  49  1   
 53  27  50  1   
 54  28  51  1   
 55  28  52  1   
 56  28  53  1   
@<TRIPOS>SUBSTRUCTURE
  1 ****  13 GROUP 4 **** **** 0

# MOE 2024.06 (io_trps.svl 2023.06)
