@<TRIPOS>MOLECULE
NONAME
44 47 1 0 0 
SMALL
USER_CHARGES


@<TRIPOS>ATOM
  1 S        0.0830     0.1900    -1.2700 S.3   1 <1>  -0.0800 
  2 C        0.4630     1.6950    -0.4250 C.ar  1 <1>   0.0400 
  3 C        0.9570    -0.7710    -0.0710 C.2   1 <1>  -0.1400 
  4 C        1.2240     1.4260     0.7030 C.ar  1 <1>   0.0000 
  5 C        0.0800     2.9700    -0.7960 C.ar  1 <1>  -0.1500 
  6 C        1.4910     0.0240     0.8750 C.2   1 <1>  -0.1500 
  7 C        0.9930    -2.2690    -0.2760 C.3   1 <1>   0.5230 
  8 C        1.6170     2.5000     1.4960 C.ar  1 <1>  -0.1500 
  9 C        0.4800     4.0240     0.0060 C.ar  1 <1>  -0.1500 
 10 N       -0.2500    -2.8630     0.2900 N.4   1 <1>  -0.9590 
 11 C        1.2450     3.7870     1.1450 C.ar  1 <1>  -0.1500 
 12 C       -1.4820    -2.5530    -0.5040 C.3   1 <1>   0.3430 
 13 C       -0.1750    -4.3500     0.4300 C.3   1 <1>   0.3430 
 14 C       -2.4110    -3.7500    -0.2960 C.3   1 <1>   0.2000 
 15 C       -1.4430    -4.9290    -0.2120 C.3   1 <1>  -0.0800 
 16 O       -3.1030    -3.6020     0.9010 O.3   1 <1>  -0.6800 
 17 C       -1.9830    -6.1940     0.4880 C.3   1 <1>   0.0200 
 18 C       -0.9370    -7.2920     0.4860 C.2   1 <1>  -0.0400 
 19 O        0.1720    -7.1330     1.1570 O.3   1 <1>  -0.0190 
 20 C       -0.8890    -8.4940    -0.1070 C.2   1 <1>  -0.1500 
 21 N        0.9680    -8.1500     1.0290 N.2   1 <1>  -0.4100 
 22 C        0.3520    -8.9930     0.2790 C.2   1 <1>   0.1080 
 23 C        0.9090   -10.3410    -0.1230 C.3   1 <1>  -0.0590 
 24 H       -0.5090     3.1330    -1.6810 H     1 <1>   0.1500 
 25 H        2.0820    -0.2940     1.7160 H     1 <1>   0.1500 
 26 H        1.8510    -2.6670     0.2420 H     1 <1>   0.0800 
 27 H        1.0890    -2.5010    -1.3250 H     1 <1>   0.0800 
 28 H        2.2090     2.3280     2.3770 H     1 <1>   0.1500 
 29 H        0.2020     5.0330    -0.2500 H     1 <1>   0.1500 
 30 H       -0.3700    -2.4390     1.2200 H     1 <1>   0.4500 
 31 H        1.5490     4.6180     1.7590 H     1 <1>   0.1500 
 32 H       -1.9490    -1.6320    -0.1920 H     1 <1>   0.0800 
 33 H       -1.2320    -2.4840    -1.5500 H     1 <1>   0.0800 
 34 H        0.7000    -4.7530    -0.0570 H     1 <1>   0.0800 
 35 H       -0.1370    -4.6170     1.4740 H     1 <1>   0.0800 
 36 H       -3.1340    -3.8490    -1.0890 H     1 <1>   0.0800 
 37 H       -1.1830    -5.2060    -1.2190 H     1 <1>   0.0800 
 38 H       -2.5270    -3.6130     1.6880 H     1 <1>   0.4000 
 39 H       -2.8620    -6.5430    -0.0260 H     1 <1>   0.0800 
 40 H       -2.2600    -5.9890     1.5080 H     1 <1>   0.0800 
 41 H       -1.6070    -8.9890    -0.7360 H     1 <1>   0.1500 
 42 H        0.2480   -11.1220     0.2060 H     1 <1>   0.0800 
 43 H        1.8740   -10.4910     0.3280 H     1 <1>   0.0800 
 44 H        1.0140   -10.3910    -1.1910 H     1 <1>   0.0800 
@<TRIPOS>BOND
  1   1   2  1   
  2   1   3  1   
  3   2   4  ar  
  4   2   5  ar  
  5   3   6  2   
  6   3   7  1   
  7   4   6  1   
  8   4   8  ar  
  9   5   9  ar  
 10   5  24  1   
 11   6  25  1   
 12   7  10  1   
 13   7  26  1   
 14   7  27  1   
 15   8  11  ar  
 16   8  28  1   
 17   9  11  ar  
 18   9  29  1   
 19  10  12  1   
 20  10  13  1   
 21  10  30  1   
 22  11  31  1   
 23  12  14  1   
 24  12  32  1   
 25  12  33  1   
 26  13  15  1   
 27  13  34  1   
 28  13  35  1   
 29  14  15  1   
 30  14  16  1   
 31  14  36  1   
 32  15  17  1   
 33  15  37  1   
 34  16  38  1   
 35  17  18  1   
 36  17  39  1   
 37  17  40  1   
 38  18  19  1   
 39  18  20  2   
 40  19  21  1   
 41  20  22  1   
 42  20  41  1   
 43  21  22  2   
 44  22  23  1   
 45  23  42  1   
 46  23  43  1   
 47  23  44  1   
@<TRIPOS>SUBSTRUCTURE
  1 ****  10 GROUP 4 **** **** 0

# MOE 2024.06 (io_trps.svl 2023.06)
