@<TRIPOS>MOLECULE
NONAME
59 62 1 0 0 
SMALL
USER_CHARGES


@<TRIPOS>ATOM
  1 O        1.6050    -0.0990     2.4120 O.2   1 <1>  -0.5700 
  2 C        1.7670    -1.0110     1.6370 C.2   1 <1>   0.5690 
  3 N        2.6810    -0.9060     0.6210 N.am  1 <1>  -0.6600 
  4 C        0.8860    -2.2300     1.8720 C.3   1 <1>  -0.0990 
  5 C        2.8410    -1.9040    -0.4780 C.3   1 <1>   0.1400 
  6 C        3.6140     0.2760     0.5370 C.3   1 <1>   0.2010 
  7 C        1.1460    -3.5000     1.0590 C.3   1 <1>   0.1200 
  8 C        3.3010    -3.3010     0.0140 C.3   1 <1>   0.2800 
  9 C        3.4610     1.0930    -0.7500 C.2   1 <1>   0.5690 
 10 O        2.5090    -3.7920     1.0660 O.3   1 <1>  -0.5600 
 11 C        4.7320    -3.2100     0.5740 C.3   1 <1>  -0.1600 
 12 C        3.2450    -4.3210    -1.1400 C.3   1 <1>  -0.1600 
 13 O        4.3020     0.9250    -1.6060 O.2   1 <1>  -0.5700 
 14 N        2.4070     1.9600    -0.9270 N.am  1 <1>  -0.6600 
 15 C        5.3020    -4.5830     0.9310 C.3   1 <1>   0.1400 
 16 C        3.8440    -5.6740    -0.7500 C.3   1 <1>   0.1400 
 17 C        2.2270     2.7330    -2.1880 C.3   1 <1>   0.0600 
 18 C        1.3300     2.1540     0.0840 C.3   1 <1>   0.0600 
 19 N        5.2330    -5.4560    -0.2700 N.am  1 <1>  -0.6600 
 20 C        6.3150    -6.1000    -0.8330 C.2   1 <1>   0.5440 
 21 O        6.1200    -7.0450    -1.5730 O.2   1 <1>  -0.5700 
 22 C        7.6740    -5.6870    -0.5690 C.ar  1 <1>   0.0860 
 23 C        8.6170    -6.6460    -0.1500 C.ar  1 <1>   0.1600 
 24 C        8.1110    -4.3940    -0.7110 C.ar  1 <1>  -0.1500 
 25 N        9.8600    -6.4030     0.1440 N.ar  1 <1>  -0.6200 
 26 C        9.4440    -4.0780    -0.4110 C.ar  1 <1>   0.0000 
 27 C       10.2910    -5.1210     0.0220 C.ar  1 <1>   0.3100 
 28 C        9.9670    -2.7730    -0.5190 C.ar  1 <1>  -0.1500 
 29 C       11.6240    -4.8160     0.3340 C.ar  1 <1>  -0.1500 
 30 C       11.2740    -2.5090    -0.2080 C.ar  1 <1>  -0.1500 
 31 C       12.1130    -3.5410     0.2240 C.ar  1 <1>  -0.1500 
 32 H       -0.1330    -1.9320     1.7200 H     1 <1>   0.0800 
 33 H        0.9800    -2.4880     2.9110 H     1 <1>   0.0800 
 34 H        3.5680    -1.5490    -1.1870 H     1 <1>   0.0800 
 35 H        1.9150    -1.9800    -1.0190 H     1 <1>   0.0800 
 36 H        4.6240    -0.0860     0.5830 H     1 <1>   0.0800 
 37 H        3.4820     0.9290     1.3800 H     1 <1>   0.0800 
 38 H        0.7820    -3.4200     0.0510 H     1 <1>   0.0800 
 39 H        0.6420    -4.3280     1.5260 H     1 <1>   0.0800 
 40 H        4.7320    -2.5890     1.4520 H     1 <1>   0.0800 
 41 H        5.3750    -2.7470    -0.1510 H     1 <1>   0.0800 
 42 H        3.8010    -3.9430    -1.9790 H     1 <1>   0.0800 
 43 H        2.2310    -4.4600    -1.4660 H     1 <1>   0.0800 
 44 H        4.7140    -5.0250     1.7190 H     1 <1>   0.0800 
 45 H        6.3120    -4.4870     1.2890 H     1 <1>   0.0800 
 46 H        3.8320    -6.3350    -1.6010 H     1 <1>   0.0800 
 47 H        3.2630    -6.1270     0.0360 H     1 <1>   0.0800 
 48 H        3.0160     2.5170    -2.8880 H     1 <1>   0.0800 
 49 H        2.2400     3.7870    -1.9720 H     1 <1>   0.0800 
 50 H        1.2870     2.4740    -2.6420 H     1 <1>   0.0800 
 51 H        1.7480     2.2370     1.0720 H     1 <1>   0.0800 
 52 H        0.6550     1.3160     0.0610 H     1 <1>   0.0800 
 53 H        0.7770     3.0530    -0.1230 H     1 <1>   0.0800 
 54 H        8.2680    -7.6620    -0.0680 H     1 <1>   0.1500 
 55 H        7.4470    -3.6230    -1.0540 H     1 <1>   0.1500 
 56 H        9.3180    -1.9820    -0.8540 H     1 <1>   0.1500 
 57 H       12.2530    -5.6230     0.6630 H     1 <1>   0.1500 
 58 H       11.6730    -1.5120    -0.2920 H     1 <1>   0.1500 
 59 H       13.1380    -3.3200     0.4660 H     1 <1>   0.1500 
@<TRIPOS>BOND
  1   1   2  2   
  2   2   3  am  
  3   2   4  1   
  4   3   5  1   
  5   3   6  1   
  6   4   7  1   
  7   4  32  1   
  8   4  33  1   
  9   5   8  1   
 10   5  34  1   
 11   5  35  1   
 12   6   9  1   
 13   6  36  1   
 14   6  37  1   
 15   7  10  1   
 16   7  38  1   
 17   7  39  1   
 18   8  10  1   
 19   8  11  1   
 20   8  12  1   
 21   9  13  2   
 22   9  14  am  
 23  11  15  1   
 24  11  40  1   
 25  11  41  1   
 26  12  16  1   
 27  12  42  1   
 28  12  43  1   
 29  14  17  1   
 30  14  18  1   
 31  15  19  1   
 32  15  44  1   
 33  15  45  1   
 34  16  19  1   
 35  16  46  1   
 36  16  47  1   
 37  17  48  1   
 38  17  49  1   
 39  17  50  1   
 40  18  51  1   
 41  18  52  1   
 42  18  53  1   
 43  19  20  am  
 44  20  21  2   
 45  20  22  1   
 46  22  23  ar  
 47  22  24  ar  
 48  23  25  ar  
 49  23  54  1   
 50  24  26  ar  
 51  24  55  1   
 52  25  27  ar  
 53  26  27  ar  
 54  26  28  ar  
 55  27  29  ar  
 56  28  30  ar  
 57  28  56  1   
 58  29  31  ar  
 59  29  57  1   
 60  30  31  ar  
 61  30  58  1   
 62  31  59  1   
@<TRIPOS>SUBSTRUCTURE
  1 ****  11 GROUP 4 **** **** 0

# MOE 2024.06 (io_trps.svl 2023.06)
