@<TRIPOS>MOLECULE
NONAME
42 44 1 0 0 
SMALL
USER_CHARGES


@<TRIPOS>ATOM
  1 N        0.7910    -0.3290     0.4530 N.ar  1 <1>  -0.1790 
  2 C        1.7950    -0.6210    -0.4420 C.ar  1 <1>   0.3610 
  3 C        0.5630     0.9250     0.8830 C.ar  1 <1>   0.2110 
  4 C        2.6050     0.4260    -0.9350 C.ar  1 <1>   0.0000 
  5 C        2.0160    -1.9420    -0.8580 C.ar  1 <1>  -0.1500 
  6 C        1.3310     1.9650     0.4280 C.ar  1 <1>  -0.1500 
  7 C        2.3620     1.7670    -0.4950 C.ar  1 <1>   0.1000 
  8 C        3.6220     0.0780    -1.8480 C.ar  1 <1>  -0.1500 
  9 C        3.0160    -2.2390    -1.7470 C.ar  1 <1>  -0.1500 
 10 N        3.1020     2.7890    -0.9890 N.pl3 1 <1>  -0.8690 
 11 C        3.8230    -1.2190    -2.2440 C.ar  1 <1>  -0.1500 
 12 C        2.9970     4.2620    -0.7650 C.3   1 <1>   0.2090 
 13 C        4.3270     4.8580    -0.2550 C.3   1 <1>   0.0000 
 14 C        4.8610     4.0840     0.9520 C.3   1 <1>   0.3430 
 15 C        5.4780     4.7470    -1.2700 C.3   1 <1>  -0.1600 
 16 C        4.1100     6.3400     0.1180 C.3   1 <1>  -0.2400 
 17 N        6.3230     4.3620     0.9590 N.4   1 <1>  -0.9590 
 18 C        6.7460     4.4560    -0.4650 C.3   1 <1>   0.3430 
 19 C        7.1100     3.3600     1.7400 C.3   1 <1>   0.2630 
 20 H        0.2140    -1.1080     0.7840 H     1 <1>   0.4570 
 21 H       -0.2360     1.0960     1.5880 H     1 <1>   0.1500 
 22 H        1.3990    -2.7390    -0.4830 H     1 <1>   0.1500 
 23 H        1.1150     2.9510     0.7910 H     1 <1>   0.1500 
 24 H        4.2620     0.8390    -2.2550 H     1 <1>   0.1500 
 25 H        3.1920    -3.2530    -2.0720 H     1 <1>   0.1500 
 26 H        3.7450     2.5740    -1.7620 H     1 <1>   0.4000 
 27 H        4.6050    -1.4660    -2.9450 H     1 <1>   0.1500 
 28 H        2.2170     4.4820    -0.0600 H     1 <1>   0.0800 
 29 H        2.7250     4.7350    -1.6950 H     1 <1>   0.0800 
 30 H        4.6930     3.0290     0.8060 H     1 <1>   0.0800 
 31 H        4.3890     4.3980     1.8680 H     1 <1>   0.0800 
 32 H        5.5950     5.6440    -1.8550 H     1 <1>   0.0800 
 33 H        5.3250     3.9340    -1.9560 H     1 <1>   0.0800 
 34 H        3.3780     6.4330     0.9020 H     1 <1>   0.0800 
 35 H        3.7520     6.8930    -0.7340 H     1 <1>   0.0800 
 36 H        5.0200     6.8040     0.4530 H     1 <1>   0.0800 
 37 H        6.4530     5.2940     1.3790 H     1 <1>   0.4500 
 38 H        7.4750     5.2410    -0.5950 H     1 <1>   0.0800 
 39 H        7.1740     3.5220    -0.7930 H     1 <1>   0.0800 
 40 H        6.9840     2.3750     1.3210 H     1 <1>   0.0800 
 41 H        6.7800     3.3430     2.7660 H     1 <1>   0.0800 
 42 H        8.1580     3.6110     1.7210 H     1 <1>   0.0800 
@<TRIPOS>BOND
  1   1   2  ar  
  2   1   3  ar  
  3   1  20  1   
  4   2   4  ar  
  5   2   5  ar  
  6   3   6  ar  
  7   3  21  1   
  8   4   7  ar  
  9   4   8  ar  
 10   5   9  ar  
 11   5  22  1   
 12   6   7  ar  
 13   6  23  1   
 14   7  10  1   
 15   8  11  ar  
 16   8  24  1   
 17   9  11  ar  
 18   9  25  1   
 19  10  12  1   
 20  10  26  1   
 21  11  27  1   
 22  12  13  1   
 23  12  28  1   
 24  12  29  1   
 25  13  14  1   
 26  13  15  1   
 27  13  16  1   
 28  14  17  1   
 29  14  30  1   
 30  14  31  1   
 31  15  18  1   
 32  15  32  1   
 33  15  33  1   
 34  16  34  1   
 35  16  35  1   
 36  16  36  1   
 37  17  18  1   
 38  17  19  1   
 39  17  37  1   
 40  18  38  1   
 41  18  39  1   
 42  19  40  1   
 43  19  41  1   
 44  19  42  1   
@<TRIPOS>SUBSTRUCTURE
  1 ****  10 GROUP 4 **** **** 0

# MOE 2024.06 (io_trps.svl 2023.06)
