@<TRIPOS>MOLECULE
NONAME
38 40 1 0 0 
SMALL
USER_CHARGES


@<TRIPOS>ATOM
  1 F       -0.5050     0.0050    -0.2110 F     1 <1>  -0.1900 
  2 C       -1.5540    -0.7760    -0.0730 C.ar  1 <1>   0.1900 
  3 C       -2.8440    -0.2990     0.1410 C.ar  1 <1>   0.3920 
  4 C       -1.3640    -2.1310    -0.1470 C.ar  1 <1>   0.1600 
  5 O       -3.2020     1.0030     0.2360 O.3   1 <1>  -0.3630 
  6 N       -3.8510    -1.1360     0.2700 N.ar  1 <1>  -0.6200 
  7 N       -2.3650    -2.9770    -0.0200 N.ar  1 <1>  -0.6200 
  8 C       -2.3030     2.0890     0.1880 C.3   1 <1>   0.0400 
  9 C       -3.5550    -2.4210     0.1890 C.ar  1 <1>   0.7200 
 10 N       -4.6210    -3.2380     0.3330 N.pl3 1 <1>  -0.8690 
 11 C       -4.6640    -4.6150    -0.1830 C.3   1 <1>   0.2090 
 12 C       -5.9680    -5.2690     0.2700 C.3   1 <1>  -0.1600 
 13 C       -6.0760    -6.7200    -0.2100 C.3   1 <1>   0.2000 
 14 O       -7.3880    -7.1630     0.0810 O.3   1 <1>  -0.3630 
 15 C       -5.0540    -7.6640     0.4530 C.3   1 <1>   0.1200 
 16 C       -7.6210    -8.4980     0.0110 C.ar  1 <1>   0.0830 
 17 O       -5.2760    -8.9990     0.0410 O.3   1 <1>  -0.3630 
 18 C       -6.5660    -9.4140    -0.0230 C.ar  1 <1>   0.0830 
 19 C       -8.9280    -8.9490    -0.0310 C.ar  1 <1>  -0.1500 
 20 C       -6.8310   -10.7690    -0.1190 C.ar  1 <1>  -0.1500 
 21 C       -9.1890   -10.3080    -0.1210 C.ar  1 <1>  -0.1500 
 22 C       -8.1420   -11.2160    -0.1670 C.ar  1 <1>  -0.1500 
 23 H       -0.3760    -2.5250    -0.3130 H     1 <1>   0.1500 
 24 H       -2.8680     2.9940     0.3190 H     1 <1>   0.0800 
 25 H       -1.8160     2.1000    -0.7710 H     1 <1>   0.0800 
 26 H       -1.5870     1.9880     0.9850 H     1 <1>   0.0800 
 27 H       -5.4980    -2.7180     0.3230 H     1 <1>   0.4000 
 28 H       -3.8160    -5.1580     0.1990 H     1 <1>   0.0800 
 29 H       -4.6060    -4.5950    -1.2590 H     1 <1>   0.0800 
 30 H       -6.7920    -4.7110    -0.1380 H     1 <1>   0.0800 
 31 H       -6.0240    -5.2450     1.3440 H     1 <1>   0.0800 
 32 H       -5.9580    -6.7600    -1.2790 H     1 <1>   0.0800 
 33 H       -5.1480    -7.6260     1.5240 H     1 <1>   0.0800 
 34 H       -4.0480    -7.4040     0.1780 H     1 <1>   0.0800 
 35 H       -9.7340    -8.2390     0.0030 H     1 <1>   0.1500 
 36 H       -6.0120   -11.4650    -0.1510 H     1 <1>   0.1500 
 37 H      -10.2060   -10.6580    -0.1550 H     1 <1>   0.1500 
 38 H       -8.3470   -12.2700    -0.2400 H     1 <1>   0.1500 
@<TRIPOS>BOND
  1   1   2  1   
  2   2   3  ar  
  3   2   4  ar  
  4   3   5  1   
  5   3   6  ar  
  6   4   7  ar  
  7   4  23  1   
  8   5   8  1   
  9   6   9  ar  
 10   7   9  ar  
 11   8  24  1   
 12   8  25  1   
 13   8  26  1   
 14   9  10  1   
 15  10  11  1   
 16  10  27  1   
 17  11  12  1   
 18  11  28  1   
 19  11  29  1   
 20  12  13  1   
 21  12  30  1   
 22  12  31  1   
 23  13  14  1   
 24  13  15  1   
 25  13  32  1   
 26  14  16  1   
 27  15  17  1   
 28  15  33  1   
 29  15  34  1   
 30  16  18  ar  
 31  16  19  ar  
 32  17  18  1   
 33  18  20  ar  
 34  19  21  ar  
 35  19  35  1   
 36  20  22  ar  
 37  20  36  1   
 38  21  22  ar  
 39  21  37  1   
 40  22  38  1   
@<TRIPOS>SUBSTRUCTURE
  1 ****  11 GROUP 4 **** **** 0

# MOE 2024.06 (io_trps.svl 2023.06)
