@<TRIPOS>MOLECULE
NONAME
45 46 1 0 0 
SMALL
USER_CHARGES


@<TRIPOS>ATOM
  1 S       -0.4020     0.4900     1.5820 S.o2  1 <1>   1.4470 
  2 O       -0.1570    -0.5430     2.5630 O.2   1 <1>  -0.6500 
  3 O       -0.9010     1.7650     2.0530 O.2   1 <1>  -0.6500 
  4 N       -1.5160    -0.0560     0.4230 N.am  1 <1>  -0.8490 
  5 C        1.1080     0.8190     0.6270 C.ar  1 <1>  -0.0090 
  6 C       -1.1500    -1.1610    -0.5000 C.3   1 <1>   0.1960 
  7 C       -2.9170    -0.0470     0.8380 C.3   1 <1>   0.1960 
  8 C        1.0600     1.5600    -0.5470 C.ar  1 <1>  -0.1500 
  9 C        2.3500     0.3540     1.0500 C.ar  1 <1>  -0.1500 
 10 C       -1.6140    -2.5830    -0.0900 C.3   1 <1>  -0.1060 
 11 C       -3.3470    -1.4010     1.3930 C.3   1 <1>  -0.1600 
 12 C        2.2210     1.8050    -1.2540 C.ar  1 <1>   0.1900 
 13 C        3.5090     0.6030     0.3300 C.ar  1 <1>  -0.1500 
 14 C       -1.6290    -3.4740    -1.3400 C.2   1 <1>   0.9060 
 15 C       -3.0930    -2.4770     0.3400 C.3   1 <1>   0.2000 
 16 C       -0.7260    -3.2380     1.0220 C.3   1 <1>  -0.1600 
 17 F        2.1330     2.5070    -2.3530 F     1 <1>  -0.1900 
 18 C        3.4590     1.3380    -0.8420 C.ar  1 <1>  -0.1440 
 19 O       -1.1910    -3.0450    -2.4150 O.co2 1 <1>  -0.9000 
 20 O       -2.1350    -4.6040    -1.2560 O.co2 1 <1>  -0.9000 
 21 O       -3.5430    -3.6870     0.8280 O.3   1 <1>  -0.6800 
 22 C        0.8080    -3.1880     0.8640 C.3   1 <1>  -0.1600 
 23 C        4.7210     1.6180    -1.6450 C.3   1 <1>  -0.0970 
 24 C        1.3400    -3.9190    -0.3720 C.3   1 <1>  -0.2400 
 25 H       -1.6250    -0.9250    -1.4380 H     1 <1>   0.0800 
 26 H       -0.0950    -1.1610    -0.7030 H     1 <1>   0.0800 
 27 H       -3.0900     0.7220     1.5720 H     1 <1>   0.0800 
 28 H       -3.5230     0.1850    -0.0210 H     1 <1>   0.0800 
 29 H        0.1220     1.9430    -0.9080 H     1 <1>   0.1500 
 30 H        2.4100    -0.2200     1.9610 H     1 <1>   0.1500 
 31 H       -4.3970    -1.3700     1.6180 H     1 <1>   0.0800 
 32 H       -2.8120    -1.6100     2.3010 H     1 <1>   0.0800 
 33 H        4.4480     0.2180     0.6910 H     1 <1>   0.1500 
 34 H       -3.6900    -2.2570    -0.5300 H     1 <1>   0.0800 
 35 H       -0.9650    -2.7990     1.9700 H     1 <1>   0.0800 
 36 H       -1.0050    -4.2740     1.1080 H     1 <1>   0.0800 
 37 H       -3.2010    -4.3700     0.1820 H     1 <1>   0.4000 
 38 H        1.1510    -2.1730     0.8510 H     1 <1>   0.0800 
 39 H        1.2380    -3.6510     1.7350 H     1 <1>   0.0800 
 40 H        5.5890     1.2150    -1.1550 H     1 <1>   0.0800 
 41 H        4.8530     2.6790    -1.7600 H     1 <1>   0.0800 
 42 H        4.6380     1.1730    -2.6210 H     1 <1>   0.0800 
 43 H        1.1040    -3.3750    -1.2690 H     1 <1>   0.0800 
 44 H        0.9050    -4.9010    -0.4460 H     1 <1>   0.0800 
 45 H        2.4080    -4.0170    -0.3140 H     1 <1>   0.0800 
@<TRIPOS>BOND
  1   1   2  2   
  2   1   3  2   
  3   1   4  am  
  4   1   5  1   
  5   4   6  1   
  6   4   7  1   
  7   5   8  ar  
  8   5   9  ar  
  9   6  10  1   
 10   6  25  1   
 11   6  26  1   
 12   7  11  1   
 13   7  27  1   
 14   7  28  1   
 15   8  12  ar  
 16   8  29  1   
 17   9  13  ar  
 18   9  30  1   
 19  10  14  1   
 20  10  15  1   
 21  10  16  1   
 22  11  15  1   
 23  11  31  1   
 24  11  32  1   
 25  12  17  1   
 26  12  18  ar  
 27  13  18  ar  
 28  13  33  1   
 29  14  19  ar  
 30  14  20  ar  
 31  15  21  1   
 32  15  34  1   
 33  16  22  1   
 34  16  35  1   
 35  16  36  1   
 36  18  23  1   
 37  21  37  1   
 38  22  24  1   
 39  22  38  1   
 40  22  39  1   
 41  23  40  1   
 42  23  41  1   
 43  23  42  1   
 44  24  43  1   
 45  24  44  1   
 46  24  45  1   
@<TRIPOS>SUBSTRUCTURE
  1 ****   6 GROUP 4 **** **** 0

# MOE 2024.06 (io_trps.svl 2023.06)
