@<TRIPOS>MOLECULE
NONAME
55 57 1 0 0 
SMALL
USER_CHARGES


@<TRIPOS>ATOM
  1 O       -1.4770    -2.1510    -0.0520 O.2   1 <1>  -0.5700 
  2 C       -0.3700    -2.5420     0.2290 C.2   1 <1>   0.5690 
  3 N       -0.1070    -3.3830     1.2750 N.am  1 <1>  -0.6600 
  4 C        0.8050    -2.0830    -0.6100 C.3   1 <1>  -0.0990 
  5 C        1.2810    -3.8050     1.5760 C.3   1 <1>   0.1400 
  6 C       -1.1720    -3.8680     2.1960 C.3   1 <1>   0.0600 
  7 C        1.7240    -3.2740    -0.9400 C.3   1 <1>  -0.0800 
  8 C        2.0100    -4.1920     0.2730 C.3   1 <1>  -0.0800 
  9 C        3.0870    -2.8510    -1.5050 C.3   1 <1>  -0.1600 
 10 C        3.5380    -4.2300     0.4210 C.3   1 <1>  -0.1600 
 11 C        4.0570    -3.9040    -0.9790 C.3   1 <1>   0.4230 
 12 N        5.4840    -3.4630    -1.0350 N.4   1 <1>  -0.9590 
 13 C        5.8310    -2.3290    -0.1220 C.3   1 <1>   0.3430 
 14 C        6.3880    -4.6360    -0.8120 C.3   1 <1>   0.2630 
 15 C        7.1230    -1.6460    -0.5760 C.3   1 <1>  -0.1600 
 16 C        7.4200    -0.4300     0.3120 C.3   1 <1>  -0.1600 
 17 C        8.7010     0.2910    -0.1130 C.3   1 <1>   0.1200 
 18 O        8.8810     1.3780     0.7600 O.3   1 <1>  -0.3630 
 19 C        9.9410     2.2150     0.6380 C.ar  1 <1>   0.0820 
 20 C       10.0230     3.2520     1.5540 C.ar  1 <1>  -0.1500 
 21 C       10.9250     2.0860    -0.3400 C.ar  1 <1>  -0.1500 
 22 C       11.0720     4.1540     1.5020 C.ar  1 <1>  -0.1500 
 23 C       11.9730     2.9890    -0.3900 C.ar  1 <1>  -0.1500 
 24 C       12.0480     4.0220     0.5290 C.ar  1 <1>  -0.1500 
 25 H        0.4400    -1.6330    -1.5160 H     1 <1>   0.0800 
 26 H        1.3290    -1.3330    -0.0480 H     1 <1>   0.0800 
 27 H        1.7810    -2.9840     2.0610 H     1 <1>   0.0800 
 28 H        1.2750    -4.6440     2.2530 H     1 <1>   0.0800 
 29 H       -1.2150    -4.9420     2.1690 H     1 <1>   0.0800 
 30 H       -2.1320    -3.4790     1.9020 H     1 <1>   0.0800 
 31 H       -0.9630    -3.5430     3.2000 H     1 <1>   0.0800 
 32 H        1.2160    -3.8730    -1.6790 H     1 <1>   0.0800 
 33 H        1.6770    -5.1830     0.0090 H     1 <1>   0.0800 
 34 H        3.3370    -1.8730    -1.1390 H     1 <1>   0.0800 
 35 H        3.0660    -2.8360    -2.5810 H     1 <1>   0.0800 
 36 H        3.8680    -5.1970     0.7560 H     1 <1>   0.0800 
 37 H        3.8380    -3.4800     1.1300 H     1 <1>   0.0800 
 38 H        3.9350    -4.7850    -1.5890 H     1 <1>   0.0800 
 39 H        5.6370    -3.1270    -1.9960 H     1 <1>   0.4500 
 40 H        5.0410    -1.5970    -0.1260 H     1 <1>   0.0800 
 41 H        5.9430    -2.6880     0.8890 H     1 <1>   0.0800 
 42 H        6.2800    -5.0070     0.1950 H     1 <1>   0.0800 
 43 H        7.4180    -4.3560    -0.9670 H     1 <1>   0.0800 
 44 H        6.1460    -5.4310    -1.4990 H     1 <1>   0.0800 
 45 H        7.9510    -2.3300    -0.5110 H     1 <1>   0.0800 
 46 H        7.0190    -1.3150    -1.5950 H     1 <1>   0.0800 
 47 H        7.5320    -0.7450     1.3360 H     1 <1>   0.0800 
 48 H        6.6030     0.2700     0.2570 H     1 <1>   0.0800 
 49 H        8.6170     0.6740    -1.1160 H     1 <1>   0.0800 
 50 H        9.5580    -0.3560    -0.0270 H     1 <1>   0.0800 
 51 H        9.2620     3.3480     2.3060 H     1 <1>   0.1500 
 52 H       10.8950     1.2970    -1.0650 H     1 <1>   0.1500 
 53 H       11.1270     4.9560     2.2170 H     1 <1>   0.1500 
 54 H       12.7340     2.8900    -1.1450 H     1 <1>   0.1500 
 55 H       12.8630     4.7230     0.4880 H     1 <1>   0.1500 
@<TRIPOS>BOND
  1   1   2  2   
  2   2   3  am  
  3   2   4  1   
  4   3   5  1   
  5   3   6  1   
  6   4   7  1   
  7   4  25  1   
  8   4  26  1   
  9   5   8  1   
 10   5  27  1   
 11   5  28  1   
 12   6  29  1   
 13   6  30  1   
 14   6  31  1   
 15   7   8  1   
 16   7   9  1   
 17   7  32  1   
 18   8  10  1   
 19   8  33  1   
 20   9  11  1   
 21   9  34  1   
 22   9  35  1   
 23  10  11  1   
 24  10  36  1   
 25  10  37  1   
 26  11  12  1   
 27  11  38  1   
 28  12  13  1   
 29  12  14  1   
 30  12  39  1   
 31  13  15  1   
 32  13  40  1   
 33  13  41  1   
 34  14  42  1   
 35  14  43  1   
 36  14  44  1   
 37  15  16  1   
 38  15  45  1   
 39  15  46  1   
 40  16  17  1   
 41  16  47  1   
 42  16  48  1   
 43  17  18  1   
 44  17  49  1   
 45  17  50  1   
 46  18  19  1   
 47  19  20  ar  
 48  19  21  ar  
 49  20  22  ar  
 50  20  51  1   
 51  21  23  ar  
 52  21  52  1   
 53  22  24  ar  
 54  22  53  1   
 55  23  24  ar  
 56  23  54  1   
 57  24  55  1   
@<TRIPOS>SUBSTRUCTURE
  1 ****  13 GROUP 4 **** **** 0

# MOE 2024.06 (io_trps.svl 2023.06)
