@<TRIPOS>MOLECULE
NONAME
46 49 1 0 0 
SMALL
USER_CHARGES


@<TRIPOS>ATOM
  1 O        0.6500    -0.3830     2.4360 O.2   1 <1>  -0.5700 
  2 C        1.4870    -0.9470     1.7540 C.2   1 <1>   0.7160 
  3 N        1.4520    -2.2990     1.6320 N.am  1 <1>  -0.4900 
  4 C        2.5290    -0.3000     1.0450 C.2   1 <1>  -0.0860 
  5 C        2.3540    -2.9910     0.8620 C.2   1 <1>   0.4490 
  6 C        3.3890    -1.0490     0.3030 C.2   1 <1>  -0.0260 
  7 C        2.9670     1.0110     0.8700 C.2   1 <1>   0.1390 
  8 N        3.3050    -2.4240     0.2020 N.2   1 <1>  -0.5760 
  9 C        2.1710    -4.5080     0.8220 C.3   1 <1>   0.1710 
 10 N        4.2700    -0.1900    -0.2600 N.pl3 1 <1>   0.3140 
 11 N        4.0050     1.0890     0.0940 N.2   1 <1>  -0.7070 
 12 N        0.7440    -4.9270     0.8510 N.3   1 <1>  -0.8100 
 13 C        5.3920    -0.5300    -1.1420 C.3   1 <1>   0.0160 
 14 C        0.0260    -4.5680    -0.3830 C.3   1 <1>   0.1100 
 15 C        0.6010    -6.3870     0.9900 C.3   1 <1>   0.1100 
 16 C       -1.1790    -5.5000    -0.4020 C.3   1 <1>   0.2000 
 17 C       -0.6110    -6.8110     0.1370 C.3   1 <1>  -0.0800 
 18 O       -2.0940    -5.0280     0.5190 O.3   1 <1>  -0.6800 
 19 C       -0.2050    -7.7520    -1.0110 C.3   1 <1>   0.0200 
 20 C        0.4290    -9.0280    -0.4860 C.2   1 <1>  -0.3320 
 21 N       -0.2140    -9.9430     0.2720 N.pl3 1 <1>   0.3000 
 22 C        1.6870    -9.4880    -0.6540 C.2   1 <1>  -0.1500 
 23 N        0.5910   -10.9670     0.6040 N.2   1 <1>  -0.7070 
 24 C        1.7250   -10.6900     0.0440 C.2   1 <1>   0.1080 
 25 C        2.9270   -11.5970     0.1610 C.3   1 <1>  -0.0590 
 26 H        0.6860    -2.8080     2.0670 H     1 <1>   0.3700 
 27 H        2.4960     1.8650     1.3290 H     1 <1>   0.1500 
 28 H        2.6710    -4.9170     1.6820 H     1 <1>   0.0800 
 29 H        2.6540    -4.8980    -0.0570 H     1 <1>   0.0800 
 30 H        5.2590    -1.5250    -1.5240 H     1 <1>   0.0800 
 31 H        6.3050    -0.4730    -0.5800 H     1 <1>   0.0800 
 32 H        5.4230     0.1720    -1.9540 H     1 <1>   0.0800 
 33 H       -0.2720    -3.5320    -0.3900 H     1 <1>   0.0800 
 34 H        0.6430    -4.7660    -1.2430 H     1 <1>   0.0800 
 35 H        1.4940    -6.8900     0.6560 H     1 <1>   0.0800 
 36 H        0.4400    -6.6360     2.0260 H     1 <1>   0.0800 
 37 H       -1.6600    -5.5780    -1.3620 H     1 <1>   0.0800 
 38 H       -1.3400    -7.3140     0.7480 H     1 <1>   0.0800 
 39 H       -1.5930    -4.8110     1.3320 H     1 <1>   0.4000 
 40 H        0.4950    -7.2550    -1.6600 H     1 <1>   0.0800 
 41 H       -1.0720    -8.0040    -1.5970 H     1 <1>   0.0800 
 42 H       -1.1930    -9.9000     0.5790 H     1 <1>   0.2700 
 43 H        2.5040    -9.0510    -1.2000 H     1 <1>   0.1500 
 44 H        3.7710   -11.1740    -0.3500 H     1 <1>   0.0800 
 45 H        2.6950   -12.5530    -0.2700 H     1 <1>   0.0800 
 46 H        3.1720   -11.7340     1.1980 H     1 <1>   0.0800 
@<TRIPOS>BOND
  1   1   2  2   
  2   2   3  am  
  3   2   4  1   
  4   3   5  1   
  5   3  26  1   
  6   4   6  2   
  7   4   7  1   
  8   5   8  2   
  9   5   9  1   
 10   6   8  1   
 11   6  10  1   
 12   7  11  2   
 13   7  27  1   
 14   9  12  1   
 15   9  28  1   
 16   9  29  1   
 17  10  11  1   
 18  10  13  1   
 19  12  14  1   
 20  12  15  1   
 21  13  30  1   
 22  13  31  1   
 23  13  32  1   
 24  14  16  1   
 25  14  33  1   
 26  14  34  1   
 27  15  17  1   
 28  15  35  1   
 29  15  36  1   
 30  16  17  1   
 31  16  18  1   
 32  16  37  1   
 33  17  19  1   
 34  17  38  1   
 35  18  39  1   
 36  19  20  1   
 37  19  40  1   
 38  19  41  1   
 39  20  21  1   
 40  20  22  2   
 41  21  23  1   
 42  21  42  1   
 43  22  24  1   
 44  22  43  1   
 45  23  24  2   
 46  24  25  1   
 47  25  44  1   
 48  25  45  1   
 49  25  46  1   
@<TRIPOS>SUBSTRUCTURE
  1 ****   9 GROUP 4 **** **** 0

# MOE 2024.06 (io_trps.svl 2023.06)
