@<TRIPOS>MOLECULE
NONAME
51 54 1 0 0 
SMALL
USER_CHARGES


@<TRIPOS>ATOM
  1 O        3.6220     3.7290     0.3540 O.3   1 <1>  -0.0190 
  2 N        4.4120     2.9000     0.9640 N.2   1 <1>  -0.4100 
  3 C        2.5260     3.1490    -0.0540 C.2   1 <1>  -0.0400 
  4 C        3.8260     1.7570     0.9310 C.2   1 <1>   0.1080 
  5 C        2.5970     1.8520     0.2830 C.2   1 <1>  -0.1500 
  6 C        1.4680     3.9610    -0.7740 C.3   1 <1>   0.0200 
  7 C        4.4020     0.4880     1.5200 C.3   1 <1>  -0.0590 
  8 C        0.6610     4.8390     0.2070 C.3   1 <1>  -0.0800 
  9 C       -0.3140     5.7510    -0.5290 C.3   1 <1>   0.2000 
 10 C        1.5310     5.8400     0.9790 C.3   1 <1>   0.3430 
 11 O       -1.2650     6.1910     0.3860 O.3   1 <1>  -0.6800 
 12 C        0.5570     6.9480    -0.9260 C.3   1 <1>   0.3430 
 13 N        1.5890     7.0840     0.1530 N.4   1 <1>  -0.9590 
 14 C        1.3330     8.2880     0.9870 C.3   1 <1>   0.4860 
 15 C        1.4680     9.5230     0.1170 C.ar  1 <1>  -0.1440 
 16 C        2.6950     9.8510    -0.4390 C.ar  1 <1>  -0.1500 
 17 C        0.3700    10.3310    -0.1320 C.ar  1 <1>  -0.1500 
 18 C        2.8360    10.9730    -1.2430 C.ar  1 <1>  -0.1440 
 19 C        0.5010    11.4510    -0.9330 C.ar  1 <1>  -0.1500 
 20 C        1.7280    11.7700    -1.4860 C.ar  1 <1>  -0.1500 
 21 C        4.1860    11.3310    -1.8660 C.3   1 <1>   0.2390 
 22 N        5.3100    11.1170    -0.9260 N.pl3 1 <1>   0.3140 
 23 N        6.0030     9.9580    -0.8890 N.2   1 <1>  -0.7070 
 24 C        5.7880    11.9970    -0.0230 C.2   1 <1>  -0.3020 
 25 C        6.9050    10.1390     0.0280 C.2   1 <1>   0.1390 
 26 C        6.8200    11.3980     0.6080 C.2   1 <1>  -0.1500 
 27 H        1.9030     1.0490     0.1170 H     1 <1>   0.1500 
 28 H        1.9520     4.5550    -1.5290 H     1 <1>   0.0800 
 29 H        0.7980     3.2810    -1.2720 H     1 <1>   0.0800 
 30 H        3.7360     0.0950     2.2670 H     1 <1>   0.0800 
 31 H        5.3540     0.6920     1.9760 H     1 <1>   0.0800 
 32 H        4.5380    -0.2440     0.7460 H     1 <1>   0.0800 
 33 H        0.1480     4.1880     0.8940 H     1 <1>   0.0800 
 34 H       -0.8160     5.2980    -1.3680 H     1 <1>   0.0800 
 35 H        2.5160     5.4590     1.1920 H     1 <1>   0.0800 
 36 H        1.0420     6.0560     1.9150 H     1 <1>   0.0800 
 37 H       -1.9640     5.5160     0.5290 H     1 <1>   0.4000 
 38 H       -0.0410     7.8380    -1.0390 H     1 <1>   0.0800 
 39 H        1.0470     6.7370    -1.8620 H     1 <1>   0.0800 
 40 H        2.5190     7.1960    -0.2730 H     1 <1>   0.4500 
 41 H        0.3410     8.2410     1.4070 H     1 <1>   0.0800 
 42 H        2.0460     8.3410     1.7940 H     1 <1>   0.0800 
 43 H        3.5550     9.2320    -0.2430 H     1 <1>   0.1500 
 44 H       -0.5940    10.1020     0.2930 H     1 <1>   0.1500 
 45 H       -0.3530    12.0790    -1.1250 H     1 <1>   0.1500 
 46 H        1.8090    12.6460    -2.1080 H     1 <1>   0.1500 
 47 H        4.1970    12.3610    -2.1710 H     1 <1>   0.0800 
 48 H        4.3560    10.7200    -2.7330 H     1 <1>   0.0800 
 49 H        5.3790    12.9800     0.1170 H     1 <1>   0.1500 
 50 H        7.6340     9.3920     0.3000 H     1 <1>   0.1500 
 51 H        7.4530    11.7820     1.3880 H     1 <1>   0.1500 
@<TRIPOS>BOND
  1   1   2  1   
  2   1   3  1   
  3   2   4  2   
  4   3   5  2   
  5   3   6  1   
  6   4   5  1   
  7   4   7  1   
  8   5  27  1   
  9   6   8  1   
 10   6  28  1   
 11   6  29  1   
 12   7  30  1   
 13   7  31  1   
 14   7  32  1   
 15   8   9  1   
 16   8  10  1   
 17   8  33  1   
 18   9  11  1   
 19   9  12  1   
 20   9  34  1   
 21  10  13  1   
 22  10  35  1   
 23  10  36  1   
 24  11  37  1   
 25  12  13  1   
 26  12  38  1   
 27  12  39  1   
 28  13  14  1   
 29  13  40  1   
 30  14  15  1   
 31  14  41  1   
 32  14  42  1   
 33  15  16  ar  
 34  15  17  ar  
 35  16  18  ar  
 36  16  43  1   
 37  17  19  ar  
 38  17  44  1   
 39  18  20  ar  
 40  18  21  1   
 41  19  20  ar  
 42  19  45  1   
 43  20  46  1   
 44  21  22  1   
 45  21  47  1   
 46  21  48  1   
 47  22  23  1   
 48  22  24  1   
 49  23  25  2   
 50  24  26  2   
 51  24  49  1   
 52  25  26  1   
 53  25  50  1   
 54  26  51  1   
@<TRIPOS>SUBSTRUCTURE
  1 ****  13 GROUP 4 **** **** 0

# MOE 2024.06 (io_trps.svl 2023.06)
