@<TRIPOS>MOLECULE
NONAME
56 60 1 0 0 
SMALL
USER_CHARGES


@<TRIPOS>ATOM
  1 O       -0.8170    -1.0400     0.8100 O.2   1 <1>  -0.5700 
  2 C       -1.9470    -1.4180     0.5890 C.2   1 <1>   0.6900 
  3 N       -3.0540    -0.6140     0.7220 N.am  1 <1>  -0.4770 
  4 N       -2.1290    -2.6930     0.1990 N.am  1 <1>  -0.4900 
  5 C       -4.3350    -1.0910     0.4130 C.ar  1 <1>   0.4270 
  6 C       -2.8730     0.8020     1.1790 C.3   1 <1>   0.0600 
  7 C       -3.3360    -3.2460    -0.0590 C.2   1 <1>   0.5440 
  8 N       -5.3220    -0.2060     0.5350 N.ar  1 <1>  -0.6200 
  9 C       -4.5250    -2.4250    -0.0040 C.ar  1 <1>   0.0860 
 10 O       -3.3220    -4.4320    -0.3020 O.2   1 <1>  -0.5700 
 11 C       -6.5310    -0.6040     0.2280 C.ar  1 <1>   0.1660 
 12 C       -5.8270    -2.8400    -0.3370 C.ar  1 <1>   0.0860 
 13 C       -6.8180    -1.8790    -0.2040 C.ar  1 <1>  -0.1500 
 14 C       -7.6310     0.4280     0.3690 C.3   1 <1>  -0.0960 
 15 C       -6.2570    -4.1420    -0.8160 C.2   1 <1>   0.5440 
 16 O       -7.0590    -4.2090    -1.7280 O.2   1 <1>  -0.5700 
 17 N       -5.8600    -5.3090    -0.2380 N.am  1 <1>  -0.7300 
 18 C       -6.2540    -6.6510    -0.7280 C.3   1 <1>   0.2200 
 19 C       -7.5330    -7.0750    -0.0310 C.3   1 <1>  -0.0800 
 20 C       -5.2510    -7.7120    -0.2670 C.3   1 <1>   0.1200 
 21 C       -6.9870    -7.7140     1.2430 C.3   1 <1>   0.1200 
 22 C       -8.3350    -8.0720    -0.8890 C.3   1 <1>  -0.0170 
 23 O       -5.7720    -8.3020     0.8910 O.3   1 <1>  -0.5600 
 24 C       -9.6830    -8.3930    -0.2520 C.ar  1 <1>  -0.1440 
 25 C      -10.7710    -7.4890    -0.2920 C.ar  1 <1>   0.0000 
 26 C       -9.8740    -9.5840     0.3840 C.ar  1 <1>  -0.1500 
 27 C      -11.9750    -7.8820     0.3430 C.ar  1 <1>   0.3100 
 28 C      -10.7380    -6.2220    -0.9230 C.ar  1 <1>  -0.1500 
 29 C      -11.1080    -9.8760     0.9770 C.ar  1 <1>   0.1600 
 30 N      -12.1260    -9.0760     0.9720 N.ar  1 <1>  -0.6200 
 31 C      -13.0700    -7.0050     0.3250 C.ar  1 <1>  -0.1500 
 32 C      -11.8250    -5.3920    -0.9230 C.ar  1 <1>  -0.1500 
 33 C      -13.0070    -5.7850    -0.2920 C.ar  1 <1>  -0.1500 
 34 H       -1.3020    -3.2790     0.1360 H     1 <1>   0.3700 
 35 H       -3.4800     0.9810     2.0490 H     1 <1>   0.0800 
 36 H       -3.1790     1.4730     0.3960 H     1 <1>   0.0800 
 37 H       -1.8480     1.0110     1.4310 H     1 <1>   0.0800 
 38 H       -7.8340    -2.1380    -0.4470 H     1 <1>   0.1500 
 39 H       -8.5870     0.0200     0.0970 H     1 <1>   0.0800 
 40 H       -7.4190     1.2680    -0.2680 H     1 <1>   0.0800 
 41 H       -7.6760     0.7700     1.3870 H     1 <1>   0.0800 
 42 H       -4.9460    -5.3020     0.2330 H     1 <1>   0.3700 
 43 H       -6.3440    -6.6320    -1.8010 H     1 <1>   0.0800 
 44 H       -8.1500    -6.2260     0.2030 H     1 <1>   0.0800 
 45 H       -4.2820    -7.2970    -0.0520 H     1 <1>   0.0800 
 46 H       -5.1580    -8.4870    -1.0060 H     1 <1>   0.0800 
 47 H       -7.6390    -8.4620     1.6600 H     1 <1>   0.0800 
 48 H       -6.7820    -6.9610     1.9840 H     1 <1>   0.0800 
 49 H       -7.7690    -8.9780    -1.0170 H     1 <1>   0.0800 
 50 H       -8.4990    -7.6640    -1.8710 H     1 <1>   0.0800 
 51 H       -9.0920   -10.3180     0.4500 H     1 <1>   0.1500 
 52 H       -9.8400    -5.8970    -1.4160 H     1 <1>   0.1500 
 53 H      -11.2150   -10.8270     1.4700 H     1 <1>   0.1500 
 54 H      -13.9690    -7.3290     0.8160 H     1 <1>   0.1500 
 55 H      -11.7840    -4.4320    -1.4080 H     1 <1>   0.1500 
 56 H      -13.8560    -5.1230    -0.2980 H     1 <1>   0.1500 
@<TRIPOS>BOND
  1   1   2  2   
  2   2   3  am  
  3   2   4  am  
  4   3   5  1   
  5   3   6  1   
  6   4   7  am  
  7   4  34  1   
  8   5   8  ar  
  9   5   9  ar  
 10   6  35  1   
 11   6  36  1   
 12   6  37  1   
 13   7   9  1   
 14   7  10  2   
 15   8  11  ar  
 16   9  12  ar  
 17  11  13  ar  
 18  11  14  1   
 19  12  13  ar  
 20  12  15  1   
 21  13  38  1   
 22  14  39  1   
 23  14  40  1   
 24  14  41  1   
 25  15  16  2   
 26  15  17  am  
 27  17  18  1   
 28  17  42  1   
 29  18  19  1   
 30  18  20  1   
 31  18  43  1   
 32  19  21  1   
 33  19  22  1   
 34  19  44  1   
 35  20  23  1   
 36  20  45  1   
 37  20  46  1   
 38  21  23  1   
 39  21  47  1   
 40  21  48  1   
 41  22  24  1   
 42  22  49  1   
 43  22  50  1   
 44  24  25  ar  
 45  24  26  ar  
 46  25  27  ar  
 47  25  28  ar  
 48  26  29  ar  
 49  26  51  1   
 50  27  30  ar  
 51  27  31  ar  
 52  28  32  ar  
 53  28  52  1   
 54  29  30  ar  
 55  29  53  1   
 56  31  33  ar  
 57  31  54  1   
 58  32  33  ar  
 59  32  55  1   
 60  33  56  1   
@<TRIPOS>SUBSTRUCTURE
  1 ****  15 GROUP 4 **** **** 0

# MOE 2024.06 (io_trps.svl 2023.06)
