@<TRIPOS>MOLECULE
NONAME
46 47 1 0 0 
SMALL
USER_CHARGES


@<TRIPOS>ATOM
  1 S       -0.1640     0.2820    -1.6640 S.o2  1 <1>   1.4470 
  2 O        0.4120    -0.4890    -2.7440 O.2   1 <1>  -0.6500 
  3 O       -1.0800     1.3590    -1.9780 O.2   1 <1>  -0.6500 
  4 N       -0.9650    -0.8040    -0.6420 N.am  1 <1>  -0.8490 
  5 C        1.1810     0.9070    -0.6170 C.ar  1 <1>  -0.0090 
  6 C       -1.7640    -1.7950    -1.4030 C.3   1 <1>   0.1960 
  7 C       -1.6980    -0.1660     0.4760 C.3   1 <1>   0.1960 
  8 C        1.9890     0.0330     0.1030 C.ar  1 <1>  -0.1500 
  9 C        1.4400     2.2720    -0.5140 C.ar  1 <1>  -0.1500 
 10 C       -2.8170    -2.4570    -0.5070 C.3   1 <1>   0.2000 
 11 C       -3.1950    -0.0470     0.1710 C.3   1 <1>  -0.1600 
 12 C        3.0180     0.5000     0.9040 C.ar  1 <1>  -0.1500 
 13 C        2.4650     2.7540     0.2830 C.ar  1 <1>  -0.1500 
 14 O       -3.4260    -3.5240    -1.1470 O.3   1 <1>  -0.6800 
 15 C       -3.8770    -1.4430     0.0000 C.3   1 <1>  -0.1060 
 16 C        3.2500     1.8590     0.9910 C.ar  1 <1>   0.1010 
 17 C       -4.3330    -2.0570     1.3310 C.2   1 <1>   0.9060 
 18 C       -5.0860    -1.2750    -0.9750 C.3   1 <1>  -0.1600 
 19 S        4.6010     2.3940     2.0530 S.3   1 <1>  -0.3320 
 20 O       -4.0720    -1.4900     2.3990 O.co2 1 <1>  -0.9000 
 21 O       -4.8920    -3.1630     1.2950 O.co2 1 <1>  -0.9000 
 22 C       -6.1510    -0.2750    -0.4900 C.3   1 <1>  -0.1600 
 23 C        4.6780     4.2350     1.9330 C.3   1 <1>  -0.0100 
 24 C       -7.3280    -0.2130    -1.4670 C.3   1 <1>  -0.2400 
 25 H       -2.2690    -1.3080    -2.2200 H     1 <1>   0.0800 
 26 H       -1.1050    -2.5460    -1.8020 H     1 <1>   0.0800 
 27 H       -1.5800    -0.7680     1.3630 H     1 <1>   0.0800 
 28 H       -1.2910     0.8070     0.6930 H     1 <1>   0.0800 
 29 H        1.8060    -1.0270     0.0340 H     1 <1>   0.1500 
 30 H        0.8270     2.9650    -1.0660 H     1 <1>   0.1500 
 31 H       -2.2930    -2.8800     0.3350 H     1 <1>   0.0800 
 32 H       -3.6730     0.4990     0.9650 H     1 <1>   0.0800 
 33 H       -3.3040     0.5410    -0.7220 H     1 <1>   0.0800 
 34 H        3.6360    -0.1830     1.4580 H     1 <1>   0.1500 
 35 H        2.6350     3.8110     0.3410 H     1 <1>   0.1500 
 36 H       -4.1240    -3.8380    -0.5160 H     1 <1>   0.4000 
 37 H       -4.7250    -0.9720    -1.9420 H     1 <1>   0.0800 
 38 H       -5.5730    -2.2270    -1.0990 H     1 <1>   0.0800 
 39 H       -6.5120    -0.5790     0.4790 H     1 <1>   0.0800 
 40 H       -5.7280     0.7090    -0.3930 H     1 <1>   0.0800 
 41 H        5.4890     4.5670     2.5560 H     1 <1>   0.0800 
 42 H        3.7420     4.6310     2.2840 H     1 <1>   0.0800 
 43 H        4.8560     4.4940     0.9050 H     1 <1>   0.0800 
 44 H       -7.7890    -1.1820    -1.5530 H     1 <1>   0.0800 
 45 H       -6.9930     0.1020    -2.4390 H     1 <1>   0.0800 
 46 H       -8.0630     0.4860    -1.1110 H     1 <1>   0.0800 
@<TRIPOS>BOND
  1   1   2  2   
  2   1   3  2   
  3   1   4  am  
  4   1   5  1   
  5   4   6  1   
  6   4   7  1   
  7   5   8  ar  
  8   5   9  ar  
  9   6  10  1   
 10   6  25  1   
 11   6  26  1   
 12   7  11  1   
 13   7  27  1   
 14   7  28  1   
 15   8  12  ar  
 16   8  29  1   
 17   9  13  ar  
 18   9  30  1   
 19  10  14  1   
 20  10  15  1   
 21  10  31  1   
 22  11  15  1   
 23  11  32  1   
 24  11  33  1   
 25  12  16  ar  
 26  12  34  1   
 27  13  16  ar  
 28  13  35  1   
 29  14  36  1   
 30  15  17  1   
 31  15  18  1   
 32  16  19  1   
 33  17  20  ar  
 34  17  21  ar  
 35  18  22  1   
 36  18  37  1   
 37  18  38  1   
 38  19  23  1   
 39  22  24  1   
 40  22  39  1   
 41  22  40  1   
 42  23  41  1   
 43  23  42  1   
 44  23  43  1   
 45  24  44  1   
 46  24  45  1   
 47  24  46  1   
@<TRIPOS>SUBSTRUCTURE
  1 ****   7 GROUP 4 **** **** 0

# MOE 2024.06 (io_trps.svl 2023.06)
