@<TRIPOS>MOLECULE
NONAME
43 44 1 0 0 
SMALL
USER_CHARGES


@<TRIPOS>ATOM
  1 O        0.8310    -0.3650     1.9240 O.2   1 <1>  -0.5700 
  2 C        1.6370    -0.7950     1.1350 C.2   1 <1>   0.5690 
  3 N        2.4810    -0.0100     0.4090 N.am  1 <1>  -0.4930 
  4 C        1.7000    -2.2930     0.9410 C.3   1 <1>  -0.0990 
  5 C        2.6000     1.4030     0.4030 C.2   1 <1>   0.0630 
  6 C        0.3700    -2.7950     0.3730 C.3   1 <1>   0.1100 
  7 C        3.4390     2.1320    -0.3660 C.2   1 <1>  -0.3320 
  8 C        1.9060     2.3460     1.1630 C.2   1 <1>   0.1390 
  9 N        0.4220    -4.2430     0.0940 N.3   1 <1>  -0.8100 
 10 N        3.2210     3.4330    -0.0470 N.pl3 1 <1>   0.3140 
 11 C        4.4540     1.6760    -1.4050 C.3   1 <1>  -0.0600 
 12 N        2.2750     3.5630     0.8960 N.2   1 <1>  -0.7070 
 13 C        0.3380    -5.0520     1.3410 C.3   1 <1>   0.1100 
 14 C       -0.6730    -4.6280    -0.8310 C.3   1 <1>   0.1100 
 15 C        3.8890     4.6130    -0.6110 C.3   1 <1>   0.0160 
 16 C        0.2630    -6.5760     1.0680 C.3   1 <1>   0.3430 
 17 C       -0.6650    -6.1400    -1.1710 C.3   1 <1>   0.3430 
 18 N        0.3940    -6.8680    -0.3970 N.4   1 <1>  -0.9590 
 19 C        0.4630    -8.3240    -0.7110 C.3   1 <1>   0.2630 
 20 H        3.1260    -0.4790    -0.2200 H     1 <1>   0.3700 
 21 H        1.8900    -2.7350     1.9010 H     1 <1>   0.0800 
 22 H        2.4990    -2.5480     0.2720 H     1 <1>   0.0800 
 23 H        0.1790    -2.2600    -0.5430 H     1 <1>   0.0800 
 24 H       -0.4340    -2.5700     1.0570 H     1 <1>   0.0800 
 25 H        1.1510     2.1010     1.8890 H     1 <1>   0.1500 
 26 H        4.4540     0.6060    -1.4970 H     1 <1>   0.0800 
 27 H        5.4420     1.9920    -1.1190 H     1 <1>   0.0800 
 28 H        4.2160     2.0990    -2.3650 H     1 <1>   0.0800 
 29 H       -0.5270    -4.7580     1.9120 H     1 <1>   0.0800 
 30 H        1.2030    -4.8630     1.9520 H     1 <1>   0.0800 
 31 H       -0.5810    -4.0700    -1.7480 H     1 <1>   0.0800 
 32 H       -1.6250    -4.3710    -0.3950 H     1 <1>   0.0800 
 33 H        3.7080     4.6500    -1.6680 H     1 <1>   0.0800 
 34 H        4.9430     4.5480    -0.4170 H     1 <1>   0.0800 
 35 H        3.4920     5.4970    -0.1470 H     1 <1>   0.0800 
 36 H       -0.6770    -6.9540     1.4340 H     1 <1>   0.0800 
 37 H        1.0510    -7.0680     1.6150 H     1 <1>   0.0800 
 38 H       -0.4890    -6.2570    -2.2270 H     1 <1>   0.0800 
 39 H       -1.6350    -6.5550    -0.9520 H     1 <1>   0.0800 
 40 H        1.2700    -6.3890    -0.6670 H     1 <1>   0.4500 
 41 H       -0.4540    -8.8130    -0.4260 H     1 <1>   0.0800 
 42 H        1.2800    -8.7820    -0.1770 H     1 <1>   0.0800 
 43 H        0.6200    -8.4710    -1.7670 H     1 <1>   0.0800 
@<TRIPOS>BOND
  1   1   2  2   
  2   2   3  am  
  3   2   4  1   
  4   3   5  1   
  5   3  20  1   
  6   4   6  1   
  7   4  21  1   
  8   4  22  1   
  9   5   7  2   
 10   5   8  1   
 11   6   9  1   
 12   6  23  1   
 13   6  24  1   
 14   7  10  1   
 15   7  11  1   
 16   8  12  2   
 17   8  25  1   
 18   9  13  1   
 19   9  14  1   
 20  10  12  1   
 21  10  15  1   
 22  11  26  1   
 23  11  27  1   
 24  11  28  1   
 25  13  16  1   
 26  13  29  1   
 27  13  30  1   
 28  14  17  1   
 29  14  31  1   
 30  14  32  1   
 31  15  33  1   
 32  15  34  1   
 33  15  35  1   
 34  16  18  1   
 35  16  36  1   
 36  16  37  1   
 37  17  18  1   
 38  17  38  1   
 39  17  39  1   
 40  18  19  1   
 41  18  40  1   
 42  19  41  1   
 43  19  42  1   
 44  19  43  1   
@<TRIPOS>SUBSTRUCTURE
  1 ****   4 GROUP 4 **** **** 0

# MOE 2024.06 (io_trps.svl 2023.06)
