@<TRIPOS>MOLECULE
NONAME
41 43 1 0 0 
SMALL
USER_CHARGES


@<TRIPOS>ATOM
  1 S       -0.1710    -0.5920    -0.6110 S.3   1 <1>  -0.0800 
  2 C       -1.4970    -1.2860     0.3060 C.2   1 <1>  -0.1400 
  3 C       -0.6840     1.0370    -0.2160 C.2   1 <1>  -0.1400 
  4 C       -2.2450    -0.3090     0.8590 C.2   1 <1>  -0.1500 
  5 C       -1.5560    -2.7990     0.3100 C.3   1 <1>   0.5230 
  6 C       -1.7820     1.0110     0.5590 C.2   1 <1>  -0.1500 
  7 C        0.1400     2.1800    -0.7740 C.3   1 <1>  -0.0600 
  8 N       -2.9380    -3.2450     0.6170 N.4   1 <1>  -0.9590 
  9 C       -3.9610    -2.8230    -0.3780 C.3   1 <1>   0.3430 
 10 C       -3.1080    -4.7150     0.7910 C.3   1 <1>   0.3430 
 11 C       -5.1610    -3.7070    -0.0430 C.3   1 <1>   0.2000 
 12 C       -4.5170    -5.0600     0.2720 C.3   1 <1>  -0.0800 
 13 O       -5.7280    -3.2210     1.1290 O.3   1 <1>  -0.6800 
 14 C       -4.4540    -5.9630    -0.9760 C.3   1 <1>  -0.0170 
 15 C       -3.5820    -7.1830    -0.7240 C.ar  1 <1>  -0.1430 
 16 C       -3.9250    -8.1460     0.2050 C.ar  1 <1>  -0.1500 
 17 C       -2.4000    -7.3900    -1.4090 C.ar  1 <1>  -0.1500 
 18 C       -3.0820    -9.2240     0.4160 C.ar  1 <1>   0.1600 
 19 C       -1.6300    -8.5050    -1.1240 C.ar  1 <1>   0.1600 
 20 N       -1.9380    -9.4170    -0.2180 N.ar  1 <1>  -0.6200 
 21 H       -3.1170    -0.4350     1.4790 H     1 <1>   0.1500 
 22 H       -0.8650    -3.1790     1.0450 H     1 <1>   0.0800 
 23 H       -1.2620    -3.1680    -0.6580 H     1 <1>   0.0800 
 24 H       -2.2950     1.8780     0.9410 H     1 <1>   0.1500 
 25 H       -0.2730     3.1220    -0.4620 H     1 <1>   0.0800 
 26 H        0.1440     2.1410    -1.8480 H     1 <1>   0.0800 
 27 H        1.1520     2.1100    -0.4180 H     1 <1>   0.0800 
 28 H       -3.2320    -2.8010     1.5000 H     1 <1>   0.4500 
 29 H       -4.2070    -1.7770    -0.2910 H     1 <1>   0.0800 
 30 H       -3.6180    -3.0330    -1.3770 H     1 <1>   0.0800 
 31 H       -2.3630    -5.2520     0.2270 H     1 <1>   0.0800 
 32 H       -3.0150    -4.9820     1.8320 H     1 <1>   0.0800 
 33 H       -5.9080    -3.7270    -0.8190 H     1 <1>   0.0800 
 34 H       -5.0680    -5.5800     1.0360 H     1 <1>   0.0800 
 35 H       -6.6060    -3.6260     1.2980 H     1 <1>   0.4000 
 36 H       -4.0640    -5.4160    -1.8170 H     1 <1>   0.0800 
 37 H       -5.4460    -6.2910    -1.2370 H     1 <1>   0.0800 
 38 H       -4.8380    -8.0790     0.7680 H     1 <1>   0.1500 
 39 H       -2.0650    -6.7060    -2.1680 H     1 <1>   0.1500 
 40 H       -3.3620    -9.9680     1.1440 H     1 <1>   0.1500 
 41 H       -0.7120    -8.6560    -1.6670 H     1 <1>   0.1500 
@<TRIPOS>BOND
  1   1   2  1   
  2   1   3  1   
  3   2   4  2   
  4   2   5  1   
  5   3   6  2   
  6   3   7  1   
  7   4   6  1   
  8   4  21  1   
  9   5   8  1   
 10   5  22  1   
 11   5  23  1   
 12   6  24  1   
 13   7  25  1   
 14   7  26  1   
 15   7  27  1   
 16   8   9  1   
 17   8  10  1   
 18   8  28  1   
 19   9  11  1   
 20   9  29  1   
 21   9  30  1   
 22  10  12  1   
 23  10  31  1   
 24  10  32  1   
 25  11  12  1   
 26  11  13  1   
 27  11  33  1   
 28  12  14  1   
 29  12  34  1   
 30  13  35  1   
 31  14  15  1   
 32  14  36  1   
 33  14  37  1   
 34  15  16  ar  
 35  15  17  ar  
 36  16  18  ar  
 37  16  38  1   
 38  17  19  ar  
 39  17  39  1   
 40  18  20  ar  
 41  18  40  1   
 42  19  20  ar  
 43  19  41  1   
@<TRIPOS>SUBSTRUCTURE
  1 ****   8 GROUP 4 **** **** 0

# MOE 2024.06 (io_trps.svl 2023.06)
