@<TRIPOS>MOLECULE
NONAME
59 61 1 0 0 
SMALL
USER_CHARGES


@<TRIPOS>ATOM
  1 O        0.0160     0.4930    -0.3400 O.2   1 <1>  -0.5700 
  2 C        0.0670     1.6680    -0.0580 C.2   1 <1>   0.5690 
  3 N       -1.0300     2.3660     0.3830 N.am  1 <1>  -0.6600 
  4 C        1.4190     2.3690    -0.2270 C.3   1 <1>   0.1810 
  5 C       -0.9210     3.8530     0.6300 C.3   1 <1>   0.3640 
  6 C       -2.2280     1.6130     0.8730 C.3   1 <1>   0.2200 
  7 O        1.5060     3.5850     0.4720 O.3   1 <1>  -0.5600 
  8 C       -2.0100     4.6350    -0.1050 C.ar  1 <1>  -0.1440 
  9 C        0.4330     4.4590     0.1970 C.3   1 <1>   0.2610 
 10 C       -3.3480     1.6220    -0.1650 C.3   1 <1>  -0.2400 
 11 C       -2.7230     2.1210     2.2290 C.3   1 <1>  -0.2400 
 12 C       -2.7310     5.6090     0.5710 C.ar  1 <1>  -0.1500 
 13 C       -2.2650     4.4220    -1.4540 C.ar  1 <1>  -0.1500 
 14 C        0.6080     5.8280     0.8820 C.2   1 <1>   0.5690 
 15 C       -3.6920     6.3560    -0.0890 C.ar  1 <1>  -0.1500 
 16 C       -3.2250     5.1680    -2.1140 C.ar  1 <1>  -0.1500 
 17 O        0.5800     5.8400     2.0950 O.2   1 <1>  -0.5700 
 18 N        0.7310     7.0030     0.1630 N.am  1 <1>  -0.6600 
 19 C       -3.9390     6.1360    -1.4320 C.ar  1 <1>  -0.1500 
 20 C        0.8220     8.3050     0.9010 C.3   1 <1>   0.2200 
 21 C        0.5670     7.0780    -1.3200 C.3   1 <1>   0.1400 
 22 C       -0.5430     9.0080     0.9120 C.3   1 <1>  -0.1600 
 23 C        1.9270     9.2220     0.3500 C.3   1 <1>  -0.1600 
 24 C        1.8750     6.6990    -2.0140 C.3   1 <1>  -0.2400 
 25 C       -0.4760    10.3270     1.6960 C.3   1 <1>  -0.1600 
 26 C        1.9910    10.5350     1.1440 C.3   1 <1>  -0.1600 
 27 C        0.6290    11.2440     1.1520 C.3   1 <1>  -0.1600 
 28 H        1.5980     2.5590    -1.2690 H     1 <1>   0.0800 
 29 H        2.1960     1.7270     0.1450 H     1 <1>   0.0800 
 30 H       -1.0220     4.0170     1.6880 H     1 <1>   0.0800 
 31 H       -1.9410     0.5830     1.0170 H     1 <1>   0.0800 
 32 H        0.4160     4.5860    -0.8650 H     1 <1>   0.0800 
 33 H       -3.8090     2.5890    -0.2340 H     1 <1>   0.0800 
 34 H       -4.1050     0.9150     0.1180 H     1 <1>   0.0800 
 35 H       -2.9610     1.3330    -1.1260 H     1 <1>   0.0800 
 36 H       -3.1470     3.1050     2.1460 H     1 <1>   0.0800 
 37 H       -1.9170     2.1270     2.9400 H     1 <1>   0.0800 
 38 H       -3.4880     1.4630     2.5980 H     1 <1>   0.0800 
 39 H       -2.5430     5.7980     1.6150 H     1 <1>   0.1500 
 40 H       -1.7200     3.6650    -1.9940 H     1 <1>   0.1500 
 41 H       -4.2460     7.1100     0.4440 H     1 <1>   0.1500 
 42 H       -3.4200     4.9920    -3.1580 H     1 <1>   0.1500 
 43 H       -4.6870     6.7160    -1.9440 H     1 <1>   0.1500 
 44 H        1.0840     8.1060     1.9270 H     1 <1>   0.0800 
 45 H       -0.2300     6.4270    -1.6350 H     1 <1>   0.0800 
 46 H        0.2830     8.0730    -1.6150 H     1 <1>   0.0800 
 47 H       -0.8620     9.2190    -0.0920 H     1 <1>   0.0800 
 48 H       -1.2680     8.3600     1.3720 H     1 <1>   0.0800 
 49 H        2.8730     8.7160     0.4230 H     1 <1>   0.0800 
 50 H        1.7400     9.4630    -0.6790 H     1 <1>   0.0800 
 51 H        2.1900     5.7100    -1.7400 H     1 <1>   0.0800 
 52 H        2.6520     7.3940    -1.7540 H     1 <1>   0.0800 
 53 H        1.7390     6.7310    -3.0800 H     1 <1>   0.0800 
 54 H       -1.4260    10.8310     1.6360 H     1 <1>   0.0800 
 55 H       -0.2820    10.1140     2.7330 H     1 <1>   0.0800 
 56 H        2.2890    10.3240     2.1570 H     1 <1>   0.0800 
 57 H        2.7340    11.1830     0.7110 H     1 <1>   0.0800 
 58 H        0.6900    12.1310     1.7580 H     1 <1>   0.0800 
 59 H        0.3800    11.5470     0.1500 H     1 <1>   0.0800 
@<TRIPOS>BOND
  1   1   2  2   
  2   2   3  am  
  3   2   4  1   
  4   3   5  1   
  5   3   6  1   
  6   4   7  1   
  7   4  28  1   
  8   4  29  1   
  9   5   8  1   
 10   5   9  1   
 11   5  30  1   
 12   6  10  1   
 13   6  11  1   
 14   6  31  1   
 15   7   9  1   
 16   8  12  ar  
 17   8  13  ar  
 18   9  14  1   
 19   9  32  1   
 20  10  33  1   
 21  10  34  1   
 22  10  35  1   
 23  11  36  1   
 24  11  37  1   
 25  11  38  1   
 26  12  15  ar  
 27  12  39  1   
 28  13  16  ar  
 29  13  40  1   
 30  14  17  2   
 31  14  18  am  
 32  15  19  ar  
 33  15  41  1   
 34  16  19  ar  
 35  16  42  1   
 36  18  20  1   
 37  18  21  1   
 38  19  43  1   
 39  20  22  1   
 40  20  23  1   
 41  20  44  1   
 42  21  24  1   
 43  21  45  1   
 44  21  46  1   
 45  22  25  1   
 46  22  47  1   
 47  22  48  1   
 48  23  26  1   
 49  23  49  1   
 50  23  50  1   
 51  24  51  1   
 52  24  52  1   
 53  24  53  1   
 54  25  27  1   
 55  25  54  1   
 56  25  55  1   
 57  26  27  1   
 58  26  56  1   
 59  26  57  1   
 60  27  58  1   
 61  27  59  1   
@<TRIPOS>SUBSTRUCTURE
  1 ****  14 GROUP 4 **** **** 0

# MOE 2024.06 (io_trps.svl 2023.06)
