@<TRIPOS>MOLECULE
NONAME
46 49 1 0 0 
SMALL
USER_CHARGES


@<TRIPOS>ATOM
  1 O       -1.6790     0.1350    -1.8080 O.2   1 <1>  -0.5700 
  2 C       -1.7480     0.4250    -0.6310 C.2   1 <1>   0.5440 
  3 N       -1.9410    -0.5790     0.2710 N.am  1 <1>  -0.7300 
  4 C       -1.6540     1.7960    -0.1880 C.ar  1 <1>   0.0860 
  5 C       -1.9930    -2.0260    -0.0510 C.3   1 <1>   0.2200 
  6 C       -0.6950     2.6990    -0.6680 C.ar  1 <1>   0.0000 
  7 C       -2.5170     2.3200     0.7620 C.ar  1 <1>  -0.1500 
  8 C       -3.4210    -2.5540    -0.0040 C.3   1 <1>  -0.0800 
  9 C       -1.3750    -2.8010     1.1030 C.3   1 <1>   0.1200 
 10 C       -0.6940     3.9790    -0.1680 C.ar  1 <1>   0.3970 
 11 C        0.3890     2.7340    -1.5710 C.2   1 <1>   0.1080 
 12 C       -2.4140     3.6450     1.1890 C.ar  1 <1>   0.1660 
 13 C       -3.6280    -2.8680     1.4830 C.3   1 <1>   0.1200 
 14 C       -4.4990    -1.6410    -0.6180 C.3   1 <1>  -0.0170 
 15 O       -2.3660    -2.8260     2.0840 O.3   1 <1>  -0.5600 
 16 O        0.2900     4.6430    -0.7460 O.3   1 <1>  -0.0190 
 17 N       -1.5170     4.4920     0.7470 N.ar  1 <1>  -0.5670 
 18 N        0.9450     3.8860    -1.5930 N.2   1 <1>  -0.4100 
 19 C        0.8760     1.5810    -2.4250 C.3   1 <1>  -0.0590 
 20 C       -3.3790     4.1800     2.2270 C.3   1 <1>  -0.0970 
 21 C       -5.8550    -2.3300    -0.6190 C.ar  1 <1>  -0.1440 
 22 C       -6.2100    -3.2250    -1.6080 C.ar  1 <1>  -0.1500 
 23 C       -6.7990    -2.1020     0.3630 C.ar  1 <1>  -0.1500 
 24 C       -7.4520    -3.8350    -1.5670 C.ar  1 <1>   0.1600 
 25 C       -8.0130    -2.7660     0.3120 C.ar  1 <1>   0.1600 
 26 N       -8.3620    -3.6290    -0.6280 N.ar  1 <1>  -0.6200 
 27 H       -1.9870    -0.3850     1.2740 H     1 <1>   0.3700 
 28 H       -1.5050    -2.2280    -0.9890 H     1 <1>   0.0800 
 29 H       -3.2880     1.6960     1.1740 H     1 <1>   0.1500 
 30 H       -3.4390    -3.4910    -0.5330 H     1 <1>   0.0800 
 31 H       -0.4850    -2.3370     1.4930 H     1 <1>   0.0800 
 32 H       -1.1650    -3.8170     0.8160 H     1 <1>   0.0800 
 33 H       -4.0520    -3.8480     1.6270 H     1 <1>   0.0800 
 34 H       -4.2440    -2.1310     1.9680 H     1 <1>   0.0800 
 35 H       -4.2240    -1.3960    -1.6290 H     1 <1>   0.0800 
 36 H       -4.5680    -0.7190    -0.0700 H     1 <1>   0.0800 
 37 H        1.0010     0.6990    -1.8250 H     1 <1>   0.0800 
 38 H        1.8200     1.8290    -2.8760 H     1 <1>   0.0800 
 39 H        0.1650     1.3810    -3.2060 H     1 <1>   0.0800 
 40 H       -4.0860     3.4310     2.5310 H     1 <1>   0.0800 
 41 H       -3.9150     5.0190     1.8210 H     1 <1>   0.0800 
 42 H       -2.8310     4.5110     3.0910 H     1 <1>   0.0800 
 43 H       -5.5330    -3.4530    -2.4110 H     1 <1>   0.1500 
 44 H       -6.6040    -1.4170     1.1670 H     1 <1>   0.1500 
 45 H       -7.7110    -4.5300    -2.3470 H     1 <1>   0.1500 
 46 H       -8.7370    -2.5770     1.0860 H     1 <1>   0.1500 
@<TRIPOS>BOND
  1   1   2  2   
  2   2   3  am  
  3   2   4  1   
  4   3   5  1   
  5   3  27  1   
  6   4   6  ar  
  7   4   7  ar  
  8   5   8  1   
  9   5   9  1   
 10   5  28  1   
 11   6  10  ar  
 12   6  11  1   
 13   7  12  ar  
 14   7  29  1   
 15   8  13  1   
 16   8  14  1   
 17   8  30  1   
 18   9  15  1   
 19   9  31  1   
 20   9  32  1   
 21  10  16  1   
 22  10  17  ar  
 23  11  18  2   
 24  11  19  1   
 25  12  17  ar  
 26  12  20  1   
 27  13  15  1   
 28  13  33  1   
 29  13  34  1   
 30  14  21  1   
 31  14  35  1   
 32  14  36  1   
 33  16  18  1   
 34  19  37  1   
 35  19  38  1   
 36  19  39  1   
 37  20  40  1   
 38  20  41  1   
 39  20  42  1   
 40  21  22  ar  
 41  21  23  ar  
 42  22  24  ar  
 43  22  43  1   
 44  23  25  ar  
 45  23  44  1   
 46  24  26  ar  
 47  24  45  1   
 48  25  26  ar  
 49  25  46  1   
@<TRIPOS>SUBSTRUCTURE
  1 ****   3 GROUP 4 **** **** 0

# MOE 2024.06 (io_trps.svl 2023.06)
