@<TRIPOS>MOLECULE
NONAME
51 54 1 0 0 
SMALL
USER_CHARGES


@<TRIPOS>ATOM
  1 O        2.2350     1.8770     0.6580 O.3   1 <1>  -0.0190 
  2 N        2.8060     0.7840     0.2560 N.2   1 <1>  -0.4100 
  3 C        0.9680     1.9120     0.3410 C.2   1 <1>  -0.0400 
  4 C        1.8880     0.0880    -0.3140 C.2   1 <1>   0.1080 
  5 C        0.6710     0.7670    -0.2910 C.2   1 <1>  -0.1500 
  6 C        0.1350     3.1250     0.7050 C.3   1 <1>   0.0200 
  7 C        2.1090    -1.2790    -0.9230 C.3   1 <1>  -0.0590 
  8 C        0.5860     4.3600    -0.1020 C.3   1 <1>  -0.0800 
  9 C       -0.1720     5.6570     0.1810 C.3   1 <1>   0.2000 
 10 C        2.0620     4.7270     0.1150 C.3   1 <1>   0.3430 
 11 O       -0.3180     5.8280     1.5560 O.3   1 <1>  -0.6800 
 12 C        0.8020     6.7200    -0.3350 C.3   1 <1>   0.3430 
 13 N        2.1690     6.2150     0.0190 N.4   1 <1>  -0.9590 
 14 C        2.6300     6.7870     1.3120 C.3   1 <1>   0.5240 
 15 C        2.8230     8.2740     1.1230 C.2   1 <1>  -0.1810 
 16 C        2.0150     9.2610     1.6740 C.2   1 <1>   0.1390 
 17 C        3.7480     8.9540     0.4110 C.2   1 <1>  -0.3020 
 18 N        2.3910    10.4460     1.3230 N.2   1 <1>  -0.7070 
 19 N        3.4890    10.2800     0.5440 N.pl3 1 <1>   0.5930 
 20 C        4.1830    11.3450    -0.0930 C.ar  1 <1>  -0.0230 
 21 C        5.5230    11.6330     0.1880 C.ar  1 <1>  -0.1440 
 22 C        3.5110    12.1190    -1.0350 C.ar  1 <1>  -0.1500 
 23 C        6.1600    12.6580    -0.4930 C.ar  1 <1>  -0.1500 
 24 C        6.3070    10.8570     1.2390 C.3   1 <1>  -0.0970 
 25 C        4.1540    13.1420    -1.7050 C.ar  1 <1>  -0.1500 
 26 C        5.4830    13.4090    -1.4370 C.ar  1 <1>  -0.1500 
 27 H       -0.2590     0.4160    -0.6990 H     1 <1>   0.1500 
 28 H       -0.8990     2.9140     0.4960 H     1 <1>   0.0800 
 29 H        0.2330     3.2960     1.7640 H     1 <1>   0.0800 
 30 H        1.8750    -1.2560    -1.9710 H     1 <1>   0.0800 
 31 H        1.4800    -2.0010    -0.4350 H     1 <1>   0.0800 
 32 H        3.1350    -1.5740    -0.8010 H     1 <1>   0.0800 
 33 H        0.4700     4.1280    -1.1470 H     1 <1>   0.0800 
 34 H       -1.1390     5.7170    -0.2900 H     1 <1>   0.0800 
 35 H        2.6820     4.2390    -0.6220 H     1 <1>   0.0800 
 36 H        2.3720     4.3960     1.0940 H     1 <1>   0.0800 
 37 H       -1.1360     5.3950     1.8840 H     1 <1>   0.4000 
 38 H        0.5910     7.6860     0.0930 H     1 <1>   0.0800 
 39 H        0.7120     6.7850    -1.4060 H     1 <1>   0.0800 
 40 H        2.8460     6.5020    -0.6980 H     1 <1>   0.4500 
 41 H        1.9030     6.6010     2.0870 H     1 <1>   0.0800 
 42 H        3.5660     6.3400     1.6030 H     1 <1>   0.0800 
 43 H        1.1650     9.0840     2.3160 H     1 <1>   0.1500 
 44 H        4.5740     8.6090    -0.1840 H     1 <1>   0.1500 
 45 H        2.4730    11.9210    -1.2410 H     1 <1>   0.1500 
 46 H        7.1920    12.8860    -0.2900 H     1 <1>   0.1500 
 47 H        7.2140    11.3740     1.4980 H     1 <1>   0.0800 
 48 H        6.5670     9.8830     0.8650 H     1 <1>   0.0800 
 49 H        5.7230    10.7470     2.1360 H     1 <1>   0.0800 
 50 H        3.6220    13.7310    -2.4330 H     1 <1>   0.1500 
 51 H        5.9880    14.2030    -1.9580 H     1 <1>   0.1500 
@<TRIPOS>BOND
  1   1   2  1   
  2   1   3  1   
  3   2   4  2   
  4   3   5  2   
  5   3   6  1   
  6   4   5  1   
  7   4   7  1   
  8   5  27  1   
  9   6   8  1   
 10   6  28  1   
 11   6  29  1   
 12   7  30  1   
 13   7  31  1   
 14   7  32  1   
 15   8   9  1   
 16   8  10  1   
 17   8  33  1   
 18   9  11  1   
 19   9  12  1   
 20   9  34  1   
 21  10  13  1   
 22  10  35  1   
 23  10  36  1   
 24  11  37  1   
 25  12  13  1   
 26  12  38  1   
 27  12  39  1   
 28  13  14  1   
 29  13  40  1   
 30  14  15  1   
 31  14  41  1   
 32  14  42  1   
 33  15  16  1   
 34  15  17  2   
 35  16  18  2   
 36  16  43  1   
 37  17  19  1   
 38  17  44  1   
 39  18  19  1   
 40  19  20  1   
 41  20  21  ar  
 42  20  22  ar  
 43  21  23  ar  
 44  21  24  1   
 45  22  25  ar  
 46  22  45  1   
 47  23  26  ar  
 48  23  46  1   
 49  24  47  1   
 50  24  48  1   
 51  24  49  1   
 52  25  26  ar  
 53  25  50  1   
 54  26  51  1   
@<TRIPOS>SUBSTRUCTURE
  1 ****  13 GROUP 4 **** **** 0

# MOE 2024.06 (io_trps.svl 2023.06)
