@<TRIPOS>MOLECULE
NONAME
44 46 1 0 0 
SMALL
USER_CHARGES


@<TRIPOS>ATOM
  1 O       -0.2810    -0.3770    -0.5190 O.2   1 <1>  -0.5700 
  2 C       -1.3530    -0.8890    -0.2500 C.2   1 <1>   0.5410 
  3 C       -1.4890    -2.2740     0.0120 C.2   1 <1>  -0.1360 
  4 C       -2.5510    -0.1300    -0.1830 C.2   1 <1>  -0.1360 
  5 C       -2.6970    -2.8420     0.2960 C.2   1 <1>   0.0910 
  6 C       -3.7270    -0.7300     0.1080 C.2   1 <1>  -0.0620 
  7 O       -3.7860    -2.0460     0.3360 O.3   1 <1>  -0.1530 
  8 C       -2.8860    -4.2550     0.5820 C.2   1 <1>   0.6160 
  9 C       -5.0640    -0.0220     0.2110 C.3   1 <1>  -0.1020 
 10 O       -1.9140    -4.9140     0.9070 O.2   1 <1>  -0.5700 
 11 N       -4.1000    -4.9050     0.4870 N.am  1 <1>  -0.6600 
 12 C       -5.2950    -4.4340    -0.2640 C.3   1 <1>   0.1400 
 13 C       -4.2750    -6.3370     0.8290 C.3   1 <1>   0.1400 
 14 C       -6.2250    -5.6490    -0.4000 C.3   1 <1>   0.2000 
 15 C       -5.3020    -6.8520    -0.1790 C.3   1 <1>  -0.0800 
 16 O       -7.1850    -5.6260     0.6180 O.3   1 <1>  -0.5600 
 17 C       -6.0170    -8.1390     0.2730 C.3   1 <1>   0.0200 
 18 C       -8.3360    -4.8940     0.3340 C.3   1 <1>   0.0400 
 19 C       -5.1000    -9.3500     0.3120 C.2   1 <1>  -0.0400 
 20 O       -5.5740   -10.4820     0.7610 O.3   1 <1>  -0.0190 
 21 C       -3.8180    -9.5550    -0.0360 C.2   1 <1>  -0.1500 
 22 N       -4.6820   -11.4300     0.7350 N.2   1 <1>  -0.4100 
 23 C       -3.6130   -10.8990     0.2610 C.2   1 <1>   0.1080 
 24 C       -2.3120   -11.6420     0.0560 C.3   1 <1>  -0.0590 
 25 H       -0.5860    -2.8550    -0.0220 H     1 <1>   0.1500 
 26 H       -2.4570     0.9230    -0.3730 H     1 <1>   0.1500 
 27 H       -5.4730    -0.1570     1.1960 H     1 <1>   0.0800 
 28 H       -5.7510    -0.4280    -0.5100 H     1 <1>   0.0800 
 29 H       -4.9510     1.0310     0.0250 H     1 <1>   0.0800 
 30 H       -5.7830    -3.6330     0.2620 H     1 <1>   0.0800 
 31 H       -4.9850    -4.0970    -1.2380 H     1 <1>   0.0800 
 32 H       -3.3480    -6.8790     0.7670 H     1 <1>   0.0800 
 33 H       -4.6630    -6.4070     1.8320 H     1 <1>   0.0800 
 34 H       -6.7190    -5.6930    -1.3560 H     1 <1>   0.0800 
 35 H       -4.7880    -7.0460    -1.1030 H     1 <1>   0.0800 
 36 H       -6.8270    -8.3510    -0.4020 H     1 <1>   0.0800 
 37 H       -6.4390    -7.9970     1.2530 H     1 <1>   0.0800 
 38 H       -8.9800    -4.9400     1.1950 H     1 <1>   0.0800 
 39 H       -8.8360    -5.3300    -0.5130 H     1 <1>   0.0800 
 40 H       -8.0740    -3.8690     0.1350 H     1 <1>   0.0800 
 41 H       -3.0900    -8.8820    -0.4470 H     1 <1>   0.1500 
 42 H       -1.5280   -11.1630     0.6130 H     1 <1>   0.0800 
 43 H       -2.0560   -11.6480    -0.9870 H     1 <1>   0.0800 
 44 H       -2.4120   -12.6570     0.3970 H     1 <1>   0.0800 
@<TRIPOS>BOND
  1   1   2  2   
  2   2   3  1   
  3   2   4  1   
  4   3   5  2   
  5   3  25  1   
  6   4   6  2   
  7   4  26  1   
  8   5   7  1   
  9   5   8  1   
 10   6   7  1   
 11   6   9  1   
 12   8  10  2   
 13   8  11  am  
 14   9  27  1   
 15   9  28  1   
 16   9  29  1   
 17  11  12  1   
 18  11  13  1   
 19  12  14  1   
 20  12  30  1   
 21  12  31  1   
 22  13  15  1   
 23  13  32  1   
 24  13  33  1   
 25  14  15  1   
 26  14  16  1   
 27  14  34  1   
 28  15  17  1   
 29  15  35  1   
 30  16  18  1   
 31  17  19  1   
 32  17  36  1   
 33  17  37  1   
 34  18  38  1   
 35  18  39  1   
 36  18  40  1   
 37  19  20  1   
 38  19  21  2   
 39  20  22  1   
 40  21  23  1   
 41  21  41  1   
 42  22  23  2   
 43  23  24  1   
 44  24  42  1   
 45  24  43  1   
 46  24  44  1   
@<TRIPOS>SUBSTRUCTURE
  1 ****  11 GROUP 4 **** **** 0

# MOE 2024.06 (io_trps.svl 2023.06)
