@<TRIPOS>MOLECULE
NONAME
24 25 1 0 0 
SMALL
USER_CHARGES


@<TRIPOS>ATOM
  1 C       -0.4490     0.5820     0.7770 C.1   1 <1>  -0.2000 
  2 C       -0.5300    -0.4660     1.3330 C.1   1 <1>  -0.1770 
  3 C       -0.3430     1.8970     0.0800 C.3   1 <1>   0.0400 
  4 C        1.1180     2.2460    -0.2600 C.3   1 <1>  -0.0800 
  5 C        2.0020     2.5060     0.9820 C.3   1 <1>  -0.0800 
  6 C        1.2350     3.5770    -1.0350 C.3   1 <1>  -0.1600 
  7 C        1.8030     3.9950     1.2210 C.3   1 <1>  -0.1600 
  8 C        3.4720     2.4780     0.5320 C.3   1 <1>  -0.1600 
  9 C        2.2120     4.4030    -0.1830 C.3   1 <1>  -0.0800 
 10 C        3.6100     3.7710    -0.2910 C.3   1 <1>  -0.1600 
 11 H       -0.6010    -1.4140     1.8360 H     1 <1>   0.1770 
 12 H       -0.7780     2.6580     0.7020 H     1 <1>   0.0800 
 13 H       -0.9150     1.8450    -0.8290 H     1 <1>   0.0800 
 14 H        1.5290     1.4420    -0.8460 H     1 <1>   0.0800 
 15 H        1.7970     1.8710     1.8270 H     1 <1>   0.0800 
 16 H        0.2870     4.0830    -1.0900 H     1 <1>   0.0800 
 17 H        1.6070     3.4250    -2.0340 H     1 <1>   0.0800 
 18 H        2.4630     4.3870     1.9770 H     1 <1>   0.0800 
 19 H        0.7850     4.2560     1.4530 H     1 <1>   0.0800 
 20 H        3.7010     1.6010    -0.0490 H     1 <1>   0.0800 
 21 H        4.1230     2.5110     1.3890 H     1 <1>   0.0800 
 22 H        2.1890     5.4610    -0.3830 H     1 <1>   0.0800 
 23 H        3.8820     3.5720    -1.3130 H     1 <1>   0.0800 
 24 H        4.3480     4.4170     0.1530 H     1 <1>   0.0800 
@<TRIPOS>BOND
  1   1   2  3   
  2   1   3  1   
  3   2  11  1   
  4   3   4  1   
  5   3  12  1   
  6   3  13  1   
  7   4   5  1   
  8   4   6  1   
  9   4  14  1   
 10   5   7  1   
 11   5   8  1   
 12   5  15  1   
 13   6   9  1   
 14   6  16  1   
 15   6  17  1   
 16   7   9  1   
 17   7  18  1   
 18   7  19  1   
 19   8  10  1   
 20   8  20  1   
 21   8  21  1   
 22   9  10  1   
 23   9  22  1   
 24  10  23  1   
 25  10  24  1   
@<TRIPOS>SUBSTRUCTURE
  1 ****   4 GROUP 4 **** **** 0

# MOE 2024.06 (io_trps.svl 2023.06)
