@<TRIPOS>MOLECULE
NONAME
51 54 1 0 0 
SMALL
USER_CHARGES


@<TRIPOS>ATOM
  1 O        0.8210     0.9370    -0.5170 O.3   1 <1>  -0.0190 
  2 N        1.6880     1.7230     0.0670 N.2   1 <1>  -0.4100 
  3 C        1.2630    -0.2680    -0.2550 C.2   1 <1>   0.2980 
  4 C        2.5520     0.9660     0.6240 C.2   1 <1>   0.5990 
  5 N        2.3290    -0.3240     0.4340 N.2   1 <1>  -0.5650 
  6 C        0.4860    -1.4620    -0.7790 C.3   1 <1>   0.0200 
  7 N        3.6510     1.4120     1.3570 N.pl3 1 <1>  -0.8210 
  8 C        0.5360    -1.5460    -2.3120 C.3   1 <1>  -0.1600 
  9 C        3.8510     2.8800     1.5340 C.3   1 <1>   0.2890 
 10 C        4.8110     0.5080     1.5720 C.3   1 <1>   0.2090 
 11 C       -0.2390    -2.7610    -2.8350 C.3   1 <1>  -0.2400 
 12 C        4.3120     3.5100     0.1960 C.3   1 <1>   0.3430 
 13 C        4.8230     3.1480     2.7010 C.3   1 <1>  -0.1600 
 14 C        6.1130     1.3090     1.4850 C.3   1 <1>  -0.0800 
 15 N        5.7290     3.2280    -0.2610 N.4   1 <1>  -0.9590 
 16 C        6.1430     2.3510     2.6200 C.3   1 <1>  -0.1600 
 17 C        6.2810     1.8540     0.0480 C.3   1 <1>   0.3430 
 18 C        6.6520     4.3410     0.0990 C.3   1 <1>   0.4860 
 19 C        7.9680     4.1490    -0.6290 C.ar  1 <1>  -0.1440 
 20 C        8.0580     4.3940    -1.9920 C.ar  1 <1>  -0.1500 
 21 C        9.0920     3.7210     0.0640 C.ar  1 <1>  -0.1500 
 22 C        9.2560     4.2000    -2.6560 C.ar  1 <1>  -0.1500 
 23 C       10.2890     3.5290    -0.6020 C.ar  1 <1>  -0.1500 
 24 C       10.3710     3.7650    -1.9620 C.ar  1 <1>  -0.1500 
 25 H        0.9030    -2.3590    -0.3550 H     1 <1>   0.0800 
 26 H       -0.5330    -1.3810    -0.4480 H     1 <1>   0.0800 
 27 H        0.1160    -0.6500    -2.7360 H     1 <1>   0.0800 
 28 H        1.5620    -1.6160    -2.6310 H     1 <1>   0.0800 
 29 H        2.8990     3.3160     1.7880 H     1 <1>   0.0800 
 30 H        4.7190     0.0540     2.5450 H     1 <1>   0.0800 
 31 H        4.8160    -0.2820     0.8400 H     1 <1>   0.0800 
 32 H       -1.2750    -2.7020    -2.5470 H     1 <1>   0.0800 
 33 H        0.1780    -3.6730    -2.4450 H     1 <1>   0.0800 
 34 H       -0.1870    -2.7960    -3.9090 H     1 <1>   0.0800 
 35 H        4.1760     4.5750     0.2690 H     1 <1>   0.0800 
 36 H        3.6290     3.1640    -0.5610 H     1 <1>   0.0800 
 37 H        5.0280     4.2010     2.7750 H     1 <1>   0.0800 
 38 H        4.3130     2.8700     3.6080 H     1 <1>   0.0800 
 39 H        6.9160     0.6120     1.6480 H     1 <1>   0.0800 
 40 H        5.7040     3.2610    -1.2870 H     1 <1>   0.4500 
 41 H        6.2680     1.8280     3.5540 H     1 <1>   0.0800 
 42 H        6.9950     2.9980     2.5270 H     1 <1>   0.0800 
 43 H        5.8160     1.1450    -0.6180 H     1 <1>   0.0800 
 44 H        7.3320     1.8450    -0.1880 H     1 <1>   0.0800 
 45 H        6.2250     5.2840    -0.2010 H     1 <1>   0.0800 
 46 H        6.8180     4.3770     1.1600 H     1 <1>   0.0800 
 47 H        7.2080     4.7420    -2.5550 H     1 <1>   0.1500 
 48 H        9.0560     3.5360     1.1240 H     1 <1>   0.1500 
 49 H        9.3280     4.3900    -3.7140 H     1 <1>   0.1500 
 50 H       11.1630     3.1980    -0.0660 H     1 <1>   0.1500 
 51 H       11.3030     3.6160    -2.4800 H     1 <1>   0.1500 
@<TRIPOS>BOND
  1   1   2  1   
  2   1   3  1   
  3   2   4  2   
  4   3   5  2   
  5   3   6  1   
  6   4   5  1   
  7   4   7  1   
  8   6   8  1   
  9   6  25  1   
 10   6  26  1   
 11   7   9  1   
 12   7  10  1   
 13   8  11  1   
 14   8  27  1   
 15   8  28  1   
 16   9  12  1   
 17   9  13  1   
 18   9  29  1   
 19  10  14  1   
 20  10  30  1   
 21  10  31  1   
 22  11  32  1   
 23  11  33  1   
 24  11  34  1   
 25  12  15  1   
 26  12  35  1   
 27  12  36  1   
 28  13  16  1   
 29  13  37  1   
 30  13  38  1   
 31  14  16  1   
 32  14  17  1   
 33  14  39  1   
 34  15  17  1   
 35  15  18  1   
 36  15  40  1   
 37  16  41  1   
 38  16  42  1   
 39  17  43  1   
 40  17  44  1   
 41  18  19  1   
 42  18  45  1   
 43  18  46  1   
 44  19  20  ar  
 45  19  21  ar  
 46  20  22  ar  
 47  20  47  1   
 48  21  23  ar  
 49  21  48  1   
 50  22  24  ar  
 51  22  49  1   
 52  23  24  ar  
 53  23  50  1   
 54  24  51  1   
@<TRIPOS>SUBSTRUCTURE
  1 ****  17 GROUP 4 **** **** 0

# MOE 2024.06 (io_trps.svl 2023.06)
