@<TRIPOS>MOLECULE
NONAME
50 52 1 0 0 
SMALL
USER_CHARGES


@<TRIPOS>ATOM
  1 F        0.5810    -0.9630     0.2630 F     1 <1>  -0.3400 
  2 C        0.6020    -2.2740     0.4560 C.3   1 <1>   0.8800 
  3 F        1.8620    -2.6480     0.2740 F     1 <1>  -0.3400 
  4 O       -0.1960    -2.8720    -0.5370 O.3   1 <1>  -0.3630 
  5 C       -0.5840    -4.1640    -0.4480 C.ar  1 <1>   0.0830 
  6 C       -0.1100    -5.0600     0.5060 C.ar  1 <1>  -0.1500 
  7 C       -1.5140    -4.6000    -1.3770 C.ar  1 <1>  -0.1500 
  8 C       -0.5820    -6.3600     0.5260 C.ar  1 <1>  -0.1500 
  9 C       -1.9760    -5.9020    -1.3510 C.ar  1 <1>  -0.1500 
 10 C       -1.5320    -6.8150    -0.3920 C.ar  1 <1>   0.0860 
 11 C       -2.0230    -8.1810    -0.3470 C.2   1 <1>   0.5440 
 12 O       -1.3500    -9.0720     0.1450 O.2   1 <1>  -0.5700 
 13 N       -3.2750    -8.5250    -0.8110 N.am  1 <1>  -0.6600 
 14 C       -3.5720    -9.9340    -1.1260 C.3   1 <1>   0.1400 
 15 C       -4.4870    -7.8140    -0.3290 C.3   1 <1>   0.1400 
 16 C       -4.1370   -10.5150     0.1810 C.3   1 <1>   0.4230 
 17 C       -5.1850    -8.6270     0.7940 C.3   1 <1>  -0.1600 
 18 N       -3.6920   -11.9250     0.4910 N.4   1 <1>  -0.9590 
 19 C       -5.6800   -10.1080     0.3400 C.3   1 <1>   0.0000 
 20 C       -4.0500   -12.8740    -0.5770 C.3   1 <1>   0.3430 
 21 C       -2.2240   -11.9600     0.7980 C.3   1 <1>   0.2630 
 22 C       -6.2170   -11.5450    -0.1770 C.3   1 <1>  -0.1600 
 23 C       -7.2010    -9.6690     0.5820 C.3   1 <1>   0.1200 
 24 C       -5.4100   -12.4740    -1.1200 C.3   1 <1>  -0.1600 
 25 O       -7.6390    -8.9180    -0.5070 O.3   1 <1>  -0.6800 
 26 H        0.2800    -2.5030     1.4560 H     1 <1>   0.0800 
 27 H        0.6290    -4.7770     1.2320 H     1 <1>   0.1500 
 28 H       -1.8700    -3.9120    -2.1240 H     1 <1>   0.1500 
 29 H       -0.2050    -7.0460     1.2650 H     1 <1>   0.1500 
 30 H       -2.6910    -6.2190    -2.0900 H     1 <1>   0.1500 
 31 H       -4.2950    -9.9740    -1.9220 H     1 <1>   0.0800 
 32 H       -2.6730   -10.4350    -1.4380 H     1 <1>   0.0800 
 33 H       -4.2200    -6.8400     0.0450 H     1 <1>   0.0800 
 34 H       -5.1680    -7.6750    -1.1540 H     1 <1>   0.0800 
 35 H       -3.5820    -9.9790     0.9290 H     1 <1>   0.0800 
 36 H       -4.5530    -8.6600     1.6670 H     1 <1>   0.0800 
 37 H       -5.9210    -7.9090     1.1150 H     1 <1>   0.0800 
 38 H       -4.2070   -12.2000     1.3370 H     1 <1>   0.4500 
 39 H       -3.3210   -12.8460    -1.3710 H     1 <1>   0.0800 
 40 H       -4.0870   -13.8750    -0.1780 H     1 <1>   0.0800 
 41 H       -1.6500   -11.6680    -0.0660 H     1 <1>   0.0800 
 42 H       -1.9230   -12.9500     1.0970 H     1 <1>   0.0800 
 43 H       -1.9930   -11.2720     1.5960 H     1 <1>   0.0800 
 44 H       -6.4900   -12.1330     0.6850 H     1 <1>   0.0800 
 45 H       -7.1090   -11.4480    -0.7830 H     1 <1>   0.0800 
 46 H       -7.3640    -9.1010     1.4840 H     1 <1>   0.0800 
 47 H       -7.9230   -10.4590     0.7240 H     1 <1>   0.0800 
 48 H       -5.2810   -11.9970    -2.0760 H     1 <1>   0.0800 
 49 H       -5.9740   -13.3710    -1.3110 H     1 <1>   0.0800 
 50 H       -8.5750    -8.6500    -0.4000 H     1 <1>   0.4000 
@<TRIPOS>BOND
  1   1   2  1   
  2   2   3  1   
  3   2   4  1   
  4   2  26  1   
  5   4   5  1   
  6   5   6  ar  
  7   5   7  ar  
  8   6   8  ar  
  9   6  27  1   
 10   7   9  ar  
 11   7  28  1   
 12   8  10  ar  
 13   8  29  1   
 14   9  10  ar  
 15   9  30  1   
 16  10  11  1   
 17  11  12  2   
 18  11  13  am  
 19  13  14  1   
 20  13  15  1   
 21  14  16  1   
 22  14  31  1   
 23  14  32  1   
 24  15  17  1   
 25  15  33  1   
 26  15  34  1   
 27  16  18  1   
 28  16  19  1   
 29  16  35  1   
 30  17  19  1   
 31  17  36  1   
 32  17  37  1   
 33  18  20  1   
 34  18  21  1   
 35  18  38  1   
 36  19  22  1   
 37  19  23  1   
 38  20  24  1   
 39  20  39  1   
 40  20  40  1   
 41  21  41  1   
 42  21  42  1   
 43  21  43  1   
 44  22  24  1   
 45  22  44  1   
 46  22  45  1   
 47  23  25  1   
 48  23  46  1   
 49  23  47  1   
 50  24  48  1   
 51  24  49  1   
 52  25  50  1   
@<TRIPOS>SUBSTRUCTURE
  1 ****  11 GROUP 4 **** **** 0

# MOE 2024.06 (io_trps.svl 2023.06)
