@<TRIPOS>MOLECULE
NONAME
43 44 1 0 0 
SMALL
USER_CHARGES


@<TRIPOS>ATOM
  1 N       -0.2210     0.8820     1.5200 N.ar  1 <1>  -0.6200 
  2 C       -0.2470     1.9960     0.8200 C.ar  1 <1>   0.7710 
  3 C       -1.0880    -0.0490     1.1990 C.ar  1 <1>   0.4100 
  4 N       -1.1050     2.2090    -0.1920 N.ar  1 <1>  -0.1790 
  5 N        0.6480     2.9280     1.1580 N.pl3 1 <1>  -0.8690 
  6 N       -1.0240    -1.1580     1.9390 N.pl3 1 <1>  -0.9000 
  7 C       -2.0260     0.1000     0.1500 C.ar  1 <1>  -0.1430 
  8 C       -2.0110     1.2650    -0.5460 C.ar  1 <1>   0.2110 
  9 C        0.9160     4.3100     0.6660 C.3   1 <1>   0.2090 
 10 C       -3.0130    -1.0170    -0.1790 C.3   1 <1>  -0.0970 
 11 C        2.1440     4.4110    -0.2680 C.3   1 <1>   0.0000 
 12 C        3.4510     3.7850     0.3130 C.3   1 <1>   0.0000 
 13 C        2.2100     3.3340    -1.3980 C.3   1 <1>   0.0000 
 14 C        2.3570     5.8390    -0.8380 C.3   1 <1>  -0.1600 
 15 C        3.7180     3.1560    -1.0810 C.3   1 <1>   0.0000 
 16 C        2.5360     6.9510     0.2220 C.3   1 <1>  -0.0800 
 17 C        1.2150     7.6740     0.5300 C.3   1 <1>  -0.2400 
 18 C        3.5530     7.9890    -0.2710 C.3   1 <1>  -0.2400 
 19 H       -1.0140     3.0960    -0.6730 H     1 <1>   0.4570 
 20 H        1.2850     2.6290     1.9080 H     1 <1>   0.4000 
 21 H       -1.6220    -1.9780     1.8250 H     1 <1>   0.4000 
 22 H       -0.3320    -1.2320     2.6900 H     1 <1>   0.4000 
 23 H       -2.6850     1.4680    -1.3630 H     1 <1>   0.1500 
 24 H        1.0870     4.9340     1.5260 H     1 <1>   0.0800 
 25 H        0.0520     4.6960     0.1550 H     1 <1>   0.0800 
 26 H       -3.6310    -1.2290     0.6760 H     1 <1>   0.0800 
 27 H       -2.4810    -1.9130    -0.4500 H     1 <1>   0.0800 
 28 H       -3.6540    -0.7460    -1.0000 H     1 <1>   0.0800 
 29 H        3.2840     3.0320     1.0620 H     1 <1>   0.0000 
 30 H        4.2000     4.5010     0.6030 H     1 <1>   0.0000 
 31 H        2.0260     3.7160    -2.3870 H     1 <1>   0.0000 
 32 H        1.6620     2.4310    -1.1980 H     1 <1>   0.0000 
 33 H        1.5360     6.0940    -1.4860 H     1 <1>   0.0800 
 34 H        3.2310     5.8240    -1.4660 H     1 <1>   0.0800 
 35 H        4.0310     2.1280    -1.0360 H     1 <1>   0.0000 
 36 H        4.3510     3.7670    -1.7010 H     1 <1>   0.0000 
 37 H        2.9260     6.5280     1.1330 H     1 <1>   0.0800 
 38 H        0.8290     8.1480    -0.3550 H     1 <1>   0.0800 
 39 H        1.3800     8.4370     1.2710 H     1 <1>   0.0800 
 40 H        0.4690     7.0050     0.9110 H     1 <1>   0.0800 
 41 H        3.2230     8.4400    -1.1900 H     1 <1>   0.0800 
 42 H        4.5100     7.5270    -0.4380 H     1 <1>   0.0800 
 43 H        3.6830     8.7650     0.4630 H     1 <1>   0.0800 
@<TRIPOS>BOND
  1   1   2  ar  
  2   1   3  ar  
  3   2   4  ar  
  4   2   5  1   
  5   3   6  1   
  6   3   7  ar  
  7   4   8  ar  
  8   4  19  1   
  9   5   9  1   
 10   5  20  1   
 11   6  21  1   
 12   6  22  1   
 13   7   8  ar  
 14   7  10  1   
 15   8  23  1   
 16   9  11  1   
 17   9  24  1   
 18   9  25  1   
 19  10  26  1   
 20  10  27  1   
 21  10  28  1   
 22  11  12  1   
 23  11  13  1   
 24  11  14  1   
 25  12  15  1   
 26  12  29  1   
 27  12  30  1   
 28  13  15  1   
 29  13  31  1   
 30  13  32  1   
 31  14  16  1   
 32  14  33  1   
 33  14  34  1   
 34  15  35  1   
 35  15  36  1   
 36  16  17  1   
 37  16  18  1   
 38  16  37  1   
 39  17  38  1   
 40  17  39  1   
 41  17  40  1   
 42  18  41  1   
 43  18  42  1   
 44  18  43  1   
@<TRIPOS>SUBSTRUCTURE
  1 ****   5 GROUP 4 **** **** 0

# MOE 2024.06 (io_trps.svl 2023.06)
