@<TRIPOS>MOLECULE
NONAME
45 48 1 0 0 
SMALL
USER_CHARGES


@<TRIPOS>ATOM
  1 S       -0.6410    -1.4190     0.2220 S.3   1 <1>  -0.2820 
  2 C       -1.9630    -1.7740    -0.8540 C.2   1 <1>   0.6510 
  3 C       -0.6240     0.2440    -0.3590 C.2   1 <1>   0.5910 
  4 N       -2.5190    -2.9440    -0.9320 N.2   1 <1>  -0.6210 
  5 N       -2.2790    -0.6360    -1.5440 N.am  1 <1>  -0.0580 
  6 N       -1.5000     0.4930    -1.2420 N.2   1 <1>  -0.5120 
  7 C        0.4190     1.1630     0.2570 C.3   1 <1>  -0.1000 
  8 C       -3.5440    -3.0500    -1.8360 C.2   1 <1>   0.0330 
  9 C       -3.3290    -0.7190    -2.4450 C.2   1 <1>   0.6160 
 10 C        0.1800     1.8210     1.5840 C.3   1 <1>  -0.2000 
 11 C        0.2120     2.6470     0.3320 C.3   1 <1>  -0.2000 
 12 C       -3.9560    -1.9860    -2.5750 C.2   1 <1>  -0.1360 
 13 C       -4.1860    -4.4330    -1.9520 C.3   1 <1>   0.4810 
 14 O       -3.7150     0.2390    -3.0960 O.2   1 <1>  -0.5700 
 15 N       -4.3110    -5.0070    -0.5790 N.4   1 <1>  -0.9590 
 16 C       -4.3120    -6.5070    -0.6080 C.3   1 <1>   0.3430 
 17 C       -5.4690    -4.4080     0.1590 C.3   1 <1>   0.2630 
 18 C       -4.1000    -7.1300     0.7750 C.3   1 <1>   0.0960 
 19 N       -4.0480    -8.5880     0.6050 N.pl3 1 <1>   0.0480 
 20 C       -5.0500    -9.4980     0.6970 C.2   1 <1>   0.0070 
 21 C       -2.9730    -9.2980     0.2180 C.2   1 <1>  -0.3020 
 22 N       -4.6840   -10.6970     0.3930 N.2   1 <1>  -0.5650 
 23 C       -6.4720    -9.1710     1.1120 C.3   1 <1>  -0.0600 
 24 C       -3.3790   -10.5790     0.0970 C.2   1 <1>   0.0770 
 25 H        1.4180     0.8220     0.0490 H     1 <1>   0.1000 
 26 H        1.0000     1.9020     2.2780 H     1 <1>   0.1000 
 27 H       -0.7660     1.6850     2.0790 H     1 <1>   0.1000 
 28 H       -0.7100     3.0620    -0.0390 H     1 <1>   0.1000 
 29 H        1.0530     3.2960     0.1580 H     1 <1>   0.1000 
 30 H       -4.7570    -2.0350    -3.2910 H     1 <1>   0.1500 
 31 H       -3.5370    -5.0550    -2.5470 H     1 <1>   0.0800 
 32 H       -5.1470    -4.3740    -2.4360 H     1 <1>   0.0800 
 33 H       -3.4370    -4.6650    -0.1300 H     1 <1>   0.4500 
 34 H       -3.5160    -6.8490    -1.2510 H     1 <1>   0.0800 
 35 H       -5.2460    -6.8610    -1.0150 H     1 <1>   0.0800 
 36 H       -6.4000    -4.6930    -0.3040 H     1 <1>   0.0800 
 37 H       -5.3970    -3.3320     0.1540 H     1 <1>   0.0800 
 38 H       -5.4760    -4.7400     1.1840 H     1 <1>   0.0800 
 39 H       -4.9060    -6.8860     1.4420 H     1 <1>   0.0800 
 40 H       -3.1680    -6.8050     1.2000 H     1 <1>   0.0800 
 41 H       -1.9950    -8.8820     0.0550 H     1 <1>   0.1500 
 42 H       -6.9200    -8.4840     0.4200 H     1 <1>   0.0800 
 43 H       -6.4830    -8.7540     2.1020 H     1 <1>   0.0800 
 44 H       -7.0590   -10.0730     1.1210 H     1 <1>   0.0800 
 45 H       -2.7930   -11.4380    -0.1910 H     1 <1>   0.1500 
@<TRIPOS>BOND
  1   1   2  1   
  2   1   3  1   
  3   2   4  2   
  4   2   5  1   
  5   3   6  2   
  6   3   7  1   
  7   4   8  1   
  8   5   6  1   
  9   5   9  am  
 10   7  10  1   
 11   7  11  1   
 12   7  25  1   
 13   8  12  2   
 14   8  13  1   
 15   9  12  1   
 16   9  14  2   
 17  10  11  1   
 18  10  26  1   
 19  10  27  1   
 20  11  28  1   
 21  11  29  1   
 22  12  30  1   
 23  13  15  1   
 24  13  31  1   
 25  13  32  1   
 26  15  16  1   
 27  15  17  1   
 28  15  33  1   
 29  16  18  1   
 30  16  34  1   
 31  16  35  1   
 32  17  36  1   
 33  17  37  1   
 34  17  38  1   
 35  18  19  1   
 36  18  39  1   
 37  18  40  1   
 38  19  20  1   
 39  19  21  1   
 40  20  22  2   
 41  20  23  1   
 42  21  24  2   
 43  21  41  1   
 44  22  24  1   
 45  23  42  1   
 46  23  43  1   
 47  23  44  1   
 48  24  45  1   
@<TRIPOS>SUBSTRUCTURE
  1 ****   4 GROUP 4 **** **** 0

# MOE 2024.06 (io_trps.svl 2023.06)
