@<TRIPOS>MOLECULE
NONAME
60 62 1 0 0 
SMALL
USER_CHARGES


@<TRIPOS>ATOM
  1 O       -0.0100     0.4620    -0.1820 O.3   1 <1>  -0.3630 
  2 C       -1.0570    -0.3870    -0.3420 C.ar  1 <1>   0.0820 
  3 C       -0.1900     1.8540    -0.1780 C.3   1 <1>   0.1200 
  4 C       -0.7660    -1.7420    -0.3350 C.ar  1 <1>  -0.1500 
  5 C       -2.3760     0.0290    -0.5080 C.ar  1 <1>  -0.1500 
  6 C        1.1900     2.4820     0.0170 C.3   1 <1>  -0.1600 
  7 C       -1.7740    -2.6770    -0.4920 C.ar  1 <1>  -0.1500 
  8 C       -3.3820    -0.9080    -0.6650 C.ar  1 <1>  -0.1500 
  9 C        1.1000     4.0060     0.0230 C.3   1 <1>   0.3430 
 10 C       -3.0830    -2.2600    -0.6570 C.ar  1 <1>  -0.1500 
 11 N        2.4350     4.6100     0.3330 N.4   1 <1>  -0.9590 
 12 C        2.2630     6.0410     0.7240 C.3   1 <1>   0.3430 
 13 C        3.3960     4.4270    -0.7990 C.3   1 <1>   0.3430 
 14 C        3.6130     6.6580     1.0950 C.3   1 <1>  -0.1600 
 15 C        4.7550     5.0290    -0.4390 C.3   1 <1>  -0.1600 
 16 C        4.6090     6.5030    -0.0590 C.3   1 <1>   0.4230 
 17 N        5.9390     7.0890     0.2650 N.4   1 <1>  -0.9590 
 18 C        6.6710     6.5800     1.4810 C.3   1 <1>   0.3430 
 19 C        5.9810     8.5940     0.2490 C.3   1 <1>   0.3430 
 20 C        8.1230     7.1190     1.5070 C.3   1 <1>   0.1100 
 21 C        7.4460     9.0990     0.2670 C.3   1 <1>   0.1100 
 22 N        8.4190     7.9780     0.3340 N.3   1 <1>  -0.8100 
 23 C        9.8240     8.4440     0.3730 C.3   1 <1>   0.1100 
 24 C       10.2940     8.9600    -0.9930 C.3   1 <1>   0.1200 
 25 O       11.6370     9.2930    -0.9160 O.3   1 <1>  -0.6800 
 26 H       -0.8550     2.1040     0.6320 H     1 <1>   0.0800 
 27 H       -0.6230     2.1390    -1.1220 H     1 <1>   0.0800 
 28 H        0.2520    -2.0610    -0.2060 H     1 <1>   0.1500 
 29 H       -2.6420     1.0680    -0.5190 H     1 <1>   0.1500 
 30 H        1.8200     2.1440    -0.7860 H     1 <1>   0.0800 
 31 H        1.5850     2.1350     0.9560 H     1 <1>   0.0800 
 32 H       -1.5400    -3.7280    -0.4850 H     1 <1>   0.1500 
 33 H       -4.4020    -0.5880    -0.7940 H     1 <1>   0.1500 
 34 H        0.3860     4.3040     0.7750 H     1 <1>   0.0800 
 35 H        0.7440     4.3570    -0.9330 H     1 <1>   0.0800 
 36 H       -3.8680    -2.9870    -0.7800 H     1 <1>   0.1500 
 37 H        2.7940     4.0910     1.1500 H     1 <1>   0.4500 
 38 H        1.5920     6.1130     1.5670 H     1 <1>   0.0800 
 39 H        1.8250     6.5910    -0.0950 H     1 <1>   0.0800 
 40 H        3.0090     4.9050    -1.6860 H     1 <1>   0.0800 
 41 H        3.5200     3.3770    -1.0150 H     1 <1>   0.0800 
 42 H        3.9750     6.1810     1.9880 H     1 <1>   0.0800 
 43 H        3.4580     7.7000     1.3080 H     1 <1>   0.0800 
 44 H        5.4020     4.9390    -1.2940 H     1 <1>   0.0800 
 45 H        5.1810     4.4580     0.3660 H     1 <1>   0.0800 
 46 H        4.2140     7.0250    -0.9170 H     1 <1>   0.0800 
 47 H        6.6110     6.8640    -0.4910 H     1 <1>   0.4500 
 48 H        6.7090     5.5030     1.4710 H     1 <1>   0.0800 
 49 H        6.1640     6.8860     2.3800 H     1 <1>   0.0800 
 50 H        5.4580     8.9920     1.1030 H     1 <1>   0.0800 
 51 H        5.4990     8.9710    -0.6380 H     1 <1>   0.0800 
 52 H        8.8020     6.2830     1.5170 H     1 <1>   0.0800 
 53 H        8.2820     7.6730     2.4180 H     1 <1>   0.0800 
 54 H        7.5840     9.7580     1.1090 H     1 <1>   0.0800 
 55 H        7.6190     9.6770    -0.6250 H     1 <1>   0.0800 
 56 H       10.4610     7.6170     0.6380 H     1 <1>   0.0800 
 57 H        9.9370     9.2150     1.1170 H     1 <1>   0.0800 
 58 H        9.7520     9.8360    -1.3020 H     1 <1>   0.0800 
 59 H       10.1940     8.1870    -1.7360 H     1 <1>   0.0800 
 60 H       11.7780    10.0960    -0.3770 H     1 <1>   0.4000 
@<TRIPOS>BOND
  1   1   2  1   
  2   1   3  1   
  3   2   4  ar  
  4   2   5  ar  
  5   3   6  1   
  6   3  26  1   
  7   3  27  1   
  8   4   7  ar  
  9   4  28  1   
 10   5   8  ar  
 11   5  29  1   
 12   6   9  1   
 13   6  30  1   
 14   6  31  1   
 15   7  10  ar  
 16   7  32  1   
 17   8  10  ar  
 18   8  33  1   
 19   9  11  1   
 20   9  34  1   
 21   9  35  1   
 22  10  36  1   
 23  11  12  1   
 24  11  13  1   
 25  11  37  1   
 26  12  14  1   
 27  12  38  1   
 28  12  39  1   
 29  13  15  1   
 30  13  40  1   
 31  13  41  1   
 32  14  16  1   
 33  14  42  1   
 34  14  43  1   
 35  15  16  1   
 36  15  44  1   
 37  15  45  1   
 38  16  17  1   
 39  16  46  1   
 40  17  18  1   
 41  17  19  1   
 42  17  47  1   
 43  18  20  1   
 44  18  48  1   
 45  18  49  1   
 46  19  21  1   
 47  19  50  1   
 48  19  51  1   
 49  20  22  1   
 50  20  52  1   
 51  20  53  1   
 52  21  22  1   
 53  21  54  1   
 54  21  55  1   
 55  22  23  1   
 56  23  24  1   
 57  23  56  1   
 58  23  57  1   
 59  24  25  1   
 60  24  58  1   
 61  24  59  1   
 62  25  60  1   
@<TRIPOS>SUBSTRUCTURE
  1 ****  13 GROUP 4 **** **** 0

# MOE 2024.06 (io_trps.svl 2023.06)
