@<TRIPOS>MOLECULE
NONAME
48 50 1 0 0 
SMALL
USER_CHARGES


@<TRIPOS>ATOM
  1 O        1.8650    -0.4780    -2.4800 O.2   1 <1>  -0.5700 
  2 C        1.8020    -0.6640    -1.2840 C.2   1 <1>   0.5690 
  3 N        1.7720     0.4120    -0.4230 N.am  1 <1>  -0.6600 
  4 C        1.7790    -2.1430    -0.8080 C.3   1 <1>   0.2510 
  5 C        1.8490     1.8080    -0.9500 C.3   1 <1>   0.2840 
  6 C        1.7300     0.3320     1.0670 C.3   1 <1>   0.0600 
  7 N        0.6130    -2.5010     0.0700 N.3   1 <1>  -0.8100 
  8 C        3.1330    -2.5030    -0.1470 C.3   1 <1>  -0.1600 
  9 C        3.2610     2.3600    -0.8170 C.ar  1 <1>   0.1670 
 10 C        0.5420    -3.9430     0.3940 C.3   1 <1>   0.1100 
 11 C       -0.6630    -2.0920    -0.5660 C.3   1 <1>   0.1100 
 12 C        3.7270    -3.8340    -0.6360 C.3   1 <1>  -0.2400 
 13 N        3.4890     3.2820     0.0700 N.ar  1 <1>  -0.6200 
 14 C        4.2580     1.8350    -1.6690 C.ar  1 <1>   0.1600 
 15 C       -0.7150    -4.2820     1.2160 C.3   1 <1>   0.1200 
 16 C       -1.8780    -2.4880     0.2900 C.3   1 <1>   0.1200 
 17 C        4.7800     3.7040     0.1140 C.ar  1 <1>   0.3100 
 18 N        5.5000     2.2100    -1.6610 N.ar  1 <1>  -0.6200 
 19 O       -1.8680    -3.8600     0.5500 O.3   1 <1>  -0.5600 
 20 C        5.7770     3.1730    -0.7440 C.ar  1 <1>   0.3100 
 21 C        5.1450     4.6980     1.0360 C.ar  1 <1>  -0.1500 
 22 C        7.0880     3.6620    -0.6380 C.ar  1 <1>  -0.1500 
 23 C        6.4350     5.1570     1.1180 C.ar  1 <1>  -0.1500 
 24 C        7.4170     4.6330     0.2730 C.ar  1 <1>  -0.1500 
 25 H        1.6940    -2.7280    -1.7080 H     1 <1>   0.0800 
 26 H        1.1670     2.4330    -0.4000 H     1 <1>   0.0800 
 27 H        1.5510     1.8410    -1.9830 H     1 <1>   0.0800 
 28 H        1.7110    -0.6840     1.4130 H     1 <1>   0.0800 
 29 H        0.8470     0.8270     1.4300 H     1 <1>   0.0800 
 30 H        2.5970     0.8160     1.4810 H     1 <1>   0.0800 
 31 H        3.0320    -2.5100     0.9240 H     1 <1>   0.0800 
 32 H        3.8500    -1.7360    -0.3870 H     1 <1>   0.0800 
 33 H        1.3990    -4.2270     0.9760 H     1 <1>   0.0800 
 34 H        0.5350    -4.5250    -0.5120 H     1 <1>   0.0800 
 35 H       -0.7550    -2.5510    -1.5360 H     1 <1>   0.0800 
 36 H       -0.6820    -1.0250    -0.6980 H     1 <1>   0.0800 
 37 H        3.0790    -4.6630    -0.4240 H     1 <1>   0.0800 
 38 H        4.6720    -4.0110    -0.1520 H     1 <1>   0.0800 
 39 H        3.8970    -3.7970    -1.6990 H     1 <1>   0.0800 
 40 H        3.9620     1.0710    -2.3690 H     1 <1>   0.1500 
 41 H       -0.6760    -3.8000     2.1780 H     1 <1>   0.0800 
 42 H       -0.7900    -5.3440     1.3620 H     1 <1>   0.0800 
 43 H       -2.7910    -2.2590    -0.2310 H     1 <1>   0.0800 
 44 H       -1.8690    -1.9580     1.2260 H     1 <1>   0.0800 
 45 H        4.3770     5.0880     1.6770 H     1 <1>   0.1500 
 46 H        7.8280     3.2460    -1.2970 H     1 <1>   0.1500 
 47 H        6.7040     5.9200     1.8300 H     1 <1>   0.1500 
 48 H        8.4260     5.0010     0.3460 H     1 <1>   0.1500 
@<TRIPOS>BOND
  1   1   2  2   
  2   2   3  am  
  3   2   4  1   
  4   3   5  1   
  5   3   6  1   
  6   4   7  1   
  7   4   8  1   
  8   4  25  1   
  9   5   9  1   
 10   5  26  1   
 11   5  27  1   
 12   6  28  1   
 13   6  29  1   
 14   6  30  1   
 15   7  10  1   
 16   7  11  1   
 17   8  12  1   
 18   8  31  1   
 19   8  32  1   
 20   9  13  ar  
 21   9  14  ar  
 22  10  15  1   
 23  10  33  1   
 24  10  34  1   
 25  11  16  1   
 26  11  35  1   
 27  11  36  1   
 28  12  37  1   
 29  12  38  1   
 30  12  39  1   
 31  13  17  ar  
 32  14  18  ar  
 33  14  40  1   
 34  15  19  1   
 35  15  41  1   
 36  15  42  1   
 37  16  19  1   
 38  16  43  1   
 39  16  44  1   
 40  17  20  ar  
 41  17  21  ar  
 42  18  20  ar  
 43  20  22  ar  
 44  21  23  ar  
 45  21  45  1   
 46  22  24  ar  
 47  22  46  1   
 48  23  24  ar  
 49  23  47  1   
 50  24  48  1   
@<TRIPOS>SUBSTRUCTURE
  1 ****   3 GROUP 4 **** **** 0

# MOE 2024.06 (io_trps.svl 2023.06)
