@<TRIPOS>MOLECULE
NONAME
44 46 1 0 0 
SMALL
USER_CHARGES


@<TRIPOS>ATOM
  1 CL      -2.2700    -0.1070    -2.2100 Cl    1 <1>  -0.1770 
  2 C       -2.5950    -0.9930    -0.7420 C.ar  1 <1>   0.1770 
  3 C       -2.4890    -2.3720    -0.7460 C.ar  1 <1>  -0.1500 
  4 C       -2.9550    -0.3030     0.4000 C.ar  1 <1>  -0.1500 
  5 C       -2.7490    -3.0810     0.4170 C.ar  1 <1>  -0.1440 
  6 C       -3.2130    -1.0100     1.5620 C.ar  1 <1>  -0.1500 
  7 C       -3.1090    -2.3930     1.5670 C.ar  1 <1>  -0.1500 
  8 C       -2.6450    -4.5980     0.4300 C.3   1 <1>  -0.0160 
  9 C       -3.9970    -5.2280     0.0640 C.3   1 <1>  -0.0990 
 10 C       -3.9850    -6.7490     0.0540 C.2   1 <1>   0.5690 
 11 O       -2.9780    -7.3340     0.3750 O.2   1 <1>  -0.5700 
 12 N       -5.1140    -7.4240    -0.3140 N.am  1 <1>  -0.6600 
 13 C       -6.4210    -6.8260    -0.6820 C.3   1 <1>   0.1400 
 14 C       -5.1900    -8.9040    -0.3350 C.3   1 <1>   0.1400 
 15 C       -7.3410    -8.0170    -0.9570 C.3   1 <1>   0.2000 
 16 C       -6.6860    -9.2200    -0.2800 C.3   1 <1>  -0.0800 
 17 O       -8.6080    -7.8140    -0.4330 O.3   1 <1>  -0.6800 
 18 C       -7.0760   -10.5540    -0.9400 C.3   1 <1>  -0.0170 
 19 C       -6.4450   -11.7430    -0.2340 C.ar  1 <1>   0.1670 
 20 N       -5.1980   -12.0330    -0.5660 N.ar  1 <1>  -0.6200 
 21 C       -7.1760   -12.4620     0.7110 C.ar  1 <1>   0.1600 
 22 C       -4.7340   -13.0750     0.1040 C.ar  1 <1>   0.1600 
 23 N       -6.7150   -13.5040     1.3820 N.ar  1 <1>  -0.6200 
 24 C       -5.4670   -13.7860     1.0460 C.ar  1 <1>   0.1600 
 25 H       -2.2060    -2.8760    -1.6520 H     1 <1>   0.1500 
 26 H       -3.0300     0.7690     0.3760 H     1 <1>   0.1500 
 27 H       -3.4920    -0.4880     2.4600 H     1 <1>   0.1500 
 28 H       -3.3120    -2.9330     2.4760 H     1 <1>   0.1500 
 29 H       -1.8940    -4.9190    -0.2710 H     1 <1>   0.0800 
 30 H       -2.3410    -4.9340     1.4060 H     1 <1>   0.0800 
 31 H       -4.2850    -4.8830    -0.9120 H     1 <1>   0.0800 
 32 H       -4.7360    -4.8990     0.7700 H     1 <1>   0.0800 
 33 H       -6.7900    -6.2350     0.1380 H     1 <1>   0.0800 
 34 H       -6.3180    -6.2180    -1.5650 H     1 <1>   0.0800 
 35 H       -4.7530    -9.2650    -1.2510 H     1 <1>   0.0800 
 36 H       -4.6620    -9.3340     0.5000 H     1 <1>   0.0800 
 37 H       -7.4330    -8.1670    -2.0200 H     1 <1>   0.0800 
 38 H       -6.9640    -9.2420     0.7600 H     1 <1>   0.0800 
 39 H       -8.5620    -7.6920     0.5350 H     1 <1>   0.4000 
 40 H       -6.7690   -10.5580    -1.9720 H     1 <1>   0.0800 
 41 H       -8.1470   -10.6550    -0.9240 H     1 <1>   0.0800 
 42 H       -8.1870   -12.1610     0.9230 H     1 <1>   0.1500 
 43 H       -3.7230   -13.3810    -0.1020 H     1 <1>   0.1500 
 44 H       -5.0020   -14.6200     1.5400 H     1 <1>   0.1500 
@<TRIPOS>BOND
  1   1   2  1   
  2   2   3  ar  
  3   2   4  ar  
  4   3   5  ar  
  5   3  25  1   
  6   4   6  ar  
  7   4  26  1   
  8   5   7  ar  
  9   5   8  1   
 10   6   7  ar  
 11   6  27  1   
 12   7  28  1   
 13   8   9  1   
 14   8  29  1   
 15   8  30  1   
 16   9  10  1   
 17   9  31  1   
 18   9  32  1   
 19  10  11  2   
 20  10  12  am  
 21  12  13  1   
 22  12  14  1   
 23  13  15  1   
 24  13  33  1   
 25  13  34  1   
 26  14  16  1   
 27  14  35  1   
 28  14  36  1   
 29  15  16  1   
 30  15  17  1   
 31  15  37  1   
 32  16  18  1   
 33  16  38  1   
 34  17  39  1   
 35  18  19  1   
 36  18  40  1   
 37  18  41  1   
 38  19  20  ar  
 39  19  21  ar  
 40  20  22  ar  
 41  21  23  ar  
 42  21  42  1   
 43  22  24  ar  
 44  22  43  1   
 45  23  24  ar  
 46  24  44  1   
@<TRIPOS>SUBSTRUCTURE
  1 ****  12 GROUP 4 **** **** 0

# MOE 2024.06 (io_trps.svl 2023.06)
