@<TRIPOS>MOLECULE
NONAME
46 49 1 0 0 
SMALL
USER_CHARGES


@<TRIPOS>ATOM
  1 S        0.3440    -0.8260    -1.4830 S.3   1 <1>  -0.0800 
  2 C        1.0810    -2.0540    -0.4860 C.2   1 <1>  -0.1400 
  3 C        1.7720     0.1610    -1.2750 C.2   1 <1>   0.2280 
  4 C        2.2970    -1.6260    -0.1080 C.2   1 <1>   0.0460 
  5 C        0.3150    -3.3290    -0.2230 C.3   1 <1>   0.5230 
  6 N        2.6720    -0.3730    -0.5510 N.2   1 <1>  -0.5650 
  7 C        3.3160    -2.3530     0.7480 C.3   1 <1>  -0.0590 
  8 N       -0.7560    -3.0510     0.7770 N.4   1 <1>  -0.9590 
  9 C       -1.9870    -2.4600     0.1490 C.3   1 <1>   0.3430 
 10 C       -1.1730    -4.3090     1.4650 C.3   1 <1>   0.3430 
 11 C       -3.1660    -3.3480     0.5720 C.3   1 <1>   0.2000 
 12 C       -2.5270    -4.7020     0.8650 C.3   1 <1>  -0.0800 
 13 O       -3.7350    -2.8540     1.7390 O.3   1 <1>  -0.6800 
 14 C       -2.4010    -5.5390    -0.4300 C.3   1 <1>  -0.0160 
 15 C       -1.3400    -6.6210    -0.3240 C.ar  1 <1>   0.1670 
 16 N       -0.1250    -6.2870    -0.6460 N.ar  1 <1>  -0.6200 
 17 C       -1.7090    -7.8990     0.1230 C.ar  1 <1>  -0.1500 
 18 C        0.8320    -7.2510    -0.5670 C.ar  1 <1>   0.3100 
 19 C       -0.7640    -8.8720     0.2370 C.ar  1 <1>  -0.1500 
 20 C        0.5600    -8.5600    -0.1110 C.ar  1 <1>   0.0000 
 21 C        2.1490    -6.9360    -0.9450 C.ar  1 <1>  -0.1500 
 22 C        1.6140    -9.4910    -0.0280 C.ar  1 <1>  -0.1500 
 23 C        3.1590    -7.8580    -0.8590 C.ar  1 <1>  -0.1500 
 24 C        2.8880    -9.1470    -0.3930 C.ar  1 <1>  -0.1500 
 25 H        1.7880     1.1230    -1.7590 H     1 <1>   0.1500 
 26 H        0.9950    -4.0660     0.1710 H     1 <1>   0.0800 
 27 H       -0.1010    -3.7190    -1.1380 H     1 <1>   0.0800 
 28 H        2.9600    -3.3190     1.0520 H     1 <1>   0.0800 
 29 H        3.5340    -1.7680     1.6240 H     1 <1>   0.0800 
 30 H        4.2270    -2.4780     0.1900 H     1 <1>   0.0800 
 31 H       -0.3570    -2.3860     1.4530 H     1 <1>   0.4500 
 32 H       -2.1460    -1.4390     0.4570 H     1 <1>   0.0800 
 33 H       -1.8950    -2.4890    -0.9240 H     1 <1>   0.0800 
 34 H       -0.4370    -5.0900     1.3680 H     1 <1>   0.0800 
 35 H       -1.3090    -4.1080     2.5160 H     1 <1>   0.0800 
 36 H       -3.9400    -3.3890    -0.1770 H     1 <1>   0.0800 
 37 H       -3.1020    -5.2680     1.5780 H     1 <1>   0.0800 
 38 H       -3.1140    -2.8110     2.4910 H     1 <1>   0.4000 
 39 H       -2.1480    -4.9140    -1.2680 H     1 <1>   0.0800 
 40 H       -3.3520    -5.9900    -0.6590 H     1 <1>   0.0800 
 41 H       -2.7360    -8.1030     0.3710 H     1 <1>   0.1500 
 42 H       -1.0050    -9.8650     0.5770 H     1 <1>   0.1500 
 43 H        2.3470    -5.9480    -1.3130 H     1 <1>   0.1500 
 44 H        1.4010   -10.4840     0.3260 H     1 <1>   0.1500 
 45 H        4.1650    -7.6080    -1.1520 H     1 <1>   0.1500 
 46 H        3.6910    -9.8620    -0.3300 H     1 <1>   0.1500 
@<TRIPOS>BOND
  1   1   2  1   
  2   1   3  1   
  3   2   4  2   
  4   2   5  1   
  5   3   6  2   
  6   3  25  1   
  7   4   6  1   
  8   4   7  1   
  9   5   8  1   
 10   5  26  1   
 11   5  27  1   
 12   7  28  1   
 13   7  29  1   
 14   7  30  1   
 15   8   9  1   
 16   8  10  1   
 17   8  31  1   
 18   9  11  1   
 19   9  32  1   
 20   9  33  1   
 21  10  12  1   
 22  10  34  1   
 23  10  35  1   
 24  11  12  1   
 25  11  13  1   
 26  11  36  1   
 27  12  14  1   
 28  12  37  1   
 29  13  38  1   
 30  14  15  1   
 31  14  39  1   
 32  14  40  1   
 33  15  16  ar  
 34  15  17  ar  
 35  16  18  ar  
 36  17  19  ar  
 37  17  41  1   
 38  18  20  ar  
 39  18  21  ar  
 40  19  20  ar  
 41  19  42  1   
 42  20  22  ar  
 43  21  23  ar  
 44  21  43  1   
 45  22  24  ar  
 46  22  44  1   
 47  23  24  ar  
 48  23  45  1   
 49  24  46  1   
@<TRIPOS>SUBSTRUCTURE
  1 ****   5 GROUP 4 **** **** 0

# MOE 2024.06 (io_trps.svl 2023.06)
