@<TRIPOS>MOLECULE
NONAME
58 60 1 0 0 
SMALL
USER_CHARGES


@<TRIPOS>ATOM
  1 O       -1.3400     0.3500     2.1480 O.2   1 <1>  -0.5700 
  2 C       -1.7460     0.7910     1.0910 C.2   1 <1>   0.5440 
  3 N       -2.2210    -0.0750     0.1330 N.am  1 <1>  -0.6600 
  4 C       -1.7200     2.2210     0.8480 C.ar  1 <1>   0.0860 
  5 C       -2.1980    -1.5620     0.3520 C.3   1 <1>   0.3640 
  6 C       -2.8260     0.4160    -1.1440 C.3   1 <1>   0.1400 
  7 C       -0.5670     2.8840     0.4220 C.ar  1 <1>  -0.1440 
  8 C       -2.8790     2.9740     1.0240 C.ar  1 <1>  -0.1500 
  9 C       -0.9140    -2.2040    -0.2000 C.ar  1 <1>  -0.1440 
 10 C       -3.4590    -2.2780    -0.2300 C.3   1 <1>   0.2000 
 11 C       -3.3420    -0.7300    -2.0240 C.3   1 <1>   0.1200 
 12 C       -0.6020     4.2440     0.1660 C.ar  1 <1>  -0.1500 
 13 C        0.7380     2.1190     0.2410 C.3   1 <1>  -0.0960 
 14 C       -2.9180     4.3340     0.7690 C.ar  1 <1>  -0.1440 
 15 C       -0.5620    -3.4590     0.2800 C.ar  1 <1>  -0.1500 
 16 C       -0.0910    -1.6040    -1.1480 C.ar  1 <1>  -0.1500 
 17 O       -4.1330    -1.5770    -1.2530 O.3   1 <1>  -0.5600 
 18 C       -4.4960    -2.5600     0.8630 C.3   1 <1>   0.1200 
 19 C       -1.7670     4.9760     0.3310 C.ar  1 <1>  -0.1430 
 20 C       -4.2210     5.0910     0.9790 C.3   1 <1>  -0.0970 
 21 C        0.5670    -4.1150    -0.1790 C.ar  1 <1>   0.0830 
 22 C        1.0530    -2.2400    -1.5990 C.ar  1 <1>  -0.1500 
 23 O       -4.0420    -3.5660     1.7120 O.3   1 <1>  -0.6800 
 24 C       -1.7520     6.4690     0.0360 C.3   1 <1>  -0.0970 
 25 O        0.8060    -5.3580     0.3080 O.3   1 <1>  -0.3620 
 26 C        1.3990    -3.4870    -1.1110 C.ar  1 <1>   0.0830 
 27 C        0.7830    -6.4180    -0.6230 C.3   1 <1>   0.0400 
 28 O        2.5520    -4.0380    -1.5630 O.3   1 <1>  -0.3630 
 29 C        3.5840    -4.1840    -0.6120 C.3   1 <1>   0.0400 
 30 H       -2.1860    -1.7490     1.4120 H     1 <1>   0.0800 
 31 H       -3.6520     1.0650    -0.9140 H     1 <1>   0.0800 
 32 H       -2.0980     0.9890    -1.6910 H     1 <1>   0.0800 
 33 H       -3.7620     2.4660     1.3700 H     1 <1>   0.1500 
 34 H       -3.1630    -3.2190    -0.6580 H     1 <1>   0.0800 
 35 H       -2.5350    -1.2980    -2.4540 H     1 <1>   0.0800 
 36 H       -3.9520    -0.3410    -2.8200 H     1 <1>   0.0800 
 37 H        0.2920     4.7430    -0.1650 H     1 <1>   0.1500 
 38 H        1.5470     2.7820    -0.0080 H     1 <1>   0.0800 
 39 H        0.6370     1.3930    -0.5450 H     1 <1>   0.0800 
 40 H        0.9920     1.6060     1.1520 H     1 <1>   0.0800 
 41 H       -1.1700    -3.9480     1.0220 H     1 <1>   0.1500 
 42 H       -0.3200    -0.6320    -1.5400 H     1 <1>   0.1500 
 43 H       -5.4260    -2.8840     0.4300 H     1 <1>   0.0800 
 44 H       -4.6620    -1.6750     1.4540 H     1 <1>   0.0800 
 45 H       -4.9990     4.4350     1.3270 H     1 <1>   0.0800 
 46 H       -4.5430     5.5370     0.0560 H     1 <1>   0.0800 
 47 H       -4.0820     5.8650     1.7130 H     1 <1>   0.0800 
 48 H        1.6880    -1.7680    -2.3270 H     1 <1>   0.1500 
 49 H       -4.1270    -4.4430     1.2890 H     1 <1>   0.4000 
 50 H       -0.7820     6.7880    -0.3010 H     1 <1>   0.0800 
 51 H       -1.9980     7.0220     0.9240 H     1 <1>   0.0800 
 52 H       -2.4670     6.7010    -0.7330 H     1 <1>   0.0800 
 53 H        0.8380    -7.3440    -0.0790 H     1 <1>   0.0800 
 54 H        1.6260    -6.3320    -1.2840 H     1 <1>   0.0800 
 55 H       -0.1360    -6.3710    -1.1810 H     1 <1>   0.0800 
 56 H        4.4610    -4.5440    -1.1180 H     1 <1>   0.0800 
 57 H        3.2790    -4.8880     0.1410 H     1 <1>   0.0800 
 58 H        3.7820    -3.2250    -0.1660 H     1 <1>   0.0800 
@<TRIPOS>BOND
  1   1   2  2   
  2   2   3  am  
  3   2   4  1   
  4   3   5  1   
  5   3   6  1   
  6   4   7  ar  
  7   4   8  ar  
  8   5   9  1   
  9   5  10  1   
 10   5  30  1   
 11   6  11  1   
 12   6  31  1   
 13   6  32  1   
 14   7  12  ar  
 15   7  13  1   
 16   8  14  ar  
 17   8  33  1   
 18   9  15  ar  
 19   9  16  ar  
 20  10  17  1   
 21  10  18  1   
 22  10  34  1   
 23  11  17  1   
 24  11  35  1   
 25  11  36  1   
 26  12  19  ar  
 27  12  37  1   
 28  13  38  1   
 29  13  39  1   
 30  13  40  1   
 31  14  19  ar  
 32  14  20  1   
 33  15  21  ar  
 34  15  41  1   
 35  16  22  ar  
 36  16  42  1   
 37  18  23  1   
 38  18  43  1   
 39  18  44  1   
 40  19  24  1   
 41  20  45  1   
 42  20  46  1   
 43  20  47  1   
 44  21  25  1   
 45  21  26  ar  
 46  22  26  ar  
 47  22  48  1   
 48  23  49  1   
 49  24  50  1   
 50  24  51  1   
 51  24  52  1   
 52  25  27  1   
 53  26  28  1   
 54  27  53  1   
 55  27  54  1   
 56  27  55  1   
 57  28  29  1   
 58  29  56  1   
 59  29  57  1   
 60  29  58  1   
@<TRIPOS>SUBSTRUCTURE
  1 ****   3 GROUP 4 **** **** 0

# MOE 2024.06 (io_trps.svl 2023.06)
