@<TRIPOS>MOLECULE
NONAME
51 54 1 0 0 
SMALL
USER_CHARGES


@<TRIPOS>ATOM
  1 O       -0.4610     0.2130     2.2030 O.3   1 <1>  -0.5600 
  2 C        0.2620     1.3910     2.0360 C.3   1 <1>   0.1200 
  3 C       -1.7270     0.3180     1.6220 C.3   1 <1>   0.1200 
  4 C       -0.2790     2.0100     0.7560 C.3   1 <1>   0.2890 
  5 C       -1.7440     1.6170     0.8100 C.3   1 <1>  -0.0800 
  6 N       -0.1170     3.4850     0.7170 N.pl3 1 <1>  -0.8690 
  7 C       -2.3840     1.4760    -0.5810 C.3   1 <1>  -0.0170 
  8 C        0.7790     4.2470     0.0720 C.ar  1 <1>   0.4100 
  9 C       -3.8330     1.0280    -0.4750 C.ar  1 <1>  -0.1430 
 10 N        0.6130     5.5380     0.2350 N.ar  1 <1>  -0.6200 
 11 C        1.8210     3.7180    -0.7120 C.ar  1 <1>  -0.1500 
 12 C       -4.2190    -0.2730    -0.7280 C.ar  1 <1>  -0.1500 
 13 C       -4.8390     1.9030    -0.1170 C.ar  1 <1>  -0.1500 
 14 C        1.4670     6.3550    -0.3680 C.ar  1 <1>   0.7710 
 15 C        2.6800     4.5700    -1.3220 C.ar  1 <1>   0.2180 
 16 C       -5.5530    -0.6260    -0.6090 C.ar  1 <1>   0.1600 
 17 C       -6.1430     1.4480    -0.0270 C.ar  1 <1>   0.1600 
 18 N        2.4740     5.8950    -1.1310 N.ar  1 <1>  -0.1790 
 19 N        1.3230     7.6940    -0.2140 N.pl3 1 <1>  -0.8380 
 20 C        3.8420     4.1220    -2.1920 C.3   1 <1>  -0.0970 
 21 N       -6.5250     0.2030    -0.2620 N.ar  1 <1>  -0.6200 
 22 C        2.1850     8.7900    -0.7370 C.3   1 <1>   0.2090 
 23 C        0.2090     8.2680     0.5940 C.3   1 <1>   0.2090 
 24 C        1.7360    10.0370     0.0100 C.3   1 <1>  -0.1600 
 25 C        0.2770     9.7710     0.3590 C.3   1 <1>  -0.1600 
 26 H        0.0670     2.0200     2.8870 H     1 <1>   0.0800 
 27 H        1.3080     1.1540     1.9700 H     1 <1>   0.0800 
 28 H       -1.8720    -0.5500     1.0020 H     1 <1>   0.0800 
 29 H       -2.4670     0.3300     2.4040 H     1 <1>   0.0800 
 30 H        0.2000     1.5410    -0.0860 H     1 <1>   0.0800 
 31 H       -2.2930     2.3440     1.3820 H     1 <1>   0.0800 
 32 H       -0.7890     3.9950     1.2990 H     1 <1>   0.4000 
 33 H       -1.8290     0.7670    -1.1710 H     1 <1>   0.0800 
 34 H       -2.3440     2.4240    -1.0900 H     1 <1>   0.0800 
 35 H        1.9200     2.6540    -0.8090 H     1 <1>   0.1500 
 36 H       -3.5010    -1.0170    -1.0170 H     1 <1>   0.1500 
 37 H       -4.6220     2.9350     0.0920 H     1 <1>   0.1500 
 38 H       -5.8370    -1.6450    -0.8100 H     1 <1>   0.1500 
 39 H       -6.9150     2.1450     0.2530 H     1 <1>   0.1500 
 40 H        3.0590     6.6050    -1.5500 H     1 <1>   0.4570 
 41 H        3.8770     3.0480    -2.2490 H     1 <1>   0.0800 
 42 H        4.7750     4.4660    -1.7820 H     1 <1>   0.0800 
 43 H        3.7340     4.5060    -3.1920 H     1 <1>   0.0800 
 44 H        3.2300     8.6000    -0.5580 H     1 <1>   0.0800 
 45 H        2.0030     8.9180    -1.7920 H     1 <1>   0.0800 
 46 H       -0.7450     7.8690     0.2880 H     1 <1>   0.0800 
 47 H        0.3720     8.0450     1.6360 H     1 <1>   0.0800 
 48 H        2.3140    10.1370     0.9130 H     1 <1>   0.0800 
 49 H        1.8580    10.9280    -0.5810 H     1 <1>   0.0800 
 50 H       -0.3550    10.0250    -0.4740 H     1 <1>   0.0800 
 51 H       -0.0470    10.3240     1.2230 H     1 <1>   0.0800 
@<TRIPOS>BOND
  1   1   2  1   
  2   1   3  1   
  3   2   4  1   
  4   2  26  1   
  5   2  27  1   
  6   3   5  1   
  7   3  28  1   
  8   3  29  1   
  9   4   5  1   
 10   4   6  1   
 11   4  30  1   
 12   5   7  1   
 13   5  31  1   
 14   6   8  1   
 15   6  32  1   
 16   7   9  1   
 17   7  33  1   
 18   7  34  1   
 19   8  10  ar  
 20   8  11  ar  
 21   9  12  ar  
 22   9  13  ar  
 23  10  14  ar  
 24  11  15  ar  
 25  11  35  1   
 26  12  16  ar  
 27  12  36  1   
 28  13  17  ar  
 29  13  37  1   
 30  14  18  ar  
 31  14  19  1   
 32  15  18  ar  
 33  15  20  1   
 34  16  21  ar  
 35  16  38  1   
 36  17  21  ar  
 37  17  39  1   
 38  18  40  1   
 39  19  22  1   
 40  19  23  1   
 41  20  41  1   
 42  20  42  1   
 43  20  43  1   
 44  22  24  1   
 45  22  44  1   
 46  22  45  1   
 47  23  25  1   
 48  23  46  1   
 49  23  47  1   
 50  24  25  1   
 51  24  48  1   
 52  24  49  1   
 53  25  50  1   
 54  25  51  1   
@<TRIPOS>SUBSTRUCTURE
  1 ****   6 GROUP 4 **** **** 0

# MOE 2024.06 (io_trps.svl 2023.06)
