@<TRIPOS>MOLECULE
NONAME
49 51 1 0 0 
SMALL
USER_CHARGES


@<TRIPOS>ATOM
  1 O        2.1460     0.0060     0.9020 O.2   1 <1>  -0.5700 
  2 C        2.7050    -1.0400     0.6300 C.2   1 <1>   0.5440 
  3 N        4.0720    -0.9840     0.4970 N.am  1 <1>  -0.6600 
  4 C        1.9530    -2.2570     0.3750 C.ar  1 <1>   0.0860 
  5 C        4.8720    -0.0990     1.4290 C.3   1 <1>   0.1400 
  6 C        4.6840    -1.4040    -0.8010 C.3   1 <1>   0.1400 
  7 C        0.6330    -2.2070    -0.0730 C.ar  1 <1>  -0.1500 
  8 C        2.5160    -3.5200     0.5620 C.ar  1 <1>  -0.1500 
  9 C        5.1510     1.3260     0.8770 C.3   1 <1>   0.4230 
 10 C        5.5120    -0.3030    -1.4980 C.3   1 <1>  -0.0800 
 11 C       -0.0940    -3.3540    -0.3440 C.ar  1 <1>  -0.1440 
 12 C        1.8060    -4.6750     0.2960 C.ar  1 <1>  -0.1500 
 13 N        4.2540     1.5580    -0.3130 N.4   1 <1>  -0.9590 
 14 C        6.6780     1.5710     0.6540 C.3   1 <1>   0.1200 
 15 C        6.9330    -0.2260    -0.9090 C.3   1 <1>   0.1200 
 16 C        4.8210     1.0810    -1.6060 C.3   1 <1>   0.3430 
 17 C        0.4940    -4.6020    -0.1630 C.ar  1 <1>   0.0830 
 18 C       -1.5310    -3.2430    -0.8340 C.3   1 <1>  -0.0970 
 19 C        3.7660     3.0020    -0.3890 C.3   1 <1>   0.2370 
 20 O        7.2280     1.0750    -0.5430 O.3   1 <1>  -0.5600 
 21 O       -0.2500    -5.7000    -0.4430 O.3   1 <1>  -0.3630 
 22 C        4.7880     4.1100    -0.1190 C.2   1 <1>   0.9060 
 23 C        0.2370    -7.0100    -0.2530 C.3   1 <1>   0.0400 
 24 O        5.1460     4.2870     1.0530 O.co2 1 <1>  -0.9000 
 25 O        5.2570     4.7260    -1.0770 O.co2 1 <1>  -0.9000 
 26 H        4.3180     0.0170     2.3450 H     1 <1>   0.0800 
 27 H        5.7900    -0.5910     1.6960 H     1 <1>   0.0800 
 28 H        5.3000    -2.2720    -0.6320 H     1 <1>   0.0800 
 29 H        3.8970    -1.7050    -1.4720 H     1 <1>   0.0800 
 30 H        0.1730    -1.2430    -0.2080 H     1 <1>   0.1500 
 31 H        3.5250    -3.5990     0.9260 H     1 <1>   0.1500 
 32 H        4.8560     2.0100     1.6570 H     1 <1>   0.0800 
 33 H        5.6510    -0.6400    -2.5090 H     1 <1>   0.0800 
 34 H        2.2840    -5.6230     0.4540 H     1 <1>   0.1500 
 35 H        3.4280     0.9700    -0.0900 H     1 <1>   0.4500 
 36 H        7.2380     1.1540     1.4710 H     1 <1>   0.0800 
 37 H        6.8740     2.6280     0.6590 H     1 <1>   0.0800 
 38 H        7.6510    -0.5030    -1.6620 H     1 <1>   0.0800 
 39 H        7.0790    -0.8720    -0.0610 H     1 <1>   0.0800 
 40 H        4.0270     1.0260    -2.3320 H     1 <1>   0.0800 
 41 H        5.5390     1.8030    -1.9630 H     1 <1>   0.0800 
 42 H       -1.8380    -2.2160    -0.9200 H     1 <1>   0.0800 
 43 H       -2.1880    -3.7400    -0.1430 H     1 <1>   0.0800 
 44 H       -1.6250    -3.7130    -1.7960 H     1 <1>   0.0800 
 45 H        3.3430     3.1920    -1.3580 H     1 <1>   0.0800 
 46 H        2.9890     3.1400     0.3400 H     1 <1>   0.0800 
 47 H       -0.5420    -7.6980    -0.5290 H     1 <1>   0.0800 
 48 H        0.4890    -7.1410     0.7840 H     1 <1>   0.0800 
 49 H        1.0950    -7.1590    -0.8830 H     1 <1>   0.0800 
@<TRIPOS>BOND
  1   1   2  2   
  2   2   3  am  
  3   2   4  1   
  4   3   5  1   
  5   3   6  1   
  6   4   7  ar  
  7   4   8  ar  
  8   5   9  1   
  9   5  26  1   
 10   5  27  1   
 11   6  10  1   
 12   6  28  1   
 13   6  29  1   
 14   7  11  ar  
 15   7  30  1   
 16   8  12  ar  
 17   8  31  1   
 18   9  13  1   
 19   9  14  1   
 20   9  32  1   
 21  10  15  1   
 22  10  16  1   
 23  10  33  1   
 24  11  17  ar  
 25  11  18  1   
 26  12  17  ar  
 27  12  34  1   
 28  13  16  1   
 29  13  19  1   
 30  13  35  1   
 31  14  20  1   
 32  14  36  1   
 33  14  37  1   
 34  15  20  1   
 35  15  38  1   
 36  15  39  1   
 37  16  40  1   
 38  16  41  1   
 39  17  21  1   
 40  18  42  1   
 41  18  43  1   
 42  18  44  1   
 43  19  22  1   
 44  19  45  1   
 45  19  46  1   
 46  21  23  1   
 47  22  24  ar  
 48  22  25  ar  
 49  23  47  1   
 50  23  48  1   
 51  23  49  1   
@<TRIPOS>SUBSTRUCTURE
  1 ****   3 GROUP 4 **** **** 0

# MOE 2024.06 (io_trps.svl 2023.06)
