@<TRIPOS>MOLECULE
NONAME
50 53 1 0 0 
SMALL
USER_CHARGES


@<TRIPOS>ATOM
  1 S       -0.6080     0.1540    -1.0730 S.o2  1 <1>   1.0900 
  2 O        0.5140    -0.6400    -1.5160 O.2   1 <1>  -0.6500 
  3 O       -0.5420     1.5950    -1.1670 O.2   1 <1>  -0.6500 
  4 C       -2.0630    -0.4230    -1.9540 C.3   1 <1>   0.0890 
  5 C       -0.9250    -0.2680     0.6320 C.3   1 <1>  -0.1350 
  6 C       -3.3760    -0.0330    -1.2880 C.ar  1 <1>  -0.1440 
  7 C       -4.2030    -0.9950    -0.7290 C.ar  1 <1>   0.1600 
  8 C       -3.7590     1.2920    -1.2120 C.ar  1 <1>  -0.1500 
  9 N       -5.3420    -0.7500    -0.1100 N.ar  1 <1>  -0.6200 
 10 C       -4.9460     1.5600    -0.5730 C.ar  1 <1>  -0.1500 
 11 C       -5.7080     0.5250    -0.0390 C.ar  1 <1>   0.4100 
 12 N       -6.9030     0.8140     0.5930 N.pl3 1 <1>  -0.8380 
 13 C       -8.0090     1.3720    -0.2420 C.3   1 <1>   0.2090 
 14 C       -7.4000    -0.1110     1.6470 C.3   1 <1>   0.2090 
 15 C       -8.9800     2.1940     0.6270 C.3   1 <1>   0.1440 
 16 C       -8.3770     0.6310     2.5680 C.3   1 <1>  -0.1600 
 17 C      -10.1380     2.7160    -0.2040 C.ar  1 <1>   0.1670 
 18 C       -9.5130     1.3190     1.7850 C.3   1 <1>  -0.1600 
 19 C       -8.3290     3.5050     1.1470 C.3   1 <1>  -0.1600 
 20 N      -10.8650     2.0010    -1.0350 N.ar  1 <1>  -0.6200 
 21 C      -10.3550     4.0440     0.0120 C.ar  1 <1>  -0.1430 
 22 C       -9.3850     4.6170     1.0140 C.3   1 <1>  -0.0170 
 23 C      -11.8260     2.6790    -1.6460 C.ar  1 <1>   0.4770 
 24 C      -11.3780     4.6470    -0.6760 C.ar  1 <1>   0.1600 
 25 N      -12.1280     3.9650    -1.5180 N.ar  1 <1>  -0.6200 
 26 C      -12.6770     1.8890    -2.6100 C.3   1 <1>  -0.0970 
 27 H       -2.0190    -1.4920    -2.0370 H     1 <1>   0.0800 
 28 H       -2.0500    -0.0290    -2.9520 H     1 <1>   0.0800 
 29 H       -0.0870     0.0160     1.2390 H     1 <1>   0.0800 
 30 H       -1.0780    -1.3240     0.7400 H     1 <1>   0.0800 
 31 H       -1.7930     0.2480     0.9960 H     1 <1>   0.0800 
 32 H       -3.9170    -2.0310    -0.7890 H     1 <1>   0.1500 
 33 H       -3.1570     2.0870    -1.6250 H     1 <1>   0.1500 
 34 H       -5.2980     2.5680    -0.4700 H     1 <1>   0.1500 
 35 H       -8.5430     0.5580    -0.7020 H     1 <1>   0.0800 
 36 H       -7.6120     1.9880    -1.0300 H     1 <1>   0.0800 
 37 H       -6.5700    -0.4850     2.2230 H     1 <1>   0.0800 
 38 H       -7.8910    -0.9480     1.1800 H     1 <1>   0.0800 
 39 H       -7.8230     1.3560     3.1360 H     1 <1>   0.0800 
 40 H       -8.7970    -0.0700     3.2670 H     1 <1>   0.0800 
 41 H      -10.1490     0.5560     1.3680 H     1 <1>   0.0800 
 42 H      -10.1140     1.9120     2.4510 H     1 <1>   0.0800 
 43 H       -7.4930     3.7580     0.5190 H     1 <1>   0.0800 
 44 H       -7.9700     3.4220     2.1560 H     1 <1>   0.0800 
 45 H       -8.9490     5.5370     0.6670 H     1 <1>   0.0800 
 46 H       -9.8870     4.7780     1.9520 H     1 <1>   0.0800 
 47 H      -11.5880     5.6930    -0.5390 H     1 <1>   0.1500 
 48 H      -12.8500     0.9030    -2.2200 H     1 <1>   0.0800 
 49 H      -12.1660     1.8130    -3.5510 H     1 <1>   0.0800 
 50 H      -13.6220     2.3770    -2.7590 H     1 <1>   0.0800 
@<TRIPOS>BOND
  1   1   2  2   
  2   1   3  2   
  3   1   4  1   
  4   1   5  1   
  5   4   6  1   
  6   4  27  1   
  7   4  28  1   
  8   5  29  1   
  9   5  30  1   
 10   5  31  1   
 11   6   7  ar  
 12   6   8  ar  
 13   7   9  ar  
 14   7  32  1   
 15   8  10  ar  
 16   8  33  1   
 17   9  11  ar  
 18  10  11  ar  
 19  10  34  1   
 20  11  12  1   
 21  12  13  1   
 22  12  14  1   
 23  13  15  1   
 24  13  35  1   
 25  13  36  1   
 26  14  16  1   
 27  14  37  1   
 28  14  38  1   
 29  15  17  1   
 30  15  18  1   
 31  15  19  1   
 32  16  18  1   
 33  16  39  1   
 34  16  40  1   
 35  17  20  ar  
 36  17  21  ar  
 37  18  41  1   
 38  18  42  1   
 39  19  22  1   
 40  19  43  1   
 41  19  44  1   
 42  20  23  ar  
 43  21  22  1   
 44  21  24  ar  
 45  22  45  1   
 46  22  46  1   
 47  23  25  ar  
 48  23  26  1   
 49  24  25  ar  
 50  24  47  1   
 51  26  48  1   
 52  26  49  1   
 53  26  50  1   
@<TRIPOS>SUBSTRUCTURE
  1 ****  12 GROUP 4 **** **** 0

# MOE 2024.06 (io_trps.svl 2023.06)
