@<TRIPOS>MOLECULE
NONAME
43 44 1 0 0 
SMALL
USER_CHARGES


@<TRIPOS>ATOM
  1 N        0.0450     0.6270    -0.1270 N.ar  1 <1>  -0.6200 
  2 C       -0.1150     1.6520    -0.9470 C.ar  1 <1>   0.4100 
  3 C       -1.0000    -0.1920    -0.1210 C.ar  1 <1>   0.4100 
  4 N        0.9470     2.5430    -1.0010 N.pl3 1 <1>  -0.8380 
  5 C       -1.2680     1.8500    -1.7190 C.ar  1 <1>   0.1600 
  6 N       -0.9110    -1.3150     0.6960 N.pl3 1 <1>  -0.8380 
  7 C       -2.1460     0.0370    -0.8990 C.ar  1 <1>   0.1600 
  8 C        2.2140     1.9400    -1.5190 C.3   1 <1>   0.2090 
  9 C        1.1340     3.3300     0.2570 C.3   1 <1>   0.2090 
 10 N       -2.3230     1.0550    -1.7260 N.ar  1 <1>  -0.6200 
 11 C       -1.0000    -2.6640     0.0750 C.3   1 <1>   0.1290 
 12 C       -0.1020    -1.2620     1.9450 C.3   1 <1>   0.1290 
 13 C        3.3360     2.9920    -1.6490 C.3   1 <1>   0.3430 
 14 C        2.2640     4.3700     0.1160 C.3   1 <1>   0.3430 
 15 N        3.5530     3.7560    -0.3700 N.4   1 <1>  -0.9590 
 16 C        4.6130     4.7760    -0.5060 C.3   1 <1>   0.4810 
 17 C        5.0950     5.2140     0.8730 C.2   1 <1>  -0.2760 
 18 C        4.8470     4.6220     2.0520 C.2   1 <1>  -0.3000 
 19 C        5.9630     6.4640     0.8030 C.3   1 <1>  -0.1020 
 20 H       -1.2970     2.7140    -2.3550 H     1 <1>   0.1500 
 21 H       -2.9470    -0.6730    -0.8130 H     1 <1>   0.1500 
 22 H        2.0260     1.5000    -2.4840 H     1 <1>   0.0800 
 23 H        2.5360     1.1510    -0.8600 H     1 <1>   0.0800 
 24 H        1.3580     2.6610     1.0710 H     1 <1>   0.0800 
 25 H        0.2140     3.8370     0.4960 H     1 <1>   0.0800 
 26 H       -1.3670    -2.5940    -0.9350 H     1 <1>   0.0800 
 27 H       -1.6710    -3.2820     0.6460 H     1 <1>   0.0800 
 28 H       -0.0280    -3.1240     0.0540 H     1 <1>   0.0800 
 29 H       -0.1690    -0.2810     2.3840 H     1 <1>   0.0800 
 30 H        0.9280    -1.4760     1.7220 H     1 <1>   0.0800 
 31 H       -0.4730    -1.9820     2.6530 H     1 <1>   0.0800 
 32 H        3.0620     3.6750    -2.4360 H     1 <1>   0.0800 
 33 H        4.2470     2.4960    -1.9410 H     1 <1>   0.0800 
 34 H        2.4220     4.8500     1.0680 H     1 <1>   0.0800 
 35 H        1.9390     5.1250    -0.5810 H     1 <1>   0.0800 
 36 H        3.8800     3.1010     0.3500 H     1 <1>   0.4500 
 37 H        4.2300     5.6270    -1.0470 H     1 <1>   0.0800 
 38 H        5.4490     4.3740    -1.0560 H     1 <1>   0.0800 
 39 H        5.2320     4.9930     2.9900 H     1 <1>   0.1500 
 40 H        4.2640     3.7350     2.2190 H     1 <1>   0.1500 
 41 H        6.8330     6.2870     0.1950 H     1 <1>   0.0800 
 42 H        6.2990     6.7530     1.7840 H     1 <1>   0.0800 
 43 H        5.4090     7.2880     0.3870 H     1 <1>   0.0800 
@<TRIPOS>BOND
  1   1   2  ar  
  2   1   3  ar  
  3   2   4  1   
  4   2   5  ar  
  5   3   6  1   
  6   3   7  ar  
  7   4   8  1   
  8   4   9  1   
  9   5  10  ar  
 10   5  20  1   
 11   6  11  1   
 12   6  12  1   
 13   7  10  ar  
 14   7  21  1   
 15   8  13  1   
 16   8  22  1   
 17   8  23  1   
 18   9  14  1   
 19   9  24  1   
 20   9  25  1   
 21  11  26  1   
 22  11  27  1   
 23  11  28  1   
 24  12  29  1   
 25  12  30  1   
 26  12  31  1   
 27  13  15  1   
 28  13  32  1   
 29  13  33  1   
 30  14  15  1   
 31  14  34  1   
 32  14  35  1   
 33  15  16  1   
 34  15  36  1   
 35  16  17  1   
 36  16  37  1   
 37  16  38  1   
 38  17  18  2   
 39  17  19  1   
 40  18  39  1   
 41  18  40  1   
 42  19  41  1   
 43  19  42  1   
 44  19  43  1   
@<TRIPOS>SUBSTRUCTURE
  1 ****   4 GROUP 4 **** **** 0

# MOE 2024.06 (io_trps.svl 2023.06)
