@<TRIPOS>MOLECULE
NONAME
53 56 1 0 0 
SMALL
USER_CHARGES


@<TRIPOS>ATOM
  1 O        0.3500    -1.4280     1.0780 O.3   1 <1>  -0.3630 
  2 C       -0.0690    -2.7080     1.0440 C.ar  1 <1>   0.3920 
  3 C        1.7220    -1.1100     0.9790 C.3   1 <1>   0.1200 
  4 N        0.8250    -3.6810     0.8910 N.ar  1 <1>  -0.6200 
  5 C       -1.4330    -2.9260     1.1730 C.ar  1 <1>  -0.1500 
  6 C        1.8650     0.4070     1.0560 C.3   1 <1>  -0.2400 
  7 C        0.3380    -4.9070     0.8690 C.ar  1 <1>   0.1600 
  8 C       -1.9270    -4.2100     1.1390 C.ar  1 <1>  -0.1500 
  9 C       -1.0070    -5.2290     0.9730 C.ar  1 <1>  -0.1440 
 10 C       -1.4580    -6.6730     0.9050 C.3   1 <1>   0.4860 
 11 N       -1.4280    -7.1420    -0.5120 N.4   1 <1>  -0.9590 
 12 C       -2.4190    -6.3900    -1.3520 C.3   1 <1>   0.3430 
 13 C       -1.8190    -8.5860    -0.5850 C.3   1 <1>   0.3430 
 14 C       -3.6680    -7.2720    -1.4080 C.3   1 <1>   0.2000 
 15 C       -3.0620    -8.6730    -1.4800 C.3   1 <1>  -0.0800 
 16 O       -4.3630    -7.1210    -0.2100 O.3   1 <1>  -0.6800 
 17 C       -4.0030    -9.8480    -1.1430 C.3   1 <1>  -0.0170 
 18 C       -3.1990   -11.1390    -1.0280 C.ar  1 <1>  -0.1430 
 19 C       -2.6910   -11.6300     0.2010 C.ar  1 <1>   0.0000 
 20 C       -2.9220   -11.8550    -2.1570 C.ar  1 <1>  -0.1500 
 21 C       -1.8840   -12.7940     0.1560 C.ar  1 <1>   0.3100 
 22 C       -2.9280   -11.0440     1.4690 C.ar  1 <1>  -0.1500 
 23 C       -2.1320   -13.0080    -2.0860 C.ar  1 <1>   0.1600 
 24 N       -1.6130   -13.4620    -0.9910 N.ar  1 <1>  -0.6200 
 25 C       -1.3300   -13.2880     1.3480 C.ar  1 <1>  -0.1500 
 26 C       -2.3750   -11.5530     2.6120 C.ar  1 <1>  -0.1500 
 27 C       -1.5610   -12.6860     2.5540 C.ar  1 <1>  -0.1500 
 28 H        2.2410    -1.5880     1.7930 H     1 <1>   0.0800 
 29 H        2.0920    -1.4850     0.0400 H     1 <1>   0.0800 
 30 H       -2.0830    -2.0790     1.3000 H     1 <1>   0.1500 
 31 H        1.4810     0.7680     1.9930 H     1 <1>   0.0800 
 32 H        1.3330     0.8700     0.2450 H     1 <1>   0.0800 
 33 H        2.9030     0.6770     0.9830 H     1 <1>   0.0800 
 34 H        1.0640    -5.6950     0.7610 H     1 <1>   0.1500 
 35 H       -2.9840    -4.3940     1.2410 H     1 <1>   0.1500 
 36 H       -2.4590    -6.7580     1.2990 H     1 <1>   0.0800 
 37 H       -0.8040    -7.2800     1.5100 H     1 <1>   0.0800 
 38 H       -0.4820    -6.9960    -0.8850 H     1 <1>   0.4500 
 39 H       -2.6480    -5.4150    -0.9560 H     1 <1>   0.0800 
 40 H       -2.0280    -6.2770    -2.3500 H     1 <1>   0.0800 
 41 H       -1.0210    -9.1930    -0.9840 H     1 <1>   0.0800 
 42 H       -2.0650    -8.9470     0.4000 H     1 <1>   0.0800 
 43 H       -4.3170    -7.0250    -2.2320 H     1 <1>   0.0800 
 44 H       -2.7050    -8.8260    -2.4840 H     1 <1>   0.0800 
 45 H       -5.2970    -7.4090    -0.3050 H     1 <1>   0.4000 
 46 H       -4.7280    -9.9530    -1.9330 H     1 <1>   0.0800 
 47 H       -4.5620    -9.6740    -0.2440 H     1 <1>   0.0800 
 48 H       -3.2890   -11.5600    -3.1230 H     1 <1>   0.1500 
 49 H       -3.5640   -10.1850     1.5560 H     1 <1>   0.1500 
 50 H       -1.9370   -13.5460    -2.9990 H     1 <1>   0.1500 
 51 H       -0.7140   -14.1670     1.2800 H     1 <1>   0.1500 
 52 H       -2.5640   -11.1010     3.5720 H     1 <1>   0.1500 
 53 H       -1.1320   -13.0800     3.4590 H     1 <1>   0.1500 
@<TRIPOS>BOND
  1   1   2  1   
  2   1   3  1   
  3   2   4  ar  
  4   2   5  ar  
  5   3   6  1   
  6   3  28  1   
  7   3  29  1   
  8   4   7  ar  
  9   5   8  ar  
 10   5  30  1   
 11   6  31  1   
 12   6  32  1   
 13   6  33  1   
 14   7   9  ar  
 15   7  34  1   
 16   8   9  ar  
 17   8  35  1   
 18   9  10  1   
 19  10  11  1   
 20  10  36  1   
 21  10  37  1   
 22  11  12  1   
 23  11  13  1   
 24  11  38  1   
 25  12  14  1   
 26  12  39  1   
 27  12  40  1   
 28  13  15  1   
 29  13  41  1   
 30  13  42  1   
 31  14  15  1   
 32  14  16  1   
 33  14  43  1   
 34  15  17  1   
 35  15  44  1   
 36  16  45  1   
 37  17  18  1   
 38  17  46  1   
 39  17  47  1   
 40  18  19  ar  
 41  18  20  ar  
 42  19  21  ar  
 43  19  22  ar  
 44  20  23  ar  
 45  20  48  1   
 46  21  24  ar  
 47  21  25  ar  
 48  22  26  ar  
 49  22  49  1   
 50  23  24  ar  
 51  23  50  1   
 52  25  27  ar  
 53  25  51  1   
 54  26  27  ar  
 55  26  52  1   
 56  27  53  1   
@<TRIPOS>SUBSTRUCTURE
  1 ****  11 GROUP 4 **** **** 0

# MOE 2024.06 (io_trps.svl 2023.06)
