@<TRIPOS>MOLECULE
NONAME
56 57 1 0 0 
SMALL
USER_CHARGES


@<TRIPOS>ATOM
  1 O        0.7230     3.3330    -1.7000 O.2   1 <1>  -0.5700 
  2 C       -0.2460     3.9640    -1.3450 C.2   1 <1>   0.5690 
  3 N       -1.0640     3.5360    -0.3320 N.am  1 <1>  -0.6600 
  4 C       -0.5080     5.2980    -2.0590 C.3   1 <1>   0.1810 
  5 C       -2.2590     4.3540     0.0570 C.3   1 <1>   0.3640 
  6 C       -0.6870     2.3670     0.5100 C.3   1 <1>   0.2200 
  7 O       -1.6770     5.9930    -1.6610 O.3   1 <1>  -0.5600 
  8 C       -3.5440     3.8030    -0.5710 C.ar  1 <1>  -0.1440 
  9 C       -2.0760     5.8440    -0.3030 C.3   1 <1>   0.2610 
 10 C       -1.8730     1.4360     0.7600 C.3   1 <1>  -0.2400 
 11 C       -0.0740     2.8630     1.8200 C.3   1 <1>  -0.2400 
 12 C       -3.6030     3.3940    -1.8970 C.ar  1 <1>  -0.1500 
 13 C       -4.6910     3.7120     0.2070 C.ar  1 <1>  -0.1500 
 14 C       -1.1300     6.5330     0.6920 C.2   1 <1>   0.5690 
 15 C       -4.7800     2.9040    -2.4330 C.ar  1 <1>  -0.1500 
 16 C       -5.8700     3.2220    -0.3270 C.ar  1 <1>  -0.1500 
 17 O       -1.2560     6.3030     1.8730 O.2   1 <1>  -0.5700 
 18 N       -0.1900     7.3940     0.2190 N.am  1 <1>  -0.7300 
 19 C       -5.9160     2.8170    -1.6490 C.ar  1 <1>  -0.1500 
 20 C        1.0260     7.9760     0.8460 C.3   1 <1>   0.3610 
 21 C        1.8920     8.6360    -0.2910 C.2   1 <1>   0.5690 
 22 C        1.7920     6.8150     1.5040 C.3   1 <1>  -0.2400 
 23 C        0.5210     8.9910     1.8860 C.3   1 <1>  -0.2400 
 24 O        1.5720     8.3590    -1.4320 O.2   1 <1>  -0.5700 
 25 N        2.9640     9.4920    -0.0800 N.am  1 <1>  -0.6600 
 26 C        3.6400    10.1540    -1.2360 C.3   1 <1>   0.0600 
 27 C        3.5890     9.8570     1.2220 C.3   1 <1>   0.0600 
 28 H       -0.5900     5.1150    -3.1140 H     1 <1>   0.0800 
 29 H        0.3380     5.9410    -1.9030 H     1 <1>   0.0800 
 30 H       -2.3800     4.2890     1.1230 H     1 <1>   0.0800 
 31 H        0.0640     1.7940    -0.0090 H     1 <1>   0.0800 
 32 H       -3.0290     6.3300    -0.2100 H     1 <1>   0.0800 
 33 H       -2.6150     1.9010     1.3820 H     1 <1>   0.0800 
 34 H       -1.5330     0.5460     1.2560 H     1 <1>   0.0800 
 35 H       -2.3180     1.1490    -0.1760 H     1 <1>   0.0800 
 36 H       -0.7930     3.3930     2.4170 H     1 <1>   0.0800 
 37 H        0.7590     3.5100     1.6110 H     1 <1>   0.0800 
 38 H        0.2860     2.0260     2.3900 H     1 <1>   0.0800 
 39 H       -2.7310     3.4530    -2.5230 H     1 <1>   0.1500 
 40 H       -4.6770     4.0210     1.2380 H     1 <1>   0.1500 
 41 H       -4.8110     2.5900    -3.4620 H     1 <1>   0.1500 
 42 H       -6.7520     3.1550     0.2850 H     1 <1>   0.1500 
 43 H       -0.1780     7.5680    -0.7960 H     1 <1>   0.3700 
 44 H       -6.8310     2.4360    -2.0660 H     1 <1>   0.1500 
 45 H        2.7370     7.1370     1.8910 H     1 <1>   0.0800 
 46 H        1.9810     6.0450     0.7770 H     1 <1>   0.0800 
 47 H        1.2330     6.3970     2.3200 H     1 <1>   0.0800 
 48 H        1.3180     9.3810     2.4840 H     1 <1>   0.0800 
 49 H       -0.1790     8.5290     2.5580 H     1 <1>   0.0800 
 50 H        0.0350     9.8110     1.3890 H     1 <1>   0.0800 
 51 H        3.7920    11.1980    -1.0240 H     1 <1>   0.0800 
 52 H        3.0470    10.0790    -2.1320 H     1 <1>   0.0800 
 53 H        4.5920     9.6860    -1.4140 H     1 <1>   0.0800 
 54 H        4.6550     9.9480     1.1020 H     1 <1>   0.0800 
 55 H        3.4090     9.1150     1.9730 H     1 <1>   0.0800 
 56 H        3.1970    10.8020     1.5570 H     1 <1>   0.0800 
@<TRIPOS>BOND
  1   1   2  2   
  2   2   3  am  
  3   2   4  1   
  4   3   5  1   
  5   3   6  1   
  6   4   7  1   
  7   4  28  1   
  8   4  29  1   
  9   5   8  1   
 10   5   9  1   
 11   5  30  1   
 12   6  10  1   
 13   6  11  1   
 14   6  31  1   
 15   7   9  1   
 16   8  12  ar  
 17   8  13  ar  
 18   9  14  1   
 19   9  32  1   
 20  10  33  1   
 21  10  34  1   
 22  10  35  1   
 23  11  36  1   
 24  11  37  1   
 25  11  38  1   
 26  12  15  ar  
 27  12  39  1   
 28  13  16  ar  
 29  13  40  1   
 30  14  17  2   
 31  14  18  am  
 32  15  19  ar  
 33  15  41  1   
 34  16  19  ar  
 35  16  42  1   
 36  18  20  1   
 37  18  43  1   
 38  19  44  1   
 39  20  21  1   
 40  20  22  1   
 41  20  23  1   
 42  21  24  2   
 43  21  25  am  
 44  22  45  1   
 45  22  46  1   
 46  22  47  1   
 47  23  48  1   
 48  23  49  1   
 49  23  50  1   
 50  25  26  1   
 51  25  27  1   
 52  26  51  1   
 53  26  52  1   
 54  26  53  1   
 55  27  54  1   
 56  27  55  1   
 57  27  56  1   
@<TRIPOS>SUBSTRUCTURE
  1 ****   9 GROUP 4 **** **** 0

# MOE 2024.06 (io_trps.svl 2023.06)
