@<TRIPOS>MOLECULE
NONAME
50 52 1 0 0 
SMALL
USER_CHARGES


@<TRIPOS>ATOM
  1 O       -0.7660     1.0660    -0.6800 O.2   1 <1>  -0.5700 
  2 C       -0.5400     2.2420    -0.8460 C.2   1 <1>   0.5690 
  3 N       -0.7710     3.1770     0.1290 N.am  1 <1>  -0.6600 
  4 C        0.0000     2.6820    -2.2120 C.3   1 <1>   0.1810 
  5 C       -0.4580     4.6250    -0.1110 C.3   1 <1>   0.3640 
  6 C       -1.2100     2.8030     1.5050 C.3   1 <1>   0.0600 
  7 O        0.5880     3.9620    -2.1950 O.3   1 <1>  -0.5600 
  8 C       -1.4850     5.5470     0.5650 C.ar  1 <1>  -0.1440 
  9 C       -0.2370     4.9490    -1.6070 C.3   1 <1>   0.2610 
 10 C       -2.8460     5.5990     0.2450 C.ar  1 <1>  -0.1440 
 11 C       -1.0030     6.3710     1.5760 C.ar  1 <1>  -0.1500 
 12 C        0.3870     6.3360    -1.7620 C.2   1 <1>   0.5690 
 13 C       -3.6770     6.4620     0.9450 C.ar  1 <1>  -0.1500 
 14 C       -3.4990     4.7560    -0.8450 C.3   1 <1>  -0.0960 
 15 C       -1.8420     7.2200     2.2710 C.ar  1 <1>  -0.1500 
 16 O       -0.2530     7.2210    -2.2810 O.2   1 <1>  -0.5700 
 17 N        1.6450     6.5560    -1.3010 N.am  1 <1>  -0.7300 
 18 C       -3.1850     7.2660     1.9550 C.ar  1 <1>  -0.1500 
 19 C        2.2430     7.8910    -1.1170 C.3   1 <1>   0.3200 
 20 C        1.8550     8.4230     0.2550 C.2   1 <1>   0.0070 
 21 N        2.4710     8.0650     1.3390 N.2   1 <1>  -0.5650 
 22 N        0.8430     9.3070     0.4670 N.pl3 1 <1>   0.0480 
 23 C        1.8480     8.7580     2.3080 C.2   1 <1>   0.0770 
 24 C        0.8580     9.5190     1.7970 C.2   1 <1>  -0.3020 
 25 C       -0.0730     9.9670    -0.4980 C.3   1 <1>   0.0960 
 26 C       -1.5340     9.5930    -0.2340 C.3   1 <1>  -0.2400 
 27 H       -0.8010     2.6850    -2.9280 H     1 <1>   0.0800 
 28 H        0.7500     1.9840    -2.5370 H     1 <1>   0.0800 
 29 H        0.4870     4.8000     0.3720 H     1 <1>   0.0800 
 30 H       -0.5470     3.2380     2.2330 H     1 <1>   0.0800 
 31 H       -1.2040     1.7340     1.6300 H     1 <1>   0.0800 
 32 H       -2.2090     3.1630     1.6810 H     1 <1>   0.0800 
 33 H       -1.1710     4.9520    -2.1330 H     1 <1>   0.0800 
 34 H        0.0420     6.3670     1.8380 H     1 <1>   0.1500 
 35 H       -4.7250     6.5150     0.7080 H     1 <1>   0.1500 
 36 H       -4.5470     4.6300    -0.6430 H     1 <1>   0.0800 
 37 H       -3.0690     3.7750    -0.9030 H     1 <1>   0.0800 
 38 H       -3.3990     5.2470    -1.7950 H     1 <1>   0.0800 
 39 H       -1.4460     7.8460     3.0510 H     1 <1>   0.1500 
 40 H        2.1700     5.7970    -0.8640 H     1 <1>   0.3700 
 41 H       -3.8440     7.9260     2.4910 H     1 <1>   0.1500 
 42 H        3.3140     7.8060    -1.1730 H     1 <1>   0.0800 
 43 H        1.9210     8.5520    -1.9010 H     1 <1>   0.0800 
 44 H        2.1500     8.6730     3.3390 H     1 <1>   0.1500 
 45 H        0.1790    10.1860     2.2950 H     1 <1>   0.1500 
 46 H        0.0520    11.0310    -0.4080 H     1 <1>   0.0800 
 47 H        0.1870     9.6820    -1.5000 H     1 <1>   0.0800 
 48 H       -1.8320     9.8860     0.7560 H     1 <1>   0.0800 
 49 H       -1.6700     8.5320    -0.3490 H     1 <1>   0.0800 
 50 H       -2.1690    10.0890    -0.9450 H     1 <1>   0.0800 
@<TRIPOS>BOND
  1   1   2  2   
  2   2   3  am  
  3   2   4  1   
  4   3   5  1   
  5   3   6  1   
  6   4   7  1   
  7   4  27  1   
  8   4  28  1   
  9   5   8  1   
 10   5   9  1   
 11   5  29  1   
 12   6  30  1   
 13   6  31  1   
 14   6  32  1   
 15   7   9  1   
 16   8  10  ar  
 17   8  11  ar  
 18   9  12  1   
 19   9  33  1   
 20  10  13  ar  
 21  10  14  1   
 22  11  15  ar  
 23  11  34  1   
 24  12  16  2   
 25  12  17  am  
 26  13  18  ar  
 27  13  35  1   
 28  14  36  1   
 29  14  37  1   
 30  14  38  1   
 31  15  18  ar  
 32  15  39  1   
 33  17  19  1   
 34  17  40  1   
 35  18  41  1   
 36  19  20  1   
 37  19  42  1   
 38  19  43  1   
 39  20  21  2   
 40  20  22  1   
 41  21  23  1   
 42  22  24  1   
 43  22  25  1   
 44  23  24  2   
 45  23  44  1   
 46  24  45  1   
 47  25  26  1   
 48  25  46  1   
 49  25  47  1   
 50  26  48  1   
 51  26  49  1   
 52  26  50  1   
@<TRIPOS>SUBSTRUCTURE
  1 ****   8 GROUP 4 **** **** 0

# MOE 2024.06 (io_trps.svl 2023.06)
