@<TRIPOS>MOLECULE
NONAME
50 52 1 0 0 
SMALL
USER_CHARGES


@<TRIPOS>ATOM
  1 CL      -0.2120     0.3620     0.3830 Cl    1 <1>  -0.1770 
  2 C       -1.9270     0.6370     0.5230 C.ar  1 <1>   0.1770 
  3 C       -2.4490     1.0870     1.7200 C.ar  1 <1>  -0.1500 
  4 C       -2.7470     0.4050    -0.5640 C.ar  1 <1>  -0.1500 
  5 C       -3.8120     1.3010     1.8270 C.ar  1 <1>  -0.1500 
  6 C       -4.1070     0.6240    -0.4480 C.ar  1 <1>  -0.1500 
  7 C       -4.6740     1.0700     0.7500 C.ar  1 <1>   0.0530 
  8 C       -6.0930     1.2890     0.8840 C.2   1 <1>   0.0870 
  9 O       -6.5590     2.1380     1.7680 O.3   1 <1>  -0.0190 
 10 C       -7.1740     0.7460     0.2660 C.2   1 <1>  -0.0860 
 11 N       -7.8670     2.2090     1.7730 N.2   1 <1>  -0.4100 
 12 C       -8.2520     1.3990     0.8620 C.2   1 <1>   0.3720 
 13 C       -7.3260    -0.2930    -0.6960 C.2   1 <1>   0.7160 
 14 N       -9.5960     1.2420     0.5510 N.pl3 1 <1>  -0.8520 
 15 O       -7.1510    -0.0640    -1.8760 O.2   1 <1>  -0.5700 
 16 N       -7.7740    -1.5390    -0.3150 N.am  1 <1>  -0.6600 
 17 C       -9.9310     1.7440    -0.8190 C.3   1 <1>   0.2090 
 18 C       -8.6890    -2.3060    -1.2130 C.3   1 <1>   0.1400 
 19 C       -7.8540    -1.9720     1.1190 C.3   1 <1>   0.1400 
 20 C      -11.4430     1.7940    -1.0780 C.3   1 <1>   0.1200 
 21 C      -10.1660    -2.1310    -0.7800 C.3   1 <1>   0.3430 
 22 C       -9.3120    -2.2080     1.5820 C.3   1 <1>   0.3430 
 23 O      -12.0080     0.5190    -0.9620 O.3   1 <1>  -0.5600 
 24 N      -10.3180    -1.6260     0.6320 N.4   1 <1>  -0.9590 
 25 C      -13.3550     0.4910    -1.3270 C.3   1 <1>   0.0400 
 26 C      -11.7150    -1.7580     1.1280 C.3   1 <1>   0.2630 
 27 H       -1.7930     1.2660     2.5530 H     1 <1>   0.1500 
 28 H       -2.3190     0.0610    -1.4890 H     1 <1>   0.1500 
 29 H       -4.2140     1.6530     2.7610 H     1 <1>   0.1500 
 30 H       -4.7300     0.4540    -1.3080 H     1 <1>   0.1500 
 31 H      -10.1140     1.8230     1.2250 H     1 <1>   0.4000 
 32 H       -9.4780     1.1170    -1.5670 H     1 <1>   0.0800 
 33 H       -9.5270     2.7360    -0.9400 H     1 <1>   0.0800 
 34 H       -8.4250    -3.3480    -1.1720 H     1 <1>   0.0800 
 35 H       -8.5780    -1.9930    -2.2380 H     1 <1>   0.0800 
 36 H       -7.3970    -1.2460     1.7670 H     1 <1>   0.0800 
 37 H       -7.2970    -2.8850     1.2410 H     1 <1>   0.0800 
 38 H      -11.6170     2.1580    -2.0770 H     1 <1>   0.0800 
 39 H      -11.9210     2.4540    -0.3750 H     1 <1>   0.0800 
 40 H      -10.6700    -3.0760    -0.8910 H     1 <1>   0.0800 
 41 H      -10.6410    -1.4330    -1.4510 H     1 <1>   0.0800 
 42 H       -9.4400    -1.7770     2.5610 H     1 <1>   0.0800 
 43 H       -9.4780    -3.2680     1.6700 H     1 <1>   0.0800 
 44 H      -10.1110    -0.6010     0.5660 H     1 <1>   0.4500 
 45 H      -13.7200    -0.5150    -1.2190 H     1 <1>   0.0800 
 46 H      -13.4550     0.7990    -2.3540 H     1 <1>   0.0800 
 47 H      -13.9140     1.1500    -0.6830 H     1 <1>   0.0800 
 48 H      -11.9860    -2.7960     1.2200 H     1 <1>   0.0800 
 49 H      -12.3970    -1.2810     0.4440 H     1 <1>   0.0800 
 50 H      -11.8140    -1.2840     2.0910 H     1 <1>   0.0800 
@<TRIPOS>BOND
  1   1   2  1   
  2   2   3  ar  
  3   2   4  ar  
  4   3   5  ar  
  5   3  27  1   
  6   4   6  ar  
  7   4  28  1   
  8   5   7  ar  
  9   5  29  1   
 10   6   7  ar  
 11   6  30  1   
 12   7   8  1   
 13   8   9  1   
 14   8  10  2   
 15   9  11  1   
 16  10  12  1   
 17  10  13  1   
 18  11  12  2   
 19  12  14  1   
 20  13  15  2   
 21  13  16  am  
 22  14  17  1   
 23  14  31  1   
 24  16  18  1   
 25  16  19  1   
 26  17  20  1   
 27  17  32  1   
 28  17  33  1   
 29  18  21  1   
 30  18  34  1   
 31  18  35  1   
 32  19  22  1   
 33  19  36  1   
 34  19  37  1   
 35  20  23  1   
 36  20  38  1   
 37  20  39  1   
 38  21  24  1   
 39  21  40  1   
 40  21  41  1   
 41  22  24  1   
 42  22  42  1   
 43  22  43  1   
 44  23  25  1   
 45  24  26  1   
 46  24  44  1   
 47  25  45  1   
 48  25  46  1   
 49  25  47  1   
 50  26  48  1   
 51  26  49  1   
 52  26  50  1   
@<TRIPOS>SUBSTRUCTURE
  1 ****  10 GROUP 4 **** **** 0

# MOE 2024.06 (io_trps.svl 2023.06)
