@<TRIPOS>MOLECULE
NONAME
51 53 1 0 0 
SMALL
USER_CHARGES


@<TRIPOS>ATOM
  1 S       -0.4290    -0.4200     0.0150 S.3   1 <1>  -0.0800 
  2 C       -1.2870    -1.4850     1.1190 C.2   1 <1>  -0.1400 
  3 C       -0.9270     0.9960     0.9200 C.2   1 <1>  -0.1400 
  4 C       -1.8830    -0.7720     2.0930 C.2   1 <1>  -0.1500 
  5 C       -1.2230    -2.9700     0.8370 C.3   1 <1>   0.5230 
  6 C       -1.6810     0.6400     1.9760 C.2   1 <1>  -0.1500 
  7 C       -0.4580     2.3460     0.4160 C.3   1 <1>  -0.0600 
  8 N       -2.3790    -3.3540    -0.0160 N.4   1 <1>  -0.9590 
  9 C       -2.5510    -4.8430    -0.1200 C.3   1 <1>   0.5660 
 10 C       -2.3630    -2.6960    -1.3650 C.3   1 <1>   0.3430 
 11 C       -1.2230    -5.4960    -0.5110 C.ar  1 <1>  -0.1430 
 12 C       -3.7320    -5.2320    -1.0610 C.3   1 <1>   0.2000 
 13 C       -3.4900    -3.2160    -2.2880 C.3   1 <1>   0.1200 
 14 C       -0.5040    -6.1470     0.4830 C.ar  1 <1>  -0.1500 
 15 C       -0.7020    -5.4670    -1.8010 C.ar  1 <1>  -0.1500 
 16 O       -4.3510    -4.0900    -1.6100 O.3   1 <1>  -0.5600 
 17 C       -4.8200    -6.0150    -0.3140 C.3   1 <1>   0.1200 
 18 C        0.7190    -6.7370     0.2130 C.ar  1 <1>   0.0830 
 19 C        0.5250    -6.0450    -2.0780 C.ar  1 <1>  -0.1500 
 20 O       -4.2310    -6.9420     0.5370 O.3   1 <1>  -0.6800 
 21 O        1.3370    -7.3660     1.2400 O.3   1 <1>  -0.3630 
 22 C        1.2530    -6.6630    -1.0770 C.ar  1 <1>   0.0830 
 23 C        1.5060    -8.7630     1.1150 C.3   1 <1>   0.0400 
 24 O        2.4620    -7.1730    -1.4120 O.3   1 <1>  -0.3630 
 25 C        3.5940    -6.5990    -0.7940 C.3   1 <1>   0.0400 
 26 H       -2.4670    -1.1640     2.9090 H     1 <1>   0.1500 
 27 H       -1.2680    -3.5050     1.7720 H     1 <1>   0.0800 
 28 H       -0.2910    -3.2150     0.3520 H     1 <1>   0.0800 
 29 H       -2.1090     1.3210     2.6920 H     1 <1>   0.1500 
 30 H       -0.8250     3.1290     1.0560 H     1 <1>   0.0800 
 31 H       -0.8220     2.5140    -0.5810 H     1 <1>   0.0800 
 32 H        0.6160     2.3820     0.4070 H     1 <1>   0.0800 
 33 H       -3.2310    -3.0100     0.4400 H     1 <1>   0.4500 
 34 H       -2.7930    -5.2160     0.8610 H     1 <1>   0.0800 
 35 H       -2.4790    -1.6300    -1.2500 H     1 <1>   0.0800 
 36 H       -1.4120    -2.8610    -1.8450 H     1 <1>   0.0800 
 37 H       -3.3800    -5.8430    -1.8730 H     1 <1>   0.0800 
 38 H       -3.0820    -3.7280    -3.1420 H     1 <1>   0.0800 
 39 H       -4.0780    -2.3900    -2.6480 H     1 <1>   0.0800 
 40 H       -0.8810    -6.2210     1.4890 H     1 <1>   0.1500 
 41 H       -1.2300    -5.0040    -2.6140 H     1 <1>   0.1500 
 42 H       -5.4440    -6.5440    -1.0150 H     1 <1>   0.0800 
 43 H       -5.4250    -5.3550     0.2840 H     1 <1>   0.0800 
 44 H        0.9320    -6.0200    -3.0740 H     1 <1>   0.1500 
 45 H       -4.9020    -7.5650     0.8920 H     1 <1>   0.4000 
 46 H        1.9120    -9.1370     2.0380 H     1 <1>   0.0800 
 47 H        2.1840    -8.9720     0.3080 H     1 <1>   0.0800 
 48 H        0.5490    -9.2140     0.9240 H     1 <1>   0.0800 
 49 H        4.4730    -7.0340    -1.2340 H     1 <1>   0.0800 
 50 H        3.5720    -6.8080     0.2600 H     1 <1>   0.0800 
 51 H        3.5840    -5.5370    -0.9660 H     1 <1>   0.0800 
@<TRIPOS>BOND
  1   1   2  1   
  2   1   3  1   
  3   2   4  2   
  4   2   5  1   
  5   3   6  2   
  6   3   7  1   
  7   4   6  1   
  8   4  26  1   
  9   5   8  1   
 10   5  27  1   
 11   5  28  1   
 12   6  29  1   
 13   7  30  1   
 14   7  31  1   
 15   7  32  1   
 16   8   9  1   
 17   8  10  1   
 18   8  33  1   
 19   9  11  1   
 20   9  12  1   
 21   9  34  1   
 22  10  13  1   
 23  10  35  1   
 24  10  36  1   
 25  11  14  ar  
 26  11  15  ar  
 27  12  16  1   
 28  12  17  1   
 29  12  37  1   
 30  13  16  1   
 31  13  38  1   
 32  13  39  1   
 33  14  18  ar  
 34  14  40  1   
 35  15  19  ar  
 36  15  41  1   
 37  17  20  1   
 38  17  42  1   
 39  17  43  1   
 40  18  21  1   
 41  18  22  ar  
 42  19  22  ar  
 43  19  44  1   
 44  20  45  1   
 45  21  23  1   
 46  22  24  1   
 47  23  46  1   
 48  23  47  1   
 49  23  48  1   
 50  24  25  1   
 51  25  49  1   
 52  25  50  1   
 53  25  51  1   
@<TRIPOS>SUBSTRUCTURE
  1 ****  11 GROUP 4 **** **** 0

# MOE 2024.06 (io_trps.svl 2023.06)
