@<TRIPOS>MOLECULE
NONAME
50 51 1 0 0 
SMALL
USER_CHARGES


@<TRIPOS>ATOM
  1 S        1.1240     1.0810    -1.5460 S.o2  1 <1>   1.3330 
  2 O        1.0670    -0.3260    -1.8730 O.2   1 <1>  -0.6500 
  3 O        0.6910     2.0610    -2.5150 O.2   1 <1>  -0.6500 
  4 N        0.2050     1.3260    -0.1380 N.am  1 <1>  -0.8490 
  5 C        2.8000     1.4630    -1.0320 C.3   1 <1>  -0.0550 
  6 C       -1.0350     0.5450    -0.1480 C.3   1 <1>   0.1160 
  7 C       -0.1040     2.7390     0.1160 C.3   1 <1>   0.1160 
  8 C        3.4270     0.4250    -0.0750 C.3   1 <1>  -0.0800 
  9 C        4.8910     0.6670     0.2590 C.3   1 <1>   0.2200 
 10 C        2.7750     0.3330     1.3100 C.3   1 <1>   0.1200 
 11 N        5.1330     2.1010     0.5390 N.am  1 <1>  -0.7300 
 12 C        5.0100    -0.1130     1.5600 C.3   1 <1>   0.1200 
 13 O        3.8090     0.1210     2.2290 O.3   1 <1>  -0.5600 
 14 C        5.7040     2.9780    -0.3180 C.2   1 <1>   0.5690 
 15 O        6.0620     2.6520    -1.4220 O.2   1 <1>  -0.5700 
 16 C        5.8510     4.4170     0.1030 C.3   1 <1>  -0.0990 
 17 C        5.0030     5.3060    -0.8100 C.3   1 <1>   0.0960 
 18 N        4.9500     6.6760    -0.2750 N.pl3 1 <1>   0.3140 
 19 N        4.0800     6.9930     0.7020 N.2   1 <1>  -0.7070 
 20 C        5.7160     7.7370    -0.6170 C.2   1 <1>  -0.3320 
 21 C        4.3070     8.2420     0.9560 C.2   1 <1>   0.1080 
 22 C        5.3200     8.7650     0.1620 C.2   1 <1>  -0.1500 
 23 C        6.8040     7.7270    -1.6780 C.3   1 <1>  -0.0600 
 24 C        3.5350     9.0080     2.0030 C.3   1 <1>  -0.0590 
 25 H        3.4160     1.5140    -1.9100 H     1 <1>   0.0800 
 26 H        2.8140     2.4340    -0.5790 H     1 <1>   0.0800 
 27 H       -1.5880     0.7100     0.7610 H     1 <1>   0.0800 
 28 H       -0.8090    -0.5060    -0.2170 H     1 <1>   0.0800 
 29 H       -1.6460     0.8230    -0.9910 H     1 <1>   0.0800 
 30 H       -0.6130     2.8430     1.0590 H     1 <1>   0.0800 
 31 H       -0.7320     3.1350    -0.6660 H     1 <1>   0.0800 
 32 H        0.8020     3.3190     0.1560 H     1 <1>   0.0800 
 33 H        3.3500    -0.5460    -0.5330 H     1 <1>   0.0800 
 34 H        5.5620     0.3060    -0.5030 H     1 <1>   0.0800 
 35 H        2.0760    -0.4840     1.3710 H     1 <1>   0.0800 
 36 H        2.2840     1.2510     1.5850 H     1 <1>   0.0800 
 37 H        4.8150     2.3980     1.4660 H     1 <1>   0.3700 
 38 H        5.8360     0.2090     2.1690 H     1 <1>   0.0800 
 39 H        5.0820    -1.1700     1.3690 H     1 <1>   0.0800 
 40 H        5.5280     4.5300     1.1230 H     1 <1>   0.0800 
 41 H        6.8850     4.6980     0.0310 H     1 <1>   0.0800 
 42 H        3.9960     4.9330    -0.8570 H     1 <1>   0.0800 
 43 H        5.4070     5.3230    -1.8050 H     1 <1>   0.0800 
 44 H        5.6880     9.7740     0.1870 H     1 <1>   0.1500 
 45 H        7.2730     8.6930    -1.7340 H     1 <1>   0.0800 
 46 H        6.3840     7.4960    -2.6410 H     1 <1>   0.0800 
 47 H        7.5550     6.9960    -1.4360 H     1 <1>   0.0800 
 48 H        3.9230    10.0050     2.1020 H     1 <1>   0.0800 
 49 H        3.6150     8.5030     2.9480 H     1 <1>   0.0800 
 50 H        2.5000     9.0570     1.7200 H     1 <1>   0.0800 
@<TRIPOS>BOND
  1   1   2  2   
  2   1   3  2   
  3   1   4  am  
  4   1   5  1   
  5   4   6  1   
  6   4   7  1   
  7   5   8  1   
  8   5  25  1   
  9   5  26  1   
 10   6  27  1   
 11   6  28  1   
 12   6  29  1   
 13   7  30  1   
 14   7  31  1   
 15   7  32  1   
 16   8   9  1   
 17   8  10  1   
 18   8  33  1   
 19   9  11  1   
 20   9  12  1   
 21   9  34  1   
 22  10  13  1   
 23  10  35  1   
 24  10  36  1   
 25  11  14  am  
 26  11  37  1   
 27  12  13  1   
 28  12  38  1   
 29  12  39  1   
 30  14  15  2   
 31  14  16  1   
 32  16  17  1   
 33  16  40  1   
 34  16  41  1   
 35  17  18  1   
 36  17  42  1   
 37  17  43  1   
 38  18  19  1   
 39  18  20  1   
 40  19  21  2   
 41  20  22  2   
 42  20  23  1   
 43  21  22  1   
 44  21  24  1   
 45  22  44  1   
 46  23  45  1   
 47  23  46  1   
 48  23  47  1   
 49  24  48  1   
 50  24  49  1   
 51  24  50  1   
@<TRIPOS>SUBSTRUCTURE
  1 ****  11 GROUP 4 **** **** 0

# MOE 2024.06 (io_trps.svl 2023.06)
