@<TRIPOS>MOLECULE
NONAME
47 50 1 0 0 
SMALL
USER_CHARGES


@<TRIPOS>ATOM
  1 O       -0.5760    -1.4510    -0.5180 O.3   1 <1>  -0.3630 
  2 C       -1.8120    -1.5950     0.0200 C.ar  1 <1>   0.0830 
  3 C       -0.1170    -0.1260    -0.7140 C.3   1 <1>   0.1200 
  4 C       -2.7080    -0.5270     0.0740 C.ar  1 <1>   0.0820 
  5 C       -2.1760    -2.8310     0.5240 C.ar  1 <1>  -0.1500 
  6 C       -1.2450     0.7540    -1.2730 C.3   1 <1>   0.1200 
  7 O       -2.3840     0.6880    -0.4340 O.3   1 <1>  -0.3630 
  8 C       -3.9530    -0.7010     0.6500 C.ar  1 <1>  -0.1500 
  9 C       -3.4330    -3.0120     1.0850 C.ar  1 <1>  -0.1430 
 10 C       -4.3150    -1.9400     1.1550 C.ar  1 <1>  -0.1500 
 11 C       -3.8450    -4.3720     1.6120 C.3   1 <1>   0.4860 
 12 N       -4.0470    -5.2840     0.4520 N.4   1 <1>  -0.9590 
 13 C       -5.2270    -4.8400    -0.3610 C.3   1 <1>   0.3430 
 14 C       -4.3390    -6.6760     0.9200 C.3   1 <1>   0.3430 
 15 C       -6.3900    -5.7330     0.0800 C.3   1 <1>   0.2000 
 16 C       -5.7100    -7.0710     0.3510 C.3   1 <1>  -0.0800 
 17 O       -6.8830    -5.2470     1.2860 O.3   1 <1>  -0.6800 
 18 C       -5.5750    -7.9190    -0.9310 C.3   1 <1>  -0.0170 
 19 C       -4.6960    -9.1350    -0.6880 C.ar  1 <1>  -0.1430 
 20 C       -5.0860   -10.1590     0.1530 C.ar  1 <1>  -0.1500 
 21 C       -3.4620    -9.2780    -1.2920 C.ar  1 <1>  -0.1500 
 22 C       -4.2380   -11.2350     0.3610 C.ar  1 <1>   0.1600 
 23 C       -2.6910   -10.3950    -1.0170 C.ar  1 <1>   0.1600 
 24 N       -3.0460   -11.3680    -0.1960 N.ar  1 <1>  -0.6200 
 25 H        0.2190     0.2560     0.2330 H     1 <1>   0.0800 
 26 H        0.7150    -0.1590    -1.3950 H     1 <1>   0.0800 
 27 H       -1.4580    -3.6300     0.4700 H     1 <1>   0.1500 
 28 H       -1.5320     0.4160    -2.2530 H     1 <1>   0.0800 
 29 H       -0.9350     1.7810    -1.3310 H     1 <1>   0.0800 
 30 H       -4.6290     0.1340     0.6980 H     1 <1>   0.1500 
 31 H       -5.2900    -2.0540     1.6000 H     1 <1>   0.1500 
 32 H       -4.7570    -4.2870     2.1820 H     1 <1>   0.0800 
 33 H       -3.0700    -4.7530     2.2570 H     1 <1>   0.0800 
 34 H       -3.1970    -5.2430    -0.1220 H     1 <1>   0.4500 
 35 H       -5.4600    -3.7980    -0.2190 H     1 <1>   0.0800 
 36 H       -5.0260    -5.0130    -1.4050 H     1 <1>   0.0800 
 37 H       -3.5700    -7.3630     0.6040 H     1 <1>   0.0800 
 38 H       -4.3920    -6.6950     1.9970 H     1 <1>   0.0800 
 39 H       -7.1900    -5.7700    -0.6410 H     1 <1>   0.0800 
 40 H       -6.2580    -7.6450     1.0780 H     1 <1>   0.0800 
 41 H       -7.7510    -5.6500     1.5030 H     1 <1>   0.4000 
 42 H       -5.1580    -7.3360    -1.7330 H     1 <1>   0.0800 
 43 H       -6.5490    -8.2520    -1.2490 H     1 <1>   0.0800 
 44 H       -6.0390   -10.1420     0.6490 H     1 <1>   0.1500 
 45 H       -3.0860    -8.5420    -1.9780 H     1 <1>   0.1500 
 46 H       -4.5550   -12.0260     1.0190 H     1 <1>   0.1500 
 47 H       -1.7310   -10.4960    -1.4970 H     1 <1>   0.1500 
@<TRIPOS>BOND
  1   1   2  1   
  2   1   3  1   
  3   2   4  ar  
  4   2   5  ar  
  5   3   6  1   
  6   3  25  1   
  7   3  26  1   
  8   4   7  1   
  9   4   8  ar  
 10   5   9  ar  
 11   5  27  1   
 12   6   7  1   
 13   6  28  1   
 14   6  29  1   
 15   8  10  ar  
 16   8  30  1   
 17   9  10  ar  
 18   9  11  1   
 19  10  31  1   
 20  11  12  1   
 21  11  32  1   
 22  11  33  1   
 23  12  13  1   
 24  12  14  1   
 25  12  34  1   
 26  13  15  1   
 27  13  35  1   
 28  13  36  1   
 29  14  16  1   
 30  14  37  1   
 31  14  38  1   
 32  15  16  1   
 33  15  17  1   
 34  15  39  1   
 35  16  18  1   
 36  16  40  1   
 37  17  41  1   
 38  18  19  1   
 39  18  42  1   
 40  18  43  1   
 41  19  20  ar  
 42  19  21  ar  
 43  20  22  ar  
 44  20  44  1   
 45  21  23  ar  
 46  21  45  1   
 47  22  24  ar  
 48  22  46  1   
 49  23  24  ar  
 50  23  47  1   
@<TRIPOS>SUBSTRUCTURE
  1 ****  12 GROUP 4 **** **** 0

# MOE 2024.06 (io_trps.svl 2023.06)
