@<TRIPOS>MOLECULE
NONAME
48 50 1 0 0 
SMALL
USER_CHARGES


@<TRIPOS>ATOM
  1 S       -2.3420    -2.3160     3.0010 S.3   1 <1>  -0.0800 
  2 C       -2.9000    -3.0500     1.5090 C.2   1 <1>  -0.1100 
  3 C       -2.1720    -0.7560     2.2190 C.2   1 <1>  -0.1100 
  4 C       -2.9470    -2.1410     0.5160 C.2   1 <1>  -0.1810 
  5 C       -2.5250    -0.8300     0.9230 C.2   1 <1>  -0.1500 
  6 C       -3.4050    -2.4250    -0.8990 C.3   1 <1>   0.5240 
  7 N       -4.8690    -2.6400    -0.8690 N.4   1 <1>  -0.9590 
  8 C       -5.4120    -3.2640    -2.1140 C.3   1 <1>   0.3430 
  9 C       -5.6600    -1.4840    -0.3680 C.3   1 <1>   0.3430 
 10 C       -6.8350    -3.8240    -1.9000 C.3   1 <1>   0.1400 
 11 C       -6.6080    -1.9510     0.7420 C.3   1 <1>  -0.1600 
 12 N       -7.1460    -4.0600    -0.4550 N.am  1 <1>  -0.6600 
 13 C       -7.7160    -2.9160     0.2940 C.3   1 <1>   0.1400 
 14 C       -6.6080    -5.1370     0.2040 C.2   1 <1>   0.6160 
 15 O       -5.4020    -5.1000     0.3920 O.2   1 <1>  -0.5700 
 16 C       -7.4120    -6.2070     0.7170 C.2   1 <1>   0.0290 
 17 C       -8.3480    -6.8440    -0.1590 C.2   1 <1>   0.6160 
 18 C       -7.3050    -6.6470     2.0110 C.2   1 <1>  -0.1500 
 19 O       -8.3990    -6.5620    -1.3540 O.2   1 <1>  -0.5700 
 20 N       -9.1940    -7.8300     0.3500 N.am  1 <1>  -0.4690 
 21 C       -8.1360    -7.6800     2.4780 C.2   1 <1>  -0.1500 
 22 C       -9.0620    -8.2540     1.6610 C.2   1 <1>  -0.0290 
 23 C      -10.2070    -8.4550    -0.5570 C.3   1 <1>   0.0600 
 24 C       -9.9510    -9.3740     2.1860 C.3   1 <1>  -0.1020 
 25 H       -3.1400    -4.1010     1.5460 H     1 <1>   0.1500 
 26 H       -1.8150     0.0600     2.8230 H     1 <1>   0.1500 
 27 H       -2.4970     0.0000     0.2370 H     1 <1>   0.1500 
 28 H       -2.9120    -3.3160    -1.2540 H     1 <1>   0.0800 
 29 H       -3.1520    -1.6040    -1.5500 H     1 <1>   0.0800 
 30 H       -5.0090    -3.3900    -0.1570 H     1 <1>   0.4500 
 31 H       -4.7780    -4.0880    -2.3970 H     1 <1>   0.0800 
 32 H       -5.4150    -2.5570    -2.9270 H     1 <1>   0.0800 
 33 H       -6.2190    -1.0330    -1.1720 H     1 <1>   0.0800 
 34 H       -4.9980    -0.7370     0.0410 H     1 <1>   0.0800 
 35 H       -6.9310    -4.7490    -2.4430 H     1 <1>   0.0800 
 36 H       -7.5570    -3.1420    -2.3150 H     1 <1>   0.0800 
 37 H       -7.0810    -1.0820     1.1640 H     1 <1>   0.0800 
 38 H       -6.0360    -2.4020     1.5340 H     1 <1>   0.0800 
 39 H       -8.4320    -2.4030    -0.3270 H     1 <1>   0.0800 
 40 H       -8.2420    -3.2850     1.1600 H     1 <1>   0.0800 
 41 H       -6.5900    -6.2120     2.6880 H     1 <1>   0.1500 
 42 H       -8.0160    -8.0010     3.4990 H     1 <1>   0.1500 
 43 H      -10.3680    -7.8560    -1.4360 H     1 <1>   0.0800 
 44 H      -11.1510    -8.5500    -0.0520 H     1 <1>   0.0800 
 45 H       -9.8630    -9.4270    -0.8610 H     1 <1>   0.0800 
 46 H       -9.8370   -10.2550     1.5810 H     1 <1>   0.0800 
 47 H      -10.9810    -9.0670     2.1780 H     1 <1>   0.0800 
 48 H       -9.6870    -9.6280     3.1970 H     1 <1>   0.0800 
@<TRIPOS>BOND
  1   1   2  1   
  2   1   3  1   
  3   2   4  2   
  4   2  25  1   
  5   3   5  2   
  6   3  26  1   
  7   4   5  1   
  8   4   6  1   
  9   5  27  1   
 10   6   7  1   
 11   6  28  1   
 12   6  29  1   
 13   7   8  1   
 14   7   9  1   
 15   7  30  1   
 16   8  10  1   
 17   8  31  1   
 18   8  32  1   
 19   9  11  1   
 20   9  33  1   
 21   9  34  1   
 22  10  12  1   
 23  10  35  1   
 24  10  36  1   
 25  11  13  1   
 26  11  37  1   
 27  11  38  1   
 28  12  13  1   
 29  12  14  am  
 30  13  39  1   
 31  13  40  1   
 32  14  15  2   
 33  14  16  1   
 34  16  17  1   
 35  16  18  2   
 36  17  19  2   
 37  17  20  am  
 38  18  21  1   
 39  18  41  1   
 40  20  22  1   
 41  20  23  1   
 42  21  22  2   
 43  21  42  1   
 44  22  24  1   
 45  23  43  1   
 46  23  44  1   
 47  23  45  1   
 48  24  46  1   
 49  24  47  1   
 50  24  48  1   
@<TRIPOS>SUBSTRUCTURE
  1 ****  14 GROUP 4 **** **** 0

# MOE 2024.06 (io_trps.svl 2023.06)
