@<TRIPOS>MOLECULE
NONAME
46 47 1 0 0 
SMALL
USER_CHARGES


@<TRIPOS>ATOM
  1 S        1.6630     0.3760    -0.0740 S.o2  1 <1>   1.3330 
  2 O        0.3910     0.3120    -0.7580 O.2   1 <1>  -0.6500 
  3 O        2.5230    -0.7870    -0.0640 O.2   1 <1>  -0.6500 
  4 N        1.3850     0.8410     1.5340 N.am  1 <1>  -0.8490 
  5 C        2.5610     1.7750    -0.7360 C.3   1 <1>  -0.0550 
  6 C        0.1620     0.2540     2.0850 C.3   1 <1>   0.1160 
  7 C        2.5210     0.5510     2.4180 C.3   1 <1>   0.1160 
  8 C        2.9970     1.5840    -2.2020 C.3   1 <1>  -0.0800 
  9 C        3.5500     2.8340    -2.8780 C.3   1 <1>   0.2200 
 10 C        4.1230     0.5550    -2.3820 C.3   1 <1>   0.1200 
 11 N        4.3530     3.6280    -1.9220 N.am  1 <1>  -0.7300 
 12 C        4.4840     2.2150    -3.9060 C.3   1 <1>   0.1200 
 13 O        5.0570     1.1290    -3.2490 O.3   1 <1>  -0.5600 
 14 C        3.9600     4.7880    -1.3370 C.2   1 <1>   0.5690 
 15 O        2.9180     5.3240    -1.6260 O.2   1 <1>  -0.5700 
 16 C        4.8380     5.3970    -0.2610 C.3   1 <1>   0.0820 
 17 C        5.0960     4.3900     0.8520 C.2   1 <1>  -0.1810 
 18 C        6.2010     3.6870     1.1480 C.2   1 <1>  -0.0400 
 19 C        4.1780     3.9670     1.8140 C.2   1 <1>   0.1080 
 20 O        5.9320     2.9380     2.1830 O.3   1 <1>  -0.0190 
 21 C        7.5820     3.6200     0.5300 C.3   1 <1>  -0.0600 
 22 N        4.7100     3.0980     2.5960 N.2   1 <1>  -0.4100 
 23 C        2.7440     4.4400     1.9500 C.3   1 <1>  -0.0590 
 24 H        1.9300     2.6400    -0.6760 H     1 <1>   0.0800 
 25 H        3.4240     1.9580    -0.1270 H     1 <1>   0.0800 
 26 H        0.0160     0.5810     3.1000 H     1 <1>   0.0800 
 27 H        0.2210    -0.8220     2.0630 H     1 <1>   0.0800 
 28 H       -0.6900     0.5660     1.5050 H     1 <1>   0.0800 
 29 H        2.3740     1.0150     3.3780 H     1 <1>   0.0800 
 30 H        3.4320     0.9330     1.9930 H     1 <1>   0.0800 
 31 H        2.6330    -0.5130     2.5530 H     1 <1>   0.0800 
 32 H        2.1480     1.2460    -2.7720 H     1 <1>   0.0800 
 33 H        2.7830     3.4410    -3.3310 H     1 <1>   0.0800 
 34 H        3.7580    -0.3590    -2.8210 H     1 <1>   0.0800 
 35 H        4.6270     0.3320    -1.4570 H     1 <1>   0.0800 
 36 H        5.2060     3.1540    -1.6120 H     1 <1>   0.3700 
 37 H        5.2530     2.8920    -4.2340 H     1 <1>   0.0800 
 38 H        3.9340     1.8410    -4.7520 H     1 <1>   0.0800 
 39 H        5.7630     5.7080    -0.7080 H     1 <1>   0.0800 
 40 H        4.3550     6.2670     0.1430 H     1 <1>   0.0800 
 41 H        7.6580     4.2800    -0.3140 H     1 <1>   0.0800 
 42 H        7.7870     2.6150     0.2060 H     1 <1>   0.0800 
 43 H        8.3180     3.9040     1.2610 H     1 <1>   0.0800 
 44 H        2.2580     4.4550     0.9920 H     1 <1>   0.0800 
 45 H        2.7270     5.4280     2.3700 H     1 <1>   0.0800 
 46 H        2.1990     3.7780     2.5980 H     1 <1>   0.0800 
@<TRIPOS>BOND
  1   1   2  2   
  2   1   3  2   
  3   1   4  am  
  4   1   5  1   
  5   4   6  1   
  6   4   7  1   
  7   5   8  1   
  8   5  24  1   
  9   5  25  1   
 10   6  26  1   
 11   6  27  1   
 12   6  28  1   
 13   7  29  1   
 14   7  30  1   
 15   7  31  1   
 16   8   9  1   
 17   8  10  1   
 18   8  32  1   
 19   9  11  1   
 20   9  12  1   
 21   9  33  1   
 22  10  13  1   
 23  10  34  1   
 24  10  35  1   
 25  11  14  am  
 26  11  36  1   
 27  12  13  1   
 28  12  37  1   
 29  12  38  1   
 30  14  15  2   
 31  14  16  1   
 32  16  17  1   
 33  16  39  1   
 34  16  40  1   
 35  17  18  2   
 36  17  19  1   
 37  18  20  1   
 38  18  21  1   
 39  19  22  2   
 40  19  23  1   
 41  20  22  1   
 42  21  41  1   
 43  21  42  1   
 44  21  43  1   
 45  23  44  1   
 46  23  45  1   
 47  23  46  1   
@<TRIPOS>SUBSTRUCTURE
  1 ****   5 GROUP 4 **** **** 0

# MOE 2024.06 (io_trps.svl 2023.06)
