@<TRIPOS>MOLECULE
NONAME
60 63 1 0 0 
SMALL
USER_CHARGES


@<TRIPOS>ATOM
  1 O       -0.1160    -0.8890    -0.0940 O.2   1 <1>  -0.5700 
  2 C        0.9210    -1.1350    -0.6800 C.2   1 <1>   0.5440 
  3 N        0.9290    -2.1300    -1.6380 N.am  1 <1>  -0.6600 
  4 C        2.1170    -0.3840    -0.3510 C.ar  1 <1>   0.0860 
  5 C        2.1660    -2.8260    -2.0870 C.3   1 <1>   0.1400 
  6 C       -0.3330    -2.7230    -2.1580 C.3   1 <1>   0.1400 
  7 C        2.6050    -0.3450     0.9520 C.ar  1 <1>  -0.1500 
  8 C        2.8180     0.3250    -1.3270 C.ar  1 <1>  -0.1500 
  9 C        2.1060    -4.2910    -1.6470 C.3   1 <1>  -0.1600 
 10 C       -0.4260    -4.1830    -1.7130 C.3   1 <1>  -0.1600 
 11 C        3.7550     0.3540     1.2760 C.ar  1 <1>   0.0830 
 12 C        3.9670     1.0310    -1.0170 C.ar  1 <1>  -0.1500 
 13 C        0.8210    -4.9820    -2.1430 C.3   1 <1>  -0.0190 
 14 O        4.1460     0.3170     2.5740 O.3   1 <1>  -0.3630 
 15 C        4.4400     1.0460     0.2820 C.ar  1 <1>  -0.1500 
 16 C        0.7490    -6.4350    -1.6870 C.2   1 <1>   0.5690 
 17 C        5.2560     1.0580     3.0290 C.3   1 <1>   0.0400 
 18 O        0.7980    -7.3120    -2.5140 O.2   1 <1>  -0.5700 
 19 N        0.6240    -6.7120    -0.3660 N.am  1 <1>  -0.7300 
 20 C        0.5180    -8.0710     0.2090 C.3   1 <1>   0.2200 
 21 C       -0.9160    -8.3130     0.6480 C.3   1 <1>  -0.0800 
 22 C        1.2670    -8.1280     1.5360 C.3   1 <1>   0.1200 
 23 C       -0.9380    -7.6670     2.0370 C.3   1 <1>   0.1200 
 24 C       -1.2450    -9.8170     0.6970 C.3   1 <1>  -0.0160 
 25 O        0.3780    -7.6630     2.5090 O.3   1 <1>  -0.5600 
 26 C       -2.6890   -10.0570     1.1090 C.ar  1 <1>  -0.1430 
 27 C       -3.7370    -9.8370     0.2390 C.ar  1 <1>  -0.1500 
 28 C       -3.0280   -10.5090     2.3690 C.ar  1 <1>  -0.1500 
 29 C       -5.0370   -10.0660     0.6600 C.ar  1 <1>   0.1600 
 30 C       -4.3610   -10.7070     2.6900 C.ar  1 <1>   0.1600 
 31 N       -5.3740   -10.4940     1.8650 N.ar  1 <1>  -0.6200 
 32 H        2.2340    -2.7640    -3.1600 H     1 <1>   0.0800 
 33 H        3.0440    -2.3670    -1.6680 H     1 <1>   0.0800 
 34 H       -1.1880    -2.1760    -1.7990 H     1 <1>   0.0800 
 35 H       -0.3310    -2.6630    -3.2330 H     1 <1>   0.0800 
 36 H        2.0750    -0.8700     1.7260 H     1 <1>   0.1500 
 37 H        2.4490     0.3200    -2.3380 H     1 <1>   0.1500 
 38 H        2.9650    -4.8120    -2.0330 H     1 <1>   0.0800 
 39 H        2.1560    -4.3280    -0.5730 H     1 <1>   0.0800 
 40 H       -0.5360    -4.2020    -0.6430 H     1 <1>   0.0800 
 41 H       -1.3060    -4.6280    -2.1420 H     1 <1>   0.0800 
 42 H        4.4920     1.5710    -1.7860 H     1 <1>   0.1500 
 43 H        0.8480    -4.9900    -3.2200 H     1 <1>   0.0800 
 44 H        5.3340     1.5990     0.5010 H     1 <1>   0.1500 
 45 H        5.3530     0.8970     4.0870 H     1 <1>   0.0800 
 46 H        5.0840     2.1010     2.8320 H     1 <1>   0.0800 
 47 H        6.1400     0.7090     2.5240 H     1 <1>   0.0800 
 48 H        0.5710    -5.9530     0.3170 H     1 <1>   0.3700 
 49 H        0.8780    -8.8030    -0.4940 H     1 <1>   0.0800 
 50 H       -1.6120    -7.8290    -0.0150 H     1 <1>   0.0800 
 51 H        2.1560    -7.5230     1.5370 H     1 <1>   0.0800 
 52 H        1.5180    -9.1440     1.7860 H     1 <1>   0.0800 
 53 H       -1.5620    -8.1910     2.7390 H     1 <1>   0.0800 
 54 H       -1.2610    -6.6420     1.9720 H     1 <1>   0.0800 
 55 H       -0.5850   -10.3220     1.3810 H     1 <1>   0.0800 
 56 H       -1.0910   -10.2470    -0.2780 H     1 <1>   0.0800 
 57 H       -3.5560    -9.4890    -0.7620 H     1 <1>   0.1500 
 58 H       -2.2700   -10.7080     3.1050 H     1 <1>   0.1500 
 59 H       -5.8420    -9.8890    -0.0330 H     1 <1>   0.1500 
 60 H       -4.6060   -11.0580     3.6770 H     1 <1>   0.1500 
@<TRIPOS>BOND
  1   1   2  2   
  2   2   3  am  
  3   2   4  1   
  4   3   5  1   
  5   3   6  1   
  6   4   7  ar  
  7   4   8  ar  
  8   5   9  1   
  9   5  32  1   
 10   5  33  1   
 11   6  10  1   
 12   6  34  1   
 13   6  35  1   
 14   7  11  ar  
 15   7  36  1   
 16   8  12  ar  
 17   8  37  1   
 18   9  13  1   
 19   9  38  1   
 20   9  39  1   
 21  10  13  1   
 22  10  40  1   
 23  10  41  1   
 24  11  14  1   
 25  11  15  ar  
 26  12  15  ar  
 27  12  42  1   
 28  13  16  1   
 29  13  43  1   
 30  14  17  1   
 31  15  44  1   
 32  16  18  2   
 33  16  19  am  
 34  17  45  1   
 35  17  46  1   
 36  17  47  1   
 37  19  20  1   
 38  19  48  1   
 39  20  21  1   
 40  20  22  1   
 41  20  49  1   
 42  21  23  1   
 43  21  24  1   
 44  21  50  1   
 45  22  25  1   
 46  22  51  1   
 47  22  52  1   
 48  23  25  1   
 49  23  53  1   
 50  23  54  1   
 51  24  26  1   
 52  24  55  1   
 53  24  56  1   
 54  26  27  ar  
 55  26  28  ar  
 56  27  29  ar  
 57  27  57  1   
 58  28  30  ar  
 59  28  58  1   
 60  29  31  ar  
 61  29  59  1   
 62  30  31  ar  
 63  30  60  1   
@<TRIPOS>SUBSTRUCTURE
  1 ****  19 GROUP 4 **** **** 0

# MOE 2024.06 (io_trps.svl 2023.06)
