@<TRIPOS>MOLECULE
NONAME
55 57 1 0 0 
SMALL
USER_CHARGES


@<TRIPOS>ATOM
  1 O       -2.3400     0.7480    -3.2990 O.2   1 <1>  -0.5700 
  2 C       -2.3570     1.4640    -2.3150 C.2   1 <1>   0.5440 
  3 N       -3.2210     1.1090    -1.2880 N.am  1 <1>  -0.6600 
  4 C       -1.4710     2.6230    -2.2620 C.ar  1 <1>   0.3960 
  5 C       -3.6740    -0.3040    -1.1200 C.3   1 <1>   0.1400 
  6 C       -3.4700     1.9470    -0.0790 C.3   1 <1>   0.1400 
  7 N       -0.8040     2.9080    -1.1290 N.ar  1 <1>  -0.6200 
  8 C       -1.3430     3.4050    -3.4120 C.ar  1 <1>   0.1600 
  9 C       -2.9560    -0.9330     0.0910 C.3   1 <1>   0.3430 
 10 C       -2.7220     1.3390     1.1220 C.3   1 <1>   0.3430 
 11 C       -0.0470     3.9920    -1.2190 C.ar  1 <1>   0.4100 
 12 N       -0.6010     4.4960    -3.5180 N.ar  1 <1>  -0.6200 
 13 N       -3.1070    -0.1060     1.3490 N.4   1 <1>  -0.9590 
 14 N        0.6590     4.3390    -0.0740 N.pl3 1 <1>  -0.8380 
 15 C        0.0370     4.7560    -2.3960 C.ar  1 <1>   0.1600 
 16 C       -2.3180    -0.6990     2.4700 C.3   1 <1>   0.2630 
 17 C        0.7030     5.7530     0.4080 C.3   1 <1>   0.2090 
 18 C        1.2410     3.3080     0.8320 C.3   1 <1>   0.1290 
 19 C        2.0900     6.3610     0.1950 C.3   1 <1>   0.1200 
 20 O        2.0550     7.7060     0.6200 O.3   1 <1>  -0.3630 
 21 C        3.1580     8.4920     0.5540 C.ar  1 <1>   0.0820 
 22 C        3.0270     9.7910     1.0170 C.ar  1 <1>  -0.1500 
 23 C        4.3870     8.0680     0.0550 C.ar  1 <1>  -0.1500 
 24 C        4.1030    10.6600     0.9870 C.ar  1 <1>  -0.1500 
 25 C        5.4610     8.9400     0.0250 C.ar  1 <1>  -0.1500 
 26 C        5.3260    10.2390     0.4890 C.ar  1 <1>  -0.1430 
 27 C        6.5070    11.1920     0.4560 C.3   1 <1>  -0.0970 
 28 H       -3.4570    -0.8850    -2.0000 H     1 <1>   0.0800 
 29 H       -4.7400    -0.3250    -0.9750 H     1 <1>   0.0800 
 30 H       -4.5260     1.9750     0.1250 H     1 <1>   0.0800 
 31 H       -3.1520     2.9620    -0.2370 H     1 <1>   0.0800 
 32 H       -1.8920     3.1050    -4.2890 H     1 <1>   0.1500 
 33 H       -1.9110    -1.0250    -0.1560 H     1 <1>   0.0800 
 34 H       -3.3440    -1.9250     0.2530 H     1 <1>   0.0800 
 35 H       -2.9360     1.9210     2.0040 H     1 <1>   0.0800 
 36 H       -1.6630     1.4100     0.9270 H     1 <1>   0.0800 
 37 H       -4.1050    -0.1210     1.6060 H     1 <1>   0.4500 
 38 H        0.6760     5.6190    -2.3870 H     1 <1>   0.1500 
 39 H       -1.2670    -0.6980     2.2280 H     1 <1>   0.0800 
 40 H       -2.6280    -1.7150     2.6520 H     1 <1>   0.0800 
 41 H       -2.4640    -0.1300     3.3740 H     1 <1>   0.0800 
 42 H        0.4590     5.7800     1.4560 H     1 <1>   0.0800 
 43 H       -0.0260     6.3410    -0.1230 H     1 <1>   0.0800 
 44 H        1.2610     2.3490     0.3440 H     1 <1>   0.0800 
 45 H        0.6510     3.2360     1.7280 H     1 <1>   0.0800 
 46 H        2.2500     3.5740     1.0940 H     1 <1>   0.0800 
 47 H        2.3530     6.3440    -0.8470 H     1 <1>   0.0800 
 48 H        2.8250     5.8420     0.7830 H     1 <1>   0.0800 
 49 H        2.0780    10.1170     1.4030 H     1 <1>   0.1500 
 50 H        4.5290     7.0700    -0.3140 H     1 <1>   0.1500 
 51 H        3.9840    11.6650     1.3530 H     1 <1>   0.1500 
 52 H        6.4070     8.6040    -0.3610 H     1 <1>   0.1500 
 53 H        6.1700    12.2050     0.3280 H     1 <1>   0.0800 
 54 H        7.1650    10.9490    -0.3580 H     1 <1>   0.0800 
 55 H        7.0550    11.1230     1.3790 H     1 <1>   0.0800 
@<TRIPOS>BOND
  1   1   2  2   
  2   2   3  am  
  3   2   4  1   
  4   3   5  1   
  5   3   6  1   
  6   4   7  ar  
  7   4   8  ar  
  8   5   9  1   
  9   5  28  1   
 10   5  29  1   
 11   6  10  1   
 12   6  30  1   
 13   6  31  1   
 14   7  11  ar  
 15   8  12  ar  
 16   8  32  1   
 17   9  13  1   
 18   9  33  1   
 19   9  34  1   
 20  10  13  1   
 21  10  35  1   
 22  10  36  1   
 23  11  14  1   
 24  11  15  ar  
 25  12  15  ar  
 26  13  16  1   
 27  13  37  1   
 28  14  17  1   
 29  14  18  1   
 30  15  38  1   
 31  16  39  1   
 32  16  40  1   
 33  16  41  1   
 34  17  19  1   
 35  17  42  1   
 36  17  43  1   
 37  18  44  1   
 38  18  45  1   
 39  18  46  1   
 40  19  20  1   
 41  19  47  1   
 42  19  48  1   
 43  20  21  1   
 44  21  22  ar  
 45  21  23  ar  
 46  22  24  ar  
 47  22  49  1   
 48  23  25  ar  
 49  23  50  1   
 50  24  26  ar  
 51  24  51  1   
 52  25  26  ar  
 53  25  52  1   
 54  26  27  1   
 55  27  53  1   
 56  27  54  1   
 57  27  55  1   
@<TRIPOS>SUBSTRUCTURE
  1 ****  14 GROUP 4 **** **** 0

# MOE 2024.06 (io_trps.svl 2023.06)
