@<TRIPOS>MOLECULE
NONAME
48 50 1 0 0 
SMALL
USER_CHARGES


@<TRIPOS>ATOM
  1 CL       1.1660     2.0640     2.4230 Cl    1 <1>  -0.1770 
  2 C        0.6200     2.6080     0.8540 C.ar  1 <1>   0.1770 
  3 C        1.3860     2.4030    -0.2890 C.ar  1 <1>  -0.1440 
  4 C       -0.6110     3.2340     0.7980 C.ar  1 <1>  -0.1500 
  5 C        0.8660     2.8300    -1.5060 C.ar  1 <1>  -0.1500 
  6 C        2.7570     1.7270    -0.2280 C.3   1 <1>   0.3640 
  7 C       -1.1080     3.6630    -0.4200 C.ar  1 <1>  -0.1500 
  8 C       -0.3680     3.4570    -1.5710 C.ar  1 <1>  -0.1500 
  9 N        2.6780     0.4720    -1.0140 N.am  1 <1>  -0.7300 
 10 C        3.8840     2.6480    -0.7670 C.3   1 <1>   0.2610 
 11 C        3.6660     0.0360    -1.8260 C.2   1 <1>   0.5690 
 12 O        5.0630     1.9110    -1.0490 O.3   1 <1>  -0.5600 
 13 C        4.1780     3.8120     0.1840 C.2   1 <1>   0.5690 
 14 O        3.5640    -1.0160    -2.4040 O.2   1 <1>  -0.5700 
 15 C        4.9090     0.9090    -2.0330 C.3   1 <1>   0.1810 
 16 O        3.7790     3.7820     1.3260 O.2   1 <1>  -0.5700 
 17 N        4.8620     4.8800    -0.3080 N.am  1 <1>  -0.7300 
 18 C        4.8420     6.2560     0.2360 C.3   1 <1>   0.3000 
 19 C        5.5450     7.1600    -0.7780 C.3   1 <1>  -0.1600 
 20 C        5.7770     6.3350     1.4430 C.3   1 <1>  -0.1600 
 21 C        3.3950     6.7150     0.5310 C.3   1 <1>   0.1200 
 22 C        7.0490     6.9550    -0.5580 C.3   1 <1>  -0.1600 
 23 C        7.1960     6.4030     0.8660 C.3   1 <1>  -0.1600 
 24 O        2.5900     6.5760    -0.6110 O.3   1 <1>  -0.5600 
 25 C        1.2280     6.5690    -0.3370 C.3   1 <1>   0.0400 
 26 H       -1.1750     3.3790     1.7020 H     1 <1>   0.1500 
 27 H        1.4140     2.6740    -2.4190 H     1 <1>   0.1500 
 28 H        3.0040     1.4610     0.7840 H     1 <1>   0.0800 
 29 H       -2.0670     4.1510    -0.4730 H     1 <1>   0.1500 
 30 H       -0.7540     3.7840    -2.5220 H     1 <1>   0.1500 
 31 H        1.8650    -0.1260    -0.8590 H     1 <1>   0.3700 
 32 H        3.5600     3.0830    -1.6930 H     1 <1>   0.0800 
 33 H        4.8520     1.3850    -2.9940 H     1 <1>   0.0800 
 34 H        5.7860     0.2880    -2.0060 H     1 <1>   0.0800 
 35 H        5.2680     4.8240    -1.2390 H     1 <1>   0.3700 
 36 H        5.2360     6.9580    -1.7880 H     1 <1>   0.0800 
 37 H        5.3060     8.1850    -0.5540 H     1 <1>   0.0800 
 38 H        5.5800     7.2450     1.9820 H     1 <1>   0.0800 
 39 H        5.6480     5.5060     2.1160 H     1 <1>   0.0800 
 40 H        3.3810     7.7490     0.8260 H     1 <1>   0.0800 
 41 H        2.9850     6.1250     1.3320 H     1 <1>   0.0800 
 42 H        7.4320     6.2370    -1.2630 H     1 <1>   0.0800 
 43 H        7.5850     7.8810    -0.6780 H     1 <1>   0.0800 
 44 H        7.8330     7.0240     1.4720 H     1 <1>   0.0800 
 45 H        7.6140     5.4110     0.8250 H     1 <1>   0.0800 
 46 H        0.6980     6.4770    -1.2680 H     1 <1>   0.0800 
 47 H        0.9570     7.4910     0.1480 H     1 <1>   0.0800 
 48 H        0.9990     5.7270     0.2930 H     1 <1>   0.0800 
@<TRIPOS>BOND
  1   1   2  1   
  2   2   3  ar  
  3   2   4  ar  
  4   3   5  ar  
  5   3   6  1   
  6   4   7  ar  
  7   4  26  1   
  8   5   8  ar  
  9   5  27  1   
 10   6   9  1   
 11   6  10  1   
 12   6  28  1   
 13   7   8  ar  
 14   7  29  1   
 15   8  30  1   
 16   9  11  am  
 17   9  31  1   
 18  10  12  1   
 19  10  13  1   
 20  10  32  1   
 21  11  14  2   
 22  11  15  1   
 23  12  15  1   
 24  13  16  2   
 25  13  17  am  
 26  15  33  1   
 27  15  34  1   
 28  17  18  1   
 29  17  35  1   
 30  18  19  1   
 31  18  20  1   
 32  18  21  1   
 33  19  22  1   
 34  19  36  1   
 35  19  37  1   
 36  20  23  1   
 37  20  38  1   
 38  20  39  1   
 39  21  24  1   
 40  21  40  1   
 41  21  41  1   
 42  22  23  1   
 43  22  42  1   
 44  22  43  1   
 45  23  44  1   
 46  23  45  1   
 47  24  25  1   
 48  25  46  1   
 49  25  47  1   
 50  25  48  1   
@<TRIPOS>SUBSTRUCTURE
  1 ****  13 GROUP 4 **** **** 0

# MOE 2024.06 (io_trps.svl 2023.06)
