@<TRIPOS>MOLECULE
NONAME
58 61 1 0 0 
SMALL
USER_CHARGES


@<TRIPOS>ATOM
  1 S       -0.3790    -0.0120    -0.5880 S.3   1 <1>  -0.3320 
  2 C        1.0840     0.9530    -0.2370 C.ar  1 <1>   0.4120 
  3 C       -1.6460     0.6910     0.5560 C.3   1 <1>   0.2140 
  4 N        0.9610     1.8950     0.6850 N.ar  1 <1>  -0.6200 
  5 C        2.2350     0.6540    -0.9450 C.ar  1 <1>  -0.1500 
  6 C       -2.9540    -0.0520     0.3420 C.ar  1 <1>  -0.1440 
  7 C        2.0690     2.5840     0.9100 C.ar  1 <1>   0.1600 
  8 C        3.3770     1.3840    -0.6930 C.ar  1 <1>  -0.1500 
  9 C       -3.7350     0.2130    -0.7710 C.ar  1 <1>  -0.1500 
 10 C       -3.3810    -1.0040     1.2540 C.ar  1 <1>  -0.1500 
 11 C        3.2780     2.3740     0.2640 C.ar  1 <1>  -0.1500 
 12 C       -4.9290    -0.4580    -0.9620 C.ar  1 <1>  -0.1500 
 13 C       -4.5770    -1.6700     1.0580 C.ar  1 <1>  -0.1500 
 14 C       -5.3840    -1.4060    -0.0460 C.ar  1 <1>   0.0860 
 15 C       -6.6450    -2.1020    -0.2300 C.2   1 <1>   0.5440 
 16 O       -6.6800    -3.3140    -0.1200 O.2   1 <1>  -0.5700 
 17 N       -7.8180    -1.4320    -0.5110 N.am  1 <1>  -0.6600 
 18 C       -8.0010     0.0290    -0.2630 C.3   1 <1>   0.1400 
 19 C       -9.0250    -2.1990    -0.9400 C.3   1 <1>   0.1400 
 20 C       -9.3770     0.2610     0.3610 C.3   1 <1>  -0.1600 
 21 C      -10.0590    -1.2620    -1.5670 C.3   1 <1>  -0.1600 
 22 C      -10.5290    -0.1590    -0.5900 C.3   1 <1>   0.2800 
 23 O      -10.8030     0.9300    -1.4240 O.3   1 <1>  -0.5600 
 24 C      -11.7990    -0.6290     0.1850 C.3   1 <1>  -0.1600 
 25 C      -11.5210     2.0590    -0.9780 C.3   1 <1>   0.1200 
 26 C      -13.0110     0.3130     0.1060 C.3   1 <1>   0.2800 
 27 C      -12.5290     1.7780     0.1510 C.3   1 <1>   0.2000 
 28 O      -13.6580     0.0930    -1.0960 O.3   1 <1>  -0.6800 
 29 C      -14.0450    -0.0100     1.1890 C.3   1 <1>  -0.2400 
 30 O      -11.9180     2.0550     1.3780 O.3   1 <1>  -0.6800 
 31 H       -1.2730     0.5710     1.5570 H     1 <1>   0.0800 
 32 H       -1.7420     1.7370     0.3240 H     1 <1>   0.0800 
 33 H        2.2250    -0.1350    -1.6740 H     1 <1>   0.1500 
 34 H        2.0130     3.3610     1.6540 H     1 <1>   0.1500 
 35 H        4.2980     1.1920    -1.2170 H     1 <1>   0.1500 
 36 H       -3.4070     0.9390    -1.4960 H     1 <1>   0.1500 
 37 H       -2.7800    -1.2340     2.1170 H     1 <1>   0.1500 
 38 H        4.1310     2.9810     0.5090 H     1 <1>   0.1500 
 39 H       -5.5210    -0.2520    -1.8370 H     1 <1>   0.1500 
 40 H       -4.8980    -2.4150     1.7660 H     1 <1>   0.1500 
 41 H       -7.2410     0.3910     0.4070 H     1 <1>   0.0800 
 42 H       -7.9240     0.5650    -1.1940 H     1 <1>   0.0800 
 43 H       -8.7310    -2.9480    -1.6560 H     1 <1>   0.0800 
 44 H       -9.4450    -2.7000    -0.0840 H     1 <1>   0.0800 
 45 H       -9.4610     1.2950     0.6340 H     1 <1>   0.0800 
 46 H       -9.4030    -0.3160     1.2670 H     1 <1>   0.0800 
 47 H      -10.8920    -1.8350    -1.9290 H     1 <1>   0.0800 
 48 H       -9.5990    -0.8130    -2.4300 H     1 <1>   0.0800 
 49 H      -12.1000    -1.6130    -0.1220 H     1 <1>   0.0800 
 50 H      -11.5390    -0.7390     1.2210 H     1 <1>   0.0800 
 51 H      -10.8210     2.8210    -0.6860 H     1 <1>   0.0800 
 52 H      -12.0640     2.4160    -1.8350 H     1 <1>   0.0800 
 53 H      -13.3690     2.4460     0.0690 H     1 <1>   0.0800 
 54 H      -13.9410    -0.8360    -1.1560 H     1 <1>   0.4000 
 55 H      -13.6240     0.1460     2.1660 H     1 <1>   0.0800 
 56 H      -14.3670    -1.0330     1.1220 H     1 <1>   0.0800 
 57 H      -14.8970     0.6390     1.0910 H     1 <1>   0.0800 
 58 H      -11.1240     1.4980     1.4750 H     1 <1>   0.4000 
@<TRIPOS>BOND
  1   1   2  1   
  2   1   3  1   
  3   2   4  ar  
  4   2   5  ar  
  5   3   6  1   
  6   3  31  1   
  7   3  32  1   
  8   4   7  ar  
  9   5   8  ar  
 10   5  33  1   
 11   6   9  ar  
 12   6  10  ar  
 13   7  11  ar  
 14   7  34  1   
 15   8  11  ar  
 16   8  35  1   
 17   9  12  ar  
 18   9  36  1   
 19  10  13  ar  
 20  10  37  1   
 21  11  38  1   
 22  12  14  ar  
 23  12  39  1   
 24  13  14  ar  
 25  13  40  1   
 26  14  15  1   
 27  15  16  2   
 28  15  17  am  
 29  17  18  1   
 30  17  19  1   
 31  18  20  1   
 32  18  41  1   
 33  18  42  1   
 34  19  21  1   
 35  19  43  1   
 36  19  44  1   
 37  20  22  1   
 38  20  45  1   
 39  20  46  1   
 40  21  22  1   
 41  21  47  1   
 42  21  48  1   
 43  22  23  1   
 44  22  24  1   
 45  23  25  1   
 46  24  26  1   
 47  24  49  1   
 48  24  50  1   
 49  25  27  1   
 50  25  51  1   
 51  25  52  1   
 52  26  27  1   
 53  26  28  1   
 54  26  29  1   
 55  27  30  1   
 56  27  53  1   
 57  28  54  1   
 58  29  55  1   
 59  29  56  1   
 60  29  57  1   
 61  30  58  1   
@<TRIPOS>SUBSTRUCTURE
  1 ****  12 GROUP 4 **** **** 0

# MOE 2024.06 (io_trps.svl 2023.06)
