@<TRIPOS>MOLECULE
NONAME
45 46 1 0 0 
SMALL
USER_CHARGES


@<TRIPOS>ATOM
  1 S        0.4650    -0.0060     0.6160 S.o2  1 <1>   1.3330 
  2 O        1.9080     0.0410     0.6630 O.2   1 <1>  -0.6500 
  3 O       -0.2940     0.0650     1.8440 O.2   1 <1>  -0.6500 
  4 N        0.0120    -1.4130    -0.2180 N.am  1 <1>  -0.8490 
  5 C       -0.1250     1.3040    -0.4550 C.3   1 <1>  -0.0550 
  6 C       -0.2430    -2.5370     0.6880 C.3   1 <1>   0.1160 
  7 C        0.9730    -1.8130    -1.2510 C.3   1 <1>   0.1160 
  8 C        0.0600     2.7050     0.1530 C.3   1 <1>  -0.0800 
  9 C       -0.5610     3.8010    -0.7050 C.3   1 <1>   0.2000 
 10 C        1.5190     3.1420     0.3030 C.3   1 <1>   0.1400 
 11 O       -1.9230     3.8780    -0.4700 O.3   1 <1>  -0.6800 
 12 C        0.1620     5.0820    -0.2960 C.3   1 <1>   0.1400 
 13 N        1.4950     4.6230     0.1780 N.am  1 <1>  -0.6600 
 14 C        2.6510     5.3650     0.0940 C.2   1 <1>   0.5440 
 15 O        3.7140     4.7830     0.0160 O.2   1 <1>  -0.5700 
 16 C        2.6300     6.8060     0.0800 C.ar  1 <1>   0.0860 
 17 C        1.8130     7.5520     0.9070 C.ar  1 <1>   0.1600 
 18 C        3.4380     7.5410    -0.7650 C.ar  1 <1>   0.1600 
 19 N        1.7620     8.8660     0.8810 N.ar  1 <1>  -0.6200 
 20 N        3.4170     8.8570    -0.8180 N.ar  1 <1>  -0.6200 
 21 C        2.5750     9.4510     0.0130 C.ar  1 <1>   0.4770 
 22 C        2.5390    10.9700    -0.0290 C.3   1 <1>  -0.0170 
 23 C        3.5410    11.6000     0.9500 C.3   1 <1>  -0.2400 
 24 H        0.3790     1.2520    -1.4000 H     1 <1>   0.0800 
 25 H       -1.1720     1.1480    -0.6340 H     1 <1>   0.0800 
 26 H       -0.5440    -3.4060     0.1300 H     1 <1>   0.0800 
 27 H       -1.0370    -2.2860     1.3720 H     1 <1>   0.0800 
 28 H        0.6430    -2.7670     1.2570 H     1 <1>   0.0800 
 29 H        0.5940    -2.6560    -1.8030 H     1 <1>   0.0800 
 30 H        1.9170    -2.0830    -0.8030 H     1 <1>   0.0800 
 31 H        1.1380    -1.0030    -1.9400 H     1 <1>   0.0800 
 32 H       -0.3830     2.7290     1.1340 H     1 <1>   0.0800 
 33 H       -0.4070     3.6160    -1.7550 H     1 <1>   0.0800 
 34 H        2.1320     2.7320    -0.4830 H     1 <1>   0.0800 
 35 H        1.9280     2.8480     1.2560 H     1 <1>   0.0800 
 36 H       -2.1090     3.9470     0.4870 H     1 <1>   0.4000 
 37 H       -0.3570     5.5660     0.5130 H     1 <1>   0.0800 
 38 H        0.2590     5.7510    -1.1350 H     1 <1>   0.0800 
 39 H        1.1810     7.0420     1.6140 H     1 <1>   0.1500 
 40 H        4.1190     7.0200    -1.4170 H     1 <1>   0.1500 
 41 H        2.7630    11.2960    -1.0290 H     1 <1>   0.0800 
 42 H        1.5460    11.3030     0.2100 H     1 <1>   0.0800 
 43 H        4.5400    11.2840     0.7080 H     1 <1>   0.0800 
 44 H        3.3150    11.2930     1.9560 H     1 <1>   0.0800 
 45 H        3.4910    12.6720     0.8940 H     1 <1>   0.0800 
@<TRIPOS>BOND
  1   1   2  2   
  2   1   3  2   
  3   1   4  am  
  4   1   5  1   
  5   4   6  1   
  6   4   7  1   
  7   5   8  1   
  8   5  24  1   
  9   5  25  1   
 10   6  26  1   
 11   6  27  1   
 12   6  28  1   
 13   7  29  1   
 14   7  30  1   
 15   7  31  1   
 16   8   9  1   
 17   8  10  1   
 18   8  32  1   
 19   9  11  1   
 20   9  12  1   
 21   9  33  1   
 22  10  13  1   
 23  10  34  1   
 24  10  35  1   
 25  11  36  1   
 26  12  13  1   
 27  12  37  1   
 28  12  38  1   
 29  13  14  am  
 30  14  15  2   
 31  14  16  1   
 32  16  17  ar  
 33  16  18  ar  
 34  17  19  ar  
 35  17  39  1   
 36  18  20  ar  
 37  18  40  1   
 38  19  21  ar  
 39  20  21  ar  
 40  21  22  1   
 41  22  23  1   
 42  22  41  1   
 43  22  42  1   
 44  23  43  1   
 45  23  44  1   
 46  23  45  1   
@<TRIPOS>SUBSTRUCTURE
  1 ****  13 GROUP 4 **** **** 0

# MOE 2024.06 (io_trps.svl 2023.06)
