@<TRIPOS>MOLECULE
NONAME
47 49 1 0 0 
SMALL
USER_CHARGES


@<TRIPOS>ATOM
  1 S       -0.7210     0.3260     1.1890 S.o2  1 <1>   1.5000 
  2 O       -1.2650     1.3200     2.0850 O.2   1 <1>  -0.6500 
  3 O       -0.5050    -1.0210     1.6800 O.2   1 <1>  -0.6500 
  4 N       -1.8040     0.1620    -0.1190 N.am  1 <1>  -0.8490 
  5 C        0.7690     0.9700     0.3950 C.2   1 <1>  -0.0220 
  6 C       -1.7550    -1.1440    -0.7940 C.3   1 <1>   0.1960 
  7 C       -3.1800     0.6150     0.1360 C.3   1 <1>   0.1960 
  8 S        1.8830    -0.1840    -0.3370 S.3   1 <1>  -0.0800 
  9 C        1.2310     2.2220     0.1950 C.2   1 <1>  -0.1500 
 10 C       -2.5370    -2.2480    -0.0210 C.3   1 <1>   0.4230 
 11 C       -3.9530    -0.4290     0.9560 C.3   1 <1>  -0.1600 
 12 C        2.9510     1.0960    -0.8790 C.2   1 <1>  -0.1100 
 13 C        2.4680     2.2980    -0.5220 C.2   1 <1>  -0.1810 
 14 N       -2.4020    -3.6460    -0.6110 N.4   1 <1>  -0.9590 
 15 C       -4.0030    -1.8250     0.2740 C.3   1 <1>   0.0000 
 16 C        3.1150     3.6380    -0.8130 C.3   1 <1>  -0.0590 
 17 C       -3.4420    -4.6130    -0.1290 C.3   1 <1>   0.3430 
 18 C       -2.2870    -3.7170    -2.1050 C.3   1 <1>   0.2630 
 19 C       -4.6410    -2.8450     1.2620 C.3   1 <1>  -0.1600 
 20 C       -4.8230    -1.7620    -1.0470 C.3   1 <1>   0.1200 
 21 C       -3.9530    -4.2250     1.2580 C.3   1 <1>  -0.1600 
 22 O       -6.0560    -1.1640    -0.8550 O.3   1 <1>  -0.6800 
 23 H       -2.1670    -1.0200    -1.7790 H     1 <1>   0.0800 
 24 H       -0.7270    -1.4440    -0.9030 H     1 <1>   0.0800 
 25 H       -3.1770     1.5630     0.6490 H     1 <1>   0.0800 
 26 H       -3.6800     0.7780    -0.8050 H     1 <1>   0.0800 
 27 H        0.7350     3.1150     0.5350 H     1 <1>   0.1500 
 28 H       -2.0780    -2.3050     0.9490 H     1 <1>   0.0800 
 29 H       -3.4870    -0.5020     1.9240 H     1 <1>   0.0800 
 30 H       -4.9470    -0.0570     1.1290 H     1 <1>   0.0800 
 31 H        3.8400     0.8080    -1.4140 H     1 <1>   0.1500 
 32 H       -1.5080    -3.9900    -0.2260 H     1 <1>   0.4500 
 33 H        3.3320     4.1500     0.1080 H     1 <1>   0.0800 
 34 H        2.4530     4.2470    -1.4030 H     1 <1>   0.0800 
 35 H        4.0330     3.5020    -1.3560 H     1 <1>   0.0800 
 36 H       -4.2780    -4.6210    -0.8100 H     1 <1>   0.0800 
 37 H       -3.0300    -5.6100    -0.1000 H     1 <1>   0.0800 
 38 H       -3.1790    -3.3320    -2.5720 H     1 <1>   0.0800 
 39 H       -2.1500    -4.7390    -2.4200 H     1 <1>   0.0800 
 40 H       -1.4410    -3.1440    -2.4490 H     1 <1>   0.0800 
 41 H       -4.5990    -2.4710     2.2720 H     1 <1>   0.0800 
 42 H       -5.6860    -2.9730     1.0370 H     1 <1>   0.0800 
 43 H       -5.0020    -2.7430    -1.4490 H     1 <1>   0.0800 
 44 H       -4.3190    -1.1770    -1.7950 H     1 <1>   0.0800 
 45 H       -4.6530    -4.9680     1.6000 H     1 <1>   0.0800 
 46 H       -3.1290    -4.2290     1.9510 H     1 <1>   0.0800 
 47 H       -6.6190    -1.6630    -0.2310 H     1 <1>   0.4000 
@<TRIPOS>BOND
  1   1   2  2   
  2   1   3  2   
  3   1   4  am  
  4   1   5  1   
  5   4   6  1   
  6   4   7  1   
  7   5   8  1   
  8   5   9  2   
  9   6  10  1   
 10   6  23  1   
 11   6  24  1   
 12   7  11  1   
 13   7  25  1   
 14   7  26  1   
 15   8  12  1   
 16   9  13  1   
 17   9  27  1   
 18  10  14  1   
 19  10  15  1   
 20  10  28  1   
 21  11  15  1   
 22  11  29  1   
 23  11  30  1   
 24  12  13  2   
 25  12  31  1   
 26  13  16  1   
 27  14  17  1   
 28  14  18  1   
 29  14  32  1   
 30  15  19  1   
 31  15  20  1   
 32  16  33  1   
 33  16  34  1   
 34  16  35  1   
 35  17  21  1   
 36  17  36  1   
 37  17  37  1   
 38  18  38  1   
 39  18  39  1   
 40  18  40  1   
 41  19  21  1   
 42  19  41  1   
 43  19  42  1   
 44  20  22  1   
 45  20  43  1   
 46  20  44  1   
 47  21  45  1   
 48  21  46  1   
 49  22  47  1   
@<TRIPOS>SUBSTRUCTURE
  1 ****   4 GROUP 4 **** **** 0

# MOE 2024.06 (io_trps.svl 2023.06)
