@<TRIPOS>MOLECULE
NONAME
46 48 1 0 0 
SMALL
USER_CHARGES


@<TRIPOS>ATOM
  1 CL       0.4520     1.9800    -2.4710 Cl    1 <1>  -0.1770 
  2 C        1.6950     1.9660    -1.2470 C.ar  1 <1>   0.1770 
  3 C        2.2460     0.7650    -0.8330 C.ar  1 <1>   0.1600 
  4 C        2.1240     3.1530    -0.7010 C.ar  1 <1>  -0.1500 
  5 N        3.1930     0.6660     0.0920 N.ar  1 <1>  -0.6200 
  6 C        3.1210     3.0830     0.2620 C.ar  1 <1>   0.0860 
  7 C        3.5910     1.8180     0.6150 C.ar  1 <1>   0.1600 
  8 C        3.6560     4.2700     0.8870 C.2   1 <1>   0.5440 
  9 O        2.9050     4.9920     1.5120 O.2   1 <1>  -0.5700 
 10 N        4.9860     4.6170     0.7810 N.am  1 <1>  -0.6600 
 11 C        5.9460     4.0240    -0.2100 C.3   1 <1>   0.1400 
 12 C        5.5500     5.7390     1.5820 C.3   1 <1>   0.1400 
 13 C        6.1430     4.9190    -1.4450 C.3   1 <1>   0.1400 
 14 C        5.2650     7.1020     0.9340 C.3   1 <1>  -0.1600 
 15 N        6.5350     6.3140    -1.0700 N.am  1 <1>  -0.6600 
 16 C        5.3860     7.1370    -0.5950 C.3   1 <1>   0.1400 
 17 C        7.8600     6.6790    -1.0550 C.2   1 <1>   0.5690 
 18 O        8.7220     5.8890    -1.3640 O.2   1 <1>  -0.5700 
 19 C        8.3170     8.0760    -0.6300 C.3   1 <1>  -0.0190 
 20 C        9.2560     8.6660    -1.6940 C.3   1 <1>   0.1400 
 21 C        9.0200     8.0460     0.7410 C.3   1 <1>  -0.1600 
 22 N        9.8670     9.9310    -1.2160 N.am  1 <1>  -0.7300 
 23 C        9.3970     9.4720     1.1850 C.3   1 <1>  -0.0990 
 24 C       10.0180    10.3040     0.0750 C.2   1 <1>   0.5690 
 25 O       10.6300    11.3010     0.3560 O.2   1 <1>  -0.5700 
 26 H        1.8890    -0.1470    -1.2800 H     1 <1>   0.1500 
 27 H        1.7040     4.0950    -1.0030 H     1 <1>   0.1500 
 28 H        4.3490     1.7650     1.3800 H     1 <1>   0.1500 
 29 H        5.6050     3.0600    -0.5410 H     1 <1>   0.0800 
 30 H        6.9010     3.8750     0.2640 H     1 <1>   0.0800 
 31 H        6.6140     5.6050     1.6790 H     1 <1>   0.0800 
 32 H        5.1290     5.7190     2.5740 H     1 <1>   0.0800 
 33 H        5.2340     4.9400    -2.0200 H     1 <1>   0.0800 
 34 H        6.9000     4.4800    -2.0720 H     1 <1>   0.0800 
 35 H        5.9240     7.8330     1.3640 H     1 <1>   0.0800 
 36 H        4.2650     7.4010     1.1980 H     1 <1>   0.0800 
 37 H        5.4700     8.1500    -0.9440 H     1 <1>   0.0800 
 38 H        4.4760     6.7420    -1.0140 H     1 <1>   0.0800 
 39 H        7.4720     8.7300    -0.5640 H     1 <1>   0.0800 
 40 H        8.7060     8.8510    -2.6010 H     1 <1>   0.0800 
 41 H       10.0470     7.9680    -1.9160 H     1 <1>   0.0800 
 42 H        9.9150     7.4510     0.6620 H     1 <1>   0.0800 
 43 H        8.3860     7.5900     1.4800 H     1 <1>   0.0800 
 44 H       10.3450    10.5120    -1.9090 H     1 <1>   0.3700 
 45 H       10.0850     9.4260     2.0090 H     1 <1>   0.0800 
 46 H        8.5160     9.9890     1.5200 H     1 <1>   0.0800 
@<TRIPOS>BOND
  1   1   2  1   
  2   2   3  ar  
  3   2   4  ar  
  4   3   5  ar  
  5   3  26  1   
  6   4   6  ar  
  7   4  27  1   
  8   5   7  ar  
  9   6   7  ar  
 10   6   8  1   
 11   7  28  1   
 12   8   9  2   
 13   8  10  am  
 14  10  11  1   
 15  10  12  1   
 16  11  13  1   
 17  11  29  1   
 18  11  30  1   
 19  12  14  1   
 20  12  31  1   
 21  12  32  1   
 22  13  15  1   
 23  13  33  1   
 24  13  34  1   
 25  14  16  1   
 26  14  35  1   
 27  14  36  1   
 28  15  16  1   
 29  15  17  am  
 30  16  37  1   
 31  16  38  1   
 32  17  18  2   
 33  17  19  1   
 34  19  20  1   
 35  19  21  1   
 36  19  39  1   
 37  20  22  1   
 38  20  40  1   
 39  20  41  1   
 40  21  23  1   
 41  21  42  1   
 42  21  43  1   
 43  22  24  am  
 44  22  44  1   
 45  23  24  1   
 46  23  45  1   
 47  23  46  1   
 48  24  25  2   
@<TRIPOS>SUBSTRUCTURE
  1 ****  15 GROUP 4 **** **** 0

# MOE 2024.06 (io_trps.svl 2023.06)
