@<TRIPOS>MOLECULE
NONAME
53 56 1 0 0 
SMALL
USER_CHARGES


@<TRIPOS>ATOM
  1 O       -0.5330    -2.9140    -1.5740 O.2   1 <1>  -0.5700 
  2 C        0.4930    -3.5590    -1.4130 C.2   1 <1>   0.7670 
  3 N        1.1390    -3.9930    -2.5370 N.2   1 <1>  -0.6610 
  4 C        0.9930    -3.8610    -0.1050 C.2   1 <1>  -0.1240 
  5 C        2.2200    -4.6560    -2.3820 C.2   1 <1>   0.4390 
  6 C        2.1520    -4.5640    -0.0010 C.2   1 <1>  -0.0380 
  7 C        0.1850    -3.3960     1.1110 C.3   1 <1>   0.0390 
  8 N        2.7520    -4.9520    -1.1660 N.pl3 1 <1>  -0.5500 
  9 C        2.9740    -5.1540    -3.5900 C.3   1 <1>  -0.1790 
 10 C        2.8630    -4.9920     1.2730 C.3   1 <1>  -0.1020 
 11 C       -0.5200    -4.5630     1.7850 C.2   1 <1>   0.5690 
 12 O       -0.0440    -4.9930     2.8100 O.2   1 <1>  -0.5700 
 13 N       -1.6490    -5.1210     1.2510 N.am  1 <1>  -0.6600 
 14 C       -2.4320    -4.6460     0.0800 C.3   1 <1>   0.1400 
 15 C       -2.2120    -6.3970     1.7580 C.3   1 <1>   0.1400 
 16 C       -3.7060    -5.4920     0.1040 C.3   1 <1>   0.2000 
 17 C       -3.2620    -6.8220     0.7200 C.3   1 <1>  -0.0800 
 18 O       -4.6110    -4.8990     0.9710 O.3   1 <1>  -0.6800 
 19 C       -2.6480    -7.7430    -0.3580 C.3   1 <1>  -0.0160 
 20 C       -2.1370    -9.1080     0.1210 C.ar  1 <1>  -0.1440 
 21 C       -1.2730    -9.8720    -0.7030 C.ar  1 <1>   0.0000 
 22 C       -2.4790    -9.6500     1.3290 C.ar  1 <1>  -0.1500 
 23 C       -0.8010   -11.1110    -0.2030 C.ar  1 <1>   0.3100 
 24 C       -0.8520    -9.4860    -1.9990 C.ar  1 <1>  -0.1500 
 25 C       -1.9630   -10.8900     1.7240 C.ar  1 <1>   0.1600 
 26 N       -1.1540   -11.6030     1.0100 N.ar  1 <1>  -0.6200 
 27 C        0.0710   -11.8790    -0.9910 C.ar  1 <1>  -0.1500 
 28 C       -0.0050   -10.2610    -2.7440 C.ar  1 <1>  -0.1500 
 29 C        0.4670   -11.4720    -2.2350 C.ar  1 <1>  -0.1500 
 30 H       -0.5400    -2.6480     0.8530 H     1 <1>   0.0800 
 31 H        0.8460    -2.9370     1.8230 H     1 <1>   0.0800 
 32 H        3.6200    -5.4920    -1.1370 H     1 <1>   0.4000 
 33 H        3.9620    -4.7320    -3.6050 H     1 <1>   0.0800 
 34 H        2.4630    -4.8610    -4.4890 H     1 <1>   0.0800 
 35 H        3.0400    -6.2250    -3.5640 H     1 <1>   0.0800 
 36 H        3.8980    -4.7030     1.2320 H     1 <1>   0.0800 
 37 H        2.8040    -6.0600     1.3810 H     1 <1>   0.0800 
 38 H        2.4340    -4.5450     2.1490 H     1 <1>   0.0800 
 39 H       -2.6470    -3.5920     0.1290 H     1 <1>   0.0800 
 40 H       -1.8860    -4.8610    -0.8210 H     1 <1>   0.0800 
 41 H       -1.4320    -7.1300     1.8820 H     1 <1>   0.0800 
 42 H       -2.6770    -6.2180     2.7130 H     1 <1>   0.0800 
 43 H       -4.1730    -5.5870    -0.8610 H     1 <1>   0.0800 
 44 H       -4.1000    -7.3190     1.1760 H     1 <1>   0.0800 
 45 H       -4.1420    -4.6460     1.7910 H     1 <1>   0.4000 
 46 H       -1.8230    -7.2170    -0.8040 H     1 <1>   0.0800 
 47 H       -3.3800    -7.9150    -1.1280 H     1 <1>   0.0800 
 48 H       -3.1410    -9.1620     2.0180 H     1 <1>   0.1500 
 49 H       -1.2040    -8.5650    -2.4220 H     1 <1>   0.1500 
 50 H       -2.2580   -11.2730     2.6860 H     1 <1>   0.1500 
 51 H        0.4170   -12.8090    -0.5790 H     1 <1>   0.1500 
 52 H        0.3060    -9.9510    -3.7270 H     1 <1>   0.1500 
 53 H        1.1350   -12.0740    -2.8280 H     1 <1>   0.1500 
@<TRIPOS>BOND
  1   1   2  2   
  2   2   3  1   
  3   2   4  1   
  4   3   5  2   
  5   4   6  2   
  6   4   7  1   
  7   5   8  1   
  8   5   9  1   
  9   6   8  1   
 10   6  10  1   
 11   7  11  1   
 12   7  30  1   
 13   7  31  1   
 14   8  32  1   
 15   9  33  1   
 16   9  34  1   
 17   9  35  1   
 18  10  36  1   
 19  10  37  1   
 20  10  38  1   
 21  11  12  2   
 22  11  13  am  
 23  13  14  1   
 24  13  15  1   
 25  14  16  1   
 26  14  39  1   
 27  14  40  1   
 28  15  17  1   
 29  15  41  1   
 30  15  42  1   
 31  16  17  1   
 32  16  18  1   
 33  16  43  1   
 34  17  19  1   
 35  17  44  1   
 36  18  45  1   
 37  19  20  1   
 38  19  46  1   
 39  19  47  1   
 40  20  21  ar  
 41  20  22  ar  
 42  21  23  ar  
 43  21  24  ar  
 44  22  25  ar  
 45  22  48  1   
 46  23  26  ar  
 47  23  27  ar  
 48  24  28  ar  
 49  24  49  1   
 50  25  26  ar  
 51  25  50  1   
 52  27  29  ar  
 53  27  51  1   
 54  28  29  ar  
 55  28  52  1   
 56  29  53  1   
@<TRIPOS>SUBSTRUCTURE
  1 ****  19 GROUP 4 **** **** 0

# MOE 2024.06 (io_trps.svl 2023.06)
