@<TRIPOS>MOLECULE
NONAME
45 46 1 0 0 
SMALL
USER_CHARGES


@<TRIPOS>ATOM
  1 S        3.6230     1.1970    -2.8420 S.3   1 <1>  -0.0800 
  2 C        3.2530     1.7900    -1.2430 C.2   1 <1>  -0.1400 
  3 C        3.6820    -0.4270    -2.2130 C.2   1 <1>   0.2280 
  4 C        3.2040     0.7310    -0.4060 C.2   1 <1>   0.0460 
  5 C        3.0820     3.3050    -1.1930 C.3   1 <1>   0.0200 
  6 N        3.4510    -0.5110    -0.9660 N.2   1 <1>  -0.5650 
  7 C        2.9160     0.6680     1.0820 C.3   1 <1>  -0.0590 
  8 C        2.8980     3.8890     0.2110 C.3   1 <1>   0.1100 
  9 N        2.9240     5.3640     0.1930 N.3   1 <1>  -0.8100 
 10 C        3.1710     5.8990     1.5720 C.3   1 <1>   0.1710 
 11 C        1.6690     5.9220    -0.3490 C.3   1 <1>   0.0300 
 12 C        3.6370     7.3560     1.6020 C.2   1 <1>   0.5690 
 13 O        3.4810     8.0010     2.6110 O.2   1 <1>  -0.5700 
 14 N        4.2060     7.8240     0.4530 N.am  1 <1>  -0.5470 
 15 C        4.7360     9.0590     0.0490 C.ar  1 <1>   0.1170 
 16 C        5.0770     9.2480    -1.2920 C.ar  1 <1>  -0.1440 
 17 C        4.9400    10.1060     0.9420 C.ar  1 <1>  -0.1500 
 18 C        5.6030    10.4610    -1.7080 C.ar  1 <1>  -0.1500 
 19 C        4.8810     8.1380    -2.3190 C.3   1 <1>  -0.0970 
 20 C        5.4640    11.3120     0.5180 C.ar  1 <1>  -0.1500 
 21 C        5.7980    11.4980    -0.8110 C.ar  1 <1>  -0.1440 
 22 C        6.3750    12.8200    -1.2820 C.3   1 <1>  -0.0970 
 23 H        3.9030    -1.2180    -2.9070 H     1 <1>   0.1500 
 24 H        2.2350     3.5600    -1.8030 H     1 <1>   0.0800 
 25 H        3.9570     3.7540    -1.6280 H     1 <1>   0.0800 
 26 H        2.6630     1.6190     1.4990 H     1 <1>   0.0800 
 27 H        3.7810     0.2860     1.5940 H     1 <1>   0.0800 
 28 H        2.0960    -0.0050     1.2540 H     1 <1>   0.0800 
 29 H        3.7140     3.5320     0.8160 H     1 <1>   0.0800 
 30 H        1.9730     3.5420     0.6380 H     1 <1>   0.0800 
 31 H        3.9450     5.3240     2.0470 H     1 <1>   0.0800 
 32 H        2.2810     5.8060     2.1690 H     1 <1>   0.0800 
 33 H        1.5400     5.6300    -1.3760 H     1 <1>   0.0800 
 34 H        1.6890     6.9980    -0.3150 H     1 <1>   0.0800 
 35 H        0.8230     5.5770     0.2220 H     1 <1>   0.0800 
 36 H        4.1630     7.1120    -0.2810 H     1 <1>   0.3700 
 37 H        4.6910     9.9860     1.9790 H     1 <1>   0.1500 
 38 H        5.8660    10.6060    -2.7400 H     1 <1>   0.1500 
 39 H        5.4780     7.2830    -2.0560 H     1 <1>   0.0800 
 40 H        5.1750     8.4650    -3.3000 H     1 <1>   0.0800 
 41 H        3.8460     7.8490    -2.3570 H     1 <1>   0.0800 
 42 H        5.6110    12.1040     1.2310 H     1 <1>   0.1500 
 43 H        6.0420    13.0390    -2.2810 H     1 <1>   0.0800 
 44 H        7.4490    12.7700    -1.2760 H     1 <1>   0.0800 
 45 H        6.0610    13.6210    -0.6370 H     1 <1>   0.0800 
@<TRIPOS>BOND
  1   1   2  1   
  2   1   3  1   
  3   2   4  2   
  4   2   5  1   
  5   3   6  2   
  6   3  23  1   
  7   4   6  1   
  8   4   7  1   
  9   5   8  1   
 10   5  24  1   
 11   5  25  1   
 12   7  26  1   
 13   7  27  1   
 14   7  28  1   
 15   8   9  1   
 16   8  29  1   
 17   8  30  1   
 18   9  10  1   
 19   9  11  1   
 20  10  12  1   
 21  10  31  1   
 22  10  32  1   
 23  11  33  1   
 24  11  34  1   
 25  11  35  1   
 26  12  13  2   
 27  12  14  am  
 28  14  15  1   
 29  14  36  1   
 30  15  16  ar  
 31  15  17  ar  
 32  16  18  ar  
 33  16  19  1   
 34  17  20  ar  
 35  17  37  1   
 36  18  21  ar  
 37  18  38  1   
 38  19  39  1   
 39  19  40  1   
 40  19  41  1   
 41  20  21  ar  
 42  20  42  1   
 43  21  22  1   
 44  22  43  1   
 45  22  44  1   
 46  22  45  1   
@<TRIPOS>SUBSTRUCTURE
  1 ****   9 GROUP 4 **** **** 0

# MOE 2024.06 (io_trps.svl 2023.06)
