@<TRIPOS>MOLECULE
NONAME
51 54 1 0 0 
SMALL
USER_CHARGES


@<TRIPOS>ATOM
  1 O       -1.4280     0.2650     0.2630 O.2   1 <1>  -0.5700 
  2 C       -2.2860     1.1010     0.4930 C.2   1 <1>   0.5440 
  3 N       -3.5300     0.6490     0.8720 N.am  1 <1>  -0.6600 
  4 C       -1.9900     2.5150     0.3410 C.ar  1 <1>   0.0860 
  5 C       -3.7020    -0.7490     1.3600 C.3   1 <1>   0.1400 
  6 C       -4.7840     1.2300     0.3100 C.3   1 <1>   0.1400 
  7 C       -2.5720     3.4840     1.1580 C.ar  1 <1>  -0.1500 
  8 C       -1.1020     2.9670    -0.6340 C.ar  1 <1>  -0.1500 
  9 C       -4.1030    -1.6420     0.1630 C.3   1 <1>   0.4230 
 10 C       -5.2550     0.3470    -0.8560 C.3   1 <1>  -0.1600 
 11 C       -2.2930     4.8270     0.9970 C.ar  1 <1>  -0.1500 
 12 C       -0.8220     4.3120    -0.7950 C.ar  1 <1>  -0.1500 
 13 N       -4.1880    -3.1070     0.4810 N.4   1 <1>  -0.9590 
 14 C       -5.4360    -1.1420    -0.4370 C.3   1 <1>  -0.1060 
 15 C       -1.4110     5.2810     0.0170 C.ar  1 <1>   0.0540 
 16 C       -4.4540    -3.9210    -0.7310 C.3   1 <1>   0.3430 
 17 C       -3.0570    -3.6420     1.2860 C.3   1 <1>   0.2630 
 18 C       -6.5370    -1.2780     0.6340 C.2   1 <1>   0.9060 
 19 C       -5.7850    -1.9740    -1.6940 C.3   1 <1>  -0.1600 
 20 C       -1.1310     6.6950    -0.1370 C.2   1 <1>   0.2350 
 21 C       -5.7600    -3.4810    -1.3960 C.3   1 <1>  -0.1600 
 22 O       -6.4730    -2.2160     1.4450 O.co2 1 <1>  -0.9000 
 23 O       -7.4460    -0.4500     0.6790 O.co2 1 <1>  -0.9000 
 24 N       -1.9240     7.6500     0.2880 N.2   1 <1>  -0.7070 
 25 C        0.0050     7.2430    -0.7460 C.2   1 <1>  -0.1500 
 26 N       -1.3150     8.7980    -0.0460 N.pl3 1 <1>   0.3000 
 27 C       -0.1450     8.5790    -0.6720 C.2   1 <1>  -0.3020 
 28 H       -2.7750    -1.0820     1.7890 H     1 <1>   0.0800 
 29 H       -4.4560    -0.7670     2.1280 H     1 <1>   0.0800 
 30 H       -5.5390     1.2700     1.0790 H     1 <1>   0.0800 
 31 H       -4.6190     2.2320    -0.0460 H     1 <1>   0.0800 
 32 H       -3.2520     3.1760     1.9340 H     1 <1>   0.1500 
 33 H       -0.6260     2.2440    -1.2750 H     1 <1>   0.1500 
 34 H       -3.3340    -1.5120    -0.5800 H     1 <1>   0.0800 
 35 H       -6.1910     0.7350    -1.2210 H     1 <1>   0.0800 
 36 H       -4.5400     0.4280    -1.6550 H     1 <1>   0.0800 
 37 H       -2.7640     5.5500     1.6410 H     1 <1>   0.1500 
 38 H       -0.1380     4.6120    -1.5670 H     1 <1>   0.1500 
 39 H       -5.0740    -3.1320     1.0550 H     1 <1>   0.4500 
 40 H       -3.6390    -3.8070    -1.4270 H     1 <1>   0.0800 
 41 H       -4.5300    -4.9620    -0.4620 H     1 <1>   0.0800 
 42 H       -2.1270    -3.5040     0.7590 H     1 <1>   0.0800 
 43 H       -3.2030    -4.6920     1.4760 H     1 <1>   0.0800 
 44 H       -3.0020    -3.1310     2.2330 H     1 <1>   0.0800 
 45 H       -6.7650    -1.6930    -2.0460 H     1 <1>   0.0800 
 46 H       -5.0800    -1.7610    -2.4790 H     1 <1>   0.0800 
 47 H       -5.8920    -4.0280    -2.3130 H     1 <1>   0.0800 
 48 H       -6.5850    -3.7380    -0.7520 H     1 <1>   0.0800 
 49 H        0.8210     6.6890    -1.1720 H     1 <1>   0.1500 
 50 H       -1.7210     9.7180     0.1680 H     1 <1>   0.2700 
 51 H        0.4970     9.3690    -1.0180 H     1 <1>   0.1500 
@<TRIPOS>BOND
  1   1   2  2   
  2   2   3  am  
  3   2   4  1   
  4   3   5  1   
  5   3   6  1   
  6   4   7  ar  
  7   4   8  ar  
  8   5   9  1   
  9   5  28  1   
 10   5  29  1   
 11   6  10  1   
 12   6  30  1   
 13   6  31  1   
 14   7  11  ar  
 15   7  32  1   
 16   8  12  ar  
 17   8  33  1   
 18   9  13  1   
 19   9  14  1   
 20   9  34  1   
 21  10  14  1   
 22  10  35  1   
 23  10  36  1   
 24  11  15  ar  
 25  11  37  1   
 26  12  15  ar  
 27  12  38  1   
 28  13  16  1   
 29  13  17  1   
 30  13  39  1   
 31  14  18  1   
 32  14  19  1   
 33  15  20  1   
 34  16  21  1   
 35  16  40  1   
 36  16  41  1   
 37  17  42  1   
 38  17  43  1   
 39  17  44  1   
 40  18  22  ar  
 41  18  23  ar  
 42  19  21  1   
 43  19  45  1   
 44  19  46  1   
 45  20  24  2   
 46  20  25  1   
 47  21  47  1   
 48  21  48  1   
 49  24  26  1   
 50  25  27  2   
 51  25  49  1   
 52  26  27  1   
 53  26  50  1   
 54  27  51  1   
@<TRIPOS>SUBSTRUCTURE
  1 ****   2 GROUP 4 **** **** 0

# MOE 2024.06 (io_trps.svl 2023.06)
