@<TRIPOS>MOLECULE
NONAME
52 54 1 0 0 
SMALL
USER_CHARGES


@<TRIPOS>ATOM
  1 O       -0.2710    -0.0280     1.7350 O.2   1 <1>  -0.5700 
  2 C       -1.0810     0.7970     1.3670 C.2   1 <1>   0.5690 
  3 N       -2.0940     0.4140     0.5130 N.am  1 <1>  -0.6600 
  4 C       -0.9310     2.2530     1.9140 C.3   1 <1>   0.3410 
  5 C       -3.1540     1.2690    -0.0850 C.3   1 <1>   0.1400 
  6 C       -2.2620    -0.9850     0.0600 C.3   1 <1>   0.1400 
  7 O       -1.2580     3.2450     0.9460 O.3   1 <1>  -0.3630 
  8 C       -1.9310     2.4710     3.0610 C.3   1 <1>  -0.2400 
  9 C        0.4720     2.5840     2.4660 C.3   1 <1>  -0.2400 
 10 C       -4.1260     0.3020    -0.7680 C.3   1 <1>   0.2000 
 11 C       -3.7440    -1.0990    -0.2900 C.3   1 <1>  -0.0800 
 12 C       -0.6430     3.4530    -0.2590 C.ar  1 <1>   0.0820 
 13 O       -5.4410     0.5660    -0.4130 O.3   1 <1>  -0.6800 
 14 C       -4.0650    -2.1850    -1.3300 C.3   1 <1>  -0.0170 
 15 C       -1.0220     4.5920    -0.9760 C.ar  1 <1>   0.0820 
 16 C        0.3090     2.5930    -0.8010 C.ar  1 <1>  -0.1500 
 17 C       -3.6930    -3.5690    -0.8240 C.ar  1 <1>   0.1670 
 18 O       -1.9730     5.4040    -0.4280 O.3   1 <1>  -0.3630 
 19 C       -0.4350     4.8580    -2.2100 C.ar  1 <1>  -0.1500 
 20 C        0.8840     2.8670    -2.0290 C.ar  1 <1>  -0.1500 
 21 N       -2.4400    -3.9510    -1.0110 N.ar  1 <1>  -0.6200 
 22 C       -4.6530    -4.3600    -0.1940 C.ar  1 <1>   0.1600 
 23 C       -2.3620     6.6110    -1.0430 C.3   1 <1>   0.0400 
 24 C        0.5160     3.9980    -2.7320 C.ar  1 <1>  -0.1500 
 25 C       -2.2120    -5.1610    -0.5280 C.ar  1 <1>   0.1600 
 26 N       -4.4260    -5.5700     0.2900 N.ar  1 <1>  -0.6200 
 27 C       -3.1720    -5.9440     0.1010 C.ar  1 <1>   0.1600 
 28 H       -3.6460     1.8500     0.6730 H     1 <1>   0.0800 
 29 H       -2.7230     1.9230    -0.8220 H     1 <1>   0.0800 
 30 H       -1.6460    -1.1500    -0.8080 H     1 <1>   0.0800 
 31 H       -1.9820    -1.6850     0.8310 H     1 <1>   0.0800 
 32 H       -1.7260     1.7810     3.8590 H     1 <1>   0.0800 
 33 H       -2.9370     2.3040     2.7260 H     1 <1>   0.0800 
 34 H       -1.8520     3.4730     3.4430 H     1 <1>   0.0800 
 35 H        0.6890     1.9570     3.3110 H     1 <1>   0.0800 
 36 H        0.5190     3.6110     2.7800 H     1 <1>   0.0800 
 37 H        1.2350     2.4070     1.7330 H     1 <1>   0.0800 
 38 H       -4.0390     0.3950    -1.8370 H     1 <1>   0.0800 
 39 H       -4.2640    -1.3200     0.6260 H     1 <1>   0.0800 
 40 H       -5.5360     0.5520     0.5590 H     1 <1>   0.4000 
 41 H       -3.5300    -1.9910    -2.2430 H     1 <1>   0.0800 
 42 H       -5.1150    -2.1560    -1.5580 H     1 <1>   0.0800 
 43 H        0.6200     1.7000    -0.2950 H     1 <1>   0.1500 
 44 H       -0.7020     5.7260    -2.7820 H     1 <1>   0.1500 
 45 H        1.6210     2.1960    -2.4360 H     1 <1>   0.1500 
 46 H       -5.6500    -3.9750    -0.0830 H     1 <1>   0.1500 
 47 H       -3.0920     7.0850    -0.4130 H     1 <1>   0.0800 
 48 H       -2.7960     6.3910    -2.0020 H     1 <1>   0.0800 
 49 H       -1.4990     7.2460    -1.1440 H     1 <1>   0.0800 
 50 H        0.9670     4.2090    -3.6860 H     1 <1>   0.1500 
 51 H       -1.2160    -5.5520    -0.6340 H     1 <1>   0.1500 
 52 H       -2.8890    -6.9160     0.4620 H     1 <1>   0.1500 
@<TRIPOS>BOND
  1   1   2  2   
  2   2   3  am  
  3   2   4  1   
  4   3   5  1   
  5   3   6  1   
  6   4   7  1   
  7   4   8  1   
  8   4   9  1   
  9   5  10  1   
 10   5  28  1   
 11   5  29  1   
 12   6  11  1   
 13   6  30  1   
 14   6  31  1   
 15   7  12  1   
 16   8  32  1   
 17   8  33  1   
 18   8  34  1   
 19   9  35  1   
 20   9  36  1   
 21   9  37  1   
 22  10  11  1   
 23  10  13  1   
 24  10  38  1   
 25  11  14  1   
 26  11  39  1   
 27  12  15  ar  
 28  12  16  ar  
 29  13  40  1   
 30  14  17  1   
 31  14  41  1   
 32  14  42  1   
 33  15  18  1   
 34  15  19  ar  
 35  16  20  ar  
 36  16  43  1   
 37  17  21  ar  
 38  17  22  ar  
 39  18  23  1   
 40  19  24  ar  
 41  19  44  1   
 42  20  24  ar  
 43  20  45  1   
 44  21  25  ar  
 45  22  26  ar  
 46  22  46  1   
 47  23  47  1   
 48  23  48  1   
 49  23  49  1   
 50  24  50  1   
 51  25  27  ar  
 52  25  51  1   
 53  26  27  ar  
 54  27  52  1   
@<TRIPOS>SUBSTRUCTURE
  1 ****   3 GROUP 4 **** **** 0

# MOE 2024.06 (io_trps.svl 2023.06)
