@<TRIPOS>MOLECULE
NONAME
46 48 1 0 0 
SMALL
USER_CHARGES


@<TRIPOS>ATOM
  1 S       -0.0640     0.4260    -1.7150 S.o2  1 <1>   1.5010 
  2 O        0.5560     1.6970    -2.0220 O.2   1 <1>  -0.6500 
  3 O       -0.1240    -0.5970    -2.7380 O.2   1 <1>  -0.6500 
  4 N       -1.6600     0.7450    -1.2480 N.am  1 <1>  -0.8490 
  5 C        0.6600    -0.2400    -0.2090 C.2   1 <1>  -0.0630 
  6 C       -2.5250    -0.4280    -1.2150 C.3   1 <1>   0.1960 
  7 C       -2.2520     1.8870    -1.9470 C.3   1 <1>   0.1960 
  8 C        0.1810     0.0190     1.0690 C.2   1 <1>   0.1390 
  9 C        1.7380    -1.0350     0.0080 C.2   1 <1>  -0.3020 
 10 C       -3.8090    -0.1340    -0.4220 C.3   1 <1>  -0.1600 
 11 C       -3.7760     1.9720    -1.7620 C.3   1 <1>  -0.1600 
 12 N        0.8810    -0.5640     1.9960 N.2   1 <1>  -0.7070 
 13 N        1.8470    -1.2160     1.3350 N.pl3 1 <1>   0.3140 
 14 C       -4.2640     1.3430    -0.4330 C.3   1 <1>   0.2800 
 15 C        2.8640    -2.0000     2.0440 C.3   1 <1>   0.0160 
 16 O       -3.5860     1.9680     0.6280 O.3   1 <1>  -0.5600 
 17 C       -5.8130     1.4160    -0.1810 C.3   1 <1>   0.2000 
 18 C       -3.8110     3.3220     0.8960 C.3   1 <1>   0.1200 
 19 O       -6.5020     1.5030    -1.4050 O.3   1 <1>  -0.6800 
 20 C       -6.2460     2.5520     0.7970 C.3   1 <1>   0.2800 
 21 C       -5.2790     3.7340     0.7010 C.3   1 <1>  -0.1600 
 22 O       -6.1820     2.0640     2.0900 O.3   1 <1>  -0.6800 
 23 C       -7.7000     3.0140     0.6280 C.3   1 <1>  -0.2400 
 24 H       -2.7720    -0.7110    -2.2260 H     1 <1>   0.0800 
 25 H       -2.0110    -1.2570    -0.7560 H     1 <1>   0.0800 
 26 H       -1.7980     2.7840    -1.5600 H     1 <1>   0.0800 
 27 H       -2.0250     1.8310    -3.0000 H     1 <1>   0.0800 
 28 H       -0.6820     0.6360     1.2750 H     1 <1>   0.1500 
 29 H        2.4140    -1.4670    -0.7080 H     1 <1>   0.1500 
 30 H       -3.6840    -0.4530     0.5980 H     1 <1>   0.0800 
 31 H       -4.5800    -0.7490    -0.8480 H     1 <1>   0.0800 
 32 H       -4.2250     1.4380    -2.5800 H     1 <1>   0.0800 
 33 H       -4.0910     2.9930    -1.8560 H     1 <1>   0.0800 
 34 H        3.4400    -2.5680     1.3380 H     1 <1>   0.0800 
 35 H        2.3750    -2.6630     2.7330 H     1 <1>   0.0800 
 36 H        3.5050    -1.3290     2.5850 H     1 <1>   0.0800 
 37 H       -6.1370     0.4890     0.2580 H     1 <1>   0.0800 
 38 H       -3.5230     3.4760     1.9220 H     1 <1>   0.0800 
 39 H       -3.1590     3.9060     0.2710 H     1 <1>   0.0800 
 40 H       -6.3290     2.3650    -1.8250 H     1 <1>   0.4000 
 41 H       -5.3780     4.1830    -0.2700 H     1 <1>   0.0800 
 42 H       -5.5360     4.4950     1.4150 H     1 <1>   0.0800 
 43 H       -6.3970     2.7710     2.7240 H     1 <1>   0.4000 
 44 H       -7.8410     3.4790    -0.3310 H     1 <1>   0.0800 
 45 H       -7.9680     3.7290     1.3850 H     1 <1>   0.0800 
 46 H       -8.3630     2.1690     0.6880 H     1 <1>   0.0800 
@<TRIPOS>BOND
  1   1   2  2   
  2   1   3  2   
  3   1   4  am  
  4   1   5  1   
  5   4   6  1   
  6   4   7  1   
  7   5   8  1   
  8   5   9  2   
  9   6  10  1   
 10   6  24  1   
 11   6  25  1   
 12   7  11  1   
 13   7  26  1   
 14   7  27  1   
 15   8  12  2   
 16   8  28  1   
 17   9  13  1   
 18   9  29  1   
 19  10  14  1   
 20  10  30  1   
 21  10  31  1   
 22  11  14  1   
 23  11  32  1   
 24  11  33  1   
 25  12  13  1   
 26  13  15  1   
 27  14  16  1   
 28  14  17  1   
 29  15  34  1   
 30  15  35  1   
 31  15  36  1   
 32  16  18  1   
 33  17  19  1   
 34  17  20  1   
 35  17  37  1   
 36  18  21  1   
 37  18  38  1   
 38  18  39  1   
 39  19  40  1   
 40  20  21  1   
 41  20  22  1   
 42  20  23  1   
 43  21  41  1   
 44  21  42  1   
 45  22  43  1   
 46  23  44  1   
 47  23  45  1   
 48  23  46  1   
@<TRIPOS>SUBSTRUCTURE
  1 ****   4 GROUP 4 **** **** 0

# MOE 2024.06 (io_trps.svl 2023.06)
