@<TRIPOS>MOLECULE
NONAME
62 65 1 0 0 
SMALL
USER_CHARGES


@<TRIPOS>ATOM
  1 O       -0.0740    -0.0760    -0.4580 O.2   1 <1>  -0.5700 
  2 C        0.9700    -0.6990    -0.5180 C.2   1 <1>   0.5440 
  3 N        0.9290    -2.0310    -0.8810 N.am  1 <1>  -0.6600 
  4 C        2.2160    -0.0150    -0.2250 C.ar  1 <1>   0.0860 
  5 C        2.0980    -2.7750    -1.4280 C.3   1 <1>   0.1400 
  6 C       -0.3520    -2.7900    -0.8870 C.3   1 <1>   0.1400 
  7 C        3.1400    -0.5310     0.6810 C.ar  1 <1>  -0.1500 
  8 C        2.5240     1.1970    -0.8400 C.ar  1 <1>  -0.1500 
  9 C        2.2830    -4.0840    -0.6580 C.3   1 <1>  -0.1600 
 10 C       -0.1770    -4.1080    -0.1260 C.3   1 <1>  -0.1600 
 11 C        4.3340     0.1160     0.9500 C.ar  1 <1>   0.0820 
 12 C        3.7120     1.8570    -0.5800 C.ar  1 <1>  -0.1500 
 13 C        0.9970    -4.9360    -0.6800 C.3   1 <1>  -0.0190 
 14 O        5.1640    -0.4810     1.8400 O.3   1 <1>  -0.3630 
 15 C        4.6220     1.3180     0.3120 C.ar  1 <1>  -0.1500 
 16 C        1.1510    -6.2520     0.0940 C.2   1 <1>   0.5690 
 17 C        6.3790     0.1190     2.2300 C.3   1 <1>   0.0400 
 18 O        1.7960    -6.2290     1.1160 O.2   1 <1>  -0.5700 
 19 N        0.5660    -7.4090    -0.3560 N.am  1 <1>  -0.6600 
 20 C        0.7500    -8.6900     0.4170 C.3   1 <1>   0.3640 
 21 C       -0.3690    -7.4770    -1.5270 C.3   1 <1>   0.1400 
 22 C        1.8550    -9.5760    -0.1840 C.ar  1 <1>  -0.1430 
 23 C       -0.5830    -9.4940     0.5660 C.3   1 <1>   0.2000 
 24 C       -1.0670    -8.8380    -1.6500 C.3   1 <1>   0.1200 
 25 C        2.3450   -10.6140     0.5980 C.ar  1 <1>  -0.1500 
 26 C        2.3970    -9.3950    -1.4530 C.ar  1 <1>  -0.1500 
 27 O       -1.5630    -9.2030    -0.4050 O.3   1 <1>  -0.5600 
 28 C       -1.2320    -9.2500     1.9330 C.3   1 <1>   0.1200 
 29 C        3.3310   -11.4610     0.1240 C.ar  1 <1>  -0.1500 
 30 C        3.3830   -10.2410    -1.9310 C.ar  1 <1>  -0.1500 
 31 O       -0.5030    -9.8910     2.9320 O.3   1 <1>  -0.6800 
 32 C        3.8490   -11.2770    -1.1440 C.ar  1 <1>  -0.1500 
 33 H        1.9160    -2.9880    -2.4670 H     1 <1>   0.0800 
 34 H        2.9970    -2.1870    -1.3690 H     1 <1>   0.0800 
 35 H       -1.1350    -2.2150    -0.4210 H     1 <1>   0.0800 
 36 H       -0.6410    -2.9820    -1.9060 H     1 <1>   0.0800 
 37 H        2.9230    -1.4530     1.1880 H     1 <1>   0.1500 
 38 H        1.8140     1.6210    -1.5290 H     1 <1>   0.1500 
 39 H        3.0930    -4.6430    -1.0930 H     1 <1>   0.0800 
 40 H        2.5560    -3.8550     0.3580 H     1 <1>   0.0800 
 41 H       -0.0030    -3.8870     0.9130 H     1 <1>   0.0800 
 42 H       -1.0890    -4.6730    -0.1870 H     1 <1>   0.0800 
 43 H        3.9260     2.7910    -1.0710 H     1 <1>   0.1500 
 44 H        0.7960    -5.1600    -1.7100 H     1 <1>   0.0800 
 45 H        5.5380     1.8460     0.4970 H     1 <1>   0.1500 
 46 H        6.8510    -0.5210     2.9540 H     1 <1>   0.0800 
 47 H        6.1690     1.0770     2.6720 H     1 <1>   0.0800 
 48 H        7.0120     0.2220     1.3670 H     1 <1>   0.0800 
 49 H        1.0850    -8.4510     1.4120 H     1 <1>   0.0800 
 50 H       -1.1260    -6.7210    -1.4160 H     1 <1>   0.0800 
 51 H        0.1730    -7.2780    -2.4340 H     1 <1>   0.0800 
 52 H       -0.3760   -10.5450     0.4770 H     1 <1>   0.0800 
 53 H       -0.3910    -9.6020    -1.9980 H     1 <1>   0.0800 
 54 H       -1.8950    -8.7730    -2.3330 H     1 <1>   0.0800 
 55 H        1.9620   -10.7670     1.5930 H     1 <1>   0.1500 
 56 H        2.0690    -8.5930    -2.0840 H     1 <1>   0.1500 
 57 H       -2.2360    -9.6370     1.9530 H     1 <1>   0.0800 
 58 H       -1.2470    -8.1960     2.1550 H     1 <1>   0.0800 
 59 H        3.6980   -12.2610     0.7430 H     1 <1>   0.1500 
 60 H        3.7910   -10.0900    -2.9150 H     1 <1>   0.1500 
 61 H       -0.7190   -10.8440     2.9590 H     1 <1>   0.4000 
 62 H        4.6160   -11.9340    -1.5150 H     1 <1>   0.1500 
@<TRIPOS>BOND
  1   1   2  2   
  2   2   3  am  
  3   2   4  1   
  4   3   5  1   
  5   3   6  1   
  6   4   7  ar  
  7   4   8  ar  
  8   5   9  1   
  9   5  33  1   
 10   5  34  1   
 11   6  10  1   
 12   6  35  1   
 13   6  36  1   
 14   7  11  ar  
 15   7  37  1   
 16   8  12  ar  
 17   8  38  1   
 18   9  13  1   
 19   9  39  1   
 20   9  40  1   
 21  10  13  1   
 22  10  41  1   
 23  10  42  1   
 24  11  14  1   
 25  11  15  ar  
 26  12  15  ar  
 27  12  43  1   
 28  13  16  1   
 29  13  44  1   
 30  14  17  1   
 31  15  45  1   
 32  16  18  2   
 33  16  19  am  
 34  17  46  1   
 35  17  47  1   
 36  17  48  1   
 37  19  20  1   
 38  19  21  1   
 39  20  22  1   
 40  20  23  1   
 41  20  49  1   
 42  21  24  1   
 43  21  50  1   
 44  21  51  1   
 45  22  25  ar  
 46  22  26  ar  
 47  23  27  1   
 48  23  28  1   
 49  23  52  1   
 50  24  27  1   
 51  24  53  1   
 52  24  54  1   
 53  25  29  ar  
 54  25  55  1   
 55  26  30  ar  
 56  26  56  1   
 57  28  31  1   
 58  28  57  1   
 59  28  58  1   
 60  29  32  ar  
 61  29  59  1   
 62  30  32  ar  
 63  30  60  1   
 64  31  61  1   
 65  32  62  1   
@<TRIPOS>SUBSTRUCTURE
  1 ****  13 GROUP 4 **** **** 0

# MOE 2024.06 (io_trps.svl 2023.06)
