@<TRIPOS>MOLECULE
NONAME
45 47 1 0 0 
SMALL
USER_CHARGES


@<TRIPOS>ATOM
  1 F       -1.1390    -0.8810     0.7530 F     1 <1>  -0.1900 
  2 C       -2.2970    -1.3690     0.3840 C.ar  1 <1>   0.1900 
  3 C       -2.3830    -2.6540    -0.1250 C.ar  1 <1>   0.1900 
  4 C       -3.4210    -0.5780     0.5120 C.ar  1 <1>  -0.1500 
  5 F       -1.3090    -3.3970    -0.2430 F     1 <1>  -0.1900 
  6 C       -3.6010    -3.1730    -0.5180 C.ar  1 <1>  -0.1500 
  7 C       -4.6590    -1.0830     0.1240 C.ar  1 <1>   0.1170 
  8 C       -4.7320    -2.3800    -0.3920 C.ar  1 <1>  -0.1500 
  9 N       -5.7890    -0.2640     0.2470 N.am  1 <1>  -0.5470 
 10 C       -7.1050    -0.5800     0.4320 C.2   1 <1>   0.6900 
 11 O       -7.4360    -1.7250     0.6770 O.2   1 <1>  -0.5700 
 12 N       -8.0420     0.4220     0.3640 N.am  1 <1>  -0.6600 
 13 C       -9.4490     0.1930     0.8220 C.3   1 <1>   0.1400 
 14 C       -7.8460     1.7280    -0.3240 C.3   1 <1>   0.1400 
 15 C      -10.4420     0.2590    -0.3660 C.3   1 <1>   0.0000 
 16 C       -8.7970     1.8310    -1.5220 C.3   1 <1>  -0.1600 
 17 C      -11.8920     0.0680     0.1100 C.3   1 <1>   0.2000 
 18 C      -10.2620     1.5980    -1.1130 C.3   1 <1>  -0.1600 
 19 C      -10.2600    -0.9580    -1.2910 C.3   1 <1>  -0.1600 
 20 O      -12.1340     0.7510     1.3050 O.3   1 <1>  -0.5600 
 21 C      -12.0790    -1.4440     0.2790 C.3   1 <1>  -0.1600 
 22 C      -11.0190    -2.1030    -0.6150 C.3   1 <1>  -0.1600 
 23 C      -13.4780     0.8790     1.6470 C.3   1 <1>   0.0400 
 24 H       -3.3300     0.4130     0.9130 H     1 <1>   0.1500 
 25 H       -3.6640    -4.1720    -0.9130 H     1 <1>   0.1500 
 26 H       -5.6850    -2.7750    -0.6990 H     1 <1>   0.1500 
 27 H       -5.6170     0.7290     0.3480 H     1 <1>   0.3700 
 28 H       -9.5340    -0.7530     1.3270 H     1 <1>   0.0800 
 29 H       -9.6950     0.9570     1.5390 H     1 <1>   0.0800 
 30 H       -8.0540     2.5210     0.3740 H     1 <1>   0.0800 
 31 H       -6.8340     1.8380    -0.6700 H     1 <1>   0.0800 
 32 H       -8.7020     2.8060    -1.9650 H     1 <1>   0.0800 
 33 H       -8.5040     1.1080    -2.2620 H     1 <1>   0.0800 
 34 H      -12.5630     0.4370    -0.6480 H     1 <1>   0.0800 
 35 H      -10.8890     1.6250    -1.9860 H     1 <1>   0.0800 
 36 H      -10.5730     2.3980    -0.4630 H     1 <1>   0.0800 
 37 H      -10.7130    -0.7580    -2.2460 H     1 <1>   0.0800 
 38 H       -9.2260    -1.2120    -1.4510 H     1 <1>   0.0800 
 39 H      -11.9090    -1.7280     1.3030 H     1 <1>   0.0800 
 40 H      -13.0680    -1.7380    -0.0210 H     1 <1>   0.0800 
 41 H      -10.3380    -2.6750    -0.0050 H     1 <1>   0.0800 
 42 H      -11.4630    -2.7580    -1.3450 H     1 <1>   0.0800 
 43 H      -13.5360     1.4360     2.5650 H     1 <1>   0.0800 
 44 H      -13.9070    -0.0970     1.7900 H     1 <1>   0.0800 
 45 H      -13.9940     1.4110     0.8670 H     1 <1>   0.0800 
@<TRIPOS>BOND
  1   1   2  1   
  2   2   3  ar  
  3   2   4  ar  
  4   3   5  1   
  5   3   6  ar  
  6   4   7  ar  
  7   4  24  1   
  8   6   8  ar  
  9   6  25  1   
 10   7   8  ar  
 11   7   9  1   
 12   8  26  1   
 13   9  10  am  
 14   9  27  1   
 15  10  11  2   
 16  10  12  am  
 17  12  13  1   
 18  12  14  1   
 19  13  15  1   
 20  13  28  1   
 21  13  29  1   
 22  14  16  1   
 23  14  30  1   
 24  14  31  1   
 25  15  17  1   
 26  15  18  1   
 27  15  19  1   
 28  16  18  1   
 29  16  32  1   
 30  16  33  1   
 31  17  20  1   
 32  17  21  1   
 33  17  34  1   
 34  18  35  1   
 35  18  36  1   
 36  19  22  1   
 37  19  37  1   
 38  19  38  1   
 39  20  23  1   
 40  21  22  1   
 41  21  39  1   
 42  21  40  1   
 43  22  41  1   
 44  22  42  1   
 45  23  43  1   
 46  23  44  1   
 47  23  45  1   
@<TRIPOS>SUBSTRUCTURE
  1 ****  10 GROUP 4 **** **** 0

# MOE 2024.06 (io_trps.svl 2023.06)
