@<TRIPOS>MOLECULE
NONAME
46 48 1 0 0 
SMALL
USER_CHARGES


@<TRIPOS>ATOM
  1 F       -0.0790     1.3840    -1.8770 F     1 <1>  -0.1900 
  2 C        0.1720     2.5800    -1.4150 C.ar  1 <1>   0.1900 
  3 C        0.4500     2.7290    -0.0690 C.ar  1 <1>  -0.1500 
  4 C        0.1500     3.6500    -2.2890 C.ar  1 <1>  -0.1500 
  5 C        0.7180     3.9980     0.4200 C.ar  1 <1>  -0.1500 
  6 C        0.4190     4.9140    -1.7920 C.ar  1 <1>  -0.1500 
  7 C        0.7050     5.0950    -0.4440 C.ar  1 <1>   0.0830 
  8 O        0.9630     6.3660    -0.0490 O.3   1 <1>  -0.3630 
  9 C        1.3290     6.6630     1.2910 C.3   1 <1>   0.1810 
 10 C        1.6120     8.1520     1.4860 C.2   1 <1>   0.5690 
 11 O        0.9400     8.7210     2.3170 O.2   1 <1>  -0.5700 
 12 N        2.6050     8.8070     0.7910 N.am  1 <1>  -0.6600 
 13 C        3.5050     8.1660    -0.2170 C.3   1 <1>   0.1400 
 14 C        2.8090    10.2730     0.9600 C.3   1 <1>   0.1400 
 15 C        4.9990     8.3390     0.1080 C.3   1 <1>   0.1100 
 16 C        4.0270    10.5180     1.8530 C.3   1 <1>  -0.1600 
 17 N        5.4410     9.7330    -0.1020 N.3   1 <1>  -0.8100 
 18 C        5.3720    10.5670     1.1140 C.3   1 <1>   0.1100 
 19 C        6.7980     9.7890    -0.7060 C.3   1 <1>   0.2900 
 20 C        7.2520    11.1940    -1.0910 C.2   1 <1>   0.2980 
 21 O        6.5760    11.8460    -2.0050 O.3   1 <1>  -0.0190 
 22 N        8.2550    11.8140    -0.6050 N.2   1 <1>  -0.5650 
 23 N        7.2020    12.9790    -2.1090 N.2   1 <1>  -0.4100 
 24 C        8.1730    12.9440    -1.2890 C.2   1 <1>   0.3350 
 25 C        9.1710    14.0570    -1.0730 C.3   1 <1>  -0.0590 
 26 H        0.4530     1.8690     0.5760 H     1 <1>   0.1500 
 27 H       -0.0730     3.4940    -3.3290 H     1 <1>   0.1500 
 28 H        0.9290     4.1080     1.4670 H     1 <1>   0.1500 
 29 H        0.4070     5.7680    -2.4450 H     1 <1>   0.1500 
 30 H        2.2070     6.0990     1.5410 H     1 <1>   0.0800 
 31 H        0.5150     6.3730     1.9300 H     1 <1>   0.0800 
 32 H        3.3050     8.5900    -1.1860 H     1 <1>   0.0800 
 33 H        3.3050     7.1140    -0.2810 H     1 <1>   0.0800 
 34 H        1.9390    10.7100     1.4200 H     1 <1>   0.0800 
 35 H        2.9400    10.7440     0.0000 H     1 <1>   0.0800 
 36 H        5.5390     7.6880    -0.5560 H     1 <1>   0.0800 
 37 H        5.2030     8.0180     1.1150 H     1 <1>   0.0800 
 38 H        4.0580     9.7720     2.6270 H     1 <1>   0.0800 
 39 H        3.8980    11.4640     2.3470 H     1 <1>   0.0800 
 40 H        6.1570    10.2870     1.7970 H     1 <1>   0.0800 
 41 H        5.5440    11.5920     0.8280 H     1 <1>   0.0800 
 42 H        6.8110     9.1910    -1.6000 H     1 <1>   0.0800 
 43 H        7.5140     9.3740    -0.0170 H     1 <1>   0.0800 
 44 H        9.1320    14.3810    -0.0500 H     1 <1>   0.0800 
 45 H        8.9410    14.8870    -1.7160 H     1 <1>   0.0800 
 46 H       10.1590    13.7010    -1.2950 H     1 <1>   0.0800 
@<TRIPOS>BOND
  1   1   2  1   
  2   2   3  ar  
  3   2   4  ar  
  4   3   5  ar  
  5   3  26  1   
  6   4   6  ar  
  7   4  27  1   
  8   5   7  ar  
  9   5  28  1   
 10   6   7  ar  
 11   6  29  1   
 12   7   8  1   
 13   8   9  1   
 14   9  10  1   
 15   9  30  1   
 16   9  31  1   
 17  10  11  2   
 18  10  12  am  
 19  12  13  1   
 20  12  14  1   
 21  13  15  1   
 22  13  32  1   
 23  13  33  1   
 24  14  16  1   
 25  14  34  1   
 26  14  35  1   
 27  15  17  1   
 28  15  36  1   
 29  15  37  1   
 30  16  18  1   
 31  16  38  1   
 32  16  39  1   
 33  17  18  1   
 34  17  19  1   
 35  18  40  1   
 36  18  41  1   
 37  19  20  1   
 38  19  42  1   
 39  19  43  1   
 40  20  21  1   
 41  20  22  2   
 42  21  23  1   
 43  22  24  1   
 44  23  24  2   
 45  24  25  1   
 46  25  44  1   
 47  25  45  1   
 48  25  46  1   
@<TRIPOS>SUBSTRUCTURE
  1 ****  13 GROUP 4 **** **** 0

# MOE 2024.06 (io_trps.svl 2023.06)
