@<TRIPOS>MOLECULE
NONAME
54 56 1 0 0 
SMALL
USER_CHARGES


@<TRIPOS>ATOM
  1 O        0.1630     0.9490     0.3120 O.2   1 <1>  -0.5700 
  2 C        0.0270     2.1120     0.0150 C.2   1 <1>   0.5690 
  3 N       -0.7890     2.9590     0.7180 N.am  1 <1>  -0.6600 
  4 C        0.7870     2.6390    -1.2050 C.3   1 <1>   0.1810 
  5 C       -0.9630     4.3900     0.3040 C.3   1 <1>   0.3640 
  6 C       -1.4840     2.5450     1.9710 C.3   1 <1>   0.0600 
  7 O        0.9840     4.0310    -1.1620 O.3   1 <1>  -0.5600 
  8 C       -2.4460     4.7850     0.2240 C.ar  1 <1>  -0.1430 
  9 C       -0.2160     4.7700    -0.9990 C.3   1 <1>   0.2610 
 10 C       -3.4270     4.0710    -0.4730 C.ar  1 <1>  -0.1430 
 11 C       -2.8140     5.9450     0.8970 C.ar  1 <1>  -0.1500 
 12 C        0.0210     6.2880    -1.0360 C.2   1 <1>   0.5690 
 13 C       -4.7360     4.5310    -0.4670 C.ar  1 <1>  -0.1500 
 14 C       -3.1500     2.7890    -1.2510 C.3   1 <1>  -0.0960 
 15 C       -4.1200     6.3940     0.8930 C.ar  1 <1>  -0.1500 
 16 O       -0.6380     6.9120    -1.8380 O.2   1 <1>  -0.5700 
 17 N        0.9100     6.9370    -0.2000 N.am  1 <1>  -0.6600 
 18 C       -5.0860     5.6830     0.2100 C.ar  1 <1>  -0.1500 
 19 C        0.9880     8.4340    -0.1980 C.3   1 <1>   0.1400 
 20 C        1.9810     6.2590     0.5860 C.3   1 <1>   0.1400 
 21 C        2.2820     8.9410    -0.8470 C.3   1 <1>   0.1400 
 22 C        3.2610     6.1780    -0.2570 C.3   1 <1>  -0.1600 
 23 N        3.4590     8.6910     0.0420 N.am  1 <1>  -0.6600 
 24 C        4.1850     7.4040    -0.1690 C.3   1 <1>   0.1400 
 25 C        3.7960     9.6300     0.9850 C.2   1 <1>   0.5690 
 26 O        3.1080    10.6000     1.1930 O.2   1 <1>  -0.5700 
 27 C        5.0500     9.4840     1.8150 C.3   1 <1>  -0.1790 
 28 H        0.2470     2.3950    -2.1020 H     1 <1>   0.0800 
 29 H        1.7550     2.1730    -1.2460 H     1 <1>   0.0800 
 30 H       -0.5230     4.9740     1.0910 H     1 <1>   0.0800 
 31 H       -1.2100     3.2030     2.7760 H     1 <1>   0.0800 
 32 H       -1.2130     1.5390     2.2420 H     1 <1>   0.0800 
 33 H       -2.5500     2.5860     1.8320 H     1 <1>   0.0800 
 34 H       -0.8410     4.5370    -1.8400 H     1 <1>   0.0800 
 35 H       -2.0800     6.5230     1.4320 H     1 <1>   0.1500 
 36 H       -5.5030     3.9910    -0.9940 H     1 <1>   0.1500 
 37 H       -3.9730     2.5480    -1.8990 H     1 <1>   0.0800 
 38 H       -3.0140     1.9670    -0.5710 H     1 <1>   0.0800 
 39 H       -2.2760     2.8850    -1.8630 H     1 <1>   0.0800 
 40 H       -4.3850     7.2950     1.4180 H     1 <1>   0.1500 
 41 H       -6.1060     6.0260     0.2020 H     1 <1>   0.1500 
 42 H        0.1540     8.8480    -0.7360 H     1 <1>   0.0800 
 43 H        0.9270     8.8010     0.8120 H     1 <1>   0.0800 
 44 H        2.1640     6.7970     1.5010 H     1 <1>   0.0800 
 45 H        1.6730     5.2660     0.8540 H     1 <1>   0.0800 
 46 H        2.1880    10.0000    -1.0160 H     1 <1>   0.0800 
 47 H        2.4220     8.4710    -1.8050 H     1 <1>   0.0800 
 48 H        3.8260     5.3240     0.0680 H     1 <1>   0.0800 
 49 H        3.0010     5.9940    -1.2850 H     1 <1>   0.0800 
 50 H        4.7670     7.4760    -1.0720 H     1 <1>   0.0800 
 51 H        4.8700     7.2380     0.6430 H     1 <1>   0.0800 
 52 H        5.8980     9.3280     1.1760 H     1 <1>   0.0800 
 53 H        4.9440     8.6610     2.4950 H     1 <1>   0.0800 
 54 H        5.2120    10.3810     2.3840 H     1 <1>   0.0800 
@<TRIPOS>BOND
  1   1   2  2   
  2   2   3  am  
  3   2   4  1   
  4   3   5  1   
  5   3   6  1   
  6   4   7  1   
  7   4  28  1   
  8   4  29  1   
  9   5   8  1   
 10   5   9  1   
 11   5  30  1   
 12   6  31  1   
 13   6  32  1   
 14   6  33  1   
 15   7   9  1   
 16   8  10  ar  
 17   8  11  ar  
 18   9  12  1   
 19   9  34  1   
 20  10  13  ar  
 21  10  14  1   
 22  11  15  ar  
 23  11  35  1   
 24  12  16  2   
 25  12  17  am  
 26  13  18  ar  
 27  13  36  1   
 28  14  37  1   
 29  14  38  1   
 30  14  39  1   
 31  15  18  ar  
 32  15  40  1   
 33  17  19  1   
 34  17  20  1   
 35  18  41  1   
 36  19  21  1   
 37  19  42  1   
 38  19  43  1   
 39  20  22  1   
 40  20  44  1   
 41  20  45  1   
 42  21  23  1   
 43  21  46  1   
 44  21  47  1   
 45  22  24  1   
 46  22  48  1   
 47  22  49  1   
 48  23  24  1   
 49  23  25  am  
 50  24  50  1   
 51  24  51  1   
 52  25  26  2   
 53  25  27  1   
 54  27  52  1   
 55  27  53  1   
 56  27  54  1   
@<TRIPOS>SUBSTRUCTURE
  1 ****  12 GROUP 4 **** **** 0

# MOE 2024.06 (io_trps.svl 2023.06)
