@<TRIPOS>MOLECULE
NONAME
52 53 1 0 0 
SMALL
USER_CHARGES


@<TRIPOS>ATOM
  1 O       -1.2270     1.4520     2.1810 O.2   1 <1>  -0.5700 
  2 C       -2.2410     1.6740     1.5530 C.2   1 <1>   0.5690 
  3 N       -3.1910     0.6680     1.4670 N.am  1 <1>  -0.6600 
  4 C       -2.3910     3.1140     0.9380 C.3   1 <1>   0.3410 
  5 C       -2.9550    -0.6340     2.1860 C.3   1 <1>   0.3210 
  6 C       -4.5620     0.7690     0.8780 C.3   1 <1>   0.1400 
  7 O       -1.1380     3.8010     0.9190 O.3   1 <1>  -0.3630 
  8 C       -3.2480     3.9750     1.8790 C.3   1 <1>  -0.2400 
  9 C       -2.9680     3.2330    -0.4910 C.3   1 <1>  -0.2400 
 10 C       -2.9450    -1.8220     1.2320 C.2   1 <1>   0.0460 
 11 C       -4.6070     0.2790    -0.5770 C.3   1 <1>   0.1200 
 12 C       -0.1110     3.5870     0.0450 C.ar  1 <1>   0.0820 
 13 N       -4.0270    -2.6200     1.1010 N.2   1 <1>  -0.5650 
 14 C       -1.9370    -2.2420     0.4320 C.2   1 <1>  -0.3320 
 15 O       -5.8290     0.6280    -1.1330 O.3   1 <1>  -0.6800 
 16 C        0.7310     4.6630    -0.2430 C.ar  1 <1>  -0.1440 
 17 C        0.1140     2.3540    -0.5590 C.ar  1 <1>  -0.1500 
 18 C       -3.6540    -3.5050     0.2340 C.2   1 <1>   0.0360 
 19 N       -2.3940    -3.3300    -0.2130 N.pl3 1 <1>   0.0330 
 20 C       -0.5410    -1.6740     0.2300 C.3   1 <1>  -0.0600 
 21 C        1.7680     4.5010    -1.1600 C.ar  1 <1>  -0.1440 
 22 C        0.4850     6.0040     0.4520 C.3   1 <1>  -0.0970 
 23 C        1.1490     2.1960    -1.4580 C.ar  1 <1>  -0.1500 
 24 C        1.9680     3.2660    -1.7580 C.ar  1 <1>  -0.1500 
 25 C        2.7030     5.6410    -1.5390 C.3   1 <1>  -0.0970 
 26 H       -3.7290    -0.7810     2.9190 H     1 <1>   0.0800 
 27 H       -2.0210    -0.6300     2.7170 H     1 <1>   0.0800 
 28 H       -4.9100     1.7810     0.9300 H     1 <1>   0.0800 
 29 H       -5.2400     0.1690     1.4610 H     1 <1>   0.0800 
 30 H       -2.8090     3.9790     2.8610 H     1 <1>   0.0800 
 31 H       -4.2450     3.5870     1.9600 H     1 <1>   0.0800 
 32 H       -3.3030     4.9850     1.5160 H     1 <1>   0.0800 
 33 H       -2.5030     2.5270    -1.1520 H     1 <1>   0.0800 
 34 H       -2.7940     4.2240    -0.8720 H     1 <1>   0.0800 
 35 H       -4.0260     3.0700    -0.5120 H     1 <1>   0.0800 
 36 H       -4.5050    -0.7880    -0.6430 H     1 <1>   0.0800 
 37 H       -3.8370     0.7400    -1.1650 H     1 <1>   0.0800 
 38 H       -6.5320     0.0310    -0.8080 H     1 <1>   0.4000 
 39 H       -0.5010     1.5060    -0.3350 H     1 <1>   0.1500 
 40 H       -4.2750    -4.3130    -0.1100 H     1 <1>   0.1500 
 41 H       -1.8940    -3.9080    -0.8940 H     1 <1>   0.2700 
 42 H       -0.3860    -0.8180     0.8620 H     1 <1>   0.0800 
 43 H       -0.4080    -1.3690    -0.7920 H     1 <1>   0.0800 
 44 H        0.2010    -2.4130     0.4760 H     1 <1>   0.0800 
 45 H        0.1560     5.8490     1.4640 H     1 <1>   0.0800 
 46 H       -0.2750     6.5480    -0.0770 H     1 <1>   0.0800 
 47 H        1.3740     6.6020     0.5000 H     1 <1>   0.0800 
 48 H        1.3190     1.2410    -1.9220 H     1 <1>   0.1500 
 49 H        2.7690     3.1290    -2.4630 H     1 <1>   0.1500 
 50 H        2.1350     6.5060    -1.8270 H     1 <1>   0.0800 
 51 H        3.3330     5.3660    -2.3660 H     1 <1>   0.0800 
 52 H        3.3320     5.8910    -0.7040 H     1 <1>   0.0800 
@<TRIPOS>BOND
  1   1   2  2   
  2   2   3  am  
  3   2   4  1   
  4   3   5  1   
  5   3   6  1   
  6   4   7  1   
  7   4   8  1   
  8   4   9  1   
  9   5  10  1   
 10   5  26  1   
 11   5  27  1   
 12   6  11  1   
 13   6  28  1   
 14   6  29  1   
 15   7  12  1   
 16   8  30  1   
 17   8  31  1   
 18   8  32  1   
 19   9  33  1   
 20   9  34  1   
 21   9  35  1   
 22  10  13  1   
 23  10  14  2   
 24  11  15  1   
 25  11  36  1   
 26  11  37  1   
 27  12  16  ar  
 28  12  17  ar  
 29  13  18  2   
 30  14  19  1   
 31  14  20  1   
 32  15  38  1   
 33  16  21  ar  
 34  16  22  1   
 35  17  23  ar  
 36  17  39  1   
 37  18  19  1   
 38  18  40  1   
 39  19  41  1   
 40  20  42  1   
 41  20  43  1   
 42  20  44  1   
 43  21  24  ar  
 44  21  25  1   
 45  22  45  1   
 46  22  46  1   
 47  22  47  1   
 48  23  24  ar  
 49  23  48  1   
 50  24  49  1   
 51  25  50  1   
 52  25  51  1   
 53  25  52  1   
@<TRIPOS>SUBSTRUCTURE
  1 ****   2 GROUP 4 **** **** 0

# MOE 2024.06 (io_trps.svl 2023.06)
