@<TRIPOS>MOLECULE
NONAME
45 47 1 0 0 
SMALL
USER_CHARGES


@<TRIPOS>ATOM
  1 CL      -3.6320    -0.7180     2.5410 Cl    1 <1>  -0.1770 
  2 C       -3.2580     0.4110     1.2590 C.ar  1 <1>   0.1770 
  3 C       -3.1930    -0.0230    -0.0540 C.ar  1 <1>   0.0860 
  4 C       -3.0470     1.7410     1.5740 C.ar  1 <1>   0.1600 
  5 C       -3.4000    -1.4010    -0.4250 C.2   1 <1>   0.5440 
  6 C       -2.9130     0.9690    -0.9850 C.ar  1 <1>  -0.1500 
  7 N       -2.7820     2.6860     0.6830 N.ar  1 <1>  -0.6200 
  8 O       -2.5160    -2.2130    -0.2390 O.2   1 <1>  -0.5700 
  9 N       -4.5870    -1.8440    -0.9700 N.am  1 <1>  -0.6600 
 10 C       -2.7190     2.2760    -0.5750 C.ar  1 <1>   0.1600 
 11 C       -4.7230    -3.2620    -1.4000 C.3   1 <1>   0.1400 
 12 C       -5.8910    -1.1800    -0.7030 C.3   1 <1>   0.1400 
 13 C       -5.3790    -4.0560    -0.2510 C.3   1 <1>   0.4230 
 14 C       -6.5940    -1.9470     0.4270 C.3   1 <1>  -0.1600 
 15 N       -5.3730    -5.5650    -0.4570 N.4   1 <1>  -0.9590 
 16 C       -6.7700    -3.4700     0.1430 C.3   1 <1>   0.0000 
 17 C       -6.3410    -6.3040     0.4170 C.3   1 <1>   0.3430 
 18 C       -5.5070    -6.0260    -1.8780 C.3   1 <1>   0.2630 
 19 C       -7.2680    -4.1660     1.4450 C.3   1 <1>  -0.1600 
 20 C       -7.7890    -3.6870    -1.0120 C.3   1 <1>   0.1200 
 21 C       -6.6120    -5.5350     1.7090 C.3   1 <1>  -0.1600 
 22 O       -8.9770    -3.0130    -0.7830 O.3   1 <1>  -0.6800 
 23 H       -3.1030     2.0380     2.6070 H     1 <1>   0.1500 
 24 H       -2.8410     0.7160    -2.0270 H     1 <1>   0.1500 
 25 H       -2.5000     3.0260    -1.3180 H     1 <1>   0.1500 
 26 H       -5.3130    -3.2960    -2.2970 H     1 <1>   0.0800 
 27 H       -3.7530    -3.6720    -1.6220 H     1 <1>   0.0800 
 28 H       -5.7490    -0.1530    -0.4130 H     1 <1>   0.0800 
 29 H       -6.4930    -1.1860    -1.5970 H     1 <1>   0.0800 
 30 H       -4.7460    -3.8710     0.6020 H     1 <1>   0.0800 
 31 H       -6.0060    -1.8100     1.3180 H     1 <1>   0.0800 
 32 H       -7.5450    -1.4820     0.6200 H     1 <1>   0.0800 
 33 H       -4.4330    -5.8520    -0.1420 H     1 <1>   0.4500 
 34 H       -7.2760    -6.4360    -0.1030 H     1 <1>   0.0800 
 35 H       -5.9510    -7.2830     0.6490 H     1 <1>   0.0800 
 36 H       -6.4540    -5.7180    -2.2890 H     1 <1>   0.0800 
 37 H       -5.4450    -7.1020    -1.9280 H     1 <1>   0.0800 
 38 H       -4.7160    -5.6160    -2.4850 H     1 <1>   0.0800 
 39 H       -7.0710    -3.5480     2.3060 H     1 <1>   0.0800 
 40 H       -8.3360    -4.2930     1.4110 H     1 <1>   0.0800 
 41 H       -8.0310    -4.7270    -1.1360 H     1 <1>   0.0800 
 42 H       -7.4100    -3.3140    -1.9460 H     1 <1>   0.0800 
 43 H       -7.2590    -6.1200     2.3410 H     1 <1>   0.0800 
 44 H       -5.6850    -5.4060     2.2430 H     1 <1>   0.0800 
 45 H       -9.4460    -3.3430     0.0090 H     1 <1>   0.4000 
@<TRIPOS>BOND
  1   1   2  1   
  2   2   3  ar  
  3   2   4  ar  
  4   3   5  1   
  5   3   6  ar  
  6   4   7  ar  
  7   4  23  1   
  8   5   8  2   
  9   5   9  am  
 10   6  10  ar  
 11   6  24  1   
 12   7  10  ar  
 13   9  11  1   
 14   9  12  1   
 15  10  25  1   
 16  11  13  1   
 17  11  26  1   
 18  11  27  1   
 19  12  14  1   
 20  12  28  1   
 21  12  29  1   
 22  13  15  1   
 23  13  16  1   
 24  13  30  1   
 25  14  16  1   
 26  14  31  1   
 27  14  32  1   
 28  15  17  1   
 29  15  18  1   
 30  15  33  1   
 31  16  19  1   
 32  16  20  1   
 33  17  21  1   
 34  17  34  1   
 35  17  35  1   
 36  18  36  1   
 37  18  37  1   
 38  18  38  1   
 39  19  21  1   
 40  19  39  1   
 41  19  40  1   
 42  20  22  1   
 43  20  41  1   
 44  20  42  1   
 45  21  43  1   
 46  21  44  1   
 47  22  45  1   
@<TRIPOS>SUBSTRUCTURE
  1 ****   9 GROUP 4 **** **** 0

# MOE 2024.06 (io_trps.svl 2023.06)
