@<TRIPOS>MOLECULE
NONAME
40 42 1 0 0 
SMALL
USER_CHARGES


@<TRIPOS>ATOM
  1 F        0.5470    -1.3440     1.8720 F     1 <1>  -0.3400 
  2 C       -0.1200    -2.2720     1.1900 C.3   1 <1>   1.1640 
  3 F       -0.1630    -3.3310     1.9930 F     1 <1>  -0.3400 
  4 F       -1.3620    -1.8070     1.0960 F     1 <1>  -0.3400 
  5 C        0.5270    -2.5570    -0.1610 C.ar  1 <1>  -0.1440 
  6 C       -0.0600    -3.5010    -1.0020 C.ar  1 <1>   0.4100 
  7 C        1.6780    -1.9110    -0.5810 C.ar  1 <1>  -0.1500 
  8 N        0.4190    -3.8170    -2.2000 N.ar  1 <1>  -0.6200 
  9 N       -1.1990    -4.1780    -0.6250 N.pl3 1 <1>  -0.8380 
 10 C        2.1770    -2.2430    -1.8220 C.ar  1 <1>  -0.1500 
 11 C        1.5160    -3.1900    -2.5800 C.ar  1 <1>   0.1600 
 12 C       -2.4180    -3.9600    -1.4580 C.3   1 <1>   0.2090 
 13 C       -1.0590    -5.6490    -0.3940 C.3   1 <1>   0.2090 
 14 C       -3.2920    -5.1820    -1.1930 C.3   1 <1>   0.2000 
 15 C       -2.2680    -6.3070    -1.0670 C.3   1 <1>  -0.0800 
 16 O       -3.9280    -4.9940     0.0270 O.3   1 <1>  -0.6800 
 17 C       -2.7630    -7.5770    -0.3510 C.3   1 <1>   0.0210 
 18 C       -1.6640    -8.6180    -0.2680 C.2   1 <1>   0.1080 
 19 N       -1.1340    -9.1670    -1.3160 N.2   1 <1>  -0.7070 
 20 C       -1.1020    -9.0900     0.9130 C.2   1 <1>  -0.1500 
 21 N       -0.2100   -10.0140    -0.8270 N.pl3 1 <1>   0.3000 
 22 C       -0.1700    -9.9850     0.5220 C.2   1 <1>  -0.3320 
 23 C        0.7690   -10.8270     1.3650 C.3   1 <1>  -0.0600 
 24 H        2.1800    -1.1730     0.0240 H     1 <1>   0.1500 
 25 H        3.0680    -1.7740    -2.1990 H     1 <1>   0.1500 
 26 H        1.9100    -3.4450    -3.5490 H     1 <1>   0.1500 
 27 H       -2.9200    -3.0470    -1.1890 H     1 <1>   0.0800 
 28 H       -2.1490    -3.9260    -2.5000 H     1 <1>   0.0800 
 29 H       -0.1400    -6.0310    -0.8090 H     1 <1>   0.0800 
 30 H       -1.0670    -5.8350     0.6660 H     1 <1>   0.0800 
 31 H       -4.0340    -5.3550    -1.9530 H     1 <1>   0.0800 
 32 H       -1.9610    -6.5840    -2.0600 H     1 <1>   0.0800 
 33 H       -3.2700    -4.6040     0.6420 H     1 <1>   0.4000 
 34 H       -3.5920    -7.9930    -0.8940 H     1 <1>   0.0800 
 35 H       -3.1010    -7.3450     0.6430 H     1 <1>   0.0800 
 36 H       -1.3710    -8.7890     1.9090 H     1 <1>   0.1500 
 37 H        0.3740   -10.5960    -1.4390 H     1 <1>   0.2700 
 38 H        0.6100   -10.6250     2.4100 H     1 <1>   0.0800 
 39 H        1.7920   -10.6000     1.1240 H     1 <1>   0.0800 
 40 H        0.5900   -11.8730     1.1880 H     1 <1>   0.0800 
@<TRIPOS>BOND
  1   1   2  1   
  2   2   3  1   
  3   2   4  1   
  4   2   5  1   
  5   5   6  ar  
  6   5   7  ar  
  7   6   8  ar  
  8   6   9  1   
  9   7  10  ar  
 10   7  24  1   
 11   8  11  ar  
 12   9  12  1   
 13   9  13  1   
 14  10  11  ar  
 15  10  25  1   
 16  11  26  1   
 17  12  14  1   
 18  12  27  1   
 19  12  28  1   
 20  13  15  1   
 21  13  29  1   
 22  13  30  1   
 23  14  15  1   
 24  14  16  1   
 25  14  31  1   
 26  15  17  1   
 27  15  32  1   
 28  16  33  1   
 29  17  18  1   
 30  17  34  1   
 31  17  35  1   
 32  18  19  2   
 33  18  20  1   
 34  19  21  1   
 35  20  22  2   
 36  20  36  1   
 37  21  22  1   
 38  21  37  1   
 39  22  23  1   
 40  23  38  1   
 41  23  39  1   
 42  23  40  1   
@<TRIPOS>SUBSTRUCTURE
  1 ****  13 GROUP 4 **** **** 0

# MOE 2024.06 (io_trps.svl 2023.06)
