@<TRIPOS>MOLECULE
NONAME
52 54 1 0 0 
SMALL
USER_CHARGES


@<TRIPOS>ATOM
  1 O       -0.4980    -1.4800     2.4080 O.2   1 <1>  -0.5700 
  2 C        0.2240    -2.1700     1.7290 C.2   1 <1>   0.5690 
  3 N       -0.1840    -2.7760     0.5720 N.am  1 <1>  -0.6600 
  4 C        1.6570    -2.3880     2.1680 C.3   1 <1>  -0.0990 
  5 C        0.7540    -3.6310    -0.1980 C.3   1 <1>   0.1400 
  6 C       -1.5740    -2.6680     0.0560 C.3   1 <1>   0.0600 
  7 C        2.6120    -2.2250     0.9730 C.3   1 <1>  -0.0800 
  8 C        2.1320    -2.9470    -0.3090 C.3   1 <1>  -0.0800 
  9 C        4.0300    -2.7340     1.2610 C.3   1 <1>  -0.1600 
 10 C        3.2540    -3.9230    -0.6860 C.3   1 <1>  -0.1600 
 11 C        4.5090    -3.3060    -0.0680 C.3   1 <1>   0.2200 
 12 N        5.6590    -4.2470     0.1040 N.am  1 <1>  -0.6600 
 13 C        6.9610    -3.8990    -0.1710 C.2   1 <1>   0.5690 
 14 C        5.3620    -5.6250     0.6070 C.3   1 <1>   0.0600 
 15 O        7.8550    -4.7120    -0.1220 O.2   1 <1>  -0.5700 
 16 C        7.3190    -2.4660    -0.5450 C.3   1 <1>  -0.0990 
 17 C        8.8250    -2.1640    -0.5040 C.3   1 <1>  -0.0170 
 18 C        9.0710    -0.6910    -0.8130 C.ar  1 <1>  -0.1440 
 19 C        9.1430     0.2840     0.1800 C.ar  1 <1>  -0.1440 
 20 C        9.2180    -0.3220    -2.1420 C.ar  1 <1>  -0.1500 
 21 C        9.3600     1.6060    -0.1790 C.ar  1 <1>  -0.1500 
 22 C        8.9950    -0.0530     1.6580 C.3   1 <1>  -0.0970 
 23 C        9.4340     0.9990    -2.4910 C.ar  1 <1>  -0.1500 
 24 C        9.5040     1.9650    -1.5060 C.ar  1 <1>  -0.1500 
 25 H        1.9070    -1.6850     2.9410 H     1 <1>   0.0800 
 26 H        1.7260    -3.3790     2.5770 H     1 <1>   0.0800 
 27 H        0.8450    -4.5730     0.3150 H     1 <1>   0.0800 
 28 H        0.3630    -3.8190    -1.1830 H     1 <1>   0.0800 
 29 H       -1.5660    -2.2260    -0.9240 H     1 <1>   0.0800 
 30 H       -2.1710    -2.0510     0.7060 H     1 <1>   0.0800 
 31 H       -2.0210    -3.6460     0.0050 H     1 <1>   0.0800 
 32 H        2.6680    -1.1730     0.7440 H     1 <1>   0.0800 
 33 H        2.0620    -2.2070    -1.0890 H     1 <1>   0.0800 
 34 H        4.0010    -3.5110     2.0030 H     1 <1>   0.0800 
 35 H        4.6710    -1.9410     1.6020 H     1 <1>   0.0800 
 36 H        3.3510    -4.0240    -1.7520 H     1 <1>   0.0800 
 37 H        3.0430    -4.8810    -0.2510 H     1 <1>   0.0800 
 38 H        4.7930    -2.4840    -0.7020 H     1 <1>   0.0800 
 39 H        4.6090    -5.5940     1.3740 H     1 <1>   0.0800 
 40 H        6.2450    -6.0760     1.0270 H     1 <1>   0.0800 
 41 H        5.0200    -6.2400    -0.2060 H     1 <1>   0.0800 
 42 H        6.9550    -2.2720    -1.5360 H     1 <1>   0.0800 
 43 H        6.8260    -1.7980     0.1350 H     1 <1>   0.0800 
 44 H        9.3320    -2.7760    -1.2300 H     1 <1>   0.0800 
 45 H        9.2270    -2.4260     0.4580 H     1 <1>   0.0800 
 46 H        9.1660    -1.0660    -2.9170 H     1 <1>   0.1500 
 47 H        9.4190     2.3700     0.5760 H     1 <1>   0.1500 
 48 H        8.9770     0.8390     2.2570 H     1 <1>   0.0800 
 49 H        9.8240    -0.6580     1.9780 H     1 <1>   0.0800 
 50 H        8.0810    -0.5900     1.8310 H     1 <1>   0.0800 
 51 H        9.5470     1.2720    -3.5250 H     1 <1>   0.1500 
 52 H        9.6720     2.9940    -1.7710 H     1 <1>   0.1500 
@<TRIPOS>BOND
  1   1   2  2   
  2   2   3  am  
  3   2   4  1   
  4   3   5  1   
  5   3   6  1   
  6   4   7  1   
  7   4  25  1   
  8   4  26  1   
  9   5   8  1   
 10   5  27  1   
 11   5  28  1   
 12   6  29  1   
 13   6  30  1   
 14   6  31  1   
 15   7   8  1   
 16   7   9  1   
 17   7  32  1   
 18   8  10  1   
 19   8  33  1   
 20   9  11  1   
 21   9  34  1   
 22   9  35  1   
 23  10  11  1   
 24  10  36  1   
 25  10  37  1   
 26  11  12  1   
 27  11  38  1   
 28  12  13  am  
 29  12  14  1   
 30  13  15  2   
 31  13  16  1   
 32  14  39  1   
 33  14  40  1   
 34  14  41  1   
 35  16  17  1   
 36  16  42  1   
 37  16  43  1   
 38  17  18  1   
 39  17  44  1   
 40  17  45  1   
 41  18  19  ar  
 42  18  20  ar  
 43  19  21  ar  
 44  19  22  1   
 45  20  23  ar  
 46  20  46  1   
 47  21  24  ar  
 48  21  47  1   
 49  22  48  1   
 50  22  49  1   
 51  22  50  1   
 52  23  24  ar  
 53  23  51  1   
 54  24  52  1   
@<TRIPOS>SUBSTRUCTURE
  1 ****  11 GROUP 4 **** **** 0

# MOE 2024.06 (io_trps.svl 2023.06)
