@<TRIPOS>MOLECULE
NONAME
42 43 1 0 0 
SMALL
USER_CHARGES


@<TRIPOS>ATOM
  1 S        0.1510    -0.0720     0.8460 S.o2  1 <1>   1.3330 
  2 O       -0.6740    -1.1380     1.3560 O.2   1 <1>  -0.6500 
  3 O        1.2720     0.4320     1.6100 O.2   1 <1>  -0.6500 
  4 N        0.7460    -0.5250    -0.6770 N.am  1 <1>  -0.8490 
  5 C       -0.8660     1.3590     0.4670 C.3   1 <1>  -0.0550 
  6 C        1.9600    -1.3440    -0.5570 C.3   1 <1>   0.1160 
  7 C       -0.2400    -1.2700    -1.4740 C.3   1 <1>   0.1160 
  8 C       -0.1060     2.4670    -0.3020 C.3   1 <1>  -0.0800 
  9 C       -0.9190     3.7200    -0.6160 C.3   1 <1>   0.2000 
 10 C        1.1530     2.9890     0.4090 C.3   1 <1>   0.3430 
 11 O       -1.6970     4.0750     0.4810 O.3   1 <1>  -0.6800 
 12 C        0.1540     4.7830    -0.8560 C.3   1 <1>   0.3430 
 13 N        1.2680     4.4460     0.0890 N.4   1 <1>  -0.9590 
 14 C        2.6180     4.8210    -0.4180 C.3   1 <1>   0.5230 
 15 C        2.7520     6.3260    -0.4070 C.2   1 <1>  -0.1400 
 16 S        2.1110     7.2210    -1.7610 S.3   1 <1>  -0.0800 
 17 C        3.3040     7.1940     0.4580 C.2   1 <1>   0.0460 
 18 C        2.6520     8.7010    -1.0050 C.2   1 <1>   0.2280 
 19 N        3.2330     8.5300     0.1140 N.2   1 <1>  -0.5650 
 20 C        4.0040     6.8930     1.7680 C.3   1 <1>  -0.0590 
 21 H       -1.7100     1.0460    -0.1170 H     1 <1>   0.0800 
 22 H       -1.2510     1.7490     1.3900 H     1 <1>   0.0800 
 23 H        2.3280    -1.6150    -1.5320 H     1 <1>   0.0800 
 24 H        1.7530    -2.2430     0.0030 H     1 <1>   0.0800 
 25 H        2.7340    -0.7950    -0.0470 H     1 <1>   0.0800 
 26 H        0.1610    -1.4890    -2.4500 H     1 <1>   0.0800 
 27 H       -1.1380    -0.6910    -1.6010 H     1 <1>   0.0800 
 28 H       -0.4960    -2.1990    -0.9890 H     1 <1>   0.0800 
 29 H        0.2190     2.0530    -1.2410 H     1 <1>   0.0800 
 30 H       -1.5740     3.6000    -1.4640 H     1 <1>   0.0800 
 31 H        2.0180     2.4360     0.0770 H     1 <1>   0.0800 
 32 H        1.0560     2.8570     1.4750 H     1 <1>   0.0800 
 33 H       -1.1870     4.1760     1.3070 H     1 <1>   0.4000 
 34 H       -0.2320     5.7770    -0.6950 H     1 <1>   0.0800 
 35 H        0.5030     4.7000    -1.8720 H     1 <1>   0.0800 
 36 H        1.1230     4.9940     0.9470 H     1 <1>   0.4500 
 37 H        3.3740     4.4030     0.2270 H     1 <1>   0.0800 
 38 H        2.7740     4.4410    -1.4150 H     1 <1>   0.0800 
 39 H        2.4590     9.6250    -1.5240 H     1 <1>   0.1500 
 40 H        4.0200     5.8400     1.9750 H     1 <1>   0.0800 
 41 H        3.5000     7.4010     2.5710 H     1 <1>   0.0800 
 42 H        5.0160     7.2540     1.7240 H     1 <1>   0.0800 
@<TRIPOS>BOND
  1   1   2  2   
  2   1   3  2   
  3   1   4  am  
  4   1   5  1   
  5   4   6  1   
  6   4   7  1   
  7   5   8  1   
  8   5  21  1   
  9   5  22  1   
 10   6  23  1   
 11   6  24  1   
 12   6  25  1   
 13   7  26  1   
 14   7  27  1   
 15   7  28  1   
 16   8   9  1   
 17   8  10  1   
 18   8  29  1   
 19   9  11  1   
 20   9  12  1   
 21   9  30  1   
 22  10  13  1   
 23  10  31  1   
 24  10  32  1   
 25  11  33  1   
 26  12  13  1   
 27  12  34  1   
 28  12  35  1   
 29  13  14  1   
 30  13  36  1   
 31  14  15  1   
 32  14  37  1   
 33  14  38  1   
 34  15  16  1   
 35  15  17  2   
 36  16  18  1   
 37  17  19  1   
 38  17  20  1   
 39  18  19  2   
 40  18  39  1   
 41  20  40  1   
 42  20  41  1   
 43  20  42  1   
@<TRIPOS>SUBSTRUCTURE
  1 ****  10 GROUP 4 **** **** 0

# MOE 2024.06 (io_trps.svl 2023.06)
