@<TRIPOS>MOLECULE
NONAME
45 46 1 0 0 
SMALL
USER_CHARGES


@<TRIPOS>ATOM
  1 S        0.3650     0.1430    -0.2090 S.o2  1 <1>   1.3330 
  2 O       -0.5290     0.3950    -1.3100 O.2   1 <1>  -0.6500 
  3 O        1.1900    -1.0380    -0.1820 O.2   1 <1>  -0.6500 
  4 N        1.5140     1.4200    -0.1240 N.am  1 <1>  -0.7570 
  5 C       -0.5110     0.2430     1.3620 C.3   1 <1>  -0.0550 
  6 C        1.3970     2.7810    -0.3510 C.ar  1 <1>   0.1990 
  7 C       -1.3310     1.5260     1.5970 C.3   1 <1>  -0.2400 
  8 C        2.4810     3.5990    -0.0540 C.ar  1 <1>  -0.1500 
  9 C        0.2530     3.3890    -0.8620 C.ar  1 <1>  -0.1500 
 10 C        2.4230     4.9660    -0.2410 C.ar  1 <1>  -0.1500 
 11 C        0.1960     4.7570    -1.0470 C.ar  1 <1>  -0.1500 
 12 C        1.2720     5.5880    -0.7330 C.ar  1 <1>   0.0860 
 13 C        1.1870     7.0240    -0.9180 C.2   1 <1>   0.5440 
 14 O        0.4380     7.5060    -1.7460 O.2   1 <1>  -0.5700 
 15 N        1.9350     7.8730    -0.1560 N.am  1 <1>  -0.7300 
 16 C        2.0340     9.3210    -0.3620 C.3   1 <1>   0.3640 
 17 C        3.4570     9.7410    -0.0260 C.ar  1 <1>  -0.1430 
 18 C        0.9950    10.0180     0.5130 C.3   1 <1>  -0.2400 
 19 C        4.3020    10.1550    -1.0450 C.ar  1 <1>   0.1600 
 20 C        3.9510     9.7160     1.2660 C.ar  1 <1>  -0.1500 
 21 N        5.5580    10.5380    -0.8840 N.ar  1 <1>  -0.6200 
 22 C        5.2580    10.1140     1.4490 C.ar  1 <1>  -0.1500 
 23 C        6.0120    10.5120     0.3560 C.ar  1 <1>   0.1670 
 24 C        7.4480    10.9530     0.5410 C.3   1 <1>  -0.0970 
 25 H        2.4420     1.0230    -0.0130 H     1 <1>   0.4200 
 26 H        0.1980     0.1410     2.1600 H     1 <1>   0.0800 
 27 H       -1.1790    -0.5940     1.4240 H     1 <1>   0.0800 
 28 H       -0.6850     2.3840     1.6430 H     1 <1>   0.0800 
 29 H       -1.8690     1.4540     2.5250 H     1 <1>   0.0800 
 30 H       -2.0400     1.6660     0.7980 H     1 <1>   0.0800 
 31 H        3.3830     3.1550     0.3280 H     1 <1>   0.1500 
 32 H       -0.6040     2.7990    -1.1270 H     1 <1>   0.1500 
 33 H        3.2890     5.5610    -0.0100 H     1 <1>   0.1500 
 34 H       -0.7010     5.2010    -1.4460 H     1 <1>   0.1500 
 35 H        2.5640     7.5100     0.5570 H     1 <1>   0.3700 
 36 H        1.8240     9.5480    -1.3950 H     1 <1>   0.0800 
 37 H        1.1090     9.7480     1.5460 H     1 <1>   0.0800 
 38 H        0.0080     9.7430     0.1840 H     1 <1>   0.0800 
 39 H        1.0990    11.0830     0.4180 H     1 <1>   0.0800 
 40 H        3.9280    10.1700    -2.0550 H     1 <1>   0.1500 
 41 H        3.3500     9.4040     2.1020 H     1 <1>   0.1500 
 42 H        5.6860    10.1160     2.4340 H     1 <1>   0.1500 
 43 H        8.0940    10.3180    -0.0370 H     1 <1>   0.0800 
 44 H        7.7420    10.9050     1.5730 H     1 <1>   0.0800 
 45 H        7.5590    11.9640     0.1940 H     1 <1>   0.0800 
@<TRIPOS>BOND
  1   1   2  2   
  2   1   3  2   
  3   1   4  am  
  4   1   5  1   
  5   4   6  1   
  6   4  25  1   
  7   5   7  1   
  8   5  26  1   
  9   5  27  1   
 10   6   8  ar  
 11   6   9  ar  
 12   7  28  1   
 13   7  29  1   
 14   7  30  1   
 15   8  10  ar  
 16   8  31  1   
 17   9  11  ar  
 18   9  32  1   
 19  10  12  ar  
 20  10  33  1   
 21  11  12  ar  
 22  11  34  1   
 23  12  13  1   
 24  13  14  2   
 25  13  15  am  
 26  15  16  1   
 27  15  35  1   
 28  16  17  1   
 29  16  18  1   
 30  16  36  1   
 31  17  19  ar  
 32  17  20  ar  
 33  18  37  1   
 34  18  38  1   
 35  18  39  1   
 36  19  21  ar  
 37  19  40  1   
 38  20  22  ar  
 39  20  41  1   
 40  21  23  ar  
 41  22  23  ar  
 42  22  42  1   
 43  23  24  1   
 44  24  43  1   
 45  24  44  1   
 46  24  45  1   
@<TRIPOS>SUBSTRUCTURE
  1 ****  10 GROUP 4 **** **** 0

# MOE 2024.06 (io_trps.svl 2023.06)
