@<TRIPOS>MOLECULE
NONAME
53 56 1 0 0 
SMALL
USER_CHARGES


@<TRIPOS>ATOM
  1 O        0.1140    -1.5920     1.7340 O.2   1 <1>  -0.5700 
  2 C       -0.6340    -2.2330     1.0440 C.2   1 <1>   0.5690 
  3 N       -1.2550    -3.3560     1.4180 N.am  1 <1>  -0.7300 
  4 C       -1.0380    -1.8470    -0.3500 C.3   1 <1>  -0.0990 
  5 C       -2.2450    -3.8490     0.4360 C.3   1 <1>   0.2810 
  6 C       -2.2990    -2.6980    -0.5920 C.3   1 <1>  -0.1600 
  7 C       -3.6260    -4.2110     1.0330 C.2   1 <1>   0.5690 
  8 O       -3.8610    -3.8630     2.1690 O.2   1 <1>  -0.5700 
  9 N       -4.5550    -4.9180     0.3000 N.am  1 <1>  -0.6600 
 10 C       -4.3540    -5.4610    -1.0730 C.3   1 <1>   0.1400 
 11 C       -5.8960    -5.2460     0.8640 C.3   1 <1>   0.1400 
 12 C       -4.4870    -6.9850    -1.0300 C.3   1 <1>  -0.1600 
 13 C       -6.0560    -6.7660     0.9260 C.3   1 <1>  -0.1600 
 14 C       -5.8400    -7.4210    -0.4490 C.3   1 <1>   0.4240 
 15 O       -6.8010    -6.9000    -1.3380 O.3   1 <1>  -0.5600 
 16 C       -5.9170    -8.9590    -0.3570 C.ar  1 <1>  -0.1430 
 17 C       -8.0640    -7.4900    -1.3390 C.3   1 <1>   0.1200 
 18 C       -6.9110    -9.6710    -1.0210 C.ar  1 <1>  -0.1430 
 19 C       -4.9880    -9.6670     0.4000 C.ar  1 <1>  -0.1500 
 20 C       -7.9390    -8.9230    -1.8470 C.3   1 <1>  -0.0170 
 21 C       -6.9740   -11.0520    -0.9270 C.ar  1 <1>  -0.1500 
 22 C       -5.0350   -11.0470     0.4880 C.ar  1 <1>   0.0820 
 23 C       -6.0540   -11.7470    -0.1630 C.ar  1 <1>   0.0820 
 24 O       -4.0660   -11.6570     1.2140 O.3   1 <1>  -0.3630 
 25 O       -6.1980   -13.0930    -0.0810 O.3   1 <1>  -0.3620 
 26 C       -3.1810   -12.4930     0.5000 C.3   1 <1>   0.0400 
 27 C       -6.5230   -13.6090     1.1910 C.3   1 <1>   0.0400 
 28 H       -1.3860    -3.5790     2.4090 H     1 <1>   0.3700 
 29 H       -1.2430    -0.7940    -0.4100 H     1 <1>   0.0800 
 30 H       -0.2470    -2.1120    -1.0270 H     1 <1>   0.0800 
 31 H       -1.8270    -4.7280    -0.0200 H     1 <1>   0.0800 
 32 H       -2.3510    -3.0630    -1.6020 H     1 <1>   0.0800 
 33 H       -3.1720    -2.0990    -0.3980 H     1 <1>   0.0800 
 34 H       -5.1030    -5.0460    -1.7280 H     1 <1>   0.0800 
 35 H       -3.3900    -5.2000    -1.4680 H     1 <1>   0.0800 
 36 H       -6.0120    -4.8310     1.8500 H     1 <1>   0.0800 
 37 H       -6.6580    -4.8200     0.2330 H     1 <1>   0.0800 
 38 H       -3.6840    -7.3790    -0.4380 H     1 <1>   0.0800 
 39 H       -4.3870    -7.3890    -2.0210 H     1 <1>   0.0800 
 40 H       -7.0260    -7.0190     1.3080 H     1 <1>   0.0800 
 41 H       -5.3350    -7.1490     1.6250 H     1 <1>   0.0800 
 42 H       -8.4690    -7.4660    -0.3430 H     1 <1>   0.0800 
 43 H       -8.6970    -6.9140    -1.9910 H     1 <1>   0.0800 
 44 H       -4.2070    -9.1570     0.9330 H     1 <1>   0.1500 
 45 H       -8.8950    -9.4090    -1.7790 H     1 <1>   0.0800 
 46 H       -7.6370    -8.9130    -2.8790 H     1 <1>   0.0800 
 47 H       -7.7410   -11.6030    -1.4390 H     1 <1>   0.1500 
 48 H       -2.4090   -12.8190     1.1720 H     1 <1>   0.0800 
 49 H       -2.7520   -11.9310    -0.3110 H     1 <1>   0.0800 
 50 H       -3.7190   -13.3430     0.1210 H     1 <1>   0.0800 
 51 H       -6.7120   -14.6620     1.0880 H     1 <1>   0.0800 
 52 H       -7.4040   -13.1090     1.5530 H     1 <1>   0.0800 
 53 H       -5.7000   -13.4480     1.8630 H     1 <1>   0.0800 
@<TRIPOS>BOND
  1   1   2  2   
  2   2   3  am  
  3   2   4  1   
  4   3   5  1   
  5   3  28  1   
  6   4   6  1   
  7   4  29  1   
  8   4  30  1   
  9   5   6  1   
 10   5   7  1   
 11   5  31  1   
 12   6  32  1   
 13   6  33  1   
 14   7   8  2   
 15   7   9  am  
 16   9  10  1   
 17   9  11  1   
 18  10  12  1   
 19  10  34  1   
 20  10  35  1   
 21  11  13  1   
 22  11  36  1   
 23  11  37  1   
 24  12  14  1   
 25  12  38  1   
 26  12  39  1   
 27  13  14  1   
 28  13  40  1   
 29  13  41  1   
 30  14  15  1   
 31  14  16  1   
 32  15  17  1   
 33  16  18  ar  
 34  16  19  ar  
 35  17  20  1   
 36  17  42  1   
 37  17  43  1   
 38  18  20  1   
 39  18  21  ar  
 40  19  22  ar  
 41  19  44  1   
 42  20  45  1   
 43  20  46  1   
 44  21  23  ar  
 45  21  47  1   
 46  22  23  ar  
 47  22  24  1   
 48  23  25  1   
 49  24  26  1   
 50  25  27  1   
 51  26  48  1   
 52  26  49  1   
 53  26  50  1   
 54  27  51  1   
 55  27  52  1   
 56  27  53  1   
@<TRIPOS>SUBSTRUCTURE
  1 ****  12 GROUP 4 **** **** 0

# MOE 2024.06 (io_trps.svl 2023.06)
