@<TRIPOS>MOLECULE
NONAME
58 61 1 0 0 
SMALL
USER_CHARGES


@<TRIPOS>ATOM
  1 S       -1.1850    -1.3090     0.1250 S.o2  1 <1>   1.2040 
  2 O       -0.4620    -2.5550     0.2160 O.2   1 <1>  -0.6500 
  3 O       -2.4750    -1.3230    -0.5400 O.2   1 <1>  -0.6500 
  4 C       -0.1340     0.0010    -0.5420 C.ar  1 <1>  -0.0090 
  5 C       -1.4860    -0.7920     1.8200 C.3   1 <1>   0.0890 
  6 C        1.2480    -0.0500    -0.4000 C.ar  1 <1>  -0.1500 
  7 C       -0.6840     1.1080    -1.1790 C.ar  1 <1>  -0.1500 
  8 C       -2.4420     0.3940     1.9600 C.ar  1 <1>  -0.1440 
  9 C        2.0550     0.9710    -0.8710 C.ar  1 <1>  -0.1500 
 10 C        0.1160     2.1330    -1.6530 C.ar  1 <1>  -0.1500 
 11 C       -3.8150     0.2690     2.1970 C.ar  1 <1>  -0.1440 
 12 C       -1.8810     1.6600     1.8590 C.ar  1 <1>  -0.1500 
 13 C        1.4880     2.0650    -1.4970 C.ar  1 <1>  -0.1500 
 14 C       -4.5750     1.4210     2.3580 C.ar  1 <1>  -0.1500 
 15 C       -4.5450    -1.0670     2.3370 C.3   1 <1>   0.4860 
 16 C       -2.6560     2.7940     1.9950 C.ar  1 <1>  -0.1500 
 17 C       -4.0060     2.6740     2.2500 C.ar  1 <1>  -0.1500 
 18 N       -4.6810    -1.7740     1.0280 N.4   1 <1>  -0.9590 
 19 C       -5.9630    -1.5270     0.3080 C.3   1 <1>   0.4230 
 20 C       -4.4040    -3.2360     1.1960 C.3   1 <1>   0.2630 
 21 C       -6.0080    -2.2720    -1.0280 C.3   1 <1>  -0.1600 
 22 C       -6.1430    -0.0650    -0.0950 C.3   1 <1>  -0.1600 
 23 C       -6.9960    -1.4940    -1.9030 C.3   1 <1>  -0.0800 
 24 C       -7.0680    -0.0780    -1.3180 C.3   1 <1>  -0.0800 
 25 C       -8.4270    -2.0500    -1.8720 C.3   1 <1>  -0.1600 
 26 C       -8.5460     0.1800    -0.9840 C.3   1 <1>  -0.1600 
 27 C       -9.3100    -0.8130    -1.8450 C.3   1 <1>   0.2000 
 28 O      -10.5300    -1.1040    -1.2760 O.3   1 <1>  -0.6800 
 29 H       -1.8760    -1.6220     2.3720 H     1 <1>   0.0800 
 30 H       -0.5490    -0.5400     2.2800 H     1 <1>   0.0800 
 31 H        1.7070    -0.9000     0.0790 H     1 <1>   0.1500 
 32 H       -1.7510     1.1750    -1.3100 H     1 <1>   0.1500 
 33 H        3.1240     0.9140    -0.7540 H     1 <1>   0.1500 
 34 H       -0.3280     2.9820    -2.1450 H     1 <1>   0.1500 
 35 H       -0.8250     1.7870     1.6780 H     1 <1>   0.1500 
 36 H        2.1130     2.8610    -1.8660 H     1 <1>   0.1500 
 37 H       -5.6270     1.3650     2.5790 H     1 <1>   0.1500 
 38 H       -5.5200    -0.9040     2.7660 H     1 <1>   0.0800 
 39 H       -3.9890    -1.6800     3.0260 H     1 <1>   0.0800 
 40 H       -2.2070     3.7710     1.9110 H     1 <1>   0.1500 
 41 H       -4.6100     3.5590     2.3680 H     1 <1>   0.1500 
 42 H       -3.9480    -1.3960     0.3930 H     1 <1>   0.4500 
 43 H       -6.8050    -1.8350     0.9080 H     1 <1>   0.0800 
 44 H       -5.1810    -3.7030     1.7790 H     1 <1>   0.0800 
 45 H       -3.4580    -3.3860     1.6890 H     1 <1>   0.0800 
 46 H       -4.3540    -3.7200     0.2330 H     1 <1>   0.0800 
 47 H       -5.0410    -2.2270    -1.5000 H     1 <1>   0.0800 
 48 H       -6.3040    -3.2990    -0.9170 H     1 <1>   0.0800 
 49 H       -6.5640     0.5240     0.6960 H     1 <1>   0.0800 
 50 H       -5.1950     0.3510    -0.3930 H     1 <1>   0.0800 
 51 H       -6.6500    -1.4550    -2.9240 H     1 <1>   0.0800 
 52 H       -6.7350     0.6400    -2.0510 H     1 <1>   0.0800 
 53 H       -8.5890    -2.6310    -0.9810 H     1 <1>   0.0800 
 54 H       -8.6340    -2.6530    -2.7380 H     1 <1>   0.0800 
 55 H       -8.8300     1.1910    -1.2190 H     1 <1>   0.0800 
 56 H       -8.7410    -0.0160     0.0550 H     1 <1>   0.0800 
 57 H       -9.4690    -0.4260    -2.8390 H     1 <1>   0.0800 
 58 H      -10.4170    -1.4600    -0.3770 H     1 <1>   0.4000 
@<TRIPOS>BOND
  1   1   2  2   
  2   1   3  2   
  3   1   4  1   
  4   1   5  1   
  5   4   6  ar  
  6   4   7  ar  
  7   5   8  1   
  8   5  29  1   
  9   5  30  1   
 10   6   9  ar  
 11   6  31  1   
 12   7  10  ar  
 13   7  32  1   
 14   8  11  ar  
 15   8  12  ar  
 16   9  13  ar  
 17   9  33  1   
 18  10  13  ar  
 19  10  34  1   
 20  11  14  ar  
 21  11  15  1   
 22  12  16  ar  
 23  12  35  1   
 24  13  36  1   
 25  14  17  ar  
 26  14  37  1   
 27  15  18  1   
 28  15  38  1   
 29  15  39  1   
 30  16  17  ar  
 31  16  40  1   
 32  17  41  1   
 33  18  19  1   
 34  18  20  1   
 35  18  42  1   
 36  19  21  1   
 37  19  22  1   
 38  19  43  1   
 39  20  44  1   
 40  20  45  1   
 41  20  46  1   
 42  21  23  1   
 43  21  47  1   
 44  21  48  1   
 45  22  24  1   
 46  22  49  1   
 47  22  50  1   
 48  23  24  1   
 49  23  25  1   
 50  23  51  1   
 51  24  26  1   
 52  24  52  1   
 53  25  27  1   
 54  25  53  1   
 55  25  54  1   
 56  26  27  1   
 57  26  55  1   
 58  26  56  1   
 59  27  28  1   
 60  27  57  1   
 61  28  58  1   
@<TRIPOS>SUBSTRUCTURE
  1 ****   3 GROUP 4 **** **** 0

# MOE 2024.06 (io_trps.svl 2023.06)
