@<TRIPOS>MOLECULE
NONAME
46 48 1 0 0 
SMALL
USER_CHARGES


@<TRIPOS>ATOM
  1 O        1.6350     0.3770     2.4660 O.co2 1 <1>  -0.9000 
  2 C        1.5070    -0.0770     1.3240 C.2   1 <1>   0.9060 
  3 O        1.0660    -1.2180     1.1230 O.co2 1 <1>  -0.9000 
  4 C        2.0000     0.7180     0.1130 C.3   1 <1>  -0.1060 
  5 C        3.2370    -0.0940    -0.3480 C.3   1 <1>   0.2000 
  6 C        2.4300     2.1730     0.4750 C.3   1 <1>  -0.1600 
  7 C        0.8880     0.7880    -0.9770 C.3   1 <1>  -0.0170 
  8 O        2.8440    -1.1690    -1.1290 O.3   1 <1>  -0.6800 
  9 C        4.2850     0.7620    -1.0710 C.3   1 <1>   0.1400 
 10 C        3.8790     2.2500     0.9550 C.3   1 <1>   0.1400 
 11 C       -0.2330     1.7820    -0.6790 C.ar  1 <1>  -0.1440 
 12 N        4.7990     1.8470    -0.1610 N.am  1 <1>  -0.6600 
 13 C       -1.1380     1.5320     0.3400 C.ar  1 <1>  -0.1500 
 14 C       -0.3610     2.9440    -1.4270 C.ar  1 <1>  -0.1500 
 15 C        6.0390     2.3920    -0.3870 C.2   1 <1>   0.5690 
 16 C       -2.1530     2.4320     0.6140 C.ar  1 <1>  -0.1500 
 17 C       -1.3770     3.8450    -1.1570 C.ar  1 <1>  -0.1500 
 18 O        6.6720     2.1080    -1.3780 O.2   1 <1>  -0.5700 
 19 C        6.6520     3.3830     0.6050 C.3   1 <1>  -0.0190 
 20 C       -2.2740     3.5900    -0.1350 C.ar  1 <1>  -0.1500 
 21 C        6.2640     4.8480     0.3150 C.3   1 <1>  -0.0220 
 22 C        8.1960     3.3590     0.7050 C.3   1 <1>  -0.0220 
 23 C        7.4960     5.6100     0.7380 C.2   1 <1>  -0.2880 
 24 C        8.5330     4.8100     0.9490 C.2   1 <1>  -0.2880 
 25 H        3.7260    -0.5180     0.5140 H     1 <1>   0.0800 
 26 H        1.7770     2.5650     1.2350 H     1 <1>   0.0800 
 27 H        2.3400     2.8180    -0.3800 H     1 <1>   0.0800 
 28 H        1.3420     1.0490    -1.9160 H     1 <1>   0.0800 
 29 H        0.4420    -0.1820    -1.1130 H     1 <1>   0.0800 
 30 H        2.1530    -1.6420    -0.5970 H     1 <1>   0.4000 
 31 H        3.8460     1.2130    -1.9420 H     1 <1>   0.0800 
 32 H        5.1020     0.1320    -1.3770 H     1 <1>   0.0800 
 33 H        4.0150     1.5920     1.7980 H     1 <1>   0.0800 
 34 H        4.0800     3.2560     1.2720 H     1 <1>   0.0800 
 35 H       -1.0510     0.6330     0.9300 H     1 <1>   0.1500 
 36 H        0.3320     3.1500    -2.2220 H     1 <1>   0.1500 
 37 H       -2.8430     2.2250     1.4130 H     1 <1>   0.1500 
 38 H       -1.4680     4.7420    -1.7410 H     1 <1>   0.1500 
 39 H        6.3000     3.1440     1.5910 H     1 <1>   0.0800 
 40 H       -3.0630     4.2880     0.0800 H     1 <1>   0.1500 
 41 H        6.0830     5.0020    -0.7350 H     1 <1>   0.0800 
 42 H        5.4010     5.1440     0.8840 H     1 <1>   0.0800 
 43 H        8.5190     2.7320     1.5170 H     1 <1>   0.0800 
 44 H        8.6620     3.0360    -0.2100 H     1 <1>   0.0800 
 45 H        7.4440     6.6840     0.8160 H     1 <1>   0.1500 
 46 H        9.5370     5.0680     1.2430 H     1 <1>   0.1500 
@<TRIPOS>BOND
  1   1   2  ar  
  2   2   3  ar  
  3   2   4  1   
  4   4   5  1   
  5   4   6  1   
  6   4   7  1   
  7   5   8  1   
  8   5   9  1   
  9   5  25  1   
 10   6  10  1   
 11   6  26  1   
 12   6  27  1   
 13   7  11  1   
 14   7  28  1   
 15   7  29  1   
 16   8  30  1   
 17   9  12  1   
 18   9  31  1   
 19   9  32  1   
 20  10  12  1   
 21  10  33  1   
 22  10  34  1   
 23  11  13  ar  
 24  11  14  ar  
 25  12  15  am  
 26  13  16  ar  
 27  13  35  1   
 28  14  17  ar  
 29  14  36  1   
 30  15  18  2   
 31  15  19  1   
 32  16  20  ar  
 33  16  37  1   
 34  17  20  ar  
 35  17  38  1   
 36  19  21  1   
 37  19  22  1   
 38  19  39  1   
 39  20  40  1   
 40  21  23  1   
 41  21  41  1   
 42  21  42  1   
 43  22  24  1   
 44  22  43  1   
 45  22  44  1   
 46  23  24  2   
 47  23  45  1   
 48  24  46  1   
@<TRIPOS>SUBSTRUCTURE
  1 ****   6 GROUP 4 **** **** 0

# MOE 2024.06 (io_trps.svl 2023.06)
