@<TRIPOS>MOLECULE
NONAME
55 57 1 0 0 
SMALL
USER_CHARGES


@<TRIPOS>ATOM
  1 S        0.0500     2.0800    -1.2410 S.o2  1 <1>   1.3330 
  2 O       -0.8880     3.1220    -1.5940 O.2   1 <1>  -0.6500 
  3 O        0.3230     1.0340    -2.1990 O.2   1 <1>  -0.6500 
  4 N        1.5340     2.8130    -0.8750 N.am  1 <1>  -0.8490 
  5 C       -0.5190     1.3010     0.2840 C.3   1 <1>  -0.0550 
  6 C        1.8740     3.8850    -1.8160 C.3   1 <1>   0.1160 
  7 C        2.6540     1.8740    -0.7690 C.3   1 <1>   0.1160 
  8 C       -0.7390     2.1450     1.5680 C.3   1 <1>  -0.0800 
  9 C       -1.5270     3.4440     1.3690 C.3   1 <1>   0.2000 
 10 C        0.5600     2.5880     2.2480 C.3   1 <1>   0.1400 
 11 O       -2.2330     3.6820     2.5380 O.3   1 <1>  -0.6800 
 12 C       -0.4700     4.5410     1.2250 C.3   1 <1>   0.1400 
 13 N        0.7470     4.0180     1.9030 N.am  1 <1>  -0.6600 
 14 C        2.0170     4.5500     1.7580 C.2   1 <1>   0.7150 
 15 O        2.9430     3.9090     2.2320 O.2   1 <1>  -0.5700 
 16 C        2.2940     5.8020     1.0680 C.2   1 <1>   0.0550 
 17 O        1.3450     6.7200     0.8820 O.3   1 <1>  -0.2800 
 18 C        3.4510     6.2840     0.5190 C.2   1 <1>  -0.1810 
 19 C        1.8480     7.7490     0.2400 C.2   1 <1>  -0.0400 
 20 C        3.1560     7.5390    -0.0140 C.2   1 <1>  -0.1500 
 21 C        4.8350     5.6620     0.4470 C.3   1 <1>  -0.0590 
 22 C        0.9420     8.9230    -0.0870 C.3   1 <1>   0.3000 
 23 O        1.6620     9.8860    -0.8280 O.3   1 <1>  -0.3630 
 24 C        1.0700    11.0300    -1.2530 C.ar  1 <1>   0.0820 
 25 C       -0.2510    11.3730    -0.9750 C.ar  1 <1>  -0.1500 
 26 C        1.8530    11.8900    -2.0070 C.ar  1 <1>  -0.1500 
 27 C       -0.7720    12.5640    -1.4520 C.ar  1 <1>  -0.1500 
 28 C        1.3310    13.0800    -2.4830 C.ar  1 <1>  -0.1500 
 29 C        0.0170    13.4170    -2.2050 C.ar  1 <1>  -0.1500 
 30 H       -1.4580     0.8340     0.0570 H     1 <1>   0.0800 
 31 H        0.1560     0.5040     0.5250 H     1 <1>   0.0800 
 32 H        2.8130     4.3370    -1.5450 H     1 <1>   0.0800 
 33 H        1.1170     4.6510    -1.7940 H     1 <1>   0.0800 
 34 H        1.9430     3.4960    -2.8180 H     1 <1>   0.0800 
 35 H        3.5350     2.3910    -0.4270 H     1 <1>   0.0800 
 36 H        2.8590     1.4210    -1.7260 H     1 <1>   0.0800 
 37 H        2.4250     1.0970    -0.0610 H     1 <1>   0.0800 
 38 H       -1.2720     1.5030     2.2490 H     1 <1>   0.0800 
 39 H       -2.2300     3.4170     0.5540 H     1 <1>   0.0800 
 40 H        1.4010     1.9970     1.9250 H     1 <1>   0.0800 
 41 H        0.4700     2.5040     3.3170 H     1 <1>   0.0800 
 42 H       -1.6030     3.9060     3.2520 H     1 <1>   0.4000 
 43 H       -0.7990     5.4630     1.6710 H     1 <1>   0.0800 
 44 H       -0.2500     4.7160     0.1880 H     1 <1>   0.0800 
 45 H        3.8440     8.1930    -0.5190 H     1 <1>   0.1500 
 46 H        5.2340     5.7690    -0.5450 H     1 <1>   0.0800 
 47 H        4.8040     4.6160     0.6890 H     1 <1>   0.0800 
 48 H        5.4900     6.1560     1.1410 H     1 <1>   0.0800 
 49 H        0.5950     9.3810     0.8220 H     1 <1>   0.0800 
 50 H        0.1100     8.5900    -0.6800 H     1 <1>   0.0800 
 51 H       -0.8890    10.7350    -0.3940 H     1 <1>   0.1500 
 52 H        2.8720    11.6220    -2.2180 H     1 <1>   0.1500 
 53 H       -1.7920    12.8300    -1.2380 H     1 <1>   0.1500 
 54 H        1.9450    13.7410    -3.0680 H     1 <1>   0.1500 
 55 H       -0.3900    14.3420    -2.5750 H     1 <1>   0.1500 
@<TRIPOS>BOND
  1   1   2  2   
  2   1   3  2   
  3   1   4  am  
  4   1   5  1   
  5   4   6  1   
  6   4   7  1   
  7   5   8  1   
  8   5  30  1   
  9   5  31  1   
 10   6  32  1   
 11   6  33  1   
 12   6  34  1   
 13   7  35  1   
 14   7  36  1   
 15   7  37  1   
 16   8   9  1   
 17   8  10  1   
 18   8  38  1   
 19   9  11  1   
 20   9  12  1   
 21   9  39  1   
 22  10  13  1   
 23  10  40  1   
 24  10  41  1   
 25  11  42  1   
 26  12  13  1   
 27  12  43  1   
 28  12  44  1   
 29  13  14  am  
 30  14  15  2   
 31  14  16  1   
 32  16  17  1   
 33  16  18  2   
 34  17  19  1   
 35  18  20  1   
 36  18  21  1   
 37  19  20  2   
 38  19  22  1   
 39  20  45  1   
 40  21  46  1   
 41  21  47  1   
 42  21  48  1   
 43  22  23  1   
 44  22  49  1   
 45  22  50  1   
 46  23  24  1   
 47  24  25  ar  
 48  24  26  ar  
 49  25  27  ar  
 50  25  51  1   
 51  26  28  ar  
 52  26  52  1   
 53  27  29  ar  
 54  27  53  1   
 55  28  29  ar  
 56  28  54  1   
 57  29  55  1   
@<TRIPOS>SUBSTRUCTURE
  1 ****  17 GROUP 4 **** **** 0

# MOE 2024.06 (io_trps.svl 2023.06)
