@<TRIPOS>MOLECULE
NONAME
54 57 1 0 0 
SMALL
USER_CHARGES


@<TRIPOS>ATOM
  1 O       -3.2770     2.4400    -0.8500 O.2   1 <1>  -0.5700 
  2 C       -2.2230     3.0310    -0.7120 C.2   1 <1>   0.5440 
  3 N       -1.4310     2.6840     0.3710 N.am  1 <1>  -0.6600 
  4 C       -1.8260     4.0400    -1.6900 C.ar  1 <1>   0.3960 
  5 C       -1.3900     1.2790     0.8640 C.3   1 <1>   0.1400 
  6 C       -0.2750     3.5070     0.8380 C.3   1 <1>   0.1400 
  7 N       -0.5530     4.0710    -2.1160 N.ar  1 <1>  -0.6200 
  8 C       -2.7770     4.9540    -2.1470 C.ar  1 <1>   0.1600 
  9 C       -0.0640     0.6190     0.4300 C.3   1 <1>   0.3430 
 10 C        1.0480     2.8610     0.3880 C.3   1 <1>   0.3430 
 11 C       -0.3020     5.0410    -2.9780 C.ar  1 <1>   0.4100 
 12 N       -2.5410     5.9390    -3.0030 N.ar  1 <1>  -0.6200 
 13 N        1.1490     1.4230     0.8400 N.4   1 <1>  -0.9590 
 14 N        1.0070     5.1460    -3.4110 N.pl3 1 <1>  -0.8380 
 15 C       -1.2880     5.9410    -3.4110 C.ar  1 <1>   0.1600 
 16 C        2.4060     0.8120     0.3170 C.3   1 <1>   0.2630 
 17 C        1.8800     6.1980    -2.8030 C.3   1 <1>   0.3890 
 18 C        1.7390     3.9030    -3.7830 C.3   1 <1>   0.1290 
 19 C        1.8410     6.1720    -1.2770 C.2   1 <1>   0.0060 
 20 N        0.8750     6.8330    -0.5880 N.pl3 1 <1>   0.0330 
 21 N        2.6930     5.5640    -0.5190 N.2   1 <1>  -0.5650 
 22 C        1.1410     6.6220     0.7240 C.ar  1 <1>  -0.1520 
 23 C        2.2920     5.8570     0.7520 C.ar  1 <1>   0.2270 
 24 C        0.4930     7.0060     1.8990 C.ar  1 <1>  -0.1500 
 25 C        2.8540     5.4770     1.9760 C.ar  1 <1>  -0.1440 
 26 C        1.0360     6.6110     3.1000 C.ar  1 <1>  -0.1500 
 27 C        2.2140     5.8540     3.1390 C.ar  1 <1>  -0.1500 
 28 C        4.1550     4.6910     2.0040 C.3   1 <1>  -0.0970 
 29 H       -2.2150     0.7140     0.4630 H     1 <1>   0.0800 
 30 H       -1.4800     1.2710     1.9360 H     1 <1>   0.0800 
 31 H       -0.2970     3.5880     1.9110 H     1 <1>   0.0800 
 32 H       -0.3450     4.5020     0.4440 H     1 <1>   0.0800 
 33 H       -3.7850     4.8590    -1.7760 H     1 <1>   0.1500 
 34 H       -0.0800     0.5180    -0.6430 H     1 <1>   0.0800 
 35 H       -0.0090    -0.3700     0.8530 H     1 <1>   0.0800 
 36 H        1.8710     3.4280     0.7850 H     1 <1>   0.0800 
 37 H        1.1050     2.9160    -0.6870 H     1 <1>   0.0800 
 38 H        1.1850     1.4350     1.8690 H     1 <1>   0.4500 
 39 H       -0.9960     6.6860    -4.1280 H     1 <1>   0.1500 
 40 H        2.3920     0.7980    -0.7610 H     1 <1>   0.0800 
 41 H        2.5100    -0.1990     0.6760 H     1 <1>   0.0800 
 42 H        3.2610     1.3820     0.6420 H     1 <1>   0.0800 
 43 H        1.5690     7.1650    -3.1570 H     1 <1>   0.0800 
 44 H        2.8980     6.0500    -3.1230 H     1 <1>   0.0800 
 45 H        1.0450     3.1500    -4.1160 H     1 <1>   0.0800 
 46 H        2.2820     3.5290    -2.9320 H     1 <1>   0.0800 
 47 H        2.4290     4.1110    -4.5820 H     1 <1>   0.0800 
 48 H        0.0940     7.3730    -0.9720 H     1 <1>   0.2700 
 49 H       -0.4050     7.5990     1.8610 H     1 <1>   0.1500 
 50 H        0.5640     6.8920     4.0270 H     1 <1>   0.1500 
 51 H        2.6190     5.5840     4.0990 H     1 <1>   0.1500 
 52 H        4.0690     3.8030     1.4070 H     1 <1>   0.0800 
 53 H        4.4190     4.4140     3.0090 H     1 <1>   0.0800 
 54 H        4.9450     5.2980     1.5980 H     1 <1>   0.0800 
@<TRIPOS>BOND
  1   1   2  2   
  2   2   3  am  
  3   2   4  1   
  4   3   5  1   
  5   3   6  1   
  6   4   7  ar  
  7   4   8  ar  
  8   5   9  1   
  9   5  29  1   
 10   5  30  1   
 11   6  10  1   
 12   6  31  1   
 13   6  32  1   
 14   7  11  ar  
 15   8  12  ar  
 16   8  33  1   
 17   9  13  1   
 18   9  34  1   
 19   9  35  1   
 20  10  13  1   
 21  10  36  1   
 22  10  37  1   
 23  11  14  1   
 24  11  15  ar  
 25  12  15  ar  
 26  13  16  1   
 27  13  38  1   
 28  14  17  1   
 29  14  18  1   
 30  15  39  1   
 31  16  40  1   
 32  16  41  1   
 33  16  42  1   
 34  17  19  1   
 35  17  43  1   
 36  17  44  1   
 37  18  45  1   
 38  18  46  1   
 39  18  47  1   
 40  19  20  1   
 41  19  21  2   
 42  20  22  1   
 43  20  48  1   
 44  21  23  1   
 45  22  23  ar  
 46  22  24  ar  
 47  23  25  ar  
 48  24  26  ar  
 49  24  49  1   
 50  25  27  ar  
 51  25  28  1   
 52  26  27  ar  
 53  26  50  1   
 54  27  51  1   
 55  28  52  1   
 56  28  53  1   
 57  28  54  1   
@<TRIPOS>SUBSTRUCTURE
  1 ****   6 GROUP 4 **** **** 0

# MOE 2024.06 (io_trps.svl 2023.06)
