@<TRIPOS>MOLECULE
NONAME
53 56 1 0 0 
SMALL
USER_CHARGES


@<TRIPOS>ATOM
  1 O        2.5730    -0.8410     2.3980 O.2   1 <1>  -0.5700 
  2 C        1.8930    -1.2970     1.4920 C.2   1 <1>   0.5440 
  3 N        1.2430    -0.3850     0.6770 N.am  1 <1>  -0.6600 
  4 C        1.8400    -2.7520     1.3160 C.ar  1 <1>   0.3960 
  5 C        1.4050     1.0790     0.8280 C.3   1 <1>   0.1400 
  6 C        0.4500    -0.7030    -0.5330 C.3   1 <1>   0.1400 
  7 N        0.7600    -3.3540     0.7900 N.ar  1 <1>  -0.6200 
  8 C        2.9550    -3.4930     1.7240 C.ar  1 <1>   0.1600 
  9 C        1.0110     1.6520    -0.5270 C.3   1 <1>  -0.1600 
 10 C        0.0110     0.6470    -1.0910 C.3   1 <1>  -0.1600 
 11 C        0.8660    -4.6690     0.7010 C.ar  1 <1>   0.4100 
 12 N        3.0880    -4.8100     1.6330 N.ar  1 <1>  -0.6200 
 13 N       -0.2280    -5.3480     0.1900 N.pl3 1 <1>  -0.8380 
 14 C        2.0150    -5.3630     1.1090 C.ar  1 <1>   0.1600 
 15 C       -1.0660    -4.6940    -0.8520 C.3   1 <1>   0.2090 
 16 C       -0.9750    -6.2430     1.1100 C.3   1 <1>   0.2090 
 17 C       -1.7770    -5.7650    -1.6770 C.3   1 <1>  -0.1600 
 18 C       -1.6830    -7.3270     0.3000 C.3   1 <1>  -0.1600 
 19 C       -2.5820    -6.6970    -0.7710 C.3   1 <1>   0.2000 
 20 O       -3.1240    -7.7150    -1.5850 O.3   1 <1>  -0.3630 
 21 C       -4.1360    -8.5270    -1.1840 C.ar  1 <1>   0.0820 
 22 C       -4.8840    -8.3370    -0.0250 C.ar  1 <1>  -0.1500 
 23 C       -4.4200    -9.6070    -2.0030 C.ar  1 <1>  -0.1500 
 24 C       -5.8960    -9.2250     0.3000 C.ar  1 <1>  -0.1500 
 25 C       -5.4320   -10.4920    -1.6740 C.ar  1 <1>  -0.1500 
 26 C       -6.1740   -10.3070    -0.5190 C.ar  1 <1>  -0.1430 
 27 C       -7.2850   -11.2760    -0.1600 C.3   1 <1>  -0.0970 
 28 H        2.4180     1.3350     1.0880 H     1 <1>   0.0800 
 29 H        0.7360     1.4250     1.5970 H     1 <1>   0.0800 
 30 H       -0.4040    -1.3080    -0.2830 H     1 <1>   0.0800 
 31 H        1.0740    -1.2230    -1.2400 H     1 <1>   0.0800 
 32 H        3.7870    -2.9580     2.1470 H     1 <1>   0.1500 
 33 H        1.8850     1.6910    -1.1550 H     1 <1>   0.0800 
 34 H        0.5980     2.6400    -0.4380 H     1 <1>   0.0800 
 35 H       -0.9750     0.8710    -0.7220 H     1 <1>   0.0800 
 36 H       -0.0090     0.6480    -2.1660 H     1 <1>   0.0800 
 37 H        2.0150    -6.4290     0.9800 H     1 <1>   0.1500 
 38 H       -0.4430    -4.0950    -1.4950 H     1 <1>   0.0800 
 39 H       -1.7840    -4.0470    -0.3760 H     1 <1>   0.0800 
 40 H       -1.6960    -5.6610     1.6600 H     1 <1>   0.0800 
 41 H       -0.3010    -6.6980     1.8160 H     1 <1>   0.0800 
 42 H       -1.0400    -6.3290    -2.2190 H     1 <1>   0.0800 
 43 H       -2.4350    -5.2910    -2.3820 H     1 <1>   0.0800 
 44 H       -2.2650    -7.9370     0.9650 H     1 <1>   0.0800 
 45 H       -0.9410    -7.9490    -0.1700 H     1 <1>   0.0800 
 46 H       -3.3870    -6.1400    -0.3270 H     1 <1>   0.0800 
 47 H       -4.7020    -7.5110     0.6320 H     1 <1>   0.1500 
 48 H       -3.8440    -9.7500    -2.8980 H     1 <1>   0.1500 
 49 H       -6.4700    -9.0690     1.1970 H     1 <1>   0.1500 
 50 H       -5.6380   -11.3250    -2.3230 H     1 <1>   0.1500 
 51 H       -7.4020   -11.3360     0.9070 H     1 <1>   0.0800 
 52 H       -7.0600   -12.2600    -0.5310 H     1 <1>   0.0800 
 53 H       -8.2110   -10.9450    -0.5940 H     1 <1>   0.0800 
@<TRIPOS>BOND
  1   1   2  2   
  2   2   3  am  
  3   2   4  1   
  4   3   5  1   
  5   3   6  1   
  6   4   7  ar  
  7   4   8  ar  
  8   5   9  1   
  9   5  28  1   
 10   5  29  1   
 11   6  10  1   
 12   6  30  1   
 13   6  31  1   
 14   7  11  ar  
 15   8  12  ar  
 16   8  32  1   
 17   9  10  1   
 18   9  33  1   
 19   9  34  1   
 20  10  35  1   
 21  10  36  1   
 22  11  13  1   
 23  11  14  ar  
 24  12  14  ar  
 25  13  15  1   
 26  13  16  1   
 27  14  37  1   
 28  15  17  1   
 29  15  38  1   
 30  15  39  1   
 31  16  18  1   
 32  16  40  1   
 33  16  41  1   
 34  17  19  1   
 35  17  42  1   
 36  17  43  1   
 37  18  19  1   
 38  18  44  1   
 39  18  45  1   
 40  19  20  1   
 41  19  46  1   
 42  20  21  1   
 43  21  22  ar  
 44  21  23  ar  
 45  22  24  ar  
 46  22  47  1   
 47  23  25  ar  
 48  23  48  1   
 49  24  26  ar  
 50  24  49  1   
 51  25  26  ar  
 52  25  50  1   
 53  26  27  1   
 54  27  51  1   
 55  27  52  1   
 56  27  53  1   
@<TRIPOS>SUBSTRUCTURE
  1 ****  13 GROUP 4 **** **** 0

# MOE 2024.06 (io_trps.svl 2023.06)
