@<TRIPOS>MOLECULE
NONAME
45 48 1 0 0 
SMALL
USER_CHARGES


@<TRIPOS>ATOM
  1 F        0.0360    -0.5410     0.6750 F     1 <1>  -0.1900 
  2 C        0.4510    -1.7460     0.3910 C.ar  1 <1>   0.1900 
  3 C       -0.4080    -2.8080     0.5820 C.ar  1 <1>  -0.1500 
  4 C        1.7350    -1.9060    -0.0910 C.ar  1 <1>  -0.1500 
  5 C        0.0090    -4.1060     0.2850 C.ar  1 <1>   0.0530 
  6 C        2.1650    -3.1870    -0.3890 C.ar  1 <1>  -0.1500 
  7 C       -0.8770    -5.2360     0.4780 C.2   1 <1>   0.4250 
  8 C        1.3130    -4.2640    -0.2030 C.ar  1 <1>  -0.1500 
  9 O       -0.4680    -6.4500     0.1910 O.3   1 <1>  -0.2800 
 10 N       -2.0870    -5.1980     0.9190 N.2   1 <1>  -0.3380 
 11 C       -1.5300    -7.1380     0.4970 C.2   1 <1>   0.2980 
 12 N       -2.5070    -6.4410     0.9330 N.2   1 <1>  -0.3380 
 13 C       -1.4660    -8.6570     0.3020 C.3   1 <1>   0.2900 
 14 N       -2.7610    -9.3690     0.4200 N.3   1 <1>  -0.8100 
 15 C       -3.7490    -8.9920    -0.6020 C.3   1 <1>   0.1100 
 16 C       -2.6380   -10.8340     0.3600 C.3   1 <1>   0.1100 
 17 C       -4.7780   -10.1130    -0.5360 C.3   1 <1>   0.2000 
 18 C       -3.8960   -11.3530    -0.3600 C.3   1 <1>  -0.0800 
 19 O       -5.5270    -9.9090     0.6080 O.3   1 <1>  -0.6800 
 20 C       -4.5720   -12.5370     0.3580 C.3   1 <1>   0.0200 
 21 C       -3.7140   -13.7920     0.3710 C.2   1 <1>  -0.0400 
 22 O       -4.0900   -14.8010     1.1100 O.3   1 <1>  -0.0190 
 23 C       -2.5730   -14.1420    -0.2460 C.2   1 <1>  -0.1500 
 24 N       -3.2630   -15.8030     1.0250 N.2   1 <1>  -0.4100 
 25 C       -2.3390   -15.4350     0.2130 C.2   1 <1>   0.1080 
 26 C       -1.1630   -16.3000    -0.1820 C.3   1 <1>  -0.0590 
 27 H       -1.3990    -2.6240     0.9600 H     1 <1>   0.1500 
 28 H        2.3750    -1.0520    -0.2260 H     1 <1>   0.1500 
 29 H        3.1620    -3.3450    -0.7660 H     1 <1>   0.1500 
 30 H        1.6710    -5.2500    -0.4420 H     1 <1>   0.1500 
 31 H       -0.7920    -9.0480     1.0430 H     1 <1>   0.0800 
 32 H       -1.0420    -8.8540    -0.6670 H     1 <1>   0.0800 
 33 H       -4.1950    -8.0330    -0.3970 H     1 <1>   0.0800 
 34 H       -3.2920    -8.9760    -1.5760 H     1 <1>   0.0800 
 35 H       -1.7580   -11.1270    -0.1870 H     1 <1>   0.0800 
 36 H       -2.5730   -11.2230     1.3630 H     1 <1>   0.0800 
 37 H       -5.4360   -10.1580    -1.3860 H     1 <1>   0.0800 
 38 H       -3.6020   -11.6760    -1.3420 H     1 <1>   0.0800 
 39 H       -4.9030    -9.5780     1.2910 H     1 <1>   0.4000 
 40 H       -5.5050   -12.7650    -0.1270 H     1 <1>   0.0800 
 41 H       -4.7930   -12.2670     1.3760 H     1 <1>   0.0800 
 42 H       -1.9570   -13.5970    -0.9350 H     1 <1>   0.1500 
 43 H       -1.1220   -16.3960    -1.2510 H     1 <1>   0.0800 
 44 H       -1.2670   -17.2790     0.2510 H     1 <1>   0.0800 
 45 H       -0.2500   -15.8590     0.1720 H     1 <1>   0.0800 
@<TRIPOS>BOND
  1   1   2  1   
  2   2   3  ar  
  3   2   4  ar  
  4   3   5  ar  
  5   3  27  1   
  6   4   6  ar  
  7   4  28  1   
  8   5   7  1   
  9   5   8  ar  
 10   6   8  ar  
 11   6  29  1   
 12   7   9  1   
 13   7  10  2   
 14   8  30  1   
 15   9  11  1   
 16  10  12  1   
 17  11  12  2   
 18  11  13  1   
 19  13  14  1   
 20  13  31  1   
 21  13  32  1   
 22  14  15  1   
 23  14  16  1   
 24  15  17  1   
 25  15  33  1   
 26  15  34  1   
 27  16  18  1   
 28  16  35  1   
 29  16  36  1   
 30  17  18  1   
 31  17  19  1   
 32  17  37  1   
 33  18  20  1   
 34  18  38  1   
 35  19  39  1   
 36  20  21  1   
 37  20  40  1   
 38  20  41  1   
 39  21  22  1   
 40  21  23  2   
 41  22  24  1   
 42  23  25  1   
 43  23  42  1   
 44  24  25  2   
 45  25  26  1   
 46  26  43  1   
 47  26  44  1   
 48  26  45  1   
@<TRIPOS>SUBSTRUCTURE
  1 ****  13 GROUP 4 **** **** 0

# MOE 2024.06 (io_trps.svl 2023.06)
