@<TRIPOS>MOLECULE
Untitled Document
50 53 1 0 0 
SMALL
USER_CHARGES


@<TRIPOS>ATOM
  1 S       -0.1550     0.0390    -0.1630 S.o2  1 <1>   1.2040 
  2 O       -1.0480     0.7860    -1.0190 O.2   1 <1>  -0.6500 
  3 O        0.0610    -1.3720    -0.3910 O.2   1 <1>  -0.6500 
  4 C        1.4430     0.8850    -0.0940 C.ar  1 <1>  -0.0090 
  5 C       -0.7500     0.2190     1.5070 C.3   1 <1>  -0.1350 
  6 C        2.6290     0.1690    -0.0050 C.ar  1 <1>  -0.1500 
  7 C        1.5160     2.2690    -0.1040 C.ar  1 <1>  -0.1500 
  8 C        3.8680     0.8000     0.0760 C.ar  1 <1>   0.1170 
  9 C        2.7270     2.9490    -0.0300 C.ar  1 <1>   0.0280 
 10 N        5.0790     0.0770     0.1900 N.am  1 <1>  -0.4770 
 11 C        3.8990     2.1970     0.0470 C.ar  1 <1>   0.0830 
 12 C        2.7410     4.3920    -0.0440 C.2   1 <1>   0.0180 
 13 C        6.2880     0.7240     0.0310 C.2   1 <1>   0.5690 
 14 C        5.0570    -1.3770     0.5270 C.3   1 <1>   0.0600 
 15 O        5.0820     2.8650     0.0920 O.3   1 <1>  -0.3630 
 16 C        3.1990     5.1120     1.1090 C.2   1 <1>  -0.0460 
 17 C        2.3270     5.1260    -1.1200 C.2   1 <1>  -0.0410 
 18 O        7.3460     0.1390     0.1250 O.2   1 <1>  -0.5700 
 19 C        6.2860     2.2350    -0.3160 C.3   1 <1>   0.3410 
 20 C        3.2120     6.4870     1.0900 C.2   1 <1>  -0.2370 
 21 C        3.6830     4.7290     2.3680 C.2   1 <1>  -0.1500 
 22 N        2.3380     6.5210    -1.1390 N.am  1 <1>  -0.4690 
 23 C        7.4060     2.9990     0.4060 C.3   1 <1>  -0.2400 
 24 C        6.4020     2.4530    -1.8310 C.3   1 <1>  -0.2400 
 25 N        3.6840     6.9450     2.2850 N.pl3 1 <1>   0.0330 
 26 C        2.7890     7.2360    -0.0390 C.2   1 <1>   0.7150 
 27 C        3.9680     5.8650     3.0590 C.2   1 <1>  -0.3020 
 28 C        1.8770     7.2540    -2.3450 C.3   1 <1>   0.0600 
 29 O        2.8160     8.4620    -0.0440 O.2   1 <1>  -0.5700 
 30 H       -1.7130    -0.2440     1.6040 H     1 <1>   0.0800 
 31 H       -0.8440     1.2570     1.7630 H     1 <1>   0.0800 
 32 H       -0.0760    -0.2490     2.1980 H     1 <1>   0.0800 
 33 H        2.5710    -0.9040    -0.0070 H     1 <1>   0.1500 
 34 H        0.6080     2.8450    -0.1740 H     1 <1>   0.1500 
 35 H        4.3970    -1.5490     1.3580 H     1 <1>   0.0800 
 36 H        6.0370    -1.7270     0.8020 H     1 <1>   0.0800 
 37 H        4.7190    -1.9400    -0.3250 H     1 <1>   0.0800 
 38 H        1.9760     4.6310    -2.0100 H     1 <1>   0.1500 
 39 H        3.8020     3.7100     2.6930 H     1 <1>   0.1500 
 40 H        7.3150     2.8630     1.4680 H     1 <1>   0.0800 
 41 H        7.3560     4.0490     0.1770 H     1 <1>   0.0800 
 42 H        8.3670     2.6260     0.1000 H     1 <1>   0.0800 
 43 H        5.6000     1.9510    -2.3420 H     1 <1>   0.0800 
 44 H        7.3320     2.0480    -2.1870 H     1 <1>   0.0800 
 45 H        6.3710     3.5020    -2.0640 H     1 <1>   0.0800 
 46 H        3.7960     7.9380     2.5230 H     1 <1>   0.2700 
 47 H        4.3610     5.9600     4.0560 H     1 <1>   0.1500 
 48 H        1.5120     6.5690    -3.0900 H     1 <1>   0.0800 
 49 H        2.6950     7.8210    -2.7540 H     1 <1>   0.0800 
 50 H        1.0860     7.9320    -2.0730 H     1 <1>   0.0800 
@<TRIPOS>BOND
  1   1   2  2   
  2   1   3  2   
  3   1   4  1   
  4   1   5  1   
  5   4   6  ar  
  6   4   7  ar  
  7   5  30  1   
  8   5  31  1   
  9   5  32  1   
 10   6   8  ar  
 11   6  33  1   
 12   7   9  ar  
 13   7  34  1   
 14   8  10  1   
 15   8  11  ar  
 16   9  11  ar  
 17   9  12  1   
 18  10  13  am  
 19  10  14  1   
 20  11  15  1   
 21  12  16  1   
 22  12  17  2   
 23  13  18  2   
 24  13  19  1   
 25  14  35  1   
 26  14  36  1   
 27  14  37  1   
 28  15  19  1   
 29  16  20  2   
 30  16  21  1   
 31  17  22  1   
 32  17  38  1   
 33  19  23  1   
 34  19  24  1   
 35  20  25  1   
 36  20  26  1   
 37  21  27  2   
 38  21  39  1   
 39  22  26  am  
 40  22  28  1   
 41  23  40  1   
 42  23  41  1   
 43  23  42  1   
 44  24  43  1   
 45  24  44  1   
 46  24  45  1   
 47  25  27  1   
 48  25  46  1   
 49  26  29  2   
 50  27  47  1   
 51  28  48  1   
 52  28  49  1   
 53  28  50  1   
@<TRIPOS>SUBSTRUCTURE
  1 ****   9 GROUP 4 **** **** 0

# MOE 2024.06 (io_trps.svl 2023.06)
