@<TRIPOS>MOLECULE
NONAME
41 43 1 0 0 
SMALL
USER_CHARGES


@<TRIPOS>ATOM
  1 O       -1.0910     0.6920    -1.1640 O.2   1 <1>  -0.5700 
  2 C       -1.2650     0.7020     0.0410 C.2   1 <1>   0.7160 
  3 N       -1.7280    -0.4330     0.6380 N.am  1 <1>  -0.7300 
  4 C       -1.0050     1.8760     0.8580 C.2   1 <1>   0.1410 
  5 C       -2.0670    -1.7080    -0.0310 C.3   1 <1>   0.2200 
  6 N       -1.2640     1.9070     2.2050 N.2   1 <1>  -0.5650 
  7 C       -0.5020     3.0890     0.5170 C.2   1 <1>  -0.0400 
  8 C       -3.5720    -1.9030     0.0040 C.3   1 <1>  -0.0800 
  9 C       -1.5690    -2.8840     0.8090 C.3   1 <1>   0.1200 
 10 C       -0.9110     3.0880     2.5560 C.2   1 <1>   0.3280 
 11 O       -0.4490     3.8310     1.5830 O.3   1 <1>  -0.2800 
 12 C       -0.0210     3.6750    -0.8020 C.3   1 <1>   0.0200 
 13 C       -3.7720    -2.5160     1.3910 C.3   1 <1>   0.1200 
 14 C       -4.0470    -2.8420    -1.1220 C.3   1 <1>  -0.0160 
 15 O       -2.6040    -3.2220     1.6880 O.3   1 <1>  -0.5600 
 16 C       -0.9470     4.8000    -1.2720 C.3   1 <1>  -0.2400 
 17 C       -5.5570    -3.0260    -1.0910 C.ar  1 <1>  -0.1440 
 18 C       -6.1450    -4.1840    -0.6230 C.ar  1 <1>  -0.1500 
 19 C       -6.4170    -2.0410    -1.5310 C.ar  1 <1>  -0.1500 
 20 C       -7.5250    -4.2950    -0.6130 C.ar  1 <1>   0.1600 
 21 C       -7.7850    -2.2520    -1.4780 C.ar  1 <1>   0.1600 
 22 N       -8.3600    -3.3550    -1.0280 N.ar  1 <1>  -0.6200 
 23 H       -1.8680    -0.3950     1.6510 H     1 <1>   0.3700 
 24 H       -1.6600    -1.7260    -1.0280 H     1 <1>   0.0800 
 25 H       -4.0910    -0.9650    -0.0830 H     1 <1>   0.0800 
 26 H       -0.6830    -2.6450     1.3700 H     1 <1>   0.0800 
 27 H       -1.3840    -3.7410     0.1860 H     1 <1>   0.0800 
 28 H       -0.9600     3.5070     3.5460 H     1 <1>   0.1500 
 29 H        0.9750     4.0590    -0.6700 H     1 <1>   0.0800 
 30 H        0.0200     2.9120    -1.5580 H     1 <1>   0.0800 
 31 H       -4.6130    -3.1840     1.4480 H     1 <1>   0.0800 
 32 H       -3.8800    -1.7440     2.1330 H     1 <1>   0.0800 
 33 H       -3.5660    -3.8010    -1.0360 H     1 <1>   0.0800 
 34 H       -3.7710    -2.4250    -2.0750 H     1 <1>   0.0800 
 35 H       -0.9740     5.5900    -0.5420 H     1 <1>   0.0800 
 36 H       -1.9440     4.4230    -1.4120 H     1 <1>   0.0800 
 37 H       -0.5950     5.2030    -2.2050 H     1 <1>   0.0800 
 38 H       -5.5440    -4.9990    -0.2640 H     1 <1>   0.1500 
 39 H       -6.0370    -1.1110    -1.9140 H     1 <1>   0.1500 
 40 H       -7.9660    -5.2050    -0.2430 H     1 <1>   0.1500 
 41 H       -8.4400    -1.4720    -1.8250 H     1 <1>   0.1500 
@<TRIPOS>BOND
  1   1   2  2   
  2   2   3  am  
  3   2   4  1   
  4   3   5  1   
  5   3  23  1   
  6   4   6  1   
  7   4   7  2   
  8   5   8  1   
  9   5   9  1   
 10   5  24  1   
 11   6  10  2   
 12   7  11  1   
 13   7  12  1   
 14   8  13  1   
 15   8  14  1   
 16   8  25  1   
 17   9  15  1   
 18   9  26  1   
 19   9  27  1   
 20  10  11  1   
 21  10  28  1   
 22  12  16  1   
 23  12  29  1   
 24  12  30  1   
 25  13  15  1   
 26  13  31  1   
 27  13  32  1   
 28  14  17  1   
 29  14  33  1   
 30  14  34  1   
 31  16  35  1   
 32  16  36  1   
 33  16  37  1   
 34  17  18  ar  
 35  17  19  ar  
 36  18  20  ar  
 37  18  38  1   
 38  19  21  ar  
 39  19  39  1   
 40  20  22  ar  
 41  20  40  1   
 42  21  22  ar  
 43  21  41  1   
@<TRIPOS>SUBSTRUCTURE
  1 ****   8 GROUP 4 **** **** 0

# MOE 2024.06 (io_trps.svl 2023.06)
