@<TRIPOS>MOLECULE
NONAME
48 50 1 0 0 
SMALL
USER_CHARGES


@<TRIPOS>ATOM
  1 F       -0.2100    -2.2060    -0.4000 F     1 <1>  -0.1900 
  2 C       -1.4830    -2.3900    -0.1770 C.ar  1 <1>   0.1900 
  3 C       -2.3990    -1.8530    -1.0600 C.ar  1 <1>  -0.1500 
  4 C       -1.8660    -3.1170     0.9340 C.ar  1 <1>  -0.1500 
  5 C       -3.7480    -2.0530    -0.8180 C.ar  1 <1>  -0.1500 
  6 C       -3.2180    -3.3100     1.1640 C.ar  1 <1>  -0.1500 
  7 C       -4.1610    -2.7800     0.2920 C.ar  1 <1>  -0.1430 
  8 C       -5.6440    -3.0000     0.5450 C.3   1 <1>  -0.0160 
  9 C       -6.1320    -4.2380    -0.2160 C.3   1 <1>  -0.1600 
 10 C       -7.6260    -4.5060     0.0280 C.3   1 <1>  -0.0990 
 11 C       -8.1190    -5.7020    -0.7610 C.2   1 <1>   0.5690 
 12 O       -8.8030    -5.5240    -1.7370 O.2   1 <1>  -0.5700 
 13 N       -7.7740    -6.9420    -0.3420 N.am  1 <1>  -0.7300 
 14 C       -8.1360    -8.1980    -1.0340 C.3   1 <1>   0.2200 
 15 C       -9.1720    -8.9420    -0.2090 C.3   1 <1>  -0.0800 
 16 C       -6.9550    -9.1610    -0.9890 C.3   1 <1>   0.1200 
 17 C       -8.3030    -9.7030     0.8000 C.3   1 <1>   0.1200 
 18 C      -10.0160    -9.8870    -1.0850 C.3   1 <1>  -0.0170 
 19 O       -7.0130    -9.7790     0.2620 O.3   1 <1>  -0.5600 
 20 C      -11.0710   -10.6150    -0.2650 C.ar  1 <1>  -0.1430 
 21 C      -10.9480   -11.9470     0.0750 C.ar  1 <1>  -0.1500 
 22 C      -12.2100    -9.9760     0.1820 C.ar  1 <1>  -0.1500 
 23 C      -11.9390   -12.5560     0.8270 C.ar  1 <1>   0.1600 
 24 C      -13.1410   -10.6770     0.9290 C.ar  1 <1>   0.1600 
 25 N      -13.0320   -11.9530     1.2650 N.ar  1 <1>  -0.6200 
 26 H       -2.0620    -1.2930    -1.9130 H     1 <1>   0.1500 
 27 H       -1.1240    -3.5200     1.5970 H     1 <1>   0.1500 
 28 H       -4.4750    -1.6440    -1.4980 H     1 <1>   0.1500 
 29 H       -3.5320    -3.8760     2.0240 H     1 <1>   0.1500 
 30 H       -5.8150    -3.1250     1.6000 H     1 <1>   0.0800 
 31 H       -6.1950    -2.1330     0.2250 H     1 <1>   0.0800 
 32 H       -5.5550    -5.0930     0.0920 H     1 <1>   0.0800 
 33 H       -5.9670    -4.0930    -1.2700 H     1 <1>   0.0800 
 34 H       -8.2000    -3.6470    -0.2680 H     1 <1>   0.0800 
 35 H       -7.8070    -4.6810     1.0730 H     1 <1>   0.0800 
 36 H       -7.1860    -7.0710     0.4840 H     1 <1>   0.3700 
 37 H       -8.4580    -7.9930    -2.0410 H     1 <1>   0.0800 
 38 H       -9.8330    -8.2560     0.2920 H     1 <1>   0.0800 
 39 H       -6.0080    -8.6640    -1.1050 H     1 <1>   0.0800 
 40 H       -7.0590    -9.9270    -1.7370 H     1 <1>   0.0800 
 41 H       -8.6570   -10.7000     0.9960 H     1 <1>   0.0800 
 42 H       -8.2350    -9.1620     1.7270 H     1 <1>   0.0800 
 43 H       -9.3840   -10.6060    -1.5780 H     1 <1>   0.0800 
 44 H      -10.5130    -9.3150    -1.8500 H     1 <1>   0.0800 
 45 H      -10.0930   -12.5190    -0.2370 H     1 <1>   0.1500 
 46 H      -12.3820    -8.9390    -0.0450 H     1 <1>   0.1500 
 47 H      -11.8250   -13.5960     1.0830 H     1 <1>   0.1500 
 48 H      -14.0230   -10.1620     1.2690 H     1 <1>   0.1500 
@<TRIPOS>BOND
  1   1   2  1   
  2   2   3  ar  
  3   2   4  ar  
  4   3   5  ar  
  5   3  26  1   
  6   4   6  ar  
  7   4  27  1   
  8   5   7  ar  
  9   5  28  1   
 10   6   7  ar  
 11   6  29  1   
 12   7   8  1   
 13   8   9  1   
 14   8  30  1   
 15   8  31  1   
 16   9  10  1   
 17   9  32  1   
 18   9  33  1   
 19  10  11  1   
 20  10  34  1   
 21  10  35  1   
 22  11  12  2   
 23  11  13  am  
 24  13  14  1   
 25  13  36  1   
 26  14  15  1   
 27  14  16  1   
 28  14  37  1   
 29  15  17  1   
 30  15  18  1   
 31  15  38  1   
 32  16  19  1   
 33  16  39  1   
 34  16  40  1   
 35  17  19  1   
 36  17  41  1   
 37  17  42  1   
 38  18  20  1   
 39  18  43  1   
 40  18  44  1   
 41  20  21  ar  
 42  20  22  ar  
 43  21  23  ar  
 44  21  45  1   
 45  22  24  ar  
 46  22  46  1   
 47  23  25  ar  
 48  23  47  1   
 49  24  25  ar  
 50  24  48  1   
@<TRIPOS>SUBSTRUCTURE
  1 ****  13 GROUP 4 **** **** 0

# MOE 2024.06 (io_trps.svl 2023.06)
