@<TRIPOS>MOLECULE
NONAME
41 44 1 0 0 
SMALL
USER_CHARGES


@<TRIPOS>ATOM
  1 S       -0.1160     0.8970     2.1660 S.3   1 <1>  -0.0800 
  2 C       -1.0010     1.4450     0.7500 C.2   1 <1>  -0.1400 
  3 C       -1.3120    -0.3580     2.4670 C.2   1 <1>  -0.1100 
  4 C       -2.1090     0.7130     0.5720 C.2   1 <1>  -0.1810 
  5 C       -0.5280     2.6030    -0.1220 C.3   1 <1>   0.4600 
  6 C       -2.2910    -0.3220     1.5430 C.2   1 <1>  -0.1500 
  7 C       -3.0310     1.0270    -0.5840 C.3   1 <1>   0.0210 
  8 O       -1.3720     2.6850    -1.2560 O.3   1 <1>  -0.5600 
  9 C        0.8850     2.3470    -0.6550 C.3   1 <1>  -0.1600 
 10 C       -0.5790     3.9370     0.6350 C.3   1 <1>  -0.1600 
 11 C       -2.7520     2.4610    -1.0750 C.3   1 <1>   0.1200 
 12 C        1.3900     3.5150    -1.5050 C.3   1 <1>   0.1400 
 13 C       -0.0680     5.0900    -0.2320 C.3   1 <1>   0.1400 
 14 N        1.3060     4.7750    -0.7110 N.am  1 <1>  -0.6600 
 15 C        2.4090     5.5800    -0.5040 C.2   1 <1>   0.5440 
 16 O        3.4450     5.3350    -1.0910 O.2   1 <1>  -0.5700 
 17 C        2.3670     6.7410     0.3560 C.ar  1 <1>   0.0860 
 18 C        2.2160     6.6430     1.7370 C.ar  1 <1>   0.1900 
 19 C        2.4890     8.0280    -0.1750 C.ar  1 <1>  -0.1500 
 20 F        2.1120     5.4630     2.2910 F     1 <1>  -0.1900 
 21 C        2.1740     7.7710     2.5370 C.ar  1 <1>   0.1900 
 22 C        2.4470     9.1600     0.6270 C.ar  1 <1>  -0.1500 
 23 F        2.0210     7.6550     3.8320 F     1 <1>  -0.1900 
 24 C        2.2860     9.0380     1.9990 C.ar  1 <1>  -0.1500 
 25 H       -1.1510    -0.9990     3.3150 H     1 <1>   0.1500 
 26 H       -3.1390    -0.9820     1.5020 H     1 <1>   0.1500 
 27 H       -4.0560     0.9500    -0.2720 H     1 <1>   0.0800 
 28 H       -2.8630     0.3270    -1.3830 H     1 <1>   0.0800 
 29 H        0.8870     1.4440    -1.2360 H     1 <1>   0.0800 
 30 H        1.5640     2.2090     0.1660 H     1 <1>   0.0800 
 31 H        0.0380     3.8660     1.5110 H     1 <1>   0.0800 
 32 H       -1.5790     4.1370     0.9670 H     1 <1>   0.0800 
 33 H       -3.1230     3.1780    -0.3650 H     1 <1>   0.0800 
 34 H       -3.2370     2.6300    -2.0200 H     1 <1>   0.0800 
 35 H        0.7870     3.6160    -2.3910 H     1 <1>   0.0800 
 36 H        2.4030     3.3210    -1.8120 H     1 <1>   0.0800 
 37 H       -0.0850     6.0040     0.3330 H     1 <1>   0.0800 
 38 H       -0.7130     5.2160    -1.0850 H     1 <1>   0.0800 
 39 H        2.6230     8.1330    -1.2390 H     1 <1>   0.1500 
 40 H        2.5440    10.1370     0.1830 H     1 <1>   0.1500 
 41 H        2.2520     9.9040     2.6370 H     1 <1>   0.1500 
@<TRIPOS>BOND
  1   1   2  1   
  2   1   3  1   
  3   2   4  2   
  4   2   5  1   
  5   3   6  2   
  6   3  25  1   
  7   4   6  1   
  8   4   7  1   
  9   5   8  1   
 10   5   9  1   
 11   5  10  1   
 12   6  26  1   
 13   7  11  1   
 14   7  27  1   
 15   7  28  1   
 16   8  11  1   
 17   9  12  1   
 18   9  29  1   
 19   9  30  1   
 20  10  13  1   
 21  10  31  1   
 22  10  32  1   
 23  11  33  1   
 24  11  34  1   
 25  12  14  1   
 26  12  35  1   
 27  12  36  1   
 28  13  14  1   
 29  13  37  1   
 30  13  38  1   
 31  14  15  am  
 32  15  16  2   
 33  15  17  1   
 34  17  18  ar  
 35  17  19  ar  
 36  18  20  1   
 37  18  21  ar  
 38  19  22  ar  
 39  19  39  1   
 40  21  23  1   
 41  21  24  ar  
 42  22  24  ar  
 43  22  40  1   
 44  24  41  1   
@<TRIPOS>SUBSTRUCTURE
  1 ****  10 GROUP 4 **** **** 0

# MOE 2024.06 (io_trps.svl 2023.06)
