@<TRIPOS>MOLECULE
NONAME
57 59 1 0 0 
SMALL
USER_CHARGES


@<TRIPOS>ATOM
  1 O       -0.6520    -0.3020    -0.3930 O.3   1 <1>  -0.5600 
  2 C        0.1530    -0.9640    -1.3240 C.3   1 <1>   0.1200 
  3 C       -1.8770    -0.9350    -0.1710 C.3   1 <1>   0.1200 
  4 C        0.4480    -2.3980    -0.8480 C.3   1 <1>   0.1100 
  5 C       -1.6480    -2.3670     0.3480 C.3   1 <1>   0.1100 
  6 N       -0.8010    -3.1510    -0.5840 N.3   1 <1>  -0.8100 
  7 C       -0.5090    -4.5010    -0.0890 C.3   1 <1>   0.1100 
  8 C       -1.7380    -5.4070    -0.2720 C.3   1 <1>   0.3430 
  9 N       -1.4370    -6.8560    -0.0170 N.4   1 <1>  -0.9590 
 10 C       -2.6030    -7.6810    -0.4560 C.3   1 <1>   0.3430 
 11 C       -1.0970    -7.0890     1.4310 C.3   1 <1>   0.2630 
 12 C       -2.2340    -9.1680    -0.5880 C.3   1 <1>  -0.1600 
 13 C       -3.2460   -10.0820     0.1490 C.3   1 <1>   0.4870 
 14 C       -3.0830    -9.7880     1.6140 C.1   1 <1>   0.3570 
 15 C       -2.9760   -11.5860    -0.0650 C.ar  1 <1>  -0.1440 
 16 C       -4.6530    -9.7210    -0.3780 C.ar  1 <1>  -0.1440 
 17 N       -2.8930    -9.3990     2.6680 N.1   1 <1>  -0.5570 
 18 C       -3.9340   -12.4970     0.3700 C.ar  1 <1>  -0.1500 
 19 C       -1.8210   -12.0870    -0.6640 C.ar  1 <1>  -0.1500 
 20 C       -5.5990    -9.0290     0.3790 C.ar  1 <1>  -0.1500 
 21 C       -4.9950   -10.0880    -1.6760 C.ar  1 <1>  -0.1500 
 22 C       -3.7520   -13.8590     0.2110 C.ar  1 <1>  -0.1500 
 23 C       -1.6380   -13.4500    -0.8230 C.ar  1 <1>  -0.1500 
 24 C       -6.8340    -8.7060    -0.1550 C.ar  1 <1>  -0.1500 
 25 C       -6.2300    -9.7660    -2.2090 C.ar  1 <1>  -0.1500 
 26 C       -2.6030   -14.3370    -0.3860 C.ar  1 <1>  -0.1500 
 27 C       -7.1510    -9.0710    -1.4490 C.ar  1 <1>  -0.1500 
 28 H        1.0670    -0.4070    -1.4230 H     1 <1>   0.0800 
 29 H       -0.3530    -0.9750    -2.2740 H     1 <1>   0.0800 
 30 H       -2.4320    -0.9470    -1.0930 H     1 <1>   0.0800 
 31 H       -2.4180    -0.3540     0.5540 H     1 <1>   0.0800 
 32 H        1.0470    -2.3460     0.0460 H     1 <1>   0.0800 
 33 H        1.0200    -2.9020    -1.6080 H     1 <1>   0.0800 
 34 H       -2.6050    -2.8430     0.4670 H     1 <1>   0.0800 
 35 H       -1.1780    -2.3050     1.3160 H     1 <1>   0.0800 
 36 H       -0.2120    -4.4510     0.9450 H     1 <1>   0.0800 
 37 H        0.3020    -4.9090    -0.6660 H     1 <1>   0.0800 
 38 H       -2.0800    -5.2880    -1.2870 H     1 <1>   0.0800 
 39 H       -2.5230    -5.0750     0.3880 H     1 <1>   0.0800 
 40 H       -0.6260    -7.1050    -0.6010 H     1 <1>   0.4500 
 41 H       -2.9590    -7.3310    -1.4130 H     1 <1>   0.0800 
 42 H       -3.4090    -7.5550     0.2500 H     1 <1>   0.0800 
 43 H       -1.9380    -6.8460     2.0600 H     1 <1>   0.0800 
 44 H       -0.2590    -6.4800     1.7270 H     1 <1>   0.0800 
 45 H       -0.8380    -8.1210     1.6000 H     1 <1>   0.0800 
 46 H       -1.2450    -9.3510    -0.2070 H     1 <1>   0.0800 
 47 H       -2.2360    -9.4200    -1.6330 H     1 <1>   0.0800 
 48 H       -4.8430   -12.1580     0.8400 H     1 <1>   0.1500 
 49 H       -1.0340   -11.4490    -1.0210 H     1 <1>   0.1500 
 50 H       -5.4140    -8.7270     1.3960 H     1 <1>   0.1500 
 51 H       -4.3050   -10.6420    -2.2920 H     1 <1>   0.1500 
 52 H       -4.5060   -14.5470     0.5540 H     1 <1>   0.1500 
 53 H       -0.7430   -13.8260    -1.2880 H     1 <1>   0.1500 
 54 H       -7.5580    -8.1740     0.4400 H     1 <1>   0.1500 
 55 H       -6.4790   -10.0610    -3.2150 H     1 <1>   0.1500 
 56 H       -2.4600   -15.3970    -0.5100 H     1 <1>   0.1500 
 57 H       -8.1140    -8.8220    -1.8620 H     1 <1>   0.1500 
@<TRIPOS>BOND
  1   1   2  1   
  2   1   3  1   
  3   2   4  1   
  4   2  28  1   
  5   2  29  1   
  6   3   5  1   
  7   3  30  1   
  8   3  31  1   
  9   4   6  1   
 10   4  32  1   
 11   4  33  1   
 12   5   6  1   
 13   5  34  1   
 14   5  35  1   
 15   6   7  1   
 16   7   8  1   
 17   7  36  1   
 18   7  37  1   
 19   8   9  1   
 20   8  38  1   
 21   8  39  1   
 22   9  10  1   
 23   9  11  1   
 24   9  40  1   
 25  10  12  1   
 26  10  41  1   
 27  10  42  1   
 28  11  43  1   
 29  11  44  1   
 30  11  45  1   
 31  12  13  1   
 32  12  46  1   
 33  12  47  1   
 34  13  14  1   
 35  13  15  1   
 36  13  16  1   
 37  14  17  3   
 38  15  18  ar  
 39  15  19  ar  
 40  16  20  ar  
 41  16  21  ar  
 42  18  22  ar  
 43  18  48  1   
 44  19  23  ar  
 45  19  49  1   
 46  20  24  ar  
 47  20  50  1   
 48  21  25  ar  
 49  21  51  1   
 50  22  26  ar  
 51  22  52  1   
 52  23  26  ar  
 53  23  53  1   
 54  24  27  ar  
 55  24  54  1   
 56  25  27  ar  
 57  25  55  1   
 58  26  56  1   
 59  27  57  1   
@<TRIPOS>SUBSTRUCTURE
  1 ****  10 GROUP 4 **** **** 0

# MOE 2024.06 (io_trps.svl 2023.06)
