@<TRIPOS>MOLECULE
NONAME
54 56 1 0 0 
SMALL
USER_CHARGES


@<TRIPOS>ATOM
  1 O        0.5860     0.0480     0.4590 O.2   1 <1>  -0.5700 
  2 C        1.4850    -0.7700     0.3570 C.2   1 <1>   0.6900 
  3 N        1.1890    -2.0490    -0.0410 N.am  1 <1>  -0.6600 
  4 N        2.7790    -0.4020     0.6430 N.am  1 <1>  -0.6600 
  5 C        2.0090    -2.7620    -1.0520 C.3   1 <1>   0.1400 
  6 C       -0.1630    -2.6110     0.1860 C.3   1 <1>   0.1400 
  7 C        3.7360    -1.3300     1.3040 C.3   1 <1>   0.0600 
  8 C        3.1650     1.0320     0.6900 C.3   1 <1>   0.0600 
  9 C        2.1500    -4.2320    -0.6510 C.3   1 <1>  -0.1600 
 10 C       -0.0410    -4.0830     0.5930 C.3   1 <1>  -0.1600 
 11 C        0.7740    -4.8950    -0.4330 C.3   1 <1>  -0.0190 
 12 C        0.8930    -6.3600     0.0030 C.2   1 <1>   0.5690 
 13 O        1.8120    -6.6840     0.7180 O.2   1 <1>  -0.5700 
 14 N       -0.0350    -7.2840    -0.3970 N.am  1 <1>  -0.6600 
 15 C       -1.2870    -7.0440    -1.1600 C.3   1 <1>   0.1400 
 16 C        0.0230    -8.6980     0.0530 C.3   1 <1>   0.1400 
 17 C       -2.2100    -8.1790    -0.7230 C.3   1 <1>   0.2000 
 18 C       -1.2530    -9.3530    -0.4940 C.3   1 <1>  -0.0800 
 19 O       -2.7930    -7.8110     0.4810 O.3   1 <1>  -0.6800 
 20 C       -1.8100   -10.4790     0.3990 C.3   1 <1>   0.0200 
 21 C       -0.8910   -11.6870     0.4820 C.2   1 <1>  -0.0400 
 22 O       -1.2000   -12.6500     1.3090 O.3   1 <1>  -0.0190 
 23 C        0.2490   -12.0330    -0.1380 C.2   1 <1>  -0.1500 
 24 N       -0.3300   -13.6180     1.2780 N.2   1 <1>  -0.4100 
 25 C        0.5550   -13.2730     0.4150 C.2   1 <1>   0.1080 
 26 C        1.7640   -14.1090     0.0560 C.3   1 <1>  -0.0590 
 27 H        1.5200    -2.6870    -2.0080 H     1 <1>   0.0800 
 28 H        2.9800    -2.3060    -1.1410 H     1 <1>   0.0800 
 29 H       -0.6640    -2.0600     0.9650 H     1 <1>   0.0800 
 30 H       -0.7390    -2.5150    -0.7190 H     1 <1>   0.0800 
 31 H        4.0950    -0.8930     2.2190 H     1 <1>   0.0800 
 32 H        4.5680    -1.5190     0.6490 H     1 <1>   0.0800 
 33 H        3.2540    -2.2630     1.5410 H     1 <1>   0.0800 
 34 H        4.1670     1.1550     0.3210 H     1 <1>   0.0800 
 35 H        3.1070     1.3900     1.7030 H     1 <1>   0.0800 
 36 H        2.4980     1.6160     0.0780 H     1 <1>   0.0800 
 37 H        2.6890    -4.7610    -1.4180 H     1 <1>   0.0800 
 38 H        2.7320    -4.2900     0.2520 H     1 <1>   0.0800 
 39 H        0.4390    -4.1350     1.5550 H     1 <1>   0.0800 
 40 H       -1.0260    -4.5010     0.6980 H     1 <1>   0.0800 
 41 H        0.2600    -4.8640    -1.3760 H     1 <1>   0.0800 
 42 H       -1.7220    -6.0830    -0.9510 H     1 <1>   0.0800 
 43 H       -1.0770    -7.1270    -2.2120 H     1 <1>   0.0800 
 44 H        0.9110    -9.1750    -0.3240 H     1 <1>   0.0800 
 45 H        0.0410    -8.7230     1.1300 H     1 <1>   0.0800 
 46 H       -2.9920    -8.3910    -1.4330 H     1 <1>   0.0800 
 47 H       -1.0190    -9.7700    -1.4580 H     1 <1>   0.0800 
 48 H       -2.0900    -7.5100     1.0920 H     1 <1>   0.4000 
 49 H       -2.7600   -10.8030     0.0130 H     1 <1>   0.0800 
 50 H       -1.9740   -10.1100     1.3960 H     1 <1>   0.0800 
 51 H        0.8230   -11.5200    -0.8860 H     1 <1>   0.1500 
 52 H        2.6620   -13.5580     0.2630 H     1 <1>   0.0800 
 53 H        1.7340   -14.3640    -0.9870 H     1 <1>   0.0800 
 54 H        1.7680   -15.0140     0.6360 H     1 <1>   0.0800 
@<TRIPOS>BOND
  1   1   2  2   
  2   2   3  am  
  3   2   4  am  
  4   3   5  1   
  5   3   6  1   
  6   4   7  1   
  7   4   8  1   
  8   5   9  1   
  9   5  27  1   
 10   5  28  1   
 11   6  10  1   
 12   6  29  1   
 13   6  30  1   
 14   7  31  1   
 15   7  32  1   
 16   7  33  1   
 17   8  34  1   
 18   8  35  1   
 19   8  36  1   
 20   9  11  1   
 21   9  37  1   
 22   9  38  1   
 23  10  11  1   
 24  10  39  1   
 25  10  40  1   
 26  11  12  1   
 27  11  41  1   
 28  12  13  2   
 29  12  14  am  
 30  14  15  1   
 31  14  16  1   
 32  15  17  1   
 33  15  42  1   
 34  15  43  1   
 35  16  18  1   
 36  16  44  1   
 37  16  45  1   
 38  17  18  1   
 39  17  19  1   
 40  17  46  1   
 41  18  20  1   
 42  18  47  1   
 43  19  48  1   
 44  20  21  1   
 45  20  49  1   
 46  20  50  1   
 47  21  22  1   
 48  21  23  2   
 49  22  24  1   
 50  23  25  1   
 51  23  51  1   
 52  24  25  2   
 53  25  26  1   
 54  26  52  1   
 55  26  53  1   
 56  26  54  1   
@<TRIPOS>SUBSTRUCTURE
  1 ****  12 GROUP 4 **** **** 0

# MOE 2024.06 (io_trps.svl 2023.06)
