@<TRIPOS>MOLECULE
NONAME
42 45 1 0 0 
SMALL
USER_CHARGES


@<TRIPOS>ATOM
  1 S       -0.5440     0.0580    -1.1790 S.3   1 <1>  -0.1930 
  2 C       -1.6030    -1.0440    -0.3450 C.cat 1 <1>   0.8920 
  3 C        0.3500    -1.3200    -1.8630 C.2   1 <1>  -0.0490 
  4 N       -2.6150    -0.9110     0.4870 N.pl3 1 <1>  -0.7000 
  5 N       -1.3080    -2.3000    -0.5950 N.pl3 1 <1>  -0.6290 
  6 C       -0.1910    -2.4770    -1.4420 C.2   1 <1>   0.2290 
  7 C       -2.9940    -2.1880     0.8190 C.2   1 <1>   0.1820 
  8 C       -2.2010    -3.0780     0.1440 C.2   1 <1>   0.2770 
  9 C       -4.1080    -2.4190     1.8250 C.3   1 <1>  -0.0720 
 10 C       -2.1980    -4.5310     0.1510 C.2   1 <1>   0.7030 
 11 O       -1.1300    -5.1130     0.1970 O.2   1 <1>  -0.5700 
 12 N       -3.3560    -5.2780     0.0800 N.am  1 <1>  -0.6600 
 13 C       -4.5910    -4.8510    -0.6330 C.3   1 <1>   0.1400 
 14 C       -3.3210    -6.7650     0.1810 C.3   1 <1>   0.1400 
 15 C       -5.2270    -6.1440    -1.1420 C.3   1 <1>   0.2000 
 16 C       -4.7220    -7.2420    -0.2120 C.3   1 <1>  -0.0800 
 17 O       -6.6090    -6.0760    -1.1020 O.3   1 <1>  -0.6800 
 18 C       -4.7550    -8.6350    -0.8680 C.3   1 <1>  -0.0160 
 19 C       -4.3170    -9.7310     0.0920 C.ar  1 <1>   0.1670 
 20 N       -3.0180    -9.8220     0.3290 N.ar  1 <1>  -0.6200 
 21 C       -5.2650   -10.5740     0.6700 C.ar  1 <1>   0.1600 
 22 C       -2.7330   -10.8010     1.1720 C.ar  1 <1>   0.1600 
 23 N       -4.9830   -11.5500     1.5170 N.ar  1 <1>  -0.6200 
 24 C       -3.6840   -11.6370     1.7470 C.ar  1 <1>   0.1600 
 25 H        1.1880    -1.1000    -2.5020 H     1 <1>   0.1500 
 26 H       -2.9900    -0.0180     0.8180 H     1 <1>   0.4500 
 27 H        0.1390    -3.4790    -1.6800 H     1 <1>   0.1500 
 28 H       -4.1980    -3.4630     2.0660 H     1 <1>   0.0800 
 29 H       -5.0450    -2.0720     1.4280 H     1 <1>   0.0800 
 30 H       -3.8980    -1.8850     2.7340 H     1 <1>   0.0800 
 31 H       -5.2550    -4.3620     0.0580 H     1 <1>   0.0800 
 32 H       -4.3580    -4.1990    -1.4570 H     1 <1>   0.0800 
 33 H       -2.5840    -7.1540    -0.5030 H     1 <1>   0.0800 
 34 H       -3.0660    -7.0790     1.1800 H     1 <1>   0.0800 
 35 H       -4.9260    -6.3220    -2.1610 H     1 <1>   0.0800 
 36 H       -5.3170    -7.2580     0.6850 H     1 <1>   0.0800 
 37 H       -6.9380    -6.0850    -0.1820 H     1 <1>   0.4000 
 38 H       -4.1110    -8.6520    -1.7300 H     1 <1>   0.0800 
 39 H       -5.7540    -8.8390    -1.2120 H     1 <1>   0.0800 
 40 H       -6.3030   -10.4370     0.4230 H     1 <1>   0.1500 
 41 H       -1.6970   -10.9510     1.4200 H     1 <1>   0.1500 
 42 H       -3.3540   -12.4060     2.4230 H     1 <1>   0.1500 
@<TRIPOS>BOND
  1   1   2  1   
  2   1   3  1   
  3   2   4  ar  
  4   2   5  ar  
  5   3   6  2   
  6   3  25  1   
  7   4   7  1   
  8   4  26  1   
  9   5   6  1   
 10   5   8  1   
 11   6  27  1   
 12   7   8  2   
 13   7   9  1   
 14   8  10  1   
 15   9  28  1   
 16   9  29  1   
 17   9  30  1   
 18  10  11  2   
 19  10  12  am  
 20  12  13  1   
 21  12  14  1   
 22  13  15  1   
 23  13  31  1   
 24  13  32  1   
 25  14  16  1   
 26  14  33  1   
 27  14  34  1   
 28  15  16  1   
 29  15  17  1   
 30  15  35  1   
 31  16  18  1   
 32  16  36  1   
 33  17  37  1   
 34  18  19  1   
 35  18  38  1   
 36  18  39  1   
 37  19  20  ar  
 38  19  21  ar  
 39  20  22  ar  
 40  21  23  ar  
 41  21  40  1   
 42  22  24  ar  
 43  22  41  1   
 44  23  24  ar  
 45  24  42  1   
@<TRIPOS>SUBSTRUCTURE
  1 ****  12 GROUP 4 **** **** 0

# MOE 2024.06 (io_trps.svl 2023.06)
