@<TRIPOS>MOLECULE
NONAME
41 42 1 0 0 
SMALL
USER_CHARGES


@<TRIPOS>ATOM
  1 S        1.0180     0.9130    -1.3520 S.o2  1 <1>   1.3330 
  2 O        0.7170     2.1270    -2.0760 O.2   1 <1>  -0.6500 
  3 O        0.6150    -0.3630    -1.8980 O.2   1 <1>  -0.6500 
  4 N        0.3290     1.0530     0.1930 N.am  1 <1>  -0.8490 
  5 C        2.7820     0.8430    -1.0390 C.3   1 <1>  -0.0550 
  6 C        0.5130     2.3790     0.7930 C.3   1 <1>   0.1160 
  7 C       -1.0930     0.7020     0.1880 C.3   1 <1>   0.1160 
  8 C        3.1970    -0.2280    -0.0130 C.3   1 <1>  -0.0800 
  9 C        4.6700    -0.1610     0.3370 C.3   1 <1>   0.2890 
 10 C        3.0240    -1.6710    -0.4950 C.3   1 <1>   0.1200 
 11 N        4.9140     0.8160     1.4200 N.pl3 1 <1>  -0.8690 
 12 C        4.9640    -1.5930     0.7510 C.3   1 <1>   0.1200 
 13 O        4.1350    -2.3880    -0.0420 O.3   1 <1>  -0.5600 
 14 C        5.1450     2.1150     1.0900 C.ar  1 <1>   0.4100 
 15 N        4.2070     2.9510     1.4970 N.ar  1 <1>  -0.6200 
 16 C        6.2690     2.4990     0.3680 C.ar  1 <1>  -0.1500 
 17 C        4.3910     4.2200     1.1710 C.ar  1 <1>   0.1600 
 18 C        6.4440     3.8200     0.0300 C.ar  1 <1>  -0.1500 
 19 C        5.4650     4.7120     0.4470 C.ar  1 <1>  -0.1440 
 20 C        5.5170     6.2050     0.1500 C.3   1 <1>   1.1630 
 21 F        5.6310     6.9260     1.2570 F     1 <1>  -0.3400 
 22 F        4.4160     6.6270    -0.4580 F     1 <1>  -0.3400 
 23 F        6.5320     6.5510    -0.6310 F     1 <1>  -0.3400 
 24 H        3.2950     0.6700    -1.9640 H     1 <1>   0.0800 
 25 H        3.0940     1.8020    -0.6780 H     1 <1>   0.0800 
 26 H        0.1090     2.3930     1.7910 H     1 <1>   0.0800 
 27 H        0.0180     3.1340     0.2040 H     1 <1>   0.0800 
 28 H        1.5610     2.6190     0.8550 H     1 <1>   0.0800 
 29 H       -1.4990     0.7730     1.1820 H     1 <1>   0.0800 
 30 H       -1.2200    -0.3110    -0.1560 H     1 <1>   0.0800 
 31 H       -1.6390     1.3600    -0.4680 H     1 <1>   0.0800 
 32 H        2.6180    -0.1160     0.8870 H     1 <1>   0.0800 
 33 H        5.2610     0.0750    -0.5330 H     1 <1>   0.0800 
 34 H        3.0090    -1.7380    -1.5690 H     1 <1>   0.0800 
 35 H        2.1300    -2.1200    -0.0950 H     1 <1>   0.0800 
 36 H        4.1830     0.7720     2.1340 H     1 <1>   0.4000 
 37 H        4.6960    -1.7620     1.7800 H     1 <1>   0.0800 
 38 H        5.9880    -1.8670     0.5750 H     1 <1>   0.0800 
 39 H        6.9910     1.7550     0.0890 H     1 <1>   0.1500 
 40 H        3.6330     4.9100     1.5070 H     1 <1>   0.1500 
 41 H        7.3090     4.1370    -0.5310 H     1 <1>   0.1500 
@<TRIPOS>BOND
  1   1   2  2   
  2   1   3  2   
  3   1   4  am  
  4   1   5  1   
  5   4   6  1   
  6   4   7  1   
  7   5   8  1   
  8   5  24  1   
  9   5  25  1   
 10   6  26  1   
 11   6  27  1   
 12   6  28  1   
 13   7  29  1   
 14   7  30  1   
 15   7  31  1   
 16   8   9  1   
 17   8  10  1   
 18   8  32  1   
 19   9  11  1   
 20   9  12  1   
 21   9  33  1   
 22  10  13  1   
 23  10  34  1   
 24  10  35  1   
 25  11  14  1   
 26  11  36  1   
 27  12  13  1   
 28  12  37  1   
 29  12  38  1   
 30  14  15  ar  
 31  14  16  ar  
 32  15  17  ar  
 33  16  18  ar  
 34  16  39  1   
 35  17  19  ar  
 36  17  40  1   
 37  18  19  ar  
 38  18  41  1   
 39  19  20  1   
 40  20  21  1   
 41  20  22  1   
 42  20  23  1   
@<TRIPOS>SUBSTRUCTURE
  1 ****  15 GROUP 4 **** **** 0

# MOE 2024.06 (io_trps.svl 2023.06)
