@<TRIPOS>MOLECULE
NONAME
52 53 1 0 0 
SMALL
USER_CHARGES


@<TRIPOS>ATOM
  1 O        0.7510     0.0030    -2.1530 O.2   1 <1>  -0.5700 
  2 C        1.2550    -0.4790    -1.1560 C.2   1 <1>   0.7150 
  3 N        2.0400     0.3080    -0.3720 N.am  1 <1>  -0.7300 
  4 C        1.0190    -1.8600    -0.8060 C.2   1 <1>   0.0550 
  5 C        2.3880     1.7090    -0.6500 C.3   1 <1>   0.3210 
  6 O        1.5360    -2.3970     0.2920 O.3   1 <1>  -0.2800 
  7 C        0.2940    -2.8170    -1.4420 C.2   1 <1>  -0.1500 
  8 C        3.7960     1.9520    -0.1560 C.2   1 <1>  -0.1810 
  9 C        1.1720    -3.6560     0.3850 C.2   1 <1>  -0.0400 
 10 C        0.3780    -3.9780    -0.6680 C.2   1 <1>  -0.1810 
 11 C        4.2340     2.6150     0.9270 C.2   1 <1>  -0.0400 
 12 C        4.9750     1.5120    -0.7590 C.2   1 <1>   0.1080 
 13 C        1.7170    -4.4020     1.5970 C.3   1 <1>   0.0200 
 14 C       -0.3170    -5.2730    -1.0430 C.3   1 <1>   0.5240 
 15 O        5.5380     2.5560     0.9340 O.3   1 <1>  -0.0190 
 16 C        3.5220     3.3520     2.0430 C.3   1 <1>  -0.0600 
 17 N        6.0000     1.8890    -0.0840 N.2   1 <1>  -0.4100 
 18 C        5.0630     0.7010    -2.0350 C.3   1 <1>  -0.0590 
 19 C        1.3400    -5.8830     1.6770 C.3   1 <1>  -0.2400 
 20 N       -1.6290    -5.3650    -0.3350 N.4   1 <1>  -0.9590 
 21 C       -2.2810    -6.6850    -0.5590 C.3   1 <1>   0.3430 
 22 C       -2.5330    -4.2360    -0.7000 C.3   1 <1>   0.3430 
 23 C       -1.5560    -7.7720     0.2270 C.3   1 <1>  -0.2400 
 24 C       -3.6340    -4.0970     0.3460 C.3   1 <1>  -0.2400 
 25 H        2.5100    -0.1130     0.4310 H     1 <1>   0.3700 
 26 H        1.6960     2.3540    -0.1390 H     1 <1>   0.0800 
 27 H        2.3260     1.9110    -1.7070 H     1 <1>   0.0800 
 28 H       -0.2360    -2.6890    -2.3710 H     1 <1>   0.1500 
 29 H        1.3750    -3.9020     2.4870 H     1 <1>   0.0800 
 30 H        2.7910    -4.3210     1.5820 H     1 <1>   0.0800 
 31 H        0.3130    -6.1000    -0.7640 H     1 <1>   0.0800 
 32 H       -0.4640    -5.3080    -2.1100 H     1 <1>   0.0800 
 33 H        2.4580     3.3050     1.9130 H     1 <1>   0.0800 
 34 H        3.8290     4.3830     2.0490 H     1 <1>   0.0800 
 35 H        3.7780     2.9090     2.9890 H     1 <1>   0.0800 
 36 H        4.6110     1.2420    -2.8450 H     1 <1>   0.0800 
 37 H        4.5570    -0.2370    -1.9080 H     1 <1>   0.0800 
 38 H        6.0930     0.5100    -2.2770 H     1 <1>   0.0800 
 39 H        0.2780    -5.9980     1.7710 H     1 <1>   0.0800 
 40 H        1.7990    -6.3190     2.5480 H     1 <1>   0.0800 
 41 H        1.6990    -6.4120     0.8140 H     1 <1>   0.0800 
 42 H       -1.4210    -5.2600     0.6650 H     1 <1>   0.4500 
 43 H       -2.2850    -6.9260    -1.6100 H     1 <1>   0.0800 
 44 H       -3.3050    -6.6510    -0.2240 H     1 <1>   0.0800 
 45 H       -2.9620    -4.3960    -1.6770 H     1 <1>   0.0800 
 46 H       -1.9810    -3.3110    -0.7230 H     1 <1>   0.0800 
 47 H       -0.5460    -7.9090    -0.1130 H     1 <1>   0.0800 
 48 H       -2.0740    -8.7050     0.0880 H     1 <1>   0.0800 
 49 H       -1.5630    -7.5510     1.2800 H     1 <1>   0.0800 
 50 H       -4.2920    -4.9460     0.3520 H     1 <1>   0.0800 
 51 H       -4.2270    -3.2300     0.1140 H     1 <1>   0.0800 
 52 H       -3.2140    -3.9540     1.3260 H     1 <1>   0.0800 
@<TRIPOS>BOND
  1   1   2  2   
  2   2   3  am  
  3   2   4  1   
  4   3   5  1   
  5   3  25  1   
  6   4   6  1   
  7   4   7  2   
  8   5   8  1   
  9   5  26  1   
 10   5  27  1   
 11   6   9  1   
 12   7  10  1   
 13   7  28  1   
 14   8  11  2   
 15   8  12  1   
 16   9  10  2   
 17   9  13  1   
 18  10  14  1   
 19  11  15  1   
 20  11  16  1   
 21  12  17  2   
 22  12  18  1   
 23  13  19  1   
 24  13  29  1   
 25  13  30  1   
 26  14  20  1   
 27  14  31  1   
 28  14  32  1   
 29  15  17  1   
 30  16  33  1   
 31  16  34  1   
 32  16  35  1   
 33  18  36  1   
 34  18  37  1   
 35  18  38  1   
 36  19  39  1   
 37  19  40  1   
 38  19  41  1   
 39  20  21  1   
 40  20  22  1   
 41  20  42  1   
 42  21  23  1   
 43  21  43  1   
 44  21  44  1   
 45  22  24  1   
 46  22  45  1   
 47  22  46  1   
 48  23  47  1   
 49  23  48  1   
 50  23  49  1   
 51  24  50  1   
 52  24  51  1   
 53  24  52  1   
@<TRIPOS>SUBSTRUCTURE
  1 ****   4 GROUP 4 **** **** 0

# MOE 2024.06 (io_trps.svl 2023.06)
