@<TRIPOS>MOLECULE
NONAME
41 43 1 0 0 
SMALL
USER_CHARGES


@<TRIPOS>ATOM
  1 O       -1.7860    -0.5040    -2.8480 O.2   1 <1>  -0.5700 
  2 C       -1.9990    -0.8490    -1.7190 C.2   1 <1>   0.5690 
  3 N       -1.9940     0.0500    -0.7210 N.am  1 <1>  -0.7300 
  4 C       -2.3150    -2.2910    -1.4280 C.3   1 <1>  -0.0190 
  5 C       -2.2480    -0.2430     0.7090 C.3   1 <1>   0.2200 
  6 C       -1.2740    -2.9220    -0.4760 C.3   1 <1>   0.1200 
  7 C       -3.7880    -2.3910    -1.0070 C.3   1 <1>   0.3430 
  8 C       -1.2020    -1.2520     1.2460 C.3   1 <1>   0.1200 
  9 C       -3.7210    -0.6990     0.9170 C.3   1 <1>   0.3430 
 10 O       -1.4750    -2.5800     0.8710 O.3   1 <1>  -0.5600 
 11 N       -4.0290    -2.0990     0.4480 N.4   1 <1>  -0.9590 
 12 C       -5.3500    -2.5890     0.9210 C.3   1 <1>   0.4860 
 13 C       -5.4190    -4.0860     0.6880 C.ar  1 <1>  -0.1440 
 14 C       -4.5650    -4.9420     1.3710 C.ar  1 <1>  -0.1500 
 15 C       -6.3250    -4.6100    -0.2240 C.ar  1 <1>  -0.1500 
 16 C       -4.6120    -6.3030     1.1310 C.ar  1 <1>  -0.1500 
 17 C       -6.3710    -5.9720    -0.4610 C.ar  1 <1>  -0.1500 
 18 C       -5.5080    -6.8280     0.2160 C.ar  1 <1>   0.0820 
 19 O       -5.4830    -8.1710     0.0410 O.3   1 <1>  -0.3620 
 20 C       -6.4130    -8.8250    -0.7940 C.3   1 <1>   0.0400 
 21 H       -1.7180     1.0050    -0.9780 H     1 <1>   0.3700 
 22 H       -2.2250    -2.8050    -2.3680 H     1 <1>   0.0800 
 23 H       -2.1120     0.6810     1.2440 H     1 <1>   0.0800 
 24 H       -0.2720    -2.6400    -0.7600 H     1 <1>   0.0800 
 25 H       -1.3430    -3.9950    -0.5350 H     1 <1>   0.0800 
 26 H       -4.1090    -3.3990    -1.2160 H     1 <1>   0.0800 
 27 H       -4.3790    -1.7290    -1.6190 H     1 <1>   0.0800 
 28 H       -1.2110    -1.2310     2.3220 H     1 <1>   0.0800 
 29 H       -0.2090    -0.9900     0.9200 H     1 <1>   0.0800 
 30 H       -4.3720     0.0020     0.4220 H     1 <1>   0.0800 
 31 H       -3.9280    -0.6430     1.9730 H     1 <1>   0.0800 
 32 H       -3.3130    -2.6890     0.9170 H     1 <1>   0.4500 
 33 H       -5.4670    -2.3910     1.9740 H     1 <1>   0.0800 
 34 H       -6.1450    -2.0940     0.3860 H     1 <1>   0.0800 
 35 H       -3.8580    -4.5710     2.0930 H     1 <1>   0.1500 
 36 H       -7.0050    -3.9690    -0.7590 H     1 <1>   0.1500 
 37 H       -3.9530    -6.9750     1.6550 H     1 <1>   0.1500 
 38 H       -7.0810    -6.3530    -1.1720 H     1 <1>   0.1500 
 39 H       -6.2200    -9.8810    -0.7440 H     1 <1>   0.0800 
 40 H       -6.2830    -8.4780    -1.8030 H     1 <1>   0.0800 
 41 H       -7.4070    -8.6180    -0.4380 H     1 <1>   0.0800 
@<TRIPOS>BOND
  1   1   2  2   
  2   2   3  am  
  3   2   4  1   
  4   3   5  1   
  5   3  21  1   
  6   4   6  1   
  7   4   7  1   
  8   4  22  1   
  9   5   8  1   
 10   5   9  1   
 11   5  23  1   
 12   6  10  1   
 13   6  24  1   
 14   6  25  1   
 15   7  11  1   
 16   7  26  1   
 17   7  27  1   
 18   8  10  1   
 19   8  28  1   
 20   8  29  1   
 21   9  11  1   
 22   9  30  1   
 23   9  31  1   
 24  11  12  1   
 25  11  32  1   
 26  12  13  1   
 27  12  33  1   
 28  12  34  1   
 29  13  14  ar  
 30  13  15  ar  
 31  14  16  ar  
 32  14  35  1   
 33  15  17  ar  
 34  15  36  1   
 35  16  18  ar  
 36  16  37  1   
 37  17  18  ar  
 38  17  38  1   
 39  18  19  1   
 40  19  20  1   
 41  20  39  1   
 42  20  40  1   
 43  20  41  1   
@<TRIPOS>SUBSTRUCTURE
  1 ****   7 GROUP 4 **** **** 0

# MOE 2024.06 (io_trps.svl 2023.06)
