@<TRIPOS>MOLECULE
NONAME
56 58 1 0 0 
SMALL
USER_CHARGES


@<TRIPOS>ATOM
  1 O        0.8060     1.2750     0.0230 O.co2 1 <1>  -0.9000 
  2 C       -0.3020     1.5340    -0.4670 C.2   1 <1>   0.9060 
  3 O       -0.5910     1.1800    -1.6240 O.co2 1 <1>  -0.9000 
  4 C       -1.3820     2.1600     0.4660 C.3   1 <1>   0.2280 
  5 N       -2.6840     1.4020     0.5730 N.3   1 <1>  -0.8100 
  6 C       -1.7060     3.6130     0.1040 C.ar  1 <1>  -0.1440 
  7 C       -2.4660    -0.0610     0.6650 C.3   1 <1>   0.1100 
  8 C       -3.5790     1.8770     1.6440 C.3   1 <1>   0.1100 
  9 C       -1.4560     4.6410     1.0040 C.ar  1 <1>  -0.1500 
 10 C       -2.2720     3.9170    -1.1240 C.ar  1 <1>  -0.1500 
 11 C       -3.8050    -0.8300     0.6930 C.3   1 <1>   0.3430 
 12 C       -4.9460     1.1560     1.5720 C.3   1 <1>   0.3430 
 13 C       -1.7840     5.9490     0.6890 C.ar  1 <1>  -0.1500 
 14 C       -2.6010     5.2220    -1.4420 C.ar  1 <1>  -0.1500 
 15 N       -4.9510     0.1200     0.4780 N.4   1 <1>  -0.9590 
 16 C       -2.3650     6.2470    -0.5410 C.ar  1 <1>   0.0830 
 17 C       -6.2640    -0.4950     0.1420 C.3   1 <1>   0.4230 
 18 O       -2.7230     7.4970    -0.9370 O.3   1 <1>  -0.3630 
 19 C       -6.1200    -1.3980    -1.0910 C.3   1 <1>  -0.1600 
 20 C       -7.3100     0.5970    -0.1170 C.3   1 <1>  -0.1600 
 21 C       -2.4250     8.6560    -0.1920 C.3   1 <1>   0.2000 
 22 C       -7.4880    -1.8590    -1.5950 C.3   1 <1>   0.1200 
 23 C       -8.5970    -0.0020    -0.6850 C.3   1 <1>   0.1200 
 24 C       -3.5280     8.8710     0.8470 C.3   1 <1>  -0.2400 
 25 C       -2.3660     9.8190    -1.1790 C.3   1 <1>  -0.2400 
 26 O       -8.2770    -0.7380    -1.8180 O.3   1 <1>  -0.5600 
 27 H       -0.9260     2.1570     1.4380 H     1 <1>   0.0800 
 28 H       -1.8810    -0.2980     1.5380 H     1 <1>   0.0800 
 29 H       -1.9140    -0.4030    -0.1940 H     1 <1>   0.0800 
 30 H       -3.7440     2.9360     1.5400 H     1 <1>   0.0800 
 31 H       -3.1230     1.7100     2.6050 H     1 <1>   0.0800 
 32 H       -1.0020     4.4210     1.9530 H     1 <1>   0.1500 
 33 H       -2.4460     3.1220    -1.8320 H     1 <1>   0.1500 
 34 H       -3.9110    -1.3360     1.6370 H     1 <1>   0.0800 
 35 H       -3.7750    -1.5730    -0.0850 H     1 <1>   0.0800 
 36 H       -5.7010     1.8990     1.3800 H     1 <1>   0.0800 
 37 H       -5.1630     0.6990     2.5220 H     1 <1>   0.0800 
 38 H       -1.5780     6.7140     1.4100 H     1 <1>   0.1500 
 39 H       -3.0370     5.4510    -2.3970 H     1 <1>   0.1500 
 40 H       -4.6140     0.6660    -0.3360 H     1 <1>   0.4500 
 41 H       -6.6000    -1.0990     0.9700 H     1 <1>   0.0800 
 42 H       -5.5450    -2.2740    -0.8570 H     1 <1>   0.0800 
 43 H       -5.6320    -0.8640    -1.8880 H     1 <1>   0.0800 
 44 H       -6.9330     1.3130    -0.8270 H     1 <1>   0.0800 
 45 H       -7.5600     1.1090     0.7930 H     1 <1>   0.0800 
 46 H       -1.4600     8.5380     0.2700 H     1 <1>   0.0800 
 47 H       -7.9860    -2.5000    -0.8870 H     1 <1>   0.0800 
 48 H       -7.3910    -2.3820    -2.5320 H     1 <1>   0.0800 
 49 H       -9.2800     0.7760    -0.9830 H     1 <1>   0.0800 
 50 H       -9.0900    -0.6480     0.0220 H     1 <1>   0.0800 
 51 H       -4.4800     8.9830     0.3600 H     1 <1>   0.0800 
 52 H       -3.3280     9.7600     1.4160 H     1 <1>   0.0800 
 53 H       -3.5770     8.0390     1.5250 H     1 <1>   0.0800 
 54 H       -3.3120     9.9350    -1.6790 H     1 <1>   0.0800 
 55 H       -1.5990     9.6370    -1.9090 H     1 <1>   0.0800 
 56 H       -2.1350    10.7320    -0.6610 H     1 <1>   0.0800 
@<TRIPOS>BOND
  1   1   2  ar  
  2   2   3  ar  
  3   2   4  1   
  4   4   5  1   
  5   4   6  1   
  6   4  27  1   
  7   5   7  1   
  8   5   8  1   
  9   6   9  ar  
 10   6  10  ar  
 11   7  11  1   
 12   7  28  1   
 13   7  29  1   
 14   8  12  1   
 15   8  30  1   
 16   8  31  1   
 17   9  13  ar  
 18   9  32  1   
 19  10  14  ar  
 20  10  33  1   
 21  11  15  1   
 22  11  34  1   
 23  11  35  1   
 24  12  15  1   
 25  12  36  1   
 26  12  37  1   
 27  13  16  ar  
 28  13  38  1   
 29  14  16  ar  
 30  14  39  1   
 31  15  17  1   
 32  15  40  1   
 33  16  18  1   
 34  17  19  1   
 35  17  20  1   
 36  17  41  1   
 37  18  21  1   
 38  19  22  1   
 39  19  42  1   
 40  19  43  1   
 41  20  23  1   
 42  20  44  1   
 43  20  45  1   
 44  21  24  1   
 45  21  25  1   
 46  21  46  1   
 47  22  26  1   
 48  22  47  1   
 49  22  48  1   
 50  23  26  1   
 51  23  49  1   
 52  23  50  1   
 53  24  51  1   
 54  24  52  1   
 55  24  53  1   
 56  25  54  1   
 57  25  55  1   
 58  25  56  1   
@<TRIPOS>SUBSTRUCTURE
  1 ****   5 GROUP 4 **** **** 0

# MOE 2024.06 (io_trps.svl 2023.06)
