@<TRIPOS>MOLECULE
NONAME
52 55 1 0 0 
SMALL
USER_CHARGES


@<TRIPOS>ATOM
  1 O       -3.7200    -3.1580     2.8010 O.2   1 <1>  -0.5700 
  2 C       -3.9850    -2.5980     1.7520 C.2   1 <1>   0.5410 
  3 C       -4.9020    -3.1340     0.8160 C.2   1 <1>  -0.1360 
  4 C       -3.3900    -1.3600     1.3900 C.2   1 <1>  -0.1360 
  5 C       -5.1910    -2.4960    -0.3520 C.2   1 <1>   0.0910 
  6 C       -3.7010    -0.7660     0.2150 C.2   1 <1>  -0.0620 
  7 O       -4.5730    -1.3290    -0.6280 O.3   1 <1>  -0.1530 
  8 C       -6.1060    -3.0120    -1.3490 C.2   1 <1>   0.6160 
  9 C       -3.1260     0.5480    -0.2750 C.3   1 <1>  -0.1020 
 10 O       -5.9910    -4.1800    -1.6790 O.2   1 <1>  -0.5700 
 11 N       -7.1250    -2.2670    -1.9150 N.am  1 <1>  -0.6600 
 12 C       -8.1730    -2.9510    -2.7290 C.3   1 <1>   0.1400 
 13 C       -7.5040    -0.8940    -1.4860 C.3   1 <1>   0.1400 
 14 C       -9.1080    -3.8080    -1.8560 C.3   1 <1>   0.1400 
 15 C       -8.4620    -0.9240    -0.2900 C.3   1 <1>  -0.1600 
 16 N       -9.4720    -3.1850    -0.5370 N.am  1 <1>  -0.6600 
 17 C       -9.7520    -1.7230    -0.5260 C.3   1 <1>   0.1400 
 18 C       -9.4180    -3.8970     0.6490 C.2   1 <1>   0.5440 
 19 O       -9.4550    -3.2840     1.7020 O.2   1 <1>  -0.5700 
 20 C       -9.2930    -5.3370     0.6800 C.ar  1 <1>   0.0860 
 21 C      -10.2460    -6.1680     0.0560 C.ar  1 <1>   0.0000 
 22 C       -8.2300    -5.9590     1.3170 C.ar  1 <1>  -0.1500 
 23 C      -10.0910    -7.5530     0.0530 C.ar  1 <1>  -0.1520 
 24 C      -11.4470    -5.9070    -0.6370 C.2   1 <1>  -0.1500 
 25 C       -8.0800    -7.3470     1.3210 C.ar  1 <1>  -0.1500 
 26 N      -11.1460    -8.1090    -0.6320 N.pl3 1 <1>   0.0480 
 27 C       -9.0010    -8.1500     0.6880 C.ar  1 <1>  -0.1500 
 28 C      -11.9600    -7.0930    -1.0410 C.2   1 <1>  -0.3020 
 29 C      -11.3670    -9.5450    -0.8650 C.3   1 <1>   0.0160 
 30 H       -5.3550    -4.0730     1.0700 H     1 <1>   0.1500 
 31 H       -2.6950    -0.9440     2.0950 H     1 <1>   0.1500 
 32 H       -3.9170     1.2610    -0.4250 H     1 <1>   0.0800 
 33 H       -2.6140     0.3970    -1.2080 H     1 <1>   0.0800 
 34 H       -2.4310     0.9490     0.4400 H     1 <1>   0.0800 
 35 H       -7.7000    -3.5840    -3.4600 H     1 <1>   0.0800 
 36 H       -8.7530    -2.2230    -3.2670 H     1 <1>   0.0800 
 37 H       -7.9760    -0.3860    -2.3090 H     1 <1>   0.0800 
 38 H       -6.6330    -0.3220    -1.2300 H     1 <1>   0.0800 
 39 H       -8.6100    -4.7470    -1.6880 H     1 <1>   0.0800 
 40 H      -10.0070    -4.0200    -2.4070 H     1 <1>   0.0800 
 41 H       -8.7380     0.0900    -0.0660 H     1 <1>   0.0800 
 42 H       -7.9540    -1.3080     0.5770 H     1 <1>   0.0800 
 43 H      -10.2200    -1.4300    -1.4480 H     1 <1>   0.0800 
 44 H      -10.4440    -1.5110     0.2720 H     1 <1>   0.0800 
 45 H       -7.5000    -5.3520     1.8210 H     1 <1>   0.1500 
 46 H      -11.8510    -4.9220    -0.7900 H     1 <1>   0.1500 
 47 H       -7.2340    -7.7830     1.8240 H     1 <1>   0.1500 
 48 H       -8.8900    -9.2190     0.6840 H     1 <1>   0.1500 
 49 H      -12.8640    -7.2740    -1.5940 H     1 <1>   0.1500 
 50 H      -10.5250    -9.9500    -1.3960 H     1 <1>   0.0800 
 51 H      -12.2590    -9.6830    -1.4470 H     1 <1>   0.0800 
 52 H      -11.4740   -10.0440     0.0800 H     1 <1>   0.0800 
@<TRIPOS>BOND
  1   1   2  2   
  2   2   3  1   
  3   2   4  1   
  4   3   5  2   
  5   3  30  1   
  6   4   6  2   
  7   4  31  1   
  8   5   7  1   
  9   5   8  1   
 10   6   7  1   
 11   6   9  1   
 12   8  10  2   
 13   8  11  am  
 14   9  32  1   
 15   9  33  1   
 16   9  34  1   
 17  11  12  1   
 18  11  13  1   
 19  12  14  1   
 20  12  35  1   
 21  12  36  1   
 22  13  15  1   
 23  13  37  1   
 24  13  38  1   
 25  14  16  1   
 26  14  39  1   
 27  14  40  1   
 28  15  17  1   
 29  15  41  1   
 30  15  42  1   
 31  16  17  1   
 32  16  18  am  
 33  17  43  1   
 34  17  44  1   
 35  18  19  2   
 36  18  20  1   
 37  20  21  ar  
 38  20  22  ar  
 39  21  23  ar  
 40  21  24  1   
 41  22  25  ar  
 42  22  45  1   
 43  23  26  1   
 44  23  27  ar  
 45  24  28  2   
 46  24  46  1   
 47  25  27  ar  
 48  25  47  1   
 49  26  28  1   
 50  26  29  1   
 51  27  48  1   
 52  28  49  1   
 53  29  50  1   
 54  29  51  1   
 55  29  52  1   
@<TRIPOS>SUBSTRUCTURE
  1 ****  18 GROUP 4 **** **** 0

# MOE 2024.06 (io_trps.svl 2023.06)
