@<TRIPOS>MOLECULE
NONAME
49 52 1 0 0 
SMALL
USER_CHARGES


@<TRIPOS>ATOM
  1 O       -1.1770     0.1680     0.4600 O.2   1 <1>  -0.5700 
  2 C       -1.9900     1.0360     0.7240 C.2   1 <1>   0.5440 
  3 N       -3.2670     0.6410     1.0510 N.am  1 <1>  -0.6600 
  4 C       -1.6100     2.4370     0.6570 C.ar  1 <1>   0.0860 
  5 C       -3.5340    -0.7720     1.4430 C.3   1 <1>   0.1400 
  6 C       -4.4690     1.3310     0.5010 C.3   1 <1>   0.1400 
  7 C       -0.7020     2.8960    -0.2730 C.ar  1 <1>  -0.1500 
  8 C       -2.1540     3.3810     1.5520 C.ar  1 <1>  -0.1500 
  9 C       -3.9540    -1.5600     0.1810 C.3   1 <1>   0.4230 
 10 C       -4.9590     0.5550    -0.7320 C.3   1 <1>  -0.1600 
 11 C       -0.3330     4.2500    -0.3660 C.ar  1 <1>   0.0000 
 12 C       -1.8140     4.7050     1.4840 C.ar  1 <1>  -0.1500 
 13 N       -4.1330    -3.0350     0.4000 N.4   1 <1>  -0.9590 
 14 C       -5.2390    -0.9430    -0.4150 C.3   1 <1>  -0.1060 
 15 C       -0.9050     5.1820     0.5280 C.ar  1 <1>   0.3100 
 16 C        0.5860     4.7310    -1.3150 C.ar  1 <1>  -0.1500 
 17 C       -4.4130    -3.7520    -0.8690 C.3   1 <1>   0.3430 
 18 C       -3.0600    -3.6890     1.1950 C.3   1 <1>   0.2630 
 19 C       -6.3720    -1.0790     0.6220 C.2   1 <1>   0.9060 
 20 C       -5.6040    -1.6710    -1.7310 C.3   1 <1>  -0.1600 
 21 N       -0.6130     6.5050     0.5000 N.ar  1 <1>  -0.6200 
 22 C        0.8670     6.0630    -1.3220 C.ar  1 <1>  -0.1500 
 23 C       -5.6740    -3.1930    -1.5330 C.3   1 <1>  -0.1600 
 24 O       -6.3900    -2.0750     1.3650 O.co2 1 <1>  -0.9000 
 25 O       -7.2200    -0.1930     0.7140 O.co2 1 <1>  -0.9000 
 26 C        0.2400     6.9070    -0.3940 C.ar  1 <1>   0.1600 
 27 H       -2.6400    -1.1880     1.8700 H     1 <1>   0.0800 
 28 H       -4.3080    -0.7940     2.1910 H     1 <1>   0.0800 
 29 H       -5.2410     1.3660     1.2530 H     1 <1>   0.0800 
 30 H       -4.2390     2.3420     0.2160 H     1 <1>   0.0800 
 31 H       -0.2540     2.1980    -0.9580 H     1 <1>   0.1500 
 32 H       -2.8490     3.0390     2.3000 H     1 <1>   0.1500 
 33 H       -3.1590    -1.4280    -0.5340 H     1 <1>   0.0800 
 34 H       -5.8610     1.0210    -1.0920 H     1 <1>   0.0800 
 35 H       -4.2200     0.6430    -1.5080 H     1 <1>   0.0800 
 36 H       -2.2340     5.4220     2.1650 H     1 <1>   0.1500 
 37 H       -5.0350    -3.0430     0.9490 H     1 <1>   0.4500 
 38 H        1.0460     4.0490    -2.0080 H     1 <1>   0.1500 
 39 H       -3.5760    -3.6410    -1.5380 H     1 <1>   0.0800 
 40 H       -4.5570    -4.8010    -0.6700 H     1 <1>   0.0800 
 41 H       -2.1080    -3.5760     0.7010 H     1 <1>   0.0800 
 42 H       -3.2740    -4.7380     1.3110 H     1 <1>   0.0800 
 43 H       -3.0010    -3.2460     2.1750 H     1 <1>   0.0800 
 44 H       -6.5570    -1.3110    -2.0840 H     1 <1>   0.0800 
 45 H       -4.8690    -1.4500    -2.4850 H     1 <1>   0.0800 
 46 H        1.5610     6.4870    -2.0240 H     1 <1>   0.1500 
 47 H       -5.8140    -3.6710    -2.4860 H     1 <1>   0.0800 
 48 H       -6.5290    -3.4420    -0.9250 H     1 <1>   0.0800 
 49 H        0.4810     7.9560    -0.4260 H     1 <1>   0.1500 
@<TRIPOS>BOND
  1   1   2  2   
  2   2   3  am  
  3   2   4  1   
  4   3   5  1   
  5   3   6  1   
  6   4   7  ar  
  7   4   8  ar  
  8   5   9  1   
  9   5  27  1   
 10   5  28  1   
 11   6  10  1   
 12   6  29  1   
 13   6  30  1   
 14   7  11  ar  
 15   7  31  1   
 16   8  12  ar  
 17   8  32  1   
 18   9  13  1   
 19   9  14  1   
 20   9  33  1   
 21  10  14  1   
 22  10  34  1   
 23  10  35  1   
 24  11  15  ar  
 25  11  16  ar  
 26  12  15  ar  
 27  12  36  1   
 28  13  17  1   
 29  13  18  1   
 30  13  37  1   
 31  14  19  1   
 32  14  20  1   
 33  15  21  ar  
 34  16  22  ar  
 35  16  38  1   
 36  17  23  1   
 37  17  39  1   
 38  17  40  1   
 39  18  41  1   
 40  18  42  1   
 41  18  43  1   
 42  19  24  ar  
 43  19  25  ar  
 44  20  23  1   
 45  20  44  1   
 46  20  45  1   
 47  21  26  ar  
 48  22  26  ar  
 49  22  46  1   
 50  23  47  1   
 51  23  48  1   
 52  26  49  1   
@<TRIPOS>SUBSTRUCTURE
  1 ****   3 GROUP 4 **** **** 0

# MOE 2024.06 (io_trps.svl 2023.06)
