@<TRIPOS>MOLECULE
NONAME
52 55 1 0 0 
SMALL
USER_CHARGES


@<TRIPOS>ATOM
  1 O       -0.3670     6.7280     2.0780 O.3   1 <1>  -0.3630 
  2 C       -0.3950     6.1020     0.8780 C.ar  1 <1>   0.0830 
  3 C        0.8300     6.8200     2.8220 C.3   1 <1>   0.0400 
  4 C       -1.6470     5.8350     0.3560 C.ar  1 <1>  -0.1500 
  5 C        0.7390     5.7480     0.1570 C.ar  1 <1>  -0.1500 
  6 C       -1.7910     5.2680    -0.9040 C.ar  1 <1>  -0.1430 
  7 C        0.6060     5.1520    -1.0850 C.ar  1 <1>  -0.1500 
  8 C       -0.6510     4.9180    -1.6170 C.ar  1 <1>  -0.1500 
  9 C       -3.1650     5.0430    -1.5160 C.3   1 <1>   0.5660 
 10 N       -3.9070     6.3460    -1.6150 N.4   1 <1>  -0.9590 
 11 C       -3.9640     4.0350    -0.6800 C.3   1 <1>  -0.1600 
 12 C       -5.2630     6.1480    -2.2170 C.3   1 <1>   0.3430 
 13 C       -3.1610     7.4200    -2.3710 C.3   1 <1>   0.5110 
 14 C       -5.3830     3.8270    -1.2190 C.3   1 <1>  -0.1600 
 15 C       -6.0880     5.1780    -1.3720 C.3   1 <1>  -0.1600 
 16 C       -2.1530     8.2080    -1.5160 C.2   1 <1>   0.1820 
 17 N       -2.4510     8.9100    -0.3640 N.pl3 1 <1>  -0.7000 
 18 C       -0.8240     8.3280    -1.7250 C.2   1 <1>   0.2000 
 19 C       -1.3000     9.4110     0.1290 C.cat 1 <1>   0.7910 
 20 N       -0.2900     9.0840    -0.7060 N.pl3 1 <1>  -0.6290 
 21 C       -1.0520    10.1570     1.2920 C.2   1 <1>  -0.1410 
 22 C        1.0030     9.4640    -0.4200 C.2   1 <1>   0.2290 
 23 C        0.2270    10.5460     1.5850 C.2   1 <1>  -0.1500 
 24 C        1.2740    10.1880     0.7090 C.2   1 <1>  -0.1380 
 25 C        2.6860    10.6300     1.0610 C.3   1 <1>  -0.1020 
 26 H        0.6000     7.2560     3.7770 H     1 <1>   0.0800 
 27 H        1.5270     7.4460     2.2940 H     1 <1>   0.0800 
 28 H        1.2320     5.8310     2.9620 H     1 <1>   0.0800 
 29 H       -2.4980     6.0920     0.9610 H     1 <1>   0.1500 
 30 H        1.7260     5.9240     0.5460 H     1 <1>   0.1500 
 31 H        1.4870     4.8640    -1.6350 H     1 <1>   0.1500 
 32 H       -0.7210     4.4480    -2.5850 H     1 <1>   0.1500 
 33 H       -3.0400     4.6330    -2.5060 H     1 <1>   0.0800 
 34 H       -4.0380     6.6490    -0.6450 H     1 <1>   0.4500 
 35 H       -4.0170     4.3600     0.3440 H     1 <1>   0.0800 
 36 H       -3.4440     3.0910    -0.6830 H     1 <1>   0.0800 
 37 H       -5.1680     5.7520    -3.2170 H     1 <1>   0.0800 
 38 H       -5.7870     7.0900    -2.2780 H     1 <1>   0.0800 
 39 H       -3.8700     8.1290    -2.7670 H     1 <1>   0.0800 
 40 H       -2.6480     6.9770    -3.2100 H     1 <1>   0.0800 
 41 H       -5.9410     3.1950    -0.5480 H     1 <1>   0.0800 
 42 H       -5.3400     3.3280    -2.1740 H     1 <1>   0.0800 
 43 H       -7.0430     5.0240    -1.8450 H     1 <1>   0.0800 
 44 H       -6.2780     5.6080    -0.4030 H     1 <1>   0.0800 
 45 H       -3.3470     9.0880     0.0970 H     1 <1>   0.4500 
 46 H       -0.2100     7.9200    -2.5130 H     1 <1>   0.1500 
 47 H       -1.8730    10.4070     1.9370 H     1 <1>   0.1500 
 48 H        1.7810     9.1730    -1.1090 H     1 <1>   0.1500 
 49 H        0.4500    11.1190     2.4720 H     1 <1>   0.1500 
 50 H        2.9730    10.2280     2.0170 H     1 <1>   0.0800 
 51 H        2.7340    11.7040     1.1140 H     1 <1>   0.0800 
 52 H        3.3950    10.2960     0.3240 H     1 <1>   0.0800 
@<TRIPOS>BOND
  1   1   2  1   
  2   1   3  1   
  3   2   4  ar  
  4   2   5  ar  
  5   3  26  1   
  6   3  27  1   
  7   3  28  1   
  8   4   6  ar  
  9   4  29  1   
 10   5   7  ar  
 11   5  30  1   
 12   6   8  ar  
 13   6   9  1   
 14   7   8  ar  
 15   7  31  1   
 16   8  32  1   
 17   9  10  1   
 18   9  11  1   
 19   9  33  1   
 20  10  12  1   
 21  10  13  1   
 22  10  34  1   
 23  11  14  1   
 24  11  35  1   
 25  11  36  1   
 26  12  15  1   
 27  12  37  1   
 28  12  38  1   
 29  13  16  1   
 30  13  39  1   
 31  13  40  1   
 32  14  15  1   
 33  14  41  1   
 34  14  42  1   
 35  15  43  1   
 36  15  44  1   
 37  16  17  1   
 38  16  18  2   
 39  17  19  ar  
 40  17  45  1   
 41  18  20  1   
 42  18  46  1   
 43  19  20  ar  
 44  19  21  1   
 45  20  22  1   
 46  21  23  2   
 47  21  47  1   
 48  22  24  2   
 49  22  48  1   
 50  23  24  1   
 51  23  49  1   
 52  24  25  1   
 53  25  50  1   
 54  25  51  1   
 55  25  52  1   
@<TRIPOS>SUBSTRUCTURE
  1 ****   4 GROUP 4 **** **** 0

# MOE 2024.06 (io_trps.svl 2023.06)
