@<TRIPOS>MOLECULE
NONAME
60 62 1 0 0 
SMALL
USER_CHARGES


@<TRIPOS>ATOM
  1 O        0.4520     0.1240    -0.3930 O.2   1 <1>  -0.5700 
  2 C        1.3560    -0.6600    -0.6100 C.2   1 <1>   0.5440 
  3 N        2.6580    -0.2460    -0.4190 N.am  1 <1>  -0.6600 
  4 C        1.0350    -2.0000    -1.0590 C.ar  1 <1>   0.0860 
  5 C        3.0130     1.1950    -0.2350 C.3   1 <1>   0.1400 
  6 C        3.7940    -1.1720    -0.1250 C.3   1 <1>   0.1400 
  7 C        0.0390    -2.7550    -0.4690 C.ar  1 <1>  -0.1500 
  8 C        1.6870    -2.6170    -2.1190 C.ar  1 <1>  -0.1500 
  9 C        3.7220     1.4140     1.1100 C.3   1 <1>   0.1200 
 10 C        4.4650    -0.8060     1.2110 C.3   1 <1>   0.1200 
 11 C       -0.2540    -4.0370    -0.9160 C.ar  1 <1>   0.4100 
 12 C        1.3390    -3.8990    -2.4930 C.ar  1 <1>   0.1600 
 13 O        4.8160     0.5480     1.2360 O.3   1 <1>  -0.5600 
 14 N        0.3970    -4.6200    -1.9150 N.ar  1 <1>  -0.6200 
 15 N       -1.2680    -4.7550    -0.3100 N.pl3 1 <1>  -0.8380 
 16 C       -2.6580    -4.2230    -0.4410 C.3   1 <1>   0.2090 
 17 C       -1.2430    -6.2480    -0.3980 C.3   1 <1>   0.2090 
 18 C       -3.6420    -4.9560     0.5020 C.3   1 <1>   0.2000 
 19 C       -2.2890    -6.8870     0.5430 C.3   1 <1>   0.2000 
 20 O       -3.5550    -6.3430     0.2990 O.3   1 <1>  -0.5600 
 21 C       -5.1170    -4.5340     0.2970 C.3   1 <1>  -0.0800 
 22 C       -2.4190    -8.4050     0.3610 C.3   1 <1>  -0.1600 
 23 C       -5.3300    -3.0260     0.5180 C.3   1 <1>  -0.2400 
 24 C       -6.0610    -5.3050     1.2360 C.3   1 <1>  -0.2400 
 25 C       -1.1380    -9.1700     0.7330 C.3   1 <1>  -0.1600 
 26 C       -1.3500   -10.6840     0.6180 C.3   1 <1>  -0.1600 
 27 C       -0.0740   -11.4480     0.9810 C.3   1 <1>  -0.2400 
 28 H        3.6670     1.5010    -1.0320 H     1 <1>   0.0800 
 29 H        2.1340     1.8140    -0.2780 H     1 <1>   0.0800 
 30 H        3.4510    -2.1900    -0.0700 H     1 <1>   0.0800 
 31 H        4.5210    -1.1030    -0.9150 H     1 <1>   0.0800 
 32 H       -0.5180    -2.3480     0.3520 H     1 <1>   0.1500 
 33 H        2.4600    -2.0910    -2.6480 H     1 <1>   0.1500 
 34 H        3.0440     1.2390     1.9270 H     1 <1>   0.0800 
 35 H        4.0910     2.4220     1.1760 H     1 <1>   0.0800 
 36 H        5.3650    -1.3800     1.3440 H     1 <1>   0.0800 
 37 H        3.8020    -1.0050     2.0350 H     1 <1>   0.0800 
 38 H        1.8610    -4.3590    -3.3150 H     1 <1>   0.1500 
 39 H       -2.6580    -3.1730    -0.2120 H     1 <1>   0.0800 
 40 H       -2.9870    -4.3420    -1.4590 H     1 <1>   0.0800 
 41 H       -1.4440    -6.5500    -1.4120 H     1 <1>   0.0800 
 42 H       -0.2600    -6.5950    -0.1360 H     1 <1>   0.0800 
 43 H       -3.3610    -4.7550     1.5210 H     1 <1>   0.0800 
 44 H       -2.0270    -6.6710     1.5640 H     1 <1>   0.0800 
 45 H       -5.3900    -4.7640    -0.7190 H     1 <1>   0.0800 
 46 H       -3.2220    -8.7470     0.9910 H     1 <1>   0.0800 
 47 H       -2.6800    -8.6150    -0.6610 H     1 <1>   0.0800 
 48 H       -5.0010    -2.7370     1.5010 H     1 <1>   0.0800 
 49 H       -6.3740    -2.7810     0.4240 H     1 <1>   0.0800 
 50 H       -4.7950    -2.4470    -0.2120 H     1 <1>   0.0800 
 51 H       -5.8040    -5.1220     2.2640 H     1 <1>   0.0800 
 52 H       -5.9930    -6.3630     1.0510 H     1 <1>   0.0800 
 53 H       -7.0810    -5.0060     1.0750 H     1 <1>   0.0800 
 54 H       -0.3340    -8.8810     0.0780 H     1 <1>   0.0800 
 55 H       -0.8540    -8.9260     1.7420 H     1 <1>   0.0800 
 56 H       -2.1460   -10.9890     1.2770 H     1 <1>   0.0800 
 57 H       -1.6380   -10.9330    -0.3890 H     1 <1>   0.0800 
 58 H        0.2190   -11.2300     1.9930 H     1 <1>   0.0800 
 59 H        0.7290   -11.1740     0.3200 H     1 <1>   0.0800 
 60 H       -0.2420   -12.5060     0.8940 H     1 <1>   0.0800 
@<TRIPOS>BOND
  1   1   2  2   
  2   2   3  am  
  3   2   4  1   
  4   3   5  1   
  5   3   6  1   
  6   4   7  ar  
  7   4   8  ar  
  8   5   9  1   
  9   5  28  1   
 10   5  29  1   
 11   6  10  1   
 12   6  30  1   
 13   6  31  1   
 14   7  11  ar  
 15   7  32  1   
 16   8  12  ar  
 17   8  33  1   
 18   9  13  1   
 19   9  34  1   
 20   9  35  1   
 21  10  13  1   
 22  10  36  1   
 23  10  37  1   
 24  11  14  ar  
 25  11  15  1   
 26  12  14  ar  
 27  12  38  1   
 28  15  16  1   
 29  15  17  1   
 30  16  18  1   
 31  16  39  1   
 32  16  40  1   
 33  17  19  1   
 34  17  41  1   
 35  17  42  1   
 36  18  20  1   
 37  18  21  1   
 38  18  43  1   
 39  19  20  1   
 40  19  22  1   
 41  19  44  1   
 42  21  23  1   
 43  21  24  1   
 44  21  45  1   
 45  22  25  1   
 46  22  46  1   
 47  22  47  1   
 48  23  48  1   
 49  23  49  1   
 50  23  50  1   
 51  24  51  1   
 52  24  52  1   
 53  24  53  1   
 54  25  26  1   
 55  25  54  1   
 56  25  55  1   
 57  26  27  1   
 58  26  56  1   
 59  26  57  1   
 60  27  58  1   
 61  27  59  1   
 62  27  60  1   
@<TRIPOS>SUBSTRUCTURE
  1 ****  11 GROUP 4 **** **** 0

# MOE 2024.06 (io_trps.svl 2023.06)
