@<TRIPOS>MOLECULE
NONAME
63 65 1 0 0 
SMALL
USER_CHARGES


@<TRIPOS>ATOM
  1 O        1.1250     0.0570    -1.1060 O.2   1 <1>  -0.5700 
  2 C        1.8670    -0.3830    -0.2620 C.2   1 <1>   0.5690 
  3 N        2.7870     0.4280     0.3550 N.am  1 <1>  -0.6600 
  4 C        1.7650    -1.8600     0.0780 C.3   1 <1>  -0.0990 
  5 C        3.9480    -0.0320     1.1820 C.3   1 <1>   0.1400 
  6 C        2.6460     1.9070     0.2520 C.3   1 <1>   0.1400 
  7 C        0.4790    -2.4970    -0.4730 C.3   1 <1>   0.0960 
  8 C        5.3040     0.1180     0.4540 C.3   1 <1>   0.3430 
  9 C        3.3850     2.4360    -0.9800 C.3   1 <1>  -0.1600 
 10 N        0.4130    -3.9200    -0.0940 N.pl3 1 <1>   0.0480 
 11 N        5.5360     1.4660    -0.1850 N.4   1 <1>  -0.9590 
 12 C        4.6420     1.6570    -1.3650 C.3   1 <1>   0.3430 
 13 C        0.8030    -4.9880    -0.7890 C.2   1 <1>   0.0360 
 14 C       -0.0230    -4.4580     1.0460 C.2   1 <1>   0.0360 
 15 C        6.9610     1.6420    -0.6060 C.3   1 <1>   0.3430 
 16 N        0.6290    -6.0800    -0.1290 N.2   1 <1>  -0.3380 
 17 N        0.1000    -5.7400     1.0480 N.2   1 <1>  -0.3380 
 18 C        7.8940     1.8370     0.5920 C.3   1 <1>  -0.0220 
 19 C        9.3120     2.0950     0.0850 C.2   1 <1>  -0.2760 
 20 C       10.1370     1.0890    -0.2650 C.2   1 <1>  -0.2760 
 21 C        9.7330     3.5840     0.0260 C.3   1 <1>   0.1380 
 22 C       11.5780     1.3020    -0.7240 C.3   1 <1>  -0.0220 
 23 C        9.8060    -0.4030    -0.2700 C.3   1 <1>  -0.1020 
 24 C       11.0390     3.7480    -0.7820 C.3   1 <1>  -0.1600 
 25 C        8.6770     4.4670    -0.6630 C.3   1 <1>  -0.2400 
 26 C        9.9500     4.1010     1.4580 C.3   1 <1>  -0.2400 
 27 C       12.0950     2.7060    -0.4150 C.3   1 <1>  -0.1600 
 28 H        1.7690    -1.9660     1.1470 H     1 <1>   0.0800 
 29 H        2.6180    -2.3670    -0.3340 H     1 <1>   0.0800 
 30 H        3.8270    -1.0630     1.4610 H     1 <1>   0.0800 
 31 H        3.9730     0.5330     2.0980 H     1 <1>   0.0800 
 32 H        3.0340     2.3690     1.1440 H     1 <1>   0.0800 
 33 H        1.6030     2.1720     0.1860 H     1 <1>   0.0800 
 34 H        0.4540    -2.4210    -1.5470 H     1 <1>   0.0800 
 35 H       -0.3850    -1.9900    -0.0800 H     1 <1>   0.0800 
 36 H        5.3700    -0.6460    -0.3040 H     1 <1>   0.0800 
 37 H        6.0840    -0.0800     1.1700 H     1 <1>   0.0800 
 38 H        3.6220     3.4750    -0.8370 H     1 <1>   0.0800 
 39 H        2.7060     2.3910    -1.8150 H     1 <1>   0.0800 
 40 H        5.3130     2.2060     0.4920 H     1 <1>   0.4500 
 41 H        5.1570     2.2000    -2.1420 H     1 <1>   0.0800 
 42 H        4.3560     0.6980    -1.7670 H     1 <1>   0.0800 
 43 H        1.2140    -4.9330    -1.7810 H     1 <1>   0.1500 
 44 H       -0.4240    -3.8810     1.8590 H     1 <1>   0.1500 
 45 H        7.0420     2.5110    -1.2370 H     1 <1>   0.0800 
 46 H        7.2910     0.7920    -1.1800 H     1 <1>   0.0800 
 47 H        7.9010     0.9620     1.2120 H     1 <1>   0.0800 
 48 H        7.5510     2.6490     1.2040 H     1 <1>   0.0800 
 49 H       11.6320     1.1290    -1.7850 H     1 <1>   0.0800 
 50 H       12.2290     0.5930    -0.2420 H     1 <1>   0.0800 
 51 H       10.0130    -0.8170    -1.2420 H     1 <1>   0.0800 
 52 H        8.7820    -0.6130    -0.0380 H     1 <1>   0.0800 
 53 H       10.4220    -0.9120     0.4500 H     1 <1>   0.0800 
 54 H       11.4440     4.7350    -0.6360 H     1 <1>   0.0800 
 55 H       10.8250     3.6430    -1.8310 H     1 <1>   0.0800 
 56 H        8.4710     4.1000    -1.6520 H     1 <1>   0.0800 
 57 H        9.0460     5.4740    -0.7540 H     1 <1>   0.0800 
 58 H        7.7630     4.5110    -0.1030 H     1 <1>   0.0800 
 59 H       10.6240     3.4550     1.9920 H     1 <1>   0.0800 
 60 H        9.0290     4.1420     2.0070 H     1 <1>   0.0800 
 61 H       10.3690     5.0910     1.4440 H     1 <1>   0.0800 
 62 H       12.9980     2.8860    -0.9720 H     1 <1>   0.0800 
 63 H       12.3370     2.7760     0.6310 H     1 <1>   0.0800 
@<TRIPOS>BOND
  1   1   2  2   
  2   2   3  am  
  3   2   4  1   
  4   3   5  1   
  5   3   6  1   
  6   4   7  1   
  7   4  28  1   
  8   4  29  1   
  9   5   8  1   
 10   5  30  1   
 11   5  31  1   
 12   6   9  1   
 13   6  32  1   
 14   6  33  1   
 15   7  10  1   
 16   7  34  1   
 17   7  35  1   
 18   8  11  1   
 19   8  36  1   
 20   8  37  1   
 21   9  12  1   
 22   9  38  1   
 23   9  39  1   
 24  10  13  1   
 25  10  14  1   
 26  11  12  1   
 27  11  15  1   
 28  11  40  1   
 29  12  41  1   
 30  12  42  1   
 31  13  16  2   
 32  13  43  1   
 33  14  17  2   
 34  14  44  1   
 35  15  18  1   
 36  15  45  1   
 37  15  46  1   
 38  16  17  1   
 39  18  19  1   
 40  18  47  1   
 41  18  48  1   
 42  19  20  2   
 43  19  21  1   
 44  20  22  1   
 45  20  23  1   
 46  21  24  1   
 47  21  25  1   
 48  21  26  1   
 49  22  27  1   
 50  22  49  1   
 51  22  50  1   
 52  23  51  1   
 53  23  52  1   
 54  23  53  1   
 55  24  27  1   
 56  24  54  1   
 57  24  55  1   
 58  25  56  1   
 59  25  57  1   
 60  25  58  1   
 61  26  59  1   
 62  26  60  1   
 63  26  61  1   
 64  27  62  1   
 65  27  63  1   
@<TRIPOS>SUBSTRUCTURE
  1 ****   8 GROUP 4 **** **** 0

# MOE 2024.06 (io_trps.svl 2023.06)
