@<TRIPOS>MOLECULE
NONAME
39 40 1 0 0 
SMALL
USER_CHARGES


@<TRIPOS>ATOM
  1 O       -0.4790    -0.1320    -0.5350 O.2   1 <1>  -0.5700 
  2 C       -1.3970     0.5660    -0.1450 C.2   1 <1>   0.7160 
  3 N       -2.3960    -0.0200     0.6080 N.am  1 <1>  -0.6600 
  4 C       -1.4050     1.9780    -0.4640 C.2   1 <1>  -0.0860 
  5 C       -2.4910    -1.5010     0.7170 C.3   1 <1>   0.3200 
  6 C       -3.2700     0.7620     1.5380 C.3   1 <1>   0.1400 
  7 C       -0.2940     2.8310    -0.5150 C.2   1 <1>   0.1080 
  8 C       -2.4360     2.8100    -0.7870 C.2   1 <1>  -0.3020 
  9 C       -3.6410    -2.0100    -0.1300 C.2   1 <1>  -0.3320 
 10 C       -4.7320     0.7890     1.0720 C.3   1 <1>   0.1200 
 11 N       -0.6070     4.0490    -0.8190 N.2   1 <1>  -0.7070 
 12 C        1.1390     2.4230    -0.2500 C.3   1 <1>  -0.0590 
 13 N       -1.9340     4.0350    -0.9890 N.pl3 1 <1>   0.3140 
 14 N       -4.3020    -3.1580     0.1130 N.pl3 1 <1>   0.0330 
 15 C       -4.2100    -1.4790    -1.2350 C.2   1 <1>   0.0770 
 16 O       -5.4440     1.6910     1.8520 O.3   1 <1>  -0.6800 
 17 C       -2.6700     5.2480    -1.3540 C.3   1 <1>   0.0160 
 18 C       -5.2440    -3.2400    -0.8510 C.2   1 <1>   0.0070 
 19 N       -5.2230    -2.2480    -1.6770 N.2   1 <1>  -0.5650 
 20 C       -6.2230    -4.3890    -0.9490 C.3   1 <1>  -0.0600 
 21 H       -2.6480    -1.7670     1.7480 H     1 <1>   0.0800 
 22 H       -1.5800    -1.9770     0.3960 H     1 <1>   0.0800 
 23 H       -2.9100     1.7730     1.6140 H     1 <1>   0.0800 
 24 H       -3.2180     0.3250     2.5200 H     1 <1>   0.0800 
 25 H       -3.4810     2.5890    -0.8850 H     1 <1>   0.1500 
 26 H       -5.1960    -0.1770     1.1640 H     1 <1>   0.0800 
 27 H       -4.7990     1.1190     0.0510 H     1 <1>   0.0800 
 28 H        1.2040     1.8810     0.6750 H     1 <1>   0.0800 
 29 H        1.7640     3.2950    -0.1900 H     1 <1>   0.0800 
 30 H        1.4890     1.7970    -1.0500 H     1 <1>   0.0800 
 31 H       -4.1380    -3.8400     0.8590 H     1 <1>   0.2700 
 32 H       -3.9380    -0.5680    -1.7430 H     1 <1>   0.1500 
 33 H       -5.6190     1.3270     2.7410 H     1 <1>   0.4000 
 34 H       -3.7250     5.0490    -1.3390 H     1 <1>   0.0800 
 35 H       -2.3680     5.5540    -2.3380 H     1 <1>   0.0800 
 36 H       -2.4340     6.0220    -0.6480 H     1 <1>   0.0800 
 37 H       -6.8210    -4.4430    -0.0580 H     1 <1>   0.0800 
 38 H       -5.6940    -5.3150    -1.0840 H     1 <1>   0.0800 
 39 H       -6.8740    -4.2390    -1.7920 H     1 <1>   0.0800 
@<TRIPOS>BOND
  1   1   2  2   
  2   2   3  am  
  3   2   4  1   
  4   3   5  1   
  5   3   6  1   
  6   4   7  1   
  7   4   8  2   
  8   5   9  1   
  9   5  21  1   
 10   5  22  1   
 11   6  10  1   
 12   6  23  1   
 13   6  24  1   
 14   7  11  2   
 15   7  12  1   
 16   8  13  1   
 17   8  25  1   
 18   9  14  1   
 19   9  15  2   
 20  10  16  1   
 21  10  26  1   
 22  10  27  1   
 23  11  13  1   
 24  12  28  1   
 25  12  29  1   
 26  12  30  1   
 27  13  17  1   
 28  14  18  1   
 29  14  31  1   
 30  15  19  1   
 31  15  32  1   
 32  16  33  1   
 33  17  34  1   
 34  17  35  1   
 35  17  36  1   
 36  18  19  2   
 37  18  20  1   
 38  20  37  1   
 39  20  38  1   
 40  20  39  1   
@<TRIPOS>SUBSTRUCTURE
  1 ****   3 GROUP 4 **** **** 0

# MOE 2024.06 (io_trps.svl 2023.06)
