@<TRIPOS>MOLECULE
NONAME
40 41 1 0 0 
SMALL
USER_CHARGES


@<TRIPOS>ATOM
  1 O        0.1280     0.7030    -0.0110 O.3   1 <1>  -0.6800 
  2 C        0.0570     2.0020     0.4560 C.3   1 <1>   0.2000 
  3 C       -1.3110     2.6070     0.0980 C.3   1 <1>  -0.0800 
  4 C        1.2120     2.7840    -0.1990 C.3   1 <1>   0.3430 
  5 C       -1.2980     4.1230     0.3940 C.3   1 <1>  -0.1600 
  6 C       -2.4580     1.8900     0.8330 C.3   1 <1>   0.1200 
  7 N        1.1590     4.2570     0.1030 N.4   1 <1>  -0.9590 
  8 C       -0.1520     4.8410    -0.3180 C.3   1 <1>   0.3430 
  9 O       -3.6520     2.5040     0.5010 O.3   1 <1>  -0.6800 
 10 C        2.3160     4.9490    -0.5300 C.3   1 <1>   0.3430 
 11 C        2.4850     6.3490     0.0570 C.3   1 <1>  -0.1600 
 12 C        3.7430     7.0320    -0.4960 C.3   1 <1>   0.0960 
 13 N        3.8590     8.3770     0.0890 N.pl3 1 <1>   0.0480 
 14 C        4.4600     8.6940     1.2660 C.2   1 <1>  -0.3020 
 15 C        3.3320     9.5240    -0.4150 C.2   1 <1>  -0.3020 
 16 C        4.3170    10.0240     1.5040 C.2   1 <1>  -0.1500 
 17 C        3.5970    10.5540     0.4300 C.2   1 <1>  -0.1500 
 18 H       -0.5330     0.1210     0.4170 H     1 <1>   0.4000 
 19 H        0.1980     1.9750     1.5240 H     1 <1>   0.0800 
 20 H       -1.4660     2.4750    -0.9610 H     1 <1>   0.0800 
 21 H        1.1510     2.6380    -1.2650 H     1 <1>   0.0800 
 22 H        2.1450     2.3720     0.1480 H     1 <1>   0.0800 
 23 H       -1.2360     4.3000     1.4530 H     1 <1>   0.0800 
 24 H       -2.2200     4.5630     0.0530 H     1 <1>   0.0800 
 25 H       -2.3370     1.9500     1.9020 H     1 <1>   0.0800 
 26 H       -2.5240     0.8580     0.5330 H     1 <1>   0.0800 
 27 H        1.2360     4.3730     1.1230 H     1 <1>   0.4500 
 28 H       -0.1900     5.8910    -0.0760 H     1 <1>   0.0800 
 29 H       -0.2750     4.7360    -1.3850 H     1 <1>   0.0800 
 30 H       -4.4150     2.0380     0.9010 H     1 <1>   0.4000 
 31 H        3.2160     4.3840    -0.3450 H     1 <1>   0.0800 
 32 H        2.1720     5.0090    -1.5980 H     1 <1>   0.0800 
 33 H        2.5770     6.2830     1.1270 H     1 <1>   0.0800 
 34 H        1.6360     6.9610    -0.1890 H     1 <1>   0.0800 
 35 H        3.6880     7.1310    -1.5660 H     1 <1>   0.0800 
 36 H        4.6270     6.4740    -0.2440 H     1 <1>   0.0800 
 37 H        4.9610     7.9660     1.8790 H     1 <1>   0.1500 
 38 H        2.7970     9.5590    -1.3470 H     1 <1>   0.1500 
 39 H        4.6790    10.5900     2.3460 H     1 <1>   0.1500 
 40 H        3.3200    11.5890     0.3220 H     1 <1>   0.1500 
@<TRIPOS>BOND
  1   1   2  1   
  2   1  18  1   
  3   2   3  1   
  4   2   4  1   
  5   2  19  1   
  6   3   5  1   
  7   3   6  1   
  8   3  20  1   
  9   4   7  1   
 10   4  21  1   
 11   4  22  1   
 12   5   8  1   
 13   5  23  1   
 14   5  24  1   
 15   6   9  1   
 16   6  25  1   
 17   6  26  1   
 18   7   8  1   
 19   7  10  1   
 20   7  27  1   
 21   8  28  1   
 22   8  29  1   
 23   9  30  1   
 24  10  11  1   
 25  10  31  1   
 26  10  32  1   
 27  11  12  1   
 28  11  33  1   
 29  11  34  1   
 30  12  13  1   
 31  12  35  1   
 32  12  36  1   
 33  13  14  1   
 34  13  15  1   
 35  14  16  2   
 36  14  37  1   
 37  15  17  2   
 38  15  38  1   
 39  16  17  1   
 40  16  39  1   
 41  17  40  1   
@<TRIPOS>SUBSTRUCTURE
  1 ****   7 GROUP 4 **** **** 0

# MOE 2024.06 (io_trps.svl 2023.06)
