@<TRIPOS>MOLECULE
NONAME
58 60 1 0 0 
SMALL
USER_CHARGES


@<TRIPOS>ATOM
  1 O       -1.3930     0.5700    -1.7160 O.2   1 <1>  -0.5700 
  2 C       -1.2900     0.6530    -0.5160 C.2   1 <1>   0.5690 
  3 N       -1.5770    -0.4010     0.2870 N.am  1 <1>  -0.7300 
  4 C       -0.8420     1.9590     0.1420 C.3   1 <1>  -0.0190 
  5 C       -2.0540    -1.7160    -0.1920 C.3   1 <1>   0.2200 
  6 C       -2.0230     2.6590     0.8410 C.3   1 <1>  -0.1600 
  7 C       -0.1710     2.9330    -0.8500 C.3   1 <1>  -0.1600 
  8 C       -3.5650    -1.7810    -0.0430 C.3   1 <1>  -0.0800 
  9 C       -1.6030    -2.8020     0.7770 C.3   1 <1>   0.1200 
 10 C       -1.5890     3.9690     1.5030 C.3   1 <1>   0.1400 
 11 C        0.2370     4.2460    -0.1770 C.3   1 <1>   0.1400 
 12 C       -3.7350    -2.2210     1.4170 C.3   1 <1>   0.1200 
 13 C       -4.1860    -2.7830    -1.0350 C.3   1 <1>  -0.0170 
 14 O       -2.5130    -2.7620     1.8340 O.3   1 <1>  -0.5600 
 15 N       -0.9500     4.8540     0.4890 N.am  1 <1>  -0.6600 
 16 C       -5.7000    -2.8330    -0.9030 C.ar  1 <1>  -0.1440 
 17 C       -1.4970     6.0780     0.1820 C.2   1 <1>   0.5690 
 18 C       -6.3520    -3.8900    -0.3000 C.ar  1 <1>  -0.1500 
 19 C       -6.5030    -1.8190    -1.3860 C.ar  1 <1>  -0.1500 
 20 O       -2.5530     6.4280     0.6580 O.2   1 <1>  -0.5700 
 21 C       -0.7920     7.0190    -0.7940 C.3   1 <1>  -0.0990 
 22 C       -7.7340    -3.8790    -0.2070 C.ar  1 <1>   0.1600 
 23 C       -7.8780    -1.9060    -1.2420 C.ar  1 <1>   0.1600 
 24 C       -1.2420     8.4960    -0.7450 C.3   1 <1>  -0.0800 
 25 N       -8.5120    -2.9120    -0.6620 N.ar  1 <1>  -0.6200 
 26 C       -0.6230     9.2770    -1.9120 C.3   1 <1>  -0.2400 
 27 C       -0.8480     9.1610     0.5810 C.3   1 <1>  -0.2400 
 28 H       -1.5440    -0.3150     1.3040 H     1 <1>   0.3700 
 29 H       -0.1130     1.7020     0.8890 H     1 <1>   0.0800 
 30 H       -1.7140    -1.8950    -1.1990 H     1 <1>   0.0800 
 31 H       -2.4450     2.0130     1.5890 H     1 <1>   0.0800 
 32 H       -2.7950     2.8750     0.1220 H     1 <1>   0.0800 
 33 H       -0.8500     3.1560    -1.6550 H     1 <1>   0.0800 
 34 H        0.6980     2.4660    -1.2790 H     1 <1>   0.0800 
 35 H       -4.0110    -0.8160    -0.2080 H     1 <1>   0.0800 
 36 H       -0.6070    -2.6420     1.1490 H     1 <1>   0.0800 
 37 H       -1.6710    -3.7740     0.3210 H     1 <1>   0.0800 
 38 H       -0.8810     3.7700     2.2890 H     1 <1>   0.0800 
 39 H       -2.4450     4.4480     1.9460 H     1 <1>   0.0800 
 40 H        0.6520     4.8990    -0.9220 H     1 <1>   0.0800 
 41 H        0.9960     4.0590     0.5630 H     1 <1>   0.0800 
 42 H       -4.5040    -2.9620     1.5460 H     1 <1>   0.0800 
 43 H       -3.9480    -1.3750     2.0480 H     1 <1>   0.0800 
 44 H       -3.7770    -3.7660    -0.8790 H     1 <1>   0.0800 
 45 H       -3.9390    -2.4860    -2.0400 H     1 <1>   0.0800 
 46 H       -5.8000    -4.7220     0.0990 H     1 <1>   0.1500 
 47 H       -6.0720    -0.9630    -1.8730 H     1 <1>   0.1500 
 48 H        0.2630     6.9930    -0.6040 H     1 <1>   0.0800 
 49 H       -0.9660     6.6330    -1.7810 H     1 <1>   0.0800 
 50 H       -8.2240    -4.7120     0.2680 H     1 <1>   0.1500 
 51 H       -8.4870    -1.1060    -1.6250 H     1 <1>   0.1500 
 52 H       -2.3150     8.5350    -0.8460 H     1 <1>   0.0800 
 53 H        0.4510     9.2640    -1.8520 H     1 <1>   0.0800 
 54 H       -0.9560    10.2990    -1.8910 H     1 <1>   0.0800 
 55 H       -0.9220     8.8470    -2.8510 H     1 <1>   0.0800 
 56 H        0.2190     9.1410     0.7170 H     1 <1>   0.0800 
 57 H       -1.3100     8.6540     1.4090 H     1 <1>   0.0800 
 58 H       -1.1770    10.1850     0.5950 H     1 <1>   0.0800 
@<TRIPOS>BOND
  1   1   2  2   
  2   2   3  am  
  3   2   4  1   
  4   3   5  1   
  5   3  28  1   
  6   4   6  1   
  7   4   7  1   
  8   4  29  1   
  9   5   8  1   
 10   5   9  1   
 11   5  30  1   
 12   6  10  1   
 13   6  31  1   
 14   6  32  1   
 15   7  11  1   
 16   7  33  1   
 17   7  34  1   
 18   8  12  1   
 19   8  13  1   
 20   8  35  1   
 21   9  14  1   
 22   9  36  1   
 23   9  37  1   
 24  10  15  1   
 25  10  38  1   
 26  10  39  1   
 27  11  15  1   
 28  11  40  1   
 29  11  41  1   
 30  12  14  1   
 31  12  42  1   
 32  12  43  1   
 33  13  16  1   
 34  13  44  1   
 35  13  45  1   
 36  15  17  am  
 37  16  18  ar  
 38  16  19  ar  
 39  17  20  2   
 40  17  21  1   
 41  18  22  ar  
 42  18  46  1   
 43  19  23  ar  
 44  19  47  1   
 45  21  24  1   
 46  21  48  1   
 47  21  49  1   
 48  22  25  ar  
 49  22  50  1   
 50  23  25  ar  
 51  23  51  1   
 52  24  26  1   
 53  24  27  1   
 54  24  52  1   
 55  26  53  1   
 56  26  54  1   
 57  26  55  1   
 58  27  56  1   
 59  27  57  1   
 60  27  58  1   
@<TRIPOS>SUBSTRUCTURE
  1 ****   2 GROUP 4 **** **** 0

# MOE 2024.06 (io_trps.svl 2023.06)
