@<TRIPOS>MOLECULE
NONAME
44 45 1 0 0 
SMALL
USER_CHARGES


@<TRIPOS>ATOM
  1 O       -2.2460     1.9760    -2.8330 O.2   1 <1>  -0.5700 
  2 C       -2.4010     1.9000    -1.6280 C.2   1 <1>   0.7160 
  3 N       -3.2620     0.9520    -1.1250 N.am  1 <1>  -0.6600 
  4 C       -1.6940     2.8190    -0.7650 C.2   1 <1>  -0.0860 
  5 C       -3.7590    -0.1690    -1.9940 C.3   1 <1>   0.1400 
  6 C       -3.8420     1.0360     0.2560 C.3   1 <1>   0.1400 
  7 C       -0.9580     2.6030     0.3620 C.2   1 <1>  -0.0400 
  8 C       -1.6250     4.2140    -0.9550 C.2   1 <1>  -0.1500 
  9 C       -4.2310    -1.3380    -1.1220 C.3   1 <1>   0.2000 
 10 C       -5.2890     0.5380     0.2430 C.3   1 <1>  -0.1600 
 11 O       -0.4950     3.7300     0.8470 O.3   1 <1>  -0.2800 
 12 C       -0.5970     1.3190     1.0820 C.3   1 <1>  -0.0600 
 13 C       -0.8880     4.7060     0.0590 C.2   1 <1>  -0.0400 
 14 O       -4.5610    -2.4450    -1.8850 O.3   1 <1>  -0.6800 
 15 C       -5.3920    -0.9690    -0.1580 C.3   1 <1>  -0.1060 
 16 C       -0.4720     6.1200     0.3940 C.3   1 <1>  -0.0600 
 17 C       -5.1350    -1.8960     1.0430 C.2   1 <1>   0.9060 
 18 C       -6.8340    -1.2410    -0.7010 C.3   1 <1>  -0.1600 
 19 O       -4.7930    -1.4260     2.1350 O.co2 1 <1>  -0.9000 
 20 O       -5.2100    -3.1200     0.8570 O.co2 1 <1>  -0.9000 
 21 C       -7.2090    -0.6060    -2.0550 C.3   1 <1>  -0.1600 
 22 C       -8.6560    -0.9390    -2.4290 C.3   1 <1>  -0.2400 
 23 H       -4.5690     0.1910    -2.6010 H     1 <1>   0.0800 
 24 H       -2.9630    -0.5040    -2.6350 H     1 <1>   0.0800 
 25 H       -3.2680     0.4250     0.9320 H     1 <1>   0.0800 
 26 H       -3.8170     2.0520     0.6100 H     1 <1>   0.0800 
 27 H       -2.0890     4.7360    -1.7730 H     1 <1>   0.1500 
 28 H       -3.3750    -1.6370    -0.5380 H     1 <1>   0.0800 
 29 H       -5.7250     0.6850     1.2160 H     1 <1>   0.0800 
 30 H       -5.8330     1.1670    -0.4330 H     1 <1>   0.0800 
 31 H       -0.9270     0.4630     0.5220 H     1 <1>   0.0800 
 32 H       -1.0570     1.3030     2.0530 H     1 <1>   0.0800 
 33 H        0.4700     1.2600     1.2010 H     1 <1>   0.0800 
 34 H       -4.8760    -3.1230    -1.2350 H     1 <1>   0.4000 
 35 H       -0.8620     6.8050    -0.3370 H     1 <1>   0.0800 
 36 H        0.6010     6.1890     0.4030 H     1 <1>   0.0800 
 37 H       -0.8480     6.3880     1.3640 H     1 <1>   0.0800 
 38 H       -6.9710    -2.3060    -0.7930 H     1 <1>   0.0800 
 39 H       -7.5360    -0.9130     0.0460 H     1 <1>   0.0800 
 40 H       -7.1000     0.4620    -2.0260 H     1 <1>   0.0800 
 41 H       -6.5610    -0.9870    -2.8250 H     1 <1>   0.0800 
 42 H       -9.3330    -0.5550    -1.6860 H     1 <1>   0.0800 
 43 H       -8.7850    -2.0050    -2.4980 H     1 <1>   0.0800 
 44 H       -8.9010    -0.5010    -3.3800 H     1 <1>   0.0800 
@<TRIPOS>BOND
  1   1   2  2   
  2   2   3  am  
  3   2   4  1   
  4   3   5  1   
  5   3   6  1   
  6   4   7  2   
  7   4   8  1   
  8   5   9  1   
  9   5  23  1   
 10   5  24  1   
 11   6  10  1   
 12   6  25  1   
 13   6  26  1   
 14   7  11  1   
 15   7  12  1   
 16   8  13  2   
 17   8  27  1   
 18   9  14  1   
 19   9  15  1   
 20   9  28  1   
 21  10  15  1   
 22  10  29  1   
 23  10  30  1   
 24  11  13  1   
 25  12  31  1   
 26  12  32  1   
 27  12  33  1   
 28  13  16  1   
 29  14  34  1   
 30  15  17  1   
 31  15  18  1   
 32  16  35  1   
 33  16  36  1   
 34  16  37  1   
 35  17  19  ar  
 36  17  20  ar  
 37  18  21  1   
 38  18  38  1   
 39  18  39  1   
 40  21  22  1   
 41  21  40  1   
 42  21  41  1   
 43  22  42  1   
 44  22  43  1   
 45  22  44  1   
@<TRIPOS>SUBSTRUCTURE
  1 ****   3 GROUP 4 **** **** 0

# MOE 2024.06 (io_trps.svl 2023.06)
