@<TRIPOS>MOLECULE
NONAME
50 52 1 0 0 
SMALL
USER_CHARGES


@<TRIPOS>ATOM
  1 F       -0.1200     1.9010    -0.0530 F     1 <1>  -0.1900 
  2 C        1.0210     2.0520     0.5630 C.ar  1 <1>   0.1900 
  3 C        1.1840     1.5370     1.8360 C.ar  1 <1>   0.1600 
  4 C        2.0380     2.7230    -0.0740 C.ar  1 <1>  -0.1500 
  5 N        2.3140     1.6500     2.5220 N.ar  1 <1>  -0.6200 
  6 C        3.2320     2.8630     0.6250 C.ar  1 <1>   0.0860 
  7 C        3.2940     2.2940     1.9020 C.ar  1 <1>   0.1600 
  8 C        4.3780     3.5610     0.0770 C.2   1 <1>   0.5440 
  9 O        5.4960     3.3750     0.5170 O.2   1 <1>  -0.5700 
 10 N        4.2590     4.5120    -0.9090 N.am  1 <1>  -0.6600 
 11 C        5.2700     4.6000    -2.0150 C.3   1 <1>   0.1400 
 12 C        3.4630     5.7430    -0.6760 C.3   1 <1>   0.1400 
 13 C        6.6050     5.2520    -1.5890 C.3   1 <1>   0.3430 
 14 C        4.2190     6.6930     0.2630 C.3   1 <1>  -0.1600 
 15 N        6.5270     5.9100    -0.2460 N.4   1 <1>  -0.9590 
 16 C        5.6230     7.0930    -0.2040 C.3   1 <1>   0.3430 
 17 C        7.8810     6.1490     0.3500 C.3   1 <1>   0.3430 
 18 C        8.6910     7.2380    -0.3770 C.3   1 <1>   0.1100 
 19 N       10.0690     7.2690     0.1270 N.3   1 <1>  -0.8100 
 20 C       10.9640     7.9860    -0.8100 C.3   1 <1>   0.1100 
 21 C       10.1800     7.8880     1.4700 C.3   1 <1>   0.1100 
 22 C       12.4040     8.0570    -0.2700 C.3   1 <1>   0.1200 
 23 C       11.6460     7.9600     1.9350 C.3   1 <1>   0.1200 
 24 O       12.4170     8.6490     0.9960 O.3   1 <1>  -0.5600 
 25 H        0.3620     1.0200     2.3000 H     1 <1>   0.1500 
 26 H        1.9030     3.1110    -1.0680 H     1 <1>   0.1500 
 27 H        4.2210     2.3810     2.4460 H     1 <1>   0.1500 
 28 H        4.8520     5.1500    -2.8400 H     1 <1>   0.0800 
 29 H        5.4770     3.6070    -2.3770 H     1 <1>   0.0800 
 30 H        2.5150     5.4840    -0.2320 H     1 <1>   0.0800 
 31 H        3.2580     6.2290    -1.6160 H     1 <1>   0.0800 
 32 H        6.9200     5.9580    -2.3390 H     1 <1>   0.0800 
 33 H        7.3480     4.4710    -1.5490 H     1 <1>   0.0800 
 34 H        4.2770     6.2610     1.2470 H     1 <1>   0.0800 
 35 H        3.6350     7.5910     0.3580 H     1 <1>   0.0800 
 36 H        6.0780     5.1640     0.3290 H     1 <1>   0.4500 
 37 H        6.0160     7.8180     0.4920 H     1 <1>   0.0800 
 38 H        5.5740     7.5580    -1.1750 H     1 <1>   0.0800 
 39 H        8.4460     5.2320     0.3200 H     1 <1>   0.0800 
 40 H        7.7690     6.4330     1.3830 H     1 <1>   0.0800 
 41 H        8.2370     8.2050    -0.2480 H     1 <1>   0.0800 
 42 H        8.7200     7.0040    -1.4260 H     1 <1>   0.0800 
 43 H       10.6080     8.9890    -0.9710 H     1 <1>   0.0800 
 44 H       10.9780     7.4760    -1.7580 H     1 <1>   0.0800 
 45 H        9.6240     7.3130     2.1890 H     1 <1>   0.0800 
 46 H        9.7790     8.8880     1.4530 H     1 <1>   0.0800 
 47 H       13.0190     8.6560    -0.9180 H     1 <1>   0.0800 
 48 H       12.8320     7.0730    -0.1960 H     1 <1>   0.0800 
 49 H       12.0550     6.9730     2.0620 H     1 <1>   0.0800 
 50 H       11.7180     8.4890     2.8690 H     1 <1>   0.0800 
@<TRIPOS>BOND
  1   1   2  1   
  2   2   3  ar  
  3   2   4  ar  
  4   3   5  ar  
  5   3  25  1   
  6   4   6  ar  
  7   4  26  1   
  8   5   7  ar  
  9   6   7  ar  
 10   6   8  1   
 11   7  27  1   
 12   8   9  2   
 13   8  10  am  
 14  10  11  1   
 15  10  12  1   
 16  11  13  1   
 17  11  28  1   
 18  11  29  1   
 19  12  14  1   
 20  12  30  1   
 21  12  31  1   
 22  13  15  1   
 23  13  32  1   
 24  13  33  1   
 25  14  16  1   
 26  14  34  1   
 27  14  35  1   
 28  15  16  1   
 29  15  17  1   
 30  15  36  1   
 31  16  37  1   
 32  16  38  1   
 33  17  18  1   
 34  17  39  1   
 35  17  40  1   
 36  18  19  1   
 37  18  41  1   
 38  18  42  1   
 39  19  20  1   
 40  19  21  1   
 41  20  22  1   
 42  20  43  1   
 43  20  44  1   
 44  21  23  1   
 45  21  45  1   
 46  21  46  1   
 47  22  24  1   
 48  22  47  1   
 49  22  48  1   
 50  23  24  1   
 51  23  49  1   
 52  23  50  1   
@<TRIPOS>SUBSTRUCTURE
  1 ****  15 GROUP 4 **** **** 0

# MOE 2024.06 (io_trps.svl 2023.06)
