@<TRIPOS>MOLECULE
NONAME
56 60 1 0 0 
SMALL
USER_CHARGES


@<TRIPOS>ATOM
  1 O        0.1820     0.5660     0.0290 O.2   1 <1>  -0.5700 
  2 C       -0.3950     1.6390    -0.0310 C.2   1 <1>   0.7150 
  3 N       -1.7770     1.6220    -0.1010 N.am  1 <1>  -0.6600 
  4 C        0.4060     2.8420    -0.0140 C.2   1 <1>   0.0550 
  5 C       -2.6680     2.7830     0.2110 C.3   1 <1>   0.1400 
  6 C       -2.4970     0.3320    -0.3420 C.3   1 <1>   0.1400 
  7 O       -0.0030     3.9840    -0.5190 O.3   1 <1>  -0.0190 
  8 C        1.6570     3.0720     0.4440 C.2   1 <1>  -0.1500 
  9 C       -3.6440     3.0660    -0.9540 C.3   1 <1>   0.1440 
 10 C       -3.9900     0.5420    -0.6540 C.3   1 <1>  -0.1600 
 11 N        0.8690     4.9370    -0.4120 N.2   1 <1>  -0.4100 
 12 C        1.8910     4.4120     0.1680 C.2   1 <1>   0.1080 
 13 C       -4.7270     3.9800    -0.4050 C.ar  1 <1>   0.1660 
 14 C       -4.2040     1.7560    -1.5720 C.3   1 <1>  -0.1600 
 15 C       -3.0040     3.9630    -2.0440 C.3   1 <1>  -0.1600 
 16 C        3.1690     5.1760     0.4930 C.3   1 <1>   0.1010 
 17 N       -5.7240     3.6070     0.3610 N.ar  1 <1>  -0.6200 
 18 C       -4.5290     5.2710    -0.7860 C.ar  1 <1>  -0.1440 
 19 C       -3.2990     5.4180    -1.6470 C.3   1 <1>  -0.0170 
 20 C        4.3720     4.5630    -0.2340 C.3   1 <1>  -0.2400 
 21 C        3.4140     5.2090     2.0060 C.3   1 <1>  -0.2400 
 22 C       -6.5640     4.5790     0.7410 C.ar  1 <1>   0.6200 
 23 C       -5.4300     6.2090    -0.3530 C.ar  1 <1>   0.1600 
 24 N       -6.4480     5.8730     0.4060 N.ar  1 <1>  -0.6200 
 25 C       -7.6890     4.1990     1.5860 C.ar  1 <1>   0.0000 
 26 C       -7.6210     3.0990     2.4470 C.ar  1 <1>  -0.1500 
 27 C       -8.8890     4.9160     1.5740 C.ar  1 <1>  -0.1500 
 28 C       -8.6880     2.7350     3.2490 C.ar  1 <1>  -0.1500 
 29 C       -9.9600     4.5580     2.3730 C.ar  1 <1>  -0.1500 
 30 C       -9.8610     3.4640     3.2140 C.ar  1 <1>  -0.1500 
 31 H       -2.1150     3.6670     0.4620 H     1 <1>   0.0800 
 32 H       -3.2410     2.5280     1.0860 H     1 <1>   0.0800 
 33 H       -2.3890    -0.3030     0.5210 H     1 <1>   0.0800 
 34 H       -2.0300    -0.1640    -1.1770 H     1 <1>   0.0800 
 35 H        2.3290     2.3780     0.9150 H     1 <1>   0.1500 
 36 H       -4.5330     0.6850     0.2650 H     1 <1>   0.0800 
 37 H       -4.3810    -0.3450    -1.1200 H     1 <1>   0.0800 
 38 H       -3.6990     1.5490    -2.4990 H     1 <1>   0.0800 
 39 H       -5.2520     1.8700    -1.7930 H     1 <1>   0.0800 
 40 H       -3.4930     3.7810    -2.9850 H     1 <1>   0.0800 
 41 H       -1.9540     3.7760    -2.1730 H     1 <1>   0.0800 
 42 H        3.0470     6.1890     0.1480 H     1 <1>   0.0800 
 43 H       -3.4790     6.0370    -2.5090 H     1 <1>   0.0800 
 44 H       -2.4900     5.8260    -1.0650 H     1 <1>   0.0800 
 45 H        4.5450     3.5540     0.0980 H     1 <1>   0.0800 
 46 H        5.2570     5.1450    -0.0480 H     1 <1>   0.0800 
 47 H        4.1890     4.5490    -1.2940 H     1 <1>   0.0800 
 48 H        3.5640     4.2160     2.3900 H     1 <1>   0.0800 
 49 H        2.5650     5.6460     2.5030 H     1 <1>   0.0800 
 50 H        4.2820     5.8020     2.2300 H     1 <1>   0.0800 
 51 H       -5.3150     7.2430    -0.6290 H     1 <1>   0.1500 
 52 H       -6.7160     2.5200     2.4890 H     1 <1>   0.1500 
 53 H       -8.9850     5.7690     0.9260 H     1 <1>   0.1500 
 54 H       -8.6040     1.8830     3.9010 H     1 <1>   0.1500 
 55 H      -10.8700     5.1300     2.3410 H     1 <1>   0.1500 
 56 H      -10.6930     3.1830     3.8370 H     1 <1>   0.1500 
@<TRIPOS>BOND
  1   1   2  2   
  2   2   3  am  
  3   2   4  1   
  4   3   5  1   
  5   3   6  1   
  6   4   7  1   
  7   4   8  2   
  8   5   9  1   
  9   5  31  1   
 10   5  32  1   
 11   6  10  1   
 12   6  33  1   
 13   6  34  1   
 14   7  11  1   
 15   8  12  1   
 16   8  35  1   
 17   9  13  1   
 18   9  14  1   
 19   9  15  1   
 20  10  14  1   
 21  10  36  1   
 22  10  37  1   
 23  11  12  2   
 24  12  16  1   
 25  13  17  ar  
 26  13  18  ar  
 27  14  38  1   
 28  14  39  1   
 29  15  19  1   
 30  15  40  1   
 31  15  41  1   
 32  16  20  1   
 33  16  21  1   
 34  16  42  1   
 35  17  22  ar  
 36  18  19  1   
 37  18  23  ar  
 38  19  43  1   
 39  19  44  1   
 40  20  45  1   
 41  20  46  1   
 42  20  47  1   
 43  21  48  1   
 44  21  49  1   
 45  21  50  1   
 46  22  24  ar  
 47  22  25  1   
 48  23  24  ar  
 49  23  51  1   
 50  25  26  ar  
 51  25  27  ar  
 52  26  28  ar  
 53  26  52  1   
 54  27  29  ar  
 55  27  53  1   
 56  28  30  ar  
 57  28  54  1   
 58  29  30  ar  
 59  29  55  1   
 60  30  56  1   
@<TRIPOS>SUBSTRUCTURE
  1 ****   5 GROUP 4 **** **** 0

# MOE 2024.06 (io_trps.svl 2023.06)
