@<TRIPOS>MOLECULE
NONAME
47 50 1 0 0 
SMALL
USER_CHARGES


@<TRIPOS>ATOM
  1 S        0.0570    -0.0080    -0.6770 S.3   1 <1>  -0.0800 
  2 C       -0.4070     1.4140     0.2520 C.2   1 <1>   0.3250 
  3 C       -1.1360    -0.9570     0.1520 C.2   1 <1>  -0.1400 
  4 N       -1.3580     1.1560     1.0810 N.2   1 <1>  -0.5650 
  5 C        0.2940     2.6540    -0.0100 C.ar  1 <1>   0.0530 
  6 C       -1.7590    -0.1590     1.0330 C.2   1 <1>   0.0770 
  7 C       -1.2360    -2.4130    -0.2510 C.3   1 <1>   0.5230 
  8 C       -0.3570     3.8910    -0.1330 C.ar  1 <1>  -0.1440 
  9 C        1.6850     2.6410    -0.1500 C.ar  1 <1>  -0.1500 
 10 N       -2.5230    -3.0000     0.2190 N.4   1 <1>  -0.9590 
 11 C        0.3690     5.0440    -0.3870 C.ar  1 <1>  -0.1500 
 12 C       -1.8700     4.0100     0.0010 C.3   1 <1>  -0.0970 
 13 C        2.4030     3.7930    -0.4050 C.ar  1 <1>  -0.1500 
 14 C       -2.5130    -4.4940     0.0680 C.3   1 <1>   0.3430 
 15 C       -3.6870    -2.3860    -0.4920 C.3   1 <1>   0.3430 
 16 C        1.7430     5.0000    -0.5250 C.ar  1 <1>  -0.1500 
 17 C       -3.8060    -5.1380     0.6020 C.3   1 <1>   0.1000 
 18 C       -4.9910    -2.9580     0.0680 C.3   1 <1>  -0.1600 
 19 C       -3.8110    -6.6350     0.3330 C.2   1 <1>  -0.3320 
 20 C       -5.0410    -4.4900    -0.0430 C.3   1 <1>  -0.1600 
 21 N       -4.6870    -7.4890     0.9150 N.pl3 1 <1>   0.3000 
 22 C       -3.0250    -7.3910    -0.4690 C.2   1 <1>  -0.1500 
 23 N       -4.4850    -8.7540     0.5180 N.2   1 <1>  -0.7070 
 24 C       -3.4920    -8.6910    -0.3110 C.2   1 <1>   0.1390 
 25 H       -2.5460    -0.4430     1.7110 H     1 <1>   0.1500 
 26 H       -0.4030    -2.9480     0.1750 H     1 <1>   0.0800 
 27 H       -1.1720    -2.4890    -1.3240 H     1 <1>   0.0800 
 28 H        2.2200     1.7150    -0.0500 H     1 <1>   0.1500 
 29 H       -2.6070    -2.7800     1.2190 H     1 <1>   0.4500 
 30 H       -0.1320     5.9920    -0.4800 H     1 <1>   0.1500 
 31 H       -2.3590     3.2910    -0.6310 H     1 <1>   0.0800 
 32 H       -2.2100     4.9900    -0.2820 H     1 <1>   0.0800 
 33 H       -2.1610     3.8320     1.0210 H     1 <1>   0.0800 
 34 H        3.4730     3.7530    -0.5090 H     1 <1>   0.1500 
 35 H       -1.6730    -4.9170     0.5970 H     1 <1>   0.0800 
 36 H       -2.4120    -4.7490    -0.9740 H     1 <1>   0.0800 
 37 H       -3.6270    -2.6010    -1.5480 H     1 <1>   0.0800 
 38 H       -3.6820    -1.3140    -0.3670 H     1 <1>   0.0800 
 39 H        2.2960     5.9020    -0.7220 H     1 <1>   0.1500 
 40 H       -3.8380    -4.9880     1.6680 H     1 <1>   0.0800 
 41 H       -5.8180    -2.5380    -0.4810 H     1 <1>   0.0800 
 42 H       -5.1050    -2.6550     1.0940 H     1 <1>   0.0800 
 43 H       -5.9370    -4.8560     0.4290 H     1 <1>   0.0800 
 44 H       -5.0860    -4.7710    -1.0830 H     1 <1>   0.0800 
 45 H       -5.4330    -7.2530     1.5830 H     1 <1>   0.2700 
 46 H       -2.2080    -7.1210    -1.1140 H     1 <1>   0.1500 
 47 H       -3.0850    -9.5550    -0.8120 H     1 <1>   0.1500 
@<TRIPOS>BOND
  1   1   2  1   
  2   1   3  1   
  3   2   4  2   
  4   2   5  1   
  5   3   6  2   
  6   3   7  1   
  7   4   6  1   
  8   5   8  ar  
  9   5   9  ar  
 10   6  25  1   
 11   7  10  1   
 12   7  26  1   
 13   7  27  1   
 14   8  11  ar  
 15   8  12  1   
 16   9  13  ar  
 17   9  28  1   
 18  10  14  1   
 19  10  15  1   
 20  10  29  1   
 21  11  16  ar  
 22  11  30  1   
 23  12  31  1   
 24  12  32  1   
 25  12  33  1   
 26  13  16  ar  
 27  13  34  1   
 28  14  17  1   
 29  14  35  1   
 30  14  36  1   
 31  15  18  1   
 32  15  37  1   
 33  15  38  1   
 34  16  39  1   
 35  17  19  1   
 36  17  20  1   
 37  17  40  1   
 38  18  20  1   
 39  18  41  1   
 40  18  42  1   
 41  19  21  1   
 42  19  22  2   
 43  20  43  1   
 44  20  44  1   
 45  21  23  1   
 46  21  45  1   
 47  22  24  1   
 48  22  46  1   
 49  23  24  2   
 50  24  47  1   
@<TRIPOS>SUBSTRUCTURE
  1 ****   3 GROUP 4 **** **** 0

# MOE 2024.06 (io_trps.svl 2023.06)
