@<TRIPOS>MOLECULE
NONAME
50 53 1 0 0 
SMALL
USER_CHARGES


@<TRIPOS>ATOM
  1 O        0.2430     2.8950    -0.2600 O.2   1 <1>  -0.5700 
  2 C       -0.8920     2.6090     0.1060 C.2   1 <1>   0.5440 
  3 N       -1.5970     3.4590     0.9540 N.am  1 <1>  -0.2980 
  4 C       -1.5230     1.3810    -0.2970 C.ar  1 <1>   0.0860 
  5 N       -2.8220     3.1500     1.4960 N.2   1 <1>  -0.5120 
  6 C       -1.0460     4.7960     1.3270 C.3   1 <1>   0.2010 
  7 C       -2.7850     1.0940     0.2390 C.ar  1 <1>   0.0860 
  8 C       -0.9400     0.4690    -1.1820 C.ar  1 <1>  -0.1500 
  9 C       -3.3620     2.0380     1.1450 C.2   1 <1>   0.3040 
 10 C       -0.5970     5.6250     0.1180 C.2   1 <1>   0.5690 
 11 C       -3.4260    -0.0940    -0.1250 C.ar  1 <1>  -0.1500 
 12 C       -1.5840    -0.6980    -1.5300 C.ar  1 <1>  -0.1500 
 13 O       -1.4400     5.9180    -0.6990 O.2   1 <1>  -0.5700 
 14 N        0.7120     6.0160    -0.0760 N.am  1 <1>  -0.6600 
 15 C       -2.8340    -0.9800    -0.9980 C.ar  1 <1>  -0.1500 
 16 C        1.7720     6.0320     1.0030 C.3   1 <1>   0.2200 
 17 C        1.1080     6.4000    -1.4690 C.3   1 <1>   0.1400 
 18 C        2.5270     7.3720     1.0470 C.3   1 <1>   0.1200 
 19 C        2.7550     4.8410     0.8880 C.3   1 <1>   0.3430 
 20 C        2.6150     6.3690    -1.7760 C.3   1 <1>  -0.0800 
 21 O        3.6230     7.3700     0.1880 O.3   1 <1>  -0.5600 
 22 N        2.7220     4.1780    -0.4550 N.4   1 <1>  -0.9590 
 23 C        3.3580     7.5640    -1.1590 C.3   1 <1>   0.1200 
 24 C        3.3320     5.0270    -1.5210 C.3   1 <1>   0.3430 
 25 C        3.4940     2.8720    -0.3620 C.3   1 <1>   0.2370 
 26 C        4.9550     3.0220     0.0730 C.2   1 <1>   0.9060 
 27 O        5.1920     3.0800     1.2830 O.co2 1 <1>  -0.9000 
 28 O        5.8040     3.2030    -0.8050 O.co2 1 <1>  -0.9000 
 29 H       -1.8090     5.3520     1.8400 H     1 <1>   0.0800 
 30 H       -0.2410     4.6300     2.0120 H     1 <1>   0.0800 
 31 H        0.0300     0.6870    -1.5960 H     1 <1>   0.1500 
 32 H       -4.3230     1.7830     1.5550 H     1 <1>   0.0600 
 33 H       -4.3970    -0.3170     0.2830 H     1 <1>   0.1500 
 34 H       -1.1240    -1.3930    -2.2130 H     1 <1>   0.1500 
 35 H       -3.3360    -1.8940    -1.2740 H     1 <1>   0.1500 
 36 H        1.2920     5.9620     1.9600 H     1 <1>   0.0800 
 37 H        0.6140     5.7300    -2.1540 H     1 <1>   0.0800 
 38 H        0.7230     7.3860    -1.6680 H     1 <1>   0.0800 
 39 H        2.9240     7.5150     2.0370 H     1 <1>   0.0800 
 40 H        1.8810     8.2020     0.8190 H     1 <1>   0.0800 
 41 H        2.4970     4.1130     1.6380 H     1 <1>   0.0800 
 42 H        3.7580     5.1710     1.1100 H     1 <1>   0.0800 
 43 H        2.6910     6.5330    -2.8350 H     1 <1>   0.0800 
 44 H        1.7270     3.9630    -0.6630 H     1 <1>   0.4500 
 45 H        2.8040     8.4810    -1.2780 H     1 <1>   0.0800 
 46 H        4.3120     7.6840    -1.6440 H     1 <1>   0.0800 
 47 H        4.3650     5.2200    -1.2750 H     1 <1>   0.0800 
 48 H        3.3290     4.4630    -2.4390 H     1 <1>   0.0800 
 49 H        3.0170     2.2240     0.3490 H     1 <1>   0.0800 
 50 H        3.4950     2.3820    -1.3170 H     1 <1>   0.0800 
@<TRIPOS>BOND
  1   1   2  2   
  2   2   3  am  
  3   2   4  1   
  4   3   5  1   
  5   3   6  1   
  6   4   7  ar  
  7   4   8  ar  
  8   5   9  2   
  9   6  10  1   
 10   6  29  1   
 11   6  30  1   
 12   7   9  1   
 13   7  11  ar  
 14   8  12  ar  
 15   8  31  1   
 16   9  32  1   
 17  10  13  2   
 18  10  14  am  
 19  11  15  ar  
 20  11  33  1   
 21  12  15  ar  
 22  12  34  1   
 23  14  16  1   
 24  14  17  1   
 25  15  35  1   
 26  16  18  1   
 27  16  19  1   
 28  16  36  1   
 29  17  20  1   
 30  17  37  1   
 31  17  38  1   
 32  18  21  1   
 33  18  39  1   
 34  18  40  1   
 35  19  22  1   
 36  19  41  1   
 37  19  42  1   
 38  20  23  1   
 39  20  24  1   
 40  20  43  1   
 41  21  23  1   
 42  22  24  1   
 43  22  25  1   
 44  22  44  1   
 45  23  45  1   
 46  23  46  1   
 47  24  47  1   
 48  24  48  1   
 49  25  26  1   
 50  25  49  1   
 51  25  50  1   
 52  26  27  ar  
 53  26  28  ar  
@<TRIPOS>SUBSTRUCTURE
  1 ****   1 GROUP 4 **** **** 0

# MOE 2024.06 (io_trps.svl 2023.06)
