@<TRIPOS>MOLECULE
NONAME
40 42 1 0 0 
SMALL
USER_CHARGES


@<TRIPOS>ATOM
  1 F       -0.6760    -1.3340    -1.4930 F     1 <1>  -0.3400 
  2 C       -0.1320    -1.7530    -0.3600 C.3   1 <1>   1.1640 
  3 F        1.0620    -1.1790    -0.2790 F     1 <1>  -0.3400 
  4 F       -0.8610    -1.2490     0.6250 F     1 <1>  -0.3400 
  5 C       -0.0520    -3.2910    -0.2920 C.ar  1 <1>  -0.1440 
  6 C        1.1400    -3.9740    -0.1600 C.ar  1 <1>  -0.1500 
  7 C       -1.2340    -4.0390    -0.3650 C.ar  1 <1>  -0.1500 
  8 C        1.1850    -5.3760    -0.1000 C.ar  1 <1>   0.3610 
  9 C       -1.2100    -5.4090    -0.3080 C.ar  1 <1>  -0.1500 
 10 N        2.3860    -6.0360     0.0330 N.ar  1 <1>  -0.1790 
 11 C       -0.0050    -6.1250    -0.1740 C.ar  1 <1>   0.0000 
 12 C        2.4700    -7.3760     0.0940 C.ar  1 <1>   0.2180 
 13 C        0.0660    -7.5520    -0.1050 C.ar  1 <1>   0.1000 
 14 C        1.3290    -8.1330     0.0250 C.ar  1 <1>  -0.1500 
 15 C        3.8440    -8.0120     0.2360 C.3   1 <1>  -0.0970 
 16 N       -1.0560    -8.3010    -0.1730 N.pl3 1 <1>  -0.8690 
 17 C       -1.2140    -9.7790    -0.0430 C.3   1 <1>   0.2090 
 18 C       -2.5940   -10.1350     0.5370 C.3   1 <1>   0.0000 
 19 C       -3.7250   -10.0920    -0.5030 C.3   1 <1>   0.2580 
 20 C       -2.8750   -11.6460     0.4780 C.3   1 <1>   0.2580 
 21 C       -2.9280    -9.4900     1.8970 C.3   1 <1>  -0.2400 
 22 O       -3.3860   -11.4340    -0.8320 O.3   1 <1>  -0.5160 
 23 H        2.0650    -3.4260    -0.1010 H     1 <1>   0.1500 
 24 H       -2.1790    -3.5270    -0.4680 H     1 <1>   0.1500 
 25 H       -2.1410    -5.9450    -0.3660 H     1 <1>   0.1500 
 26 H        3.2370    -5.4710     0.0840 H     1 <1>   0.4570 
 27 H        1.4050    -9.2030     0.0660 H     1 <1>   0.1500 
 28 H        4.3190    -7.6830     1.1430 H     1 <1>   0.0800 
 29 H        4.4670    -7.7530    -0.6020 H     1 <1>   0.0800 
 30 H        3.7640    -9.0850     0.2720 H     1 <1>   0.0800 
 31 H       -1.9590    -7.8420    -0.3400 H     1 <1>   0.4000 
 32 H       -0.4570   -10.1730     0.6110 H     1 <1>   0.0800 
 33 H       -1.0930   -10.2340    -1.0140 H     1 <1>   0.0800 
 34 H       -3.5560    -9.4440    -1.3450 H     1 <1>   0.0000 
 35 H       -4.7220   -10.0540    -0.0970 H     1 <1>   0.0000 
 36 H       -3.6620   -11.9940     1.1260 H     1 <1>   0.0000 
 37 H       -2.0060   -12.2780     0.4470 H     1 <1>   0.0000 
 38 H       -2.9500    -8.4180     1.8130 H     1 <1>   0.0800 
 39 H       -2.1860    -9.7600     2.6270 H     1 <1>   0.0800 
 40 H       -3.8900    -9.8210     2.2510 H     1 <1>   0.0800 
@<TRIPOS>BOND
  1   1   2  1   
  2   2   3  1   
  3   2   4  1   
  4   2   5  1   
  5   5   6  ar  
  6   5   7  ar  
  7   6   8  ar  
  8   6  23  1   
  9   7   9  ar  
 10   7  24  1   
 11   8  10  ar  
 12   8  11  ar  
 13   9  11  ar  
 14   9  25  1   
 15  10  12  ar  
 16  10  26  1   
 17  11  13  ar  
 18  12  14  ar  
 19  12  15  1   
 20  13  14  ar  
 21  13  16  1   
 22  14  27  1   
 23  15  28  1   
 24  15  29  1   
 25  15  30  1   
 26  16  17  1   
 27  16  31  1   
 28  17  18  1   
 29  17  32  1   
 30  17  33  1   
 31  18  19  1   
 32  18  20  1   
 33  18  21  1   
 34  19  22  1   
 35  19  34  1   
 36  19  35  1   
 37  20  22  1   
 38  20  36  1   
 39  20  37  1   
 40  21  38  1   
 41  21  39  1   
 42  21  40  1   
@<TRIPOS>SUBSTRUCTURE
  1 ****  11 GROUP 4 **** **** 0

# MOE 2024.06 (io_trps.svl 2023.06)
