@<TRIPOS>MOLECULE
NONAME
44 47 1 0 0 
SMALL
USER_CHARGES


@<TRIPOS>ATOM
  1 F       -4.1850     1.1770    -1.7290 F     1 <1>  -0.3400 
  2 C       -4.4060     0.5920    -0.5530 C.3   1 <1>   0.8560 
  3 F       -3.3620     0.9290     0.2010 F     1 <1>  -0.3400 
  4 N       -4.4740    -0.8990    -0.7150 N.pl3 1 <1>   0.3140 
  5 N       -5.5250    -1.6420    -0.2890 N.2   1 <1>  -0.7070 
  6 C       -3.5390    -1.6850    -1.2910 C.2   1 <1>  -0.3020 
  7 C       -5.2460    -2.8990    -0.6090 C.2   1 <1>   0.2030 
  8 C       -3.9940    -2.9500    -1.2370 C.2   1 <1>  -0.1500 
  9 C       -6.0390    -4.1080    -0.3680 C.2   1 <1>   0.7160 
 10 O       -5.4580    -5.1830    -0.3480 O.2   1 <1>  -0.5700 
 11 N       -7.4150    -4.1280    -0.1710 N.am  1 <1>  -0.6600 
 12 C       -8.3410    -2.9910    -0.4750 C.3   1 <1>   0.1400 
 13 C       -8.1290    -5.3550     0.2900 C.3   1 <1>   0.1400 
 14 C       -9.1670    -2.6080     0.7680 C.3   1 <1>   0.1430 
 15 C       -8.9820    -5.0350     1.5250 C.3   1 <1>  -0.1600 
 16 C      -10.0940    -1.4650     0.3960 C.ar  1 <1>   0.1670 
 17 C       -9.9320    -3.8490     1.2760 C.3   1 <1>  -0.1600 
 18 C       -8.2880    -1.9750     1.8810 C.3   1 <1>  -0.1600 
 19 N      -11.1650    -1.5640    -0.3600 N.ar  1 <1>  -0.6200 
 20 C       -9.6750    -0.2850     0.9330 C.ar  1 <1>  -0.1430 
 21 C       -8.4090    -0.4490     1.7350 C.3   1 <1>  -0.0170 
 22 C      -11.8130    -0.4230    -0.5450 C.ar  1 <1>   0.4770 
 23 C      -10.4230     0.8370     0.6760 C.ar  1 <1>   0.1600 
 24 N      -11.5070     0.7780    -0.0700 N.ar  1 <1>  -0.6200 
 25 C      -13.0550    -0.4980    -1.3990 C.3   1 <1>  -0.0970 
 26 H       -5.2970     1.0060    -0.1200 H     1 <1>   0.0800 
 27 H       -2.6190    -1.3020    -1.6960 H     1 <1>   0.1500 
 28 H       -3.5220    -3.8510    -1.5920 H     1 <1>   0.1500 
 29 H       -9.0160    -3.3010    -1.2530 H     1 <1>   0.0800 
 30 H       -7.8160    -2.1330    -0.8460 H     1 <1>   0.0800 
 31 H       -7.4330    -6.1390     0.5350 H     1 <1>   0.0800 
 32 H       -8.7590    -5.7100    -0.5080 H     1 <1>   0.0800 
 33 H       -8.3270    -4.8170     2.3500 H     1 <1>   0.0800 
 34 H       -9.5560    -5.9050     1.7900 H     1 <1>   0.0800 
 35 H      -10.6570    -4.1380     0.5340 H     1 <1>   0.0800 
 36 H      -10.4730    -3.6100     2.1750 H     1 <1>   0.0800 
 37 H       -7.2640    -2.2980     1.8340 H     1 <1>   0.0800 
 38 H       -8.6800    -2.2480     2.8450 H     1 <1>   0.0800 
 39 H       -7.5750    -0.0590     1.1790 H     1 <1>   0.0800 
 40 H       -8.4740     0.0360     2.6930 H     1 <1>   0.0800 
 41 H      -10.1350     1.7920     1.0820 H     1 <1>   0.1500 
 42 H      -12.9620    -1.2900    -2.1180 H     1 <1>   0.0800 
 43 H      -13.2030     0.4300    -1.9180 H     1 <1>   0.0800 
 44 H      -13.9030    -0.6900    -0.7700 H     1 <1>   0.0800 
@<TRIPOS>BOND
  1   1   2  1   
  2   2   3  1   
  3   2   4  1   
  4   2  26  1   
  5   4   5  1   
  6   4   6  1   
  7   5   7  2   
  8   6   8  2   
  9   6  27  1   
 10   7   8  1   
 11   7   9  1   
 12   8  28  1   
 13   9  10  2   
 14   9  11  am  
 15  11  12  1   
 16  11  13  1   
 17  12  14  1   
 18  12  29  1   
 19  12  30  1   
 20  13  15  1   
 21  13  31  1   
 22  13  32  1   
 23  14  16  1   
 24  14  17  1   
 25  14  18  1   
 26  15  17  1   
 27  15  33  1   
 28  15  34  1   
 29  16  19  ar  
 30  16  20  ar  
 31  17  35  1   
 32  17  36  1   
 33  18  21  1   
 34  18  37  1   
 35  18  38  1   
 36  19  22  ar  
 37  20  21  1   
 38  20  23  ar  
 39  21  39  1   
 40  21  40  1   
 41  22  24  ar  
 42  22  25  1   
 43  23  24  ar  
 44  23  41  1   
 45  25  42  1   
 46  25  43  1   
 47  25  44  1   
@<TRIPOS>SUBSTRUCTURE
  1 ****  12 GROUP 4 **** **** 0

# MOE 2024.06 (io_trps.svl 2023.06)
