@<TRIPOS>MOLECULE
NONAME
59 61 1 0 0 
SMALL
USER_CHARGES


@<TRIPOS>ATOM
  1 O       -2.3000     0.8420     1.9820 O.2   1 <1>  -0.5700 
  2 C       -2.5020     1.0580     0.8080 C.2   1 <1>   0.5690 
  3 N       -2.9520     0.0690    -0.0300 N.am  1 <1>  -0.6600 
  4 C       -2.1880     2.4740     0.2840 C.3   1 <1>   0.1710 
  5 C       -2.6440    -1.3560     0.3140 C.3   1 <1>   0.3640 
  6 C       -3.6390     0.3420    -1.3280 C.3   1 <1>   0.1400 
  7 N       -0.7740     2.7090    -0.1450 N.3   1 <1>  -0.8100 
  8 C       -1.1940    -1.6080    -0.1200 C.ar  1 <1>  -0.1440 
  9 C       -3.6670    -2.3900    -0.2500 C.3   1 <1>   0.2000 
 10 C       -4.2580    -0.9050    -1.9820 C.3   1 <1>   0.1200 
 11 C        0.1510     2.4580     0.9820 C.3   1 <1>   0.2540 
 12 C       -0.4120     1.8970    -1.3170 C.3   1 <1>   0.0300 
 13 C       -0.1900    -1.4510     0.8270 C.ar  1 <1>  -0.1500 
 14 C       -0.8350    -1.9380    -1.4230 C.ar  1 <1>  -0.1500 
 15 O       -4.6940    -1.8060    -1.0150 O.3   1 <1>  -0.5600 
 16 C       -4.3530    -3.1800     0.8720 C.3   1 <1>   0.1200 
 17 C        1.5870     2.8400     0.6450 C.ar  1 <1>  -0.1440 
 18 C        1.1440    -1.6010     0.4890 C.ar  1 <1>   0.0820 
 19 C        0.4970    -2.0770    -1.7740 C.ar  1 <1>  -0.1500 
 20 O       -3.4210    -3.9400     1.5740 O.3   1 <1>  -0.6800 
 21 C        2.6440     2.0250     0.9940 C.ar  1 <1>  -0.1500 
 22 C        1.9130     4.0070    -0.0160 C.ar  1 <1>  -0.1500 
 23 O        2.0620    -1.4590     1.4750 O.3   1 <1>  -0.3620 
 24 C        1.4940    -1.8850    -0.8350 C.ar  1 <1>   0.0820 
 25 C        3.9360     2.4000     0.6700 C.ar  1 <1>   0.1600 
 26 C        3.2390     4.2880    -0.2970 C.ar  1 <1>   0.1600 
 27 C        2.7520    -2.6320     1.8460 C.3   1 <1>   0.0400 
 28 O        2.7780    -1.9730    -1.2600 O.3   1 <1>  -0.3630 
 29 N        4.2610     3.5110     0.0270 N.ar  1 <1>  -0.6200 
 30 C        3.5520    -0.7960    -1.1660 C.3   1 <1>   0.0400 
 31 H       -2.4190     3.1660     1.0740 H     1 <1>   0.0800 
 32 H       -2.8420     2.7140    -0.5320 H     1 <1>   0.0800 
 33 H       -2.6690    -1.4520     1.3860 H     1 <1>   0.0800 
 34 H       -4.4290     1.0510    -1.1500 H     1 <1>   0.0800 
 35 H       -2.9480     0.7880    -2.0190 H     1 <1>   0.0800 
 36 H       -3.1660    -3.0960    -0.8870 H     1 <1>   0.0800 
 37 H       -3.5560    -1.3980    -2.6270 H     1 <1>   0.0800 
 38 H       -5.1090    -0.6210    -2.5740 H     1 <1>   0.0800 
 39 H       -0.1640     3.0340     1.8360 H     1 <1>   0.0800 
 40 H        0.1200     1.4170     1.2560 H     1 <1>   0.0800 
 41 H        0.5760     2.1550    -1.6590 H     1 <1>   0.0800 
 42 H       -1.0980     2.0860    -2.1220 H     1 <1>   0.0800 
 43 H       -0.4240     0.8490    -1.0730 H     1 <1>   0.0800 
 44 H       -0.4370    -1.1990     1.8440 H     1 <1>   0.1500 
 45 H       -1.5760    -2.0780    -2.1840 H     1 <1>   0.1500 
 46 H       -5.0950    -3.8470     0.4690 H     1 <1>   0.0800 
 47 H       -4.8180    -2.5030     1.5690 H     1 <1>   0.0800 
 48 H        0.7730    -2.3230    -2.7840 H     1 <1>   0.1500 
 49 H       -3.1110    -4.7000     1.0410 H     1 <1>   0.4000 
 50 H        2.4720     1.1010     1.5170 H     1 <1>   0.1500 
 51 H        1.1370     4.6880    -0.3170 H     1 <1>   0.1500 
 52 H        4.7460     1.7510     0.9560 H     1 <1>   0.1500 
 53 H        3.4700     5.2010    -0.8180 H     1 <1>   0.1500 
 54 H        3.3940    -2.3970     2.6760 H     1 <1>   0.0800 
 55 H        3.3380    -2.9790     1.0140 H     1 <1>   0.0800 
 56 H        2.0340    -3.3790     2.1340 H     1 <1>   0.0800 
 57 H        4.4550    -0.9400    -1.7310 H     1 <1>   0.0800 
 58 H        3.7920    -0.6110    -0.1350 H     1 <1>   0.0800 
 59 H        2.9910     0.0280    -1.5720 H     1 <1>   0.0800 
@<TRIPOS>BOND
  1   1   2  2   
  2   2   3  am  
  3   2   4  1   
  4   3   5  1   
  5   3   6  1   
  6   4   7  1   
  7   4  31  1   
  8   4  32  1   
  9   5   8  1   
 10   5   9  1   
 11   5  33  1   
 12   6  10  1   
 13   6  34  1   
 14   6  35  1   
 15   7  11  1   
 16   7  12  1   
 17   8  13  ar  
 18   8  14  ar  
 19   9  15  1   
 20   9  16  1   
 21   9  36  1   
 22  10  15  1   
 23  10  37  1   
 24  10  38  1   
 25  11  17  1   
 26  11  39  1   
 27  11  40  1   
 28  12  41  1   
 29  12  42  1   
 30  12  43  1   
 31  13  18  ar  
 32  13  44  1   
 33  14  19  ar  
 34  14  45  1   
 35  16  20  1   
 36  16  46  1   
 37  16  47  1   
 38  17  21  ar  
 39  17  22  ar  
 40  18  23  1   
 41  18  24  ar  
 42  19  24  ar  
 43  19  48  1   
 44  20  49  1   
 45  21  25  ar  
 46  21  50  1   
 47  22  26  ar  
 48  22  51  1   
 49  23  27  1   
 50  24  28  1   
 51  25  29  ar  
 52  25  52  1   
 53  26  29  ar  
 54  26  53  1   
 55  27  54  1   
 56  27  55  1   
 57  27  56  1   
 58  28  30  1   
 59  30  57  1   
 60  30  58  1   
 61  30  59  1   
@<TRIPOS>SUBSTRUCTURE
  1 ****  13 GROUP 4 **** **** 0

# MOE 2024.06 (io_trps.svl 2023.06)
