@<TRIPOS>MOLECULE
NONAME
51 54 1 0 0 
SMALL
USER_CHARGES


@<TRIPOS>ATOM
  1 O       -0.3250    -0.5380     0.7310 O.2   1 <1>  -0.5700 
  2 C       -1.2530     0.2100     0.5150 C.2   1 <1>   0.5690 
  3 N       -2.3530    -0.2670    -0.1630 N.am  1 <1>  -0.6600 
  4 C       -1.1520     1.6650     1.0550 C.3   1 <1>   0.0610 
  5 C       -3.6070     0.4450    -0.5210 C.3   1 <1>   0.1400 
  6 C       -2.4510    -1.6940    -0.5570 C.3   1 <1>   0.1400 
  7 C        0.3080     2.0730     1.3340 C.3   1 <1>  -0.1600 
  8 C       -1.5800     2.7590     0.0570 C.3   1 <1>  -0.1600 
  9 C       -1.9630     1.7910     2.3640 C.3   1 <1>  -0.2400 
 10 C       -4.5330    -0.6200    -1.1150 C.3   1 <1>   0.2000 
 11 C       -3.9460    -1.9670    -0.7030 C.3   1 <1>  -0.0800 
 12 C        0.3530     3.6010     1.3100 C.3   1 <1>  -0.1600 
 13 C       -0.8180     4.0360     0.4280 C.3   1 <1>  -0.1600 
 14 O       -5.8220    -0.5000    -0.6210 O.3   1 <1>  -0.6800 
 15 C       -4.2700    -3.0920    -1.6990 C.3   1 <1>  -0.0170 
 16 C       -3.6990    -4.4250    -1.2270 C.ar  1 <1>  -0.1440 
 17 C       -4.3180    -5.1960    -0.2140 C.ar  1 <1>   0.0000 
 18 C       -2.5470    -4.9100    -1.7740 C.ar  1 <1>  -0.1500 
 19 C       -3.6880    -6.4070     0.1670 C.ar  1 <1>   0.3100 
 20 C       -5.5210    -4.8410     0.4400 C.ar  1 <1>  -0.1500 
 21 C       -2.0120    -6.1240    -1.3290 C.ar  1 <1>   0.1600 
 22 N       -2.5400    -6.8560    -0.4010 N.ar  1 <1>  -0.6200 
 23 C       -4.2710    -7.1870     1.1780 C.ar  1 <1>  -0.1500 
 24 C       -6.0640    -5.6260     1.4210 C.ar  1 <1>  -0.1500 
 25 C       -5.4320    -6.8130     1.7980 C.ar  1 <1>  -0.1500 
 26 H       -4.0430     0.8860     0.3570 H     1 <1>   0.0800 
 27 H       -3.4060     1.1980    -1.2600 H     1 <1>   0.0800 
 28 H       -1.9370    -1.8300    -1.4920 H     1 <1>   0.0800 
 29 H       -2.0090    -2.3360     0.1880 H     1 <1>   0.0800 
 30 H        0.6760     1.6690     2.2620 H     1 <1>   0.0800 
 31 H        0.9350     1.7060     0.5390 H     1 <1>   0.0800 
 32 H       -1.2850     2.4600    -0.9350 H     1 <1>   0.0800 
 33 H       -2.6400     2.9370     0.0680 H     1 <1>   0.0800 
 34 H       -1.8880     2.7790     2.7810 H     1 <1>   0.0800 
 35 H       -1.5930     1.0880     3.0890 H     1 <1>   0.0800 
 36 H       -3.0010     1.5770     2.1940 H     1 <1>   0.0800 
 37 H       -4.5690    -0.5140    -2.1860 H     1 <1>   0.0800 
 38 H       -4.3090    -2.2300     0.2750 H     1 <1>   0.0800 
 39 H        0.2200     3.9860     2.3070 H     1 <1>   0.0800 
 40 H        1.2940     3.9540     0.9250 H     1 <1>   0.0800 
 41 H       -0.4690     4.5400    -0.4570 H     1 <1>   0.0800 
 42 H       -1.4560     4.7060     0.9790 H     1 <1>   0.0800 
 43 H       -5.8260    -0.6200     0.3480 H     1 <1>   0.4000 
 44 H       -3.8590    -2.8440    -2.6630 H     1 <1>   0.0800 
 45 H       -5.3350    -3.1750    -1.8300 H     1 <1>   0.0800 
 46 H       -2.0220    -4.3810    -2.5490 H     1 <1>   0.1500 
 47 H       -6.0260    -3.9360     0.1640 H     1 <1>   0.1500 
 48 H       -1.1010    -6.4700    -1.7870 H     1 <1>   0.1500 
 49 H       -3.7690    -8.0970     1.4500 H     1 <1>   0.1500 
 50 H       -6.9790    -5.3430     1.9120 H     1 <1>   0.1500 
 51 H       -5.8670    -7.4220     2.5720 H     1 <1>   0.1500 
@<TRIPOS>BOND
  1   1   2  2   
  2   2   3  am  
  3   2   4  1   
  4   3   5  1   
  5   3   6  1   
  6   4   7  1   
  7   4   8  1   
  8   4   9  1   
  9   5  10  1   
 10   5  26  1   
 11   5  27  1   
 12   6  11  1   
 13   6  28  1   
 14   6  29  1   
 15   7  12  1   
 16   7  30  1   
 17   7  31  1   
 18   8  13  1   
 19   8  32  1   
 20   8  33  1   
 21   9  34  1   
 22   9  35  1   
 23   9  36  1   
 24  10  11  1   
 25  10  14  1   
 26  10  37  1   
 27  11  15  1   
 28  11  38  1   
 29  12  13  1   
 30  12  39  1   
 31  12  40  1   
 32  13  41  1   
 33  13  42  1   
 34  14  43  1   
 35  15  16  1   
 36  15  44  1   
 37  15  45  1   
 38  16  17  ar  
 39  16  18  ar  
 40  17  19  ar  
 41  17  20  ar  
 42  18  21  ar  
 43  18  46  1   
 44  19  22  ar  
 45  19  23  ar  
 46  20  24  ar  
 47  20  47  1   
 48  21  22  ar  
 49  21  48  1   
 50  23  25  ar  
 51  23  49  1   
 52  24  25  ar  
 53  24  50  1   
 54  25  51  1   
@<TRIPOS>SUBSTRUCTURE
  1 ****   6 GROUP 4 **** **** 0

# MOE 2024.06 (io_trps.svl 2023.06)
