@<TRIPOS>MOLECULE
NONAME
45 47 1 0 0 
SMALL
USER_CHARGES


@<TRIPOS>ATOM
  1 S        0.9520     1.1550    -0.0600 S.o2  1 <1>   1.3330 
  2 O        0.6700     1.7690    -1.3340 O.2   1 <1>  -0.6500 
  3 O        2.1430     1.5800     0.6550 O.2   1 <1>  -0.6500 
  4 N        1.0330    -0.5230    -0.2760 N.am  1 <1>  -0.8490 
  5 C       -0.4490     1.3630     1.0450 C.3   1 <1>  -0.0550 
  6 C        0.0710    -1.0350    -1.2620 C.3   1 <1>   0.1160 
  7 C        2.3790    -0.9940    -0.6190 C.3   1 <1>   0.1160 
  8 C       -0.8390     2.8110     1.4290 C.3   1 <1>  -0.0800 
  9 C       -1.4540     3.6040     0.2690 C.3   1 <1>   0.2000 
 10 C        0.3260     3.6790     1.9180 C.3   1 <1>   0.2090 
 11 O       -2.4800     4.3790     0.7880 O.3   1 <1>  -0.6800 
 12 C       -0.3550     4.5300    -0.2670 C.3   1 <1>   0.2090 
 13 N        0.7430     4.5180     0.7550 N.pl3 1 <1>  -0.8380 
 14 C        1.9870     4.9690     0.4750 C.ar  1 <1>   0.4610 
 15 N        3.0120     4.1310     0.6610 N.ar  1 <1>  -0.1790 
 16 C        2.2680     6.2700    -0.0750 C.ar  1 <1>   0.0000 
 17 C        4.3000     4.3990     0.2660 C.ar  1 <1>   0.2110 
 18 C        3.5760     6.5560    -0.5240 C.ar  1 <1>   0.0000 
 19 C        1.3200     7.3070    -0.1530 C.ar  1 <1>  -0.1500 
 20 C        4.5890     5.5790    -0.3270 C.ar  1 <1>  -0.1500 
 21 C        3.8570     7.7930    -1.1170 C.ar  1 <1>  -0.1500 
 22 C        1.6160     8.5200    -0.7250 C.ar  1 <1>  -0.1500 
 23 C        2.8910     8.7610    -1.2240 C.ar  1 <1>  -0.1500 
 24 H       -1.3090     0.8920     0.6100 H     1 <1>   0.0800 
 25 H       -0.2340     0.8270     1.9500 H     1 <1>   0.0800 
 26 H        0.1110    -2.1110    -1.2930 H     1 <1>   0.0800 
 27 H        0.2940    -0.6500    -2.2440 H     1 <1>   0.0800 
 28 H       -0.9300    -0.7450    -0.9970 H     1 <1>   0.0800 
 29 H        2.3840    -2.0670    -0.7170 H     1 <1>   0.0800 
 30 H        3.0750    -0.7280     0.1590 H     1 <1>   0.0800 
 31 H        2.7070    -0.5550    -1.5470 H     1 <1>   0.0800 
 32 H       -1.5610     2.7180     2.2230 H     1 <1>   0.0800 
 33 H       -1.8740     2.9820    -0.5040 H     1 <1>   0.0800 
 34 H        1.1320     3.0980     2.3300 H     1 <1>   0.0800 
 35 H       -0.0330     4.3390     2.6920 H     1 <1>   0.0800 
 36 H       -2.1320     5.0470     1.4110 H     1 <1>   0.4000 
 37 H       -0.7480     5.5150    -0.4390 H     1 <1>   0.0800 
 38 H        0.0220     4.1490    -1.2010 H     1 <1>   0.0800 
 39 H        2.7710     3.1720     0.9460 H     1 <1>   0.4570 
 40 H        5.0420     3.6340     0.4330 H     1 <1>   0.1500 
 41 H        0.3380     7.1630     0.2550 H     1 <1>   0.1500 
 42 H        5.5870     5.8100    -0.6600 H     1 <1>   0.1500 
 43 H        4.8480     7.9890    -1.4890 H     1 <1>   0.1500 
 44 H        0.8710     9.2960    -0.7870 H     1 <1>   0.1500 
 45 H        3.1120     9.7120    -1.6800 H     1 <1>   0.1500 
@<TRIPOS>BOND
  1   1   2  2   
  2   1   3  2   
  3   1   4  am  
  4   1   5  1   
  5   4   6  1   
  6   4   7  1   
  7   5   8  1   
  8   5  24  1   
  9   5  25  1   
 10   6  26  1   
 11   6  27  1   
 12   6  28  1   
 13   7  29  1   
 14   7  30  1   
 15   7  31  1   
 16   8   9  1   
 17   8  10  1   
 18   8  32  1   
 19   9  11  1   
 20   9  12  1   
 21   9  33  1   
 22  10  13  1   
 23  10  34  1   
 24  10  35  1   
 25  11  36  1   
 26  12  13  1   
 27  12  37  1   
 28  12  38  1   
 29  13  14  1   
 30  14  15  ar  
 31  14  16  ar  
 32  15  17  ar  
 33  15  39  1   
 34  16  18  ar  
 35  16  19  ar  
 36  17  20  ar  
 37  17  40  1   
 38  18  20  ar  
 39  18  21  ar  
 40  19  22  ar  
 41  19  41  1   
 42  20  42  1   
 43  21  23  ar  
 44  21  43  1   
 45  22  23  ar  
 46  22  44  1   
 47  23  45  1   
@<TRIPOS>SUBSTRUCTURE
  1 ****  13 GROUP 4 **** **** 0

# MOE 2024.06 (io_trps.svl 2023.06)
