@<TRIPOS>MOLECULE
NONAME
35 36 1 0 0 
SMALL
USER_CHARGES


@<TRIPOS>ATOM
  1 O       -8.7910     2.3850    -0.4910 O.3   1 <1>  -0.6800 
  2 C       -8.6750     1.3100     0.3550 C.3   1 <1>   0.3440 
  3 C       -8.7200     0.0340    -0.4960 C.ar  1 <1>  -0.1440 
  4 C       -9.7680     1.4300     1.4150 C.3   1 <1>  -0.2400 
  5 C       -7.5750    -0.6860    -0.8730 C.ar  1 <1>  -0.1430 
  6 C       -9.9660    -0.4200    -0.9200 C.ar  1 <1>  -0.1500 
  7 C       -7.7310    -1.8400    -1.6350 C.ar  1 <1>  -0.1500 
  8 C       -6.1280    -0.3030    -0.5290 C.3   1 <1>   0.0630 
  9 C      -10.0980    -1.5650    -1.6790 C.ar  1 <1>  -0.1500 
 10 C       -8.9760    -2.2800    -2.0350 C.ar  1 <1>  -0.1500 
 11 C       -5.8140    -0.4030     0.9780 C.3   1 <1>  -0.1600 
 12 C       -5.7030     1.0440    -1.1390 C.3   1 <1>  -0.1600 
 13 C       -4.8660     0.6970     1.4640 C.3   1 <1>   0.3430 
 14 C       -4.2310     1.3720    -0.8680 C.3   1 <1>   0.3430 
 15 N       -3.7730     0.8760     0.4690 N.4   1 <1>  -0.9060 
 16 H       -9.5060     2.1960    -1.1290 H     1 <1>   0.4000 
 17 H       -7.7340     1.4120     0.8530 H     1 <1>   0.0800 
 18 H      -10.7400     1.5550     0.9760 H     1 <1>   0.0800 
 19 H       -9.5670     2.2770     2.0470 H     1 <1>   0.0800 
 20 H       -9.7760     0.5470     2.0280 H     1 <1>   0.0800 
 21 H      -10.8650     0.1120    -0.6690 H     1 <1>   0.1500 
 22 H       -6.8790    -2.4230    -1.9390 H     1 <1>   0.1500 
 23 H       -5.4870    -1.0290    -1.0020 H     1 <1>   0.0800 
 24 H      -11.0730    -1.8990    -1.9920 H     1 <1>   0.1500 
 25 H       -9.0730    -3.1760    -2.6250 H     1 <1>   0.1500 
 26 H       -5.3780    -1.3660     1.1820 H     1 <1>   0.0800 
 27 H       -6.7170    -0.3620     1.5600 H     1 <1>   0.0800 
 28 H       -6.2940     1.8500    -0.7540 H     1 <1>   0.0800 
 29 H       -5.8700     1.0250    -2.2030 H     1 <1>   0.0800 
 30 H       -4.4630     0.4310     2.4280 H     1 <1>   0.0800 
 31 H       -5.4120     1.6220     1.5670 H     1 <1>   0.0800 
 32 H       -4.1020     2.4420    -0.9280 H     1 <1>   0.0800 
 33 H       -3.6210     0.9270    -1.6380 H     1 <1>   0.0800 
 34 H       -3.3070    -0.0310     0.3420 H     1 <1>   0.4500 
 35 H       -3.0630     1.5180     0.8440 H     1 <1>   0.4500 
@<TRIPOS>BOND
  1   1   2  1   
  2   1  16  1   
  3   2   3  1   
  4   2   4  1   
  5   2  17  1   
  6   3   5  ar  
  7   3   6  ar  
  8   4  18  1   
  9   4  19  1   
 10   4  20  1   
 11   5   7  ar  
 12   5   8  1   
 13   6   9  ar  
 14   6  21  1   
 15   7  10  ar  
 16   7  22  1   
 17   8  11  1   
 18   8  12  1   
 19   8  23  1   
 20   9  10  ar  
 21   9  24  1   
 22  10  25  1   
 23  11  13  1   
 24  11  26  1   
 25  11  27  1   
 26  12  14  1   
 27  12  28  1   
 28  12  29  1   
 29  13  15  1   
 30  13  30  1   
 31  13  31  1   
 32  14  15  1   
 33  14  32  1   
 34  14  33  1   
 35  15  34  1   
 36  15  35  1   
@<TRIPOS>SUBSTRUCTURE
  1 ****   5 GROUP 4 **** **** 0

# MOE 2024.06 (io_trps.svl 2023.06)
