@<TRIPOS>MOLECULE
NONAME
61 64 1 0 0 
SMALL
USER_CHARGES


@<TRIPOS>ATOM
  1 O       -2.4980    -0.1640    -0.9740 O.2   1 <1>  -0.5700 
  2 C       -2.1350    -1.2100    -0.4930 C.2   1 <1>   0.5690 
  3 N       -2.6920    -2.4140    -0.7350 N.am  1 <1>  -0.6600 
  4 C       -1.0080    -1.3270     0.4940 C.3   1 <1>  -0.0990 
  5 C       -2.0720    -3.5040     0.0370 C.3   1 <1>   0.1400 
  6 C       -3.8310    -2.6700    -1.6680 C.3   1 <1>   0.2010 
  7 C       -0.8450    -2.8460     0.6860 C.3   1 <1>  -0.1600 
  8 C       -5.1860    -2.7950    -0.9600 C.2   1 <1>   0.5690 
  9 O       -5.9080    -3.7230    -1.2420 O.2   1 <1>  -0.5700 
 10 N       -5.6390    -1.8570    -0.0680 N.am  1 <1>  -0.6600 
 11 C       -6.5870    -2.2530     1.0250 C.3   1 <1>   0.1400 
 12 C       -5.5050    -0.4020    -0.3400 C.3   1 <1>   0.1400 
 13 C       -8.0810    -2.1060     0.6370 C.3   1 <1>   0.4230 
 14 C       -6.8750     0.2730    -0.5450 C.3   1 <1>  -0.0800 
 15 N       -8.2240    -1.9190    -0.8600 N.4   1 <1>  -0.9590 
 16 C       -8.8060    -1.0380     1.4950 C.3   1 <1>   0.1200 
 17 C       -7.4920     0.7950     0.7680 C.3   1 <1>   0.1200 
 18 C       -7.8730    -0.5510    -1.3910 C.3   1 <1>   0.3430 
 19 C       -9.5440    -2.3550    -1.3970 C.3   1 <1>   0.4860 
 20 O       -8.7620     0.2530     0.9560 O.3   1 <1>  -0.5600 
 21 C       -9.9670    -3.6930    -0.8060 C.ar  1 <1>  -0.1440 
 22 C      -11.1680    -3.8330    -0.1130 C.ar  1 <1>  -0.1440 
 23 C       -9.1320    -4.7940    -0.9560 C.ar  1 <1>  -0.1500 
 24 C      -11.4940    -5.0590     0.4490 C.ar  1 <1>  -0.1500 
 25 C      -12.1610    -2.6840     0.0330 C.3   1 <1>  -0.0970 
 26 C       -9.4660    -6.0100    -0.3930 C.ar  1 <1>  -0.1500 
 27 C      -10.6430    -6.1510     0.3190 C.ar  1 <1>   0.0820 
 28 O      -10.8910    -7.3740     0.8470 O.3   1 <1>  -0.3620 
 29 C      -12.0950    -7.6560     1.5240 C.3   1 <1>   0.0400 
 30 H       -0.1160    -0.8750     0.1000 H     1 <1>   0.0800 
 31 H       -1.2910    -0.8450     1.4110 H     1 <1>   0.0800 
 32 H       -2.7620    -3.8570     0.7840 H     1 <1>   0.0800 
 33 H       -1.7830    -4.3150    -0.6100 H     1 <1>   0.0800 
 34 H       -3.8840    -1.8720    -2.3860 H     1 <1>   0.0800 
 35 H       -3.6380    -3.5790    -2.2090 H     1 <1>   0.0800 
 36 H       -0.7660    -3.1110     1.7260 H     1 <1>   0.0800 
 37 H        0.0420    -3.1830     0.1790 H     1 <1>   0.0800 
 38 H       -6.4120    -3.2880     1.2700 H     1 <1>   0.0800 
 39 H       -6.3620    -1.6910     1.9140 H     1 <1>   0.0800 
 40 H       -4.9550     0.0690     0.4570 H     1 <1>   0.0800 
 41 H       -4.9350    -0.2620    -1.2420 H     1 <1>   0.0800 
 42 H       -8.5250    -3.0480     0.9130 H     1 <1>   0.0800 
 43 H       -6.6620     1.1600    -1.1150 H     1 <1>   0.0800 
 44 H       -7.5090    -2.5780    -1.2230 H     1 <1>   0.4500 
 45 H       -8.4050    -1.0060     2.4930 H     1 <1>   0.0800 
 46 H       -9.8420    -1.3040     1.5810 H     1 <1>   0.0800 
 47 H       -7.6180     1.8630     0.7080 H     1 <1>   0.0800 
 48 H       -6.8800     0.5840     1.6290 H     1 <1>   0.0800 
 49 H       -7.4780    -0.6580    -2.3880 H     1 <1>   0.0800 
 50 H       -8.7780     0.0310    -1.4650 H     1 <1>   0.0800 
 51 H      -10.2840    -1.6090    -1.1640 H     1 <1>   0.0800 
 52 H       -9.4890    -2.4470    -2.4690 H     1 <1>   0.0800 
 53 H       -8.2130    -4.7270    -1.5110 H     1 <1>   0.1500 
 54 H      -12.4180    -5.1610     0.9850 H     1 <1>   0.1500 
 55 H      -13.0010    -2.9770     0.6380 H     1 <1>   0.0800 
 56 H      -12.5380    -2.3990    -0.9330 H     1 <1>   0.0800 
 57 H      -11.7060    -1.8310     0.4990 H     1 <1>   0.0800 
 58 H       -8.8180    -6.8620    -0.5040 H     1 <1>   0.1500 
 59 H      -12.0750    -8.6880     1.8240 H     1 <1>   0.0800 
 60 H      -12.9200    -7.4870     0.8550 H     1 <1>   0.0800 
 61 H      -12.1650    -7.0250     2.3920 H     1 <1>   0.0800 
@<TRIPOS>BOND
  1   1   2  2   
  2   2   3  am  
  3   2   4  1   
  4   3   5  1   
  5   3   6  1   
  6   4   7  1   
  7   4  30  1   
  8   4  31  1   
  9   5   7  1   
 10   5  32  1   
 11   5  33  1   
 12   6   8  1   
 13   6  34  1   
 14   6  35  1   
 15   7  36  1   
 16   7  37  1   
 17   8   9  2   
 18   8  10  am  
 19  10  11  1   
 20  10  12  1   
 21  11  13  1   
 22  11  38  1   
 23  11  39  1   
 24  12  14  1   
 25  12  40  1   
 26  12  41  1   
 27  13  15  1   
 28  13  16  1   
 29  13  42  1   
 30  14  17  1   
 31  14  18  1   
 32  14  43  1   
 33  15  18  1   
 34  15  19  1   
 35  15  44  1   
 36  16  20  1   
 37  16  45  1   
 38  16  46  1   
 39  17  20  1   
 40  17  47  1   
 41  17  48  1   
 42  18  49  1   
 43  18  50  1   
 44  19  21  1   
 45  19  51  1   
 46  19  52  1   
 47  21  22  ar  
 48  21  23  ar  
 49  22  24  ar  
 50  22  25  1   
 51  23  26  ar  
 52  23  53  1   
 53  24  27  ar  
 54  24  54  1   
 55  25  55  1   
 56  25  56  1   
 57  25  57  1   
 58  26  27  ar  
 59  26  58  1   
 60  27  28  1   
 61  28  29  1   
 62  29  59  1   
 63  29  60  1   
 64  29  61  1   
@<TRIPOS>SUBSTRUCTURE
  1 ****  11 GROUP 4 **** **** 0

# MOE 2024.06 (io_trps.svl 2023.06)
