@<TRIPOS>MOLECULE
NONAME
47 49 1 0 0 
SMALL
USER_CHARGES


@<TRIPOS>ATOM
  1 O       -1.7420     0.5160    -2.0570 O.2   1 <1>  -0.5700 
  2 C       -1.7050     0.8720    -0.8960 C.2   1 <1>   0.5440 
  3 N       -1.9360    -0.0660     0.0690 N.am  1 <1>  -0.7300 
  4 C       -1.4230     2.2520    -0.5420 C.ar  1 <1>   0.0860 
  5 C       -2.2280    -1.4950    -0.1860 C.3   1 <1>   0.2200 
  6 C       -0.6890     3.0750    -1.3950 C.ar  1 <1>  -0.1500 
  7 C       -1.8640     2.8180     0.6540 C.ar  1 <1>  -0.1500 
  8 C       -3.7210    -1.7310    -0.0340 C.3   1 <1>  -0.0800 
  9 C       -1.6640    -2.3420     0.9480 C.3   1 <1>   0.1200 
 10 C       -0.3860     4.3880    -1.0840 C.ar  1 <1>   0.0820 
 11 C       -1.5820     4.1310     0.9840 C.ar  1 <1>  -0.1500 
 12 C       -3.8670    -1.9280     1.4800 C.3   1 <1>   0.1200 
 13 C       -4.1820    -2.9630    -0.8330 C.3   1 <1>  -0.0160 
 14 O       -2.6070    -2.2840     1.9760 O.3   1 <1>  -0.5600 
 15 O        0.3550     5.0400    -2.0250 O.3   1 <1>  -0.3630 
 16 C       -0.8450     4.9410     0.1230 C.ar  1 <1>   0.0820 
 17 C       -5.6830    -3.1750    -0.7090 C.ar  1 <1>  -0.1430 
 18 C        1.2660     6.0580    -1.6740 C.3   1 <1>   0.0400 
 19 O       -0.5880     6.2430     0.4250 O.3   1 <1>  -0.3630 
 20 C       -6.2230    -4.1750     0.0760 C.ar  1 <1>  -0.1500 
 21 C       -6.5850    -2.3730    -1.3790 C.ar  1 <1>  -0.1500 
 22 C       -1.1450     6.8920     1.5470 C.3   1 <1>   0.0400 
 23 C       -7.5990    -4.3160     0.1540 C.ar  1 <1>   0.1600 
 24 C       -7.9440    -2.5990    -1.2320 C.ar  1 <1>   0.1600 
 25 N       -8.4720    -3.5500    -0.4790 N.ar  1 <1>  -0.6200 
 26 H       -1.8780     0.1790     1.0580 H     1 <1>   0.3700 
 27 H       -1.8440    -1.7920    -1.1480 H     1 <1>   0.0800 
 28 H       -0.3400     2.6750    -2.3310 H     1 <1>   0.1500 
 29 H       -2.4460     2.2260     1.3380 H     1 <1>   0.1500 
 30 H       -4.2820    -0.8750    -0.3670 H     1 <1>   0.0800 
 31 H       -0.7150    -1.9810     1.3040 H     1 <1>   0.0800 
 32 H       -1.5720    -3.3700     0.6460 H     1 <1>   0.0800 
 33 H       -1.9520     4.5060     1.9190 H     1 <1>   0.1500 
 34 H       -4.5740    -2.6960     1.7400 H     1 <1>   0.0800 
 35 H       -4.1530    -1.0060     1.9560 H     1 <1>   0.0800 
 36 H       -3.6640    -3.8440    -0.4970 H     1 <1>   0.0800 
 37 H       -3.9420    -2.8230    -1.8730 H     1 <1>   0.0800 
 38 H        1.9650     6.1740    -2.4810 H     1 <1>   0.0800 
 39 H        1.7820     5.7740    -0.7740 H     1 <1>   0.0800 
 40 H        0.7220     6.9750    -1.5300 H     1 <1>   0.0800 
 41 H       -5.5890    -4.8450     0.6270 H     1 <1>   0.1500 
 42 H       -6.2440    -1.5760    -2.0130 H     1 <1>   0.1500 
 43 H       -0.8360     7.9210     1.5240 H     1 <1>   0.0800 
 44 H       -0.7780     6.4210     2.4410 H     1 <1>   0.0800 
 45 H       -2.2170     6.8320     1.4880 H     1 <1>   0.0800 
 46 H       -8.0020    -5.1010     0.7720 H     1 <1>   0.1500 
 47 H       -8.6320    -1.9630    -1.7620 H     1 <1>   0.1500 
@<TRIPOS>BOND
  1   1   2  2   
  2   2   3  am  
  3   2   4  1   
  4   3   5  1   
  5   3  26  1   
  6   4   6  ar  
  7   4   7  ar  
  8   5   8  1   
  9   5   9  1   
 10   5  27  1   
 11   6  10  ar  
 12   6  28  1   
 13   7  11  ar  
 14   7  29  1   
 15   8  12  1   
 16   8  13  1   
 17   8  30  1   
 18   9  14  1   
 19   9  31  1   
 20   9  32  1   
 21  10  15  1   
 22  10  16  ar  
 23  11  16  ar  
 24  11  33  1   
 25  12  14  1   
 26  12  34  1   
 27  12  35  1   
 28  13  17  1   
 29  13  36  1   
 30  13  37  1   
 31  15  18  1   
 32  16  19  1   
 33  17  20  ar  
 34  17  21  ar  
 35  18  38  1   
 36  18  39  1   
 37  18  40  1   
 38  19  22  1   
 39  20  23  ar  
 40  20  41  1   
 41  21  24  ar  
 42  21  42  1   
 43  22  43  1   
 44  22  44  1   
 45  22  45  1   
 46  23  25  ar  
 47  23  46  1   
 48  24  25  ar  
 49  24  47  1   
@<TRIPOS>SUBSTRUCTURE
  1 ****   3 GROUP 4 **** **** 0

# MOE 2024.06 (io_trps.svl 2023.06)
