@<TRIPOS>MOLECULE
NONAME
55 58 1 0 0 
SMALL
USER_CHARGES


@<TRIPOS>ATOM
  1 O        1.3560    -2.3000     2.0310 O.3   1 <1>  -0.5600 
  2 C        0.6910    -1.8670     0.8840 C.3   1 <1>   0.2000 
  3 C        0.5470    -2.4230     3.1620 C.3   1 <1>   0.0400 
  4 C        1.7070    -1.4190    -0.1780 C.3   1 <1>   0.0000 
  5 C       -0.1090    -3.0030     0.2390 C.3   1 <1>  -0.1600 
  6 C        2.9140    -2.3960    -0.2000 C.3   1 <1>   0.3430 
  7 C        2.1620     0.0380     0.0550 C.3   1 <1>  -0.1600 
  8 C        0.9000    -1.5720    -1.4770 C.3   1 <1>  -0.1600 
  9 C        0.0410    -2.8240    -1.2780 C.3   1 <1>  -0.1600 
 10 N        4.2310    -1.6990    -0.3680 N.4   1 <1>  -0.9590 
 11 C        3.2280     0.4780    -0.9680 C.3   1 <1>  -0.1600 
 12 C        4.1770    -0.6420    -1.4130 C.3   1 <1>   0.3430 
 13 C        5.3410    -2.6650    -0.5690 C.3   1 <1>   0.4860 
 14 C        6.6600    -1.9160    -0.5240 C.ar  1 <1>  -0.1440 
 15 C        7.3960    -1.7210    -1.6830 C.ar  1 <1>  -0.1500 
 16 C        7.1410    -1.4150     0.6770 C.ar  1 <1>  -0.1500 
 17 C        8.5930    -1.0280    -1.6440 C.ar  1 <1>  -0.1500 
 18 C        8.3370    -0.7210     0.7140 C.ar  1 <1>  -0.1500 
 19 C        9.0710    -0.5210    -0.4450 C.ar  1 <1>  -0.1440 
 20 C       10.3900     0.2460    -0.3900 C.3   1 <1>   0.2390 
 21 N       11.3380    -0.3790     0.5560 N.pl3 1 <1>   0.3140 
 22 N       11.6760     0.2090     1.7220 N.2   1 <1>  -0.7070 
 23 C       11.9780    -1.5570     0.4030 C.2   1 <1>  -0.3020 
 24 C       12.5200    -0.6080     2.2760 C.2   1 <1>   0.1390 
 25 C       12.7500    -1.7350     1.4960 C.2   1 <1>  -0.1500 
 26 H        0.0390    -1.0460     1.1350 H     1 <1>   0.0800 
 27 H        1.1620    -2.7500     3.9820 H     1 <1>   0.0800 
 28 H       -0.2230    -3.1530     2.9780 H     1 <1>   0.0800 
 29 H        0.1120    -1.4670     3.3970 H     1 <1>   0.0800 
 30 H        0.2820    -3.9610     0.5350 H     1 <1>   0.0800 
 31 H       -1.1440    -2.9380     0.5270 H     1 <1>   0.0800 
 32 H        2.7690    -3.0990    -1.0030 H     1 <1>   0.0800 
 33 H        2.9390    -2.9640     0.7150 H     1 <1>   0.0800 
 34 H        1.3210     0.7110     0.0170 H     1 <1>   0.0800 
 35 H        2.5760     0.1110     1.0470 H     1 <1>   0.0800 
 36 H        0.2440    -0.7250    -1.5970 H     1 <1>   0.0800 
 37 H        1.5180    -1.6480    -2.3560 H     1 <1>   0.0800 
 38 H        0.5300    -3.6870    -1.6980 H     1 <1>   0.0800 
 39 H       -0.9190    -2.7110    -1.7550 H     1 <1>   0.0800 
 40 H        4.4220    -1.2100     0.5160 H     1 <1>   0.4500 
 41 H        3.8050     1.2840    -0.5500 H     1 <1>   0.0800 
 42 H        2.7430     0.8690    -1.8460 H     1 <1>   0.0800 
 43 H        5.1580    -0.2280    -1.5880 H     1 <1>   0.0800 
 44 H        3.8210    -1.0710    -2.3360 H     1 <1>   0.0800 
 45 H        5.3300    -3.4080     0.2120 H     1 <1>   0.0800 
 46 H        5.2340    -3.1640    -1.5180 H     1 <1>   0.0800 
 47 H        7.0520    -2.1080    -2.6280 H     1 <1>   0.1500 
 48 H        6.6020    -1.5610     1.5980 H     1 <1>   0.1500 
 49 H        9.1530    -0.8870    -2.5540 H     1 <1>   0.1500 
 50 H        8.7040    -0.3380     1.6540 H     1 <1>   0.1500 
 51 H       10.2080     1.2550    -0.0660 H     1 <1>   0.0800 
 52 H       10.8530     0.2790    -1.3570 H     1 <1>   0.0800 
 53 H       11.8490    -2.1900    -0.4560 H     1 <1>   0.1500 
 54 H       12.9830    -0.4240     3.2310 H     1 <1>   0.1500 
 55 H       13.4050    -2.5520     1.7390 H     1 <1>   0.1500 
@<TRIPOS>BOND
  1   1   2  1   
  2   1   3  1   
  3   2   4  1   
  4   2   5  1   
  5   2  26  1   
  6   3  27  1   
  7   3  28  1   
  8   3  29  1   
  9   4   6  1   
 10   4   7  1   
 11   4   8  1   
 12   5   9  1   
 13   5  30  1   
 14   5  31  1   
 15   6  10  1   
 16   6  32  1   
 17   6  33  1   
 18   7  11  1   
 19   7  34  1   
 20   7  35  1   
 21   8   9  1   
 22   8  36  1   
 23   8  37  1   
 24   9  38  1   
 25   9  39  1   
 26  10  12  1   
 27  10  13  1   
 28  10  40  1   
 29  11  12  1   
 30  11  41  1   
 31  11  42  1   
 32  12  43  1   
 33  12  44  1   
 34  13  14  1   
 35  13  45  1   
 36  13  46  1   
 37  14  15  ar  
 38  14  16  ar  
 39  15  17  ar  
 40  15  47  1   
 41  16  18  ar  
 42  16  48  1   
 43  17  19  ar  
 44  17  49  1   
 45  18  19  ar  
 46  18  50  1   
 47  19  20  1   
 48  20  21  1   
 49  20  51  1   
 50  20  52  1   
 51  21  22  1   
 52  21  23  1   
 53  22  24  2   
 54  23  25  2   
 55  23  53  1   
 56  24  25  1   
 57  24  54  1   
 58  25  55  1   
@<TRIPOS>SUBSTRUCTURE
  1 ****  14 GROUP 4 **** **** 0

# MOE 2024.06 (io_trps.svl 2023.06)
