@<TRIPOS>MOLECULE
NONAME
39 40 1 0 0 
SMALL
USER_CHARGES


@<TRIPOS>ATOM
  1 CL       0.9050    -0.8010    -1.8490 Cl    1 <1>  -0.1230 
  2 C        2.1460    -0.1880    -0.7700 C.2   1 <1>   0.1230 
  3 C        2.0450    -0.0800     0.6080 C.2   1 <1>   0.1390 
  4 C        3.3690     0.2660    -1.0980 C.2   1 <1>  -0.3020 
  5 N        3.1350     0.4130     1.1220 N.2   1 <1>  -0.7070 
  6 N        3.9520     0.6250     0.0650 N.pl3 1 <1>   0.3140 
  7 C        5.3030     1.1920     0.2340 C.3   1 <1>   0.0960 
  8 C        5.2450     2.7250     0.2340 C.3   1 <1>  -0.1600 
  9 C        6.6390     3.3140     0.4170 C.3   1 <1>   0.2090 
 10 N        6.5430     4.7860     0.3520 N.pl3 1 <1>  -0.8690 
 11 C        7.6290     5.6170     0.1520 C.ar  1 <1>   0.4100 
 12 N        8.7700     4.9960    -0.1310 N.ar  1 <1>  -0.6200 
 13 C        7.5140     7.0160     0.2660 C.ar  1 <1>   0.0860 
 14 C        9.8480     5.7380    -0.2770 C.ar  1 <1>   0.1670 
 15 C        6.2550     7.6810     0.5140 C.2   1 <1>   0.5440 
 16 C        8.6720     7.7650     0.1250 C.ar  1 <1>  -0.1500 
 17 C        9.8590     7.1230    -0.1500 C.ar  1 <1>  -0.1440 
 18 C       11.1200     4.9730    -0.5930 C.3   1 <1>  -0.0970 
 19 O        6.1890     8.6780     1.2010 O.2   1 <1>  -0.5700 
 20 N        5.0860     7.2650    -0.0310 N.am  1 <1>  -0.8000 
 21 C       11.1310     7.9480    -0.3050 C.3   1 <1>  -0.0970 
 22 H        1.1790    -0.3650     1.1820 H     1 <1>   0.1500 
 23 H        3.8360     0.3510    -2.0610 H     1 <1>   0.1500 
 24 H        5.9270     0.8380    -0.5660 H     1 <1>   0.0800 
 25 H        5.7000     0.8360     1.1680 H     1 <1>   0.0800 
 26 H        4.6110     3.0530     1.0390 H     1 <1>   0.0800 
 27 H        4.8410     3.0650    -0.7030 H     1 <1>   0.0800 
 28 H        7.2920     2.9590    -0.3640 H     1 <1>   0.0800 
 29 H        7.0540     3.0260     1.3690 H     1 <1>   0.0800 
 30 H        5.7830     5.1830     0.9160 H     1 <1>   0.4000 
 31 H        8.6260     8.8360     0.2290 H     1 <1>   0.1500 
 32 H       10.8920     3.9510    -0.8360 H     1 <1>   0.0800 
 33 H       11.7710     4.9840     0.2610 H     1 <1>   0.0800 
 34 H       11.6240     5.4130    -1.4330 H     1 <1>   0.0800 
 35 H        4.2480     7.8330     0.0960 H     1 <1>   0.3700 
 36 H        5.0460     6.5010    -0.7080 H     1 <1>   0.3700 
 37 H       11.8970     7.5780     0.3530 H     1 <1>   0.0800 
 38 H       10.9520     8.9800    -0.0610 H     1 <1>   0.0800 
 39 H       11.4830     7.8960    -1.3190 H     1 <1>   0.0800 
@<TRIPOS>BOND
  1   1   2  1   
  2   2   3  1   
  3   2   4  2   
  4   3   5  2   
  5   3  22  1   
  6   4   6  1   
  7   4  23  1   
  8   5   6  1   
  9   6   7  1   
 10   7   8  1   
 11   7  24  1   
 12   7  25  1   
 13   8   9  1   
 14   8  26  1   
 15   8  27  1   
 16   9  10  1   
 17   9  28  1   
 18   9  29  1   
 19  10  11  1   
 20  10  30  1   
 21  11  12  ar  
 22  11  13  ar  
 23  12  14  ar  
 24  13  15  1   
 25  13  16  ar  
 26  14  17  ar  
 27  14  18  1   
 28  15  19  2   
 29  15  20  am  
 30  16  17  ar  
 31  16  31  1   
 32  17  21  1   
 33  18  32  1   
 34  18  33  1   
 35  18  34  1   
 36  20  35  1   
 37  20  36  1   
 38  21  37  1   
 39  21  38  1   
 40  21  39  1   
@<TRIPOS>SUBSTRUCTURE
  1 ****  10 GROUP 4 **** **** 0

# MOE 2024.06 (io_trps.svl 2023.06)
