@<TRIPOS>MOLECULE
NONAME
55 57 1 0 0 
SMALL
USER_CHARGES


@<TRIPOS>ATOM
  1 O       -2.5420    -0.4420     0.2930 O.2   1 <1>  -0.5700 
  2 C       -2.5940     0.7710     0.2470 C.2   1 <1>   0.7800 
  3 O       -2.0270     1.5330     1.1850 O.3   1 <1>  -0.4300 
  4 N       -3.2390     1.4240    -0.7640 N.am  1 <1>  -0.6600 
  5 C       -1.3280     1.0950     2.3290 C.3   1 <1>   0.2800 
  6 C       -3.4230     2.8840    -0.8400 C.3   1 <1>   0.1400 
  7 C       -4.0320     0.7230    -1.7930 C.3   1 <1>   0.1400 
  8 C       -0.0770     0.3090     1.9200 C.3   1 <1>  -0.2400 
  9 C       -0.9040     2.3750     3.0510 C.3   1 <1>  -0.2400 
 10 C       -2.2570     0.2850     3.2410 C.3   1 <1>  -0.2400 
 11 C       -4.6500     3.0800    -1.7350 C.3   1 <1>   0.0000 
 12 C       -4.6970     1.8290    -2.6220 C.3   1 <1>  -0.0800 
 13 C       -5.9540     2.9960    -0.9240 C.3   1 <1>   0.1400 
 14 C       -4.5590     4.4010    -2.5260 C.3   1 <1>   0.1200 
 15 C       -6.1800     1.5520    -2.8780 C.3   1 <1>   0.1400 
 16 N       -6.8920     2.2250    -1.7690 N.am  1 <1>  -0.6600 
 17 O       -5.6160     4.5190    -3.4140 O.3   1 <1>  -0.6800 
 18 C       -8.1260     1.8280    -1.3420 C.2   1 <1>   0.7800 
 19 O       -8.7850     1.0000    -1.9410 O.2   1 <1>  -0.5700 
 20 O       -8.5910     2.3900    -0.2290 O.3   1 <1>  -0.4300 
 21 C       -9.7620     1.9150     0.3990 C.3   1 <1>   0.2630 
 22 C       -9.3810     0.7960     1.3560 C.ar  1 <1>  -0.1440 
 23 C       -9.3790    -0.5220     0.9270 C.ar  1 <1>  -0.1500 
 24 C       -9.0290     1.0850     2.6660 C.ar  1 <1>  -0.1500 
 25 C       -9.0320    -1.5410     1.7970 C.ar  1 <1>  -0.1500 
 26 C       -8.6820     0.0670     3.5380 C.ar  1 <1>  -0.1500 
 27 C       -8.6840    -1.2470     3.1040 C.ar  1 <1>  -0.1500 
 28 H       -2.5460     3.3130    -1.2930 H     1 <1>   0.0800 
 29 H       -3.5650     3.3120     0.1380 H     1 <1>   0.0800 
 30 H       -4.7670     0.1050    -1.3020 H     1 <1>   0.0800 
 31 H       -3.3950     0.1030    -2.3990 H     1 <1>   0.0800 
 32 H        0.5130     0.8790     1.2250 H     1 <1>   0.0800 
 33 H       -0.3380    -0.6320     1.4720 H     1 <1>   0.0800 
 34 H        0.5240     0.0990     2.7850 H     1 <1>   0.0800 
 35 H       -0.2700     2.9680     2.4180 H     1 <1>   0.0800 
 36 H       -0.3600     2.1360     3.9470 H     1 <1>   0.0800 
 37 H       -1.7690     2.9530     3.3240 H     1 <1>   0.0800 
 38 H       -2.5180    -0.6560     2.7930 H     1 <1>   0.0800 
 39 H       -3.1550     0.8390     3.4480 H     1 <1>   0.0800 
 40 H       -1.7640     0.0740     4.1720 H     1 <1>   0.0800 
 41 H       -4.1570     1.9580    -3.5430 H     1 <1>   0.0800 
 42 H       -6.3550     3.9690    -0.6960 H     1 <1>   0.0800 
 43 H       -5.7990     2.4540    -0.0050 H     1 <1>   0.0800 
 44 H       -3.6480     4.4480    -3.0980 H     1 <1>   0.0800 
 45 H       -4.5940     5.2450    -1.8580 H     1 <1>   0.0800 
 46 H       -6.3990     0.4970    -2.8970 H     1 <1>   0.0800 
 47 H       -6.4880     1.9910    -3.8120 H     1 <1>   0.0800 
 48 H       -6.4250     4.1190    -3.0250 H     1 <1>   0.4000 
 49 H      -10.4680     1.5830    -0.3420 H     1 <1>   0.0800 
 50 H      -10.1950     2.7370     0.9400 H     1 <1>   0.0800 
 51 H       -9.6420    -0.7590    -0.0900 H     1 <1>   0.1500 
 52 H       -9.0200     2.1040     3.0120 H     1 <1>   0.1500 
 53 H       -9.0320    -2.5610     1.4560 H     1 <1>   0.1500 
 54 H       -8.4100     0.2960     4.5530 H     1 <1>   0.1500 
 55 H       -8.4130    -2.0390     3.7800 H     1 <1>   0.1500 
@<TRIPOS>BOND
  1   1   2  2   
  2   2   3  1   
  3   2   4  am  
  4   3   5  1   
  5   4   6  1   
  6   4   7  1   
  7   5   8  1   
  8   5   9  1   
  9   5  10  1   
 10   6  11  1   
 11   6  28  1   
 12   6  29  1   
 13   7  12  1   
 14   7  30  1   
 15   7  31  1   
 16   8  32  1   
 17   8  33  1   
 18   8  34  1   
 19   9  35  1   
 20   9  36  1   
 21   9  37  1   
 22  10  38  1   
 23  10  39  1   
 24  10  40  1   
 25  11  12  1   
 26  11  13  1   
 27  11  14  1   
 28  12  15  1   
 29  12  41  1   
 30  13  16  1   
 31  13  42  1   
 32  13  43  1   
 33  14  17  1   
 34  14  44  1   
 35  14  45  1   
 36  15  16  1   
 37  15  46  1   
 38  15  47  1   
 39  16  18  am  
 40  17  48  1   
 41  18  19  2   
 42  18  20  1   
 43  20  21  1   
 44  21  22  1   
 45  21  49  1   
 46  21  50  1   
 47  22  23  ar  
 48  22  24  ar  
 49  23  25  ar  
 50  23  51  1   
 51  24  26  ar  
 52  24  52  1   
 53  25  27  ar  
 54  25  53  1   
 55  26  27  ar  
 56  26  54  1   
 57  27  55  1   
@<TRIPOS>SUBSTRUCTURE
  1 ****  13 GROUP 4 **** **** 0

# MOE 2024.06 (io_trps.svl 2023.06)
