@<TRIPOS>MOLECULE
NONAME
48 50 1 0 0 
SMALL
USER_CHARGES


@<TRIPOS>ATOM
  1 F       -4.1180    -2.0090    -2.6010 F     1 <1>  -0.3400 
  2 C       -4.4440    -1.9490    -1.3120 C.3   1 <1>   1.2010 
  3 F       -5.7630    -2.1310    -1.2610 F     1 <1>  -0.3400 
  4 F       -4.2390    -0.6860    -0.9430 F     1 <1>  -0.3400 
  5 C       -3.6650    -2.9870    -0.4480 C.2   1 <1>   0.3350 
  6 N       -2.7700    -2.7050     0.4280 N.2   1 <1>  -0.4100 
  7 N       -3.8660    -4.3100    -0.5450 N.2   1 <1>  -0.5650 
  8 O       -2.3460    -3.8180     0.9410 O.3   1 <1>  -0.0190 
  9 C       -3.0380    -4.7410     0.3260 C.2   1 <1>   0.2980 
 10 C       -2.7780    -6.2000     0.7080 C.3   1 <1>   0.2900 
 11 N       -3.9240    -7.0960     0.3870 N.3   1 <1>  -0.8100 
 12 C       -5.0800    -6.8510     1.2630 C.3   1 <1>   0.1100 
 13 C       -3.5590    -8.5010     0.3280 C.3   1 <1>   0.1100 
 14 C       -6.1650    -7.9220     1.0710 C.3   1 <1>  -0.1600 
 15 C       -4.6480    -9.2330    -0.4650 C.3   1 <1>  -0.1600 
 16 C       -6.0890    -8.6690    -0.2840 C.3   1 <1>   0.5640 
 17 N       -7.0130    -9.8880    -0.1910 N.4   1 <1>  -0.9590 
 18 C       -6.4680    -7.6820    -1.4640 C.2   1 <1>   0.5690 
 19 C       -7.0020   -10.6960    -1.4560 C.3   1 <1>   0.3430 
 20 C       -8.4350    -9.5450     0.1450 C.3   1 <1>   0.3430 
 21 O       -7.4980    -7.8460    -2.0740 O.2   1 <1>  -0.5700 
 22 N       -5.6840    -6.6450    -1.8300 N.am  1 <1>  -0.8000 
 23 C       -7.7410   -12.0170    -1.2340 C.3   1 <1>  -0.1600 
 24 C       -9.2270   -10.8260     0.4150 C.3   1 <1>  -0.1600 
 25 C       -9.1870   -11.7790    -0.7850 C.3   1 <1>  -0.1600 
 26 H       -2.5530    -6.2600     1.7590 H     1 <1>   0.0800 
 27 H       -1.9060    -6.5210     0.1640 H     1 <1>   0.0800 
 28 H       -5.4920    -5.8820     1.0300 H     1 <1>   0.0800 
 29 H       -4.7700    -6.8360     2.2960 H     1 <1>   0.0800 
 30 H       -3.4720    -8.8990     1.3270 H     1 <1>   0.0800 
 31 H       -2.6110    -8.6270    -0.1720 H     1 <1>   0.0800 
 32 H       -7.1140    -7.4280     1.1780 H     1 <1>   0.0800 
 33 H       -6.0670    -8.6290     1.8740 H     1 <1>   0.0800 
 34 H       -4.5910   -10.2650    -0.1720 H     1 <1>   0.0800 
 35 H       -4.3840    -9.1850    -1.5070 H     1 <1>   0.0800 
 36 H       -6.6600   -10.4850     0.5600 H     1 <1>   0.4500 
 37 H       -5.9920   -10.9060    -1.7660 H     1 <1>   0.0800 
 38 H       -7.4870   -10.1460    -2.2470 H     1 <1>   0.0800 
 39 H       -8.8890    -9.0100    -0.6750 H     1 <1>   0.0800 
 40 H       -8.4810    -8.9210     1.0210 H     1 <1>   0.0800 
 41 H       -5.9680    -5.9990    -2.5680 H     1 <1>   0.3700 
 42 H       -4.8480    -6.3690    -1.2860 H     1 <1>   0.3700 
 43 H       -7.2170   -12.6050    -0.5010 H     1 <1>   0.0800 
 44 H       -7.7440   -12.5750    -2.1540 H     1 <1>   0.0800 
 45 H      -10.2500   -10.5660     0.6260 H     1 <1>   0.0800 
 46 H       -8.8330   -11.3150     1.2890 H     1 <1>   0.0800 
 47 H       -9.6540   -12.7160    -0.5280 H     1 <1>   0.0800 
 48 H       -9.7460   -11.3480    -1.6000 H     1 <1>   0.0800 
@<TRIPOS>BOND
  1   1   2  1   
  2   2   3  1   
  3   2   4  1   
  4   2   5  1   
  5   5   6  2   
  6   5   7  1   
  7   6   8  1   
  8   7   9  2   
  9   8   9  1   
 10   9  10  1   
 11  10  11  1   
 12  10  26  1   
 13  10  27  1   
 14  11  12  1   
 15  11  13  1   
 16  12  14  1   
 17  12  28  1   
 18  12  29  1   
 19  13  15  1   
 20  13  30  1   
 21  13  31  1   
 22  14  16  1   
 23  14  32  1   
 24  14  33  1   
 25  15  16  1   
 26  15  34  1   
 27  15  35  1   
 28  16  17  1   
 29  16  18  1   
 30  17  19  1   
 31  17  20  1   
 32  17  36  1   
 33  18  21  2   
 34  18  22  am  
 35  19  23  1   
 36  19  37  1   
 37  19  38  1   
 38  20  24  1   
 39  20  39  1   
 40  20  40  1   
 41  22  41  1   
 42  22  42  1   
 43  23  25  1   
 44  23  43  1   
 45  23  44  1   
 46  24  25  1   
 47  24  45  1   
 48  24  46  1   
 49  25  47  1   
 50  25  48  1   
@<TRIPOS>SUBSTRUCTURE
  1 ****  22 GROUP 4 **** **** 0

# MOE 2024.06 (io_trps.svl 2023.06)
