@<TRIPOS>MOLECULE
NONAME
45 48 1 0 0 
SMALL
USER_CHARGES


@<TRIPOS>ATOM
  1 O       -0.0280     0.3050     0.1920 O.2   1 <1>  -0.5700 
  2 C       -0.0500     1.5160     0.3070 C.2   1 <1>   0.5440 
  3 N       -1.2670     2.1620     0.3450 N.am  1 <1>  -0.6600 
  4 C        1.2040     2.2400     0.3890 C.ar  1 <1>   0.0860 
  5 C       -1.4100     3.6270     0.0870 C.3   1 <1>   0.1400 
  6 C       -2.5270     1.3700     0.4820 C.3   1 <1>   0.1400 
  7 C        2.1970     2.0690    -0.5510 C.ar  1 <1>  -0.1500 
  8 C        1.4500     3.1430     1.4430 C.ar  1 <1>  -0.1500 
  9 C       -2.7160     3.8960    -0.6560 C.3   1 <1>  -0.1600 
 10 C       -3.6480     2.2400     1.0540 C.3   1 <1>  -0.1600 
 11 C        3.4090     2.7690    -0.5040 C.ar  1 <1>   0.3100 
 12 C        2.6260     3.8400     1.5220 C.ar  1 <1>  -0.1500 
 13 C       -3.9290     3.4880     0.1980 C.3   1 <1>   0.4180 
 14 N        4.3330     2.5610    -1.4790 N.ar  1 <1>  -0.6200 
 15 C        3.6330     3.6810     0.5590 C.ar  1 <1>   0.3100 
 16 O       -4.1930     4.5170     1.1210 O.3   1 <1>  -0.5600 
 17 C       -5.1450     3.2380    -0.6930 C.2   1 <1>  -0.2880 
 18 C        5.4140     3.2620    -1.3370 C.ar  1 <1>   0.1600 
 19 N        4.7800     4.3990     0.6700 N.ar  1 <1>  -0.6200 
 20 C       -4.9570     5.6100     0.6900 C.3   1 <1>   0.1200 
 21 C       -6.2600     3.9710    -0.6700 C.2   1 <1>  -0.2760 
 22 C        5.6340     4.1680    -0.2780 C.ar  1 <1>   0.1600 
 23 C       -6.3610     5.1620     0.2640 C.3   1 <1>  -0.0220 
 24 C       -7.4890     3.7010    -1.5200 C.3   1 <1>  -0.1020 
 25 H       -0.5850     3.9800    -0.5070 H     1 <1>   0.0800 
 26 H       -1.4130     4.1570     1.0250 H     1 <1>   0.0800 
 27 H       -2.3550     0.5300     1.1330 H     1 <1>   0.0800 
 28 H       -2.8080     0.9900    -0.4860 H     1 <1>   0.0800 
 29 H        2.0520     1.3750    -1.3590 H     1 <1>   0.1500 
 30 H        0.6880     3.2690     2.1940 H     1 <1>   0.1500 
 31 H       -2.7050     3.3260    -1.5670 H     1 <1>   0.0800 
 32 H       -2.7780     4.9300    -0.9330 H     1 <1>   0.0800 
 33 H       -3.3550     2.5350     2.0460 H     1 <1>   0.0800 
 34 H       -4.5430     1.6520     1.1450 H     1 <1>   0.0800 
 35 H        2.8120     4.5280     2.3270 H     1 <1>   0.1500 
 36 H       -5.0160     2.3900    -1.3420 H     1 <1>   0.1500 
 37 H        6.1960     3.1520    -2.0680 H     1 <1>   0.1500 
 38 H       -4.4520     6.0840    -0.1320 H     1 <1>   0.0800 
 39 H       -5.0210     6.3080     1.5060 H     1 <1>   0.0800 
 40 H        6.5710     4.6960    -0.2620 H     1 <1>   0.1500 
 41 H       -6.8460     5.9840    -0.2300 H     1 <1>   0.0800 
 42 H       -6.9400     4.9000     1.1310 H     1 <1>   0.0800 
 43 H       -7.6920     4.5410    -2.1580 H     1 <1>   0.0800 
 44 H       -8.3430     3.5260    -0.8900 H     1 <1>   0.0800 
 45 H       -7.3360     2.8330    -2.1370 H     1 <1>   0.0800 
@<TRIPOS>BOND
  1   1   2  2   
  2   2   3  am  
  3   2   4  1   
  4   3   5  1   
  5   3   6  1   
  6   4   7  ar  
  7   4   8  ar  
  8   5   9  1   
  9   5  25  1   
 10   5  26  1   
 11   6  10  1   
 12   6  27  1   
 13   6  28  1   
 14   7  11  ar  
 15   7  29  1   
 16   8  12  ar  
 17   8  30  1   
 18   9  13  1   
 19   9  31  1   
 20   9  32  1   
 21  10  13  1   
 22  10  33  1   
 23  10  34  1   
 24  11  14  ar  
 25  11  15  ar  
 26  12  15  ar  
 27  12  35  1   
 28  13  16  1   
 29  13  17  1   
 30  14  18  ar  
 31  15  19  ar  
 32  16  20  1   
 33  17  21  2   
 34  17  36  1   
 35  18  22  ar  
 36  18  37  1   
 37  19  22  ar  
 38  20  23  1   
 39  20  38  1   
 40  20  39  1   
 41  21  23  1   
 42  21  24  1   
 43  22  40  1   
 44  23  41  1   
 45  23  42  1   
 46  24  43  1   
 47  24  44  1   
 48  24  45  1   
@<TRIPOS>SUBSTRUCTURE
  1 ****   5 GROUP 4 **** **** 0

# MOE 2024.06 (io_trps.svl 2023.06)
