@<TRIPOS>MOLECULE
NONAME
58 60 1 0 0 
SMALL
USER_CHARGES


@<TRIPOS>ATOM
  1 O        1.6720    -0.7240    -2.2600 O.2   1 <1>  -0.5700 
  2 C        1.9750    -1.3090    -1.2430 C.2   1 <1>   0.5690 
  3 N        2.2560    -0.5890    -0.1040 N.am  1 <1>  -0.6600 
  4 C        2.0600    -2.8470    -1.3130 C.3   1 <1>   0.2610 
  5 C        2.1380     0.8770    -0.0460 C.3   1 <1>   0.1400 
  6 C        2.8240    -1.1040     1.1640 C.3   1 <1>   0.1400 
  7 O        1.5980    -3.4430    -0.1070 O.3   1 <1>  -0.3630 
  8 C        3.4880    -3.3310    -1.6050 C.3   1 <1>  -0.2400 
  9 C        3.2280     1.2970     0.9510 C.3   1 <1>   0.0000 
 10 C        3.1860     0.1470     1.9680 C.3   1 <1>  -0.1600 
 11 C        0.9050    -4.5990    -0.2000 C.ar  1 <1>   0.0820 
 12 C        4.6090     1.3510     0.2590 C.3   1 <1>  -0.1600 
 13 C        2.9310     2.6620     1.5960 C.3   1 <1>  -0.1600 
 14 C       -0.4930    -4.6270    -0.2300 C.ar  1 <1>  -0.1440 
 15 C        1.6350    -5.7790    -0.2380 C.ar  1 <1>  -0.1500 
 16 C        4.7110     2.5090    -0.7340 C.3   1 <1>   0.3430 
 17 C        3.0490     3.8060     0.5860 C.3   1 <1>   0.3430 
 18 C       -1.1120    -5.8650    -0.3530 C.ar  1 <1>  -0.1500 
 19 C       -1.4140    -3.4010    -0.1270 C.3   1 <1>   0.0640 
 20 C        1.0020    -7.0020    -0.3570 C.ar  1 <1>  -0.1440 
 21 N        4.4000     3.7890    -0.0390 N.4   1 <1>  -0.9060 
 22 C       -0.3790    -7.0370    -0.4190 C.ar  1 <1>  -0.1500 
 23 C       -1.5580    -2.6840    -1.4720 C.3   1 <1>  -0.2400 
 24 C       -1.0290    -2.4220     0.9890 C.3   1 <1>  -0.2400 
 25 C        1.8020    -8.2900    -0.4100 C.3   1 <1>  -0.0970 
 26 H        1.4110    -3.1730    -2.1070 H     1 <1>   0.0800 
 27 H        1.1580     1.1190     0.3300 H     1 <1>   0.0800 
 28 H        2.2590     1.3180    -1.0200 H     1 <1>   0.0800 
 29 H        3.7010    -1.6920     0.9580 H     1 <1>   0.0800 
 30 H        2.1020    -1.7070     1.6900 H     1 <1>   0.0800 
 31 H        4.1320    -3.1500    -0.7650 H     1 <1>   0.0800 
 32 H        3.8760    -2.8010    -2.4570 H     1 <1>   0.0800 
 33 H        3.4870    -4.3770    -1.8450 H     1 <1>   0.0800 
 34 H        4.1110     0.0170     2.5020 H     1 <1>   0.0800 
 35 H        2.4040     0.3140     2.6890 H     1 <1>   0.0800 
 36 H        4.7940     0.4320    -0.2710 H     1 <1>   0.0800 
 37 H        5.3870     1.4510     0.9950 H     1 <1>   0.0800 
 38 H        3.6100     2.8370     2.4130 H     1 <1>   0.0800 
 39 H        1.9360     2.6620     2.0080 H     1 <1>   0.0800 
 40 H        2.7050    -5.7350    -0.1680 H     1 <1>   0.1500 
 41 H        4.0150     2.3520    -1.5440 H     1 <1>   0.0800 
 42 H        5.7060     2.5430    -1.1490 H     1 <1>   0.0800 
 43 H        2.8830     4.7480     1.0860 H     1 <1>   0.0800 
 44 H        2.2940     3.6930    -0.1760 H     1 <1>   0.0800 
 45 H       -2.1840    -5.9310    -0.3950 H     1 <1>   0.1500 
 46 H       -2.3940    -3.7620     0.1330 H     1 <1>   0.0800 
 47 H        4.4840     4.5690    -0.7040 H     1 <1>   0.4500 
 48 H        5.1050     3.9440     0.6930 H     1 <1>   0.4500 
 49 H       -0.8910    -7.9780    -0.5130 H     1 <1>   0.1500 
 50 H       -0.6410    -2.2100    -1.7580 H     1 <1>   0.0800 
 51 H       -2.3220    -1.9310    -1.4100 H     1 <1>   0.0800 
 52 H       -1.8330    -3.3890    -2.2360 H     1 <1>   0.0800 
 53 H       -0.1570    -1.8570     0.7260 H     1 <1>   0.0800 
 54 H       -0.8320    -2.9620     1.8980 H     1 <1>   0.0800 
 55 H       -1.8330    -1.7320     1.1650 H     1 <1>   0.0800 
 56 H        2.8200    -8.0940    -0.6950 H     1 <1>   0.0800 
 57 H        1.3720    -8.9650    -1.1270 H     1 <1>   0.0800 
 58 H        1.7980    -8.7600     0.5570 H     1 <1>   0.0800 
@<TRIPOS>BOND
  1   1   2  2   
  2   2   3  am  
  3   2   4  1   
  4   3   5  1   
  5   3   6  1   
  6   4   7  1   
  7   4   8  1   
  8   4  26  1   
  9   5   9  1   
 10   5  27  1   
 11   5  28  1   
 12   6  10  1   
 13   6  29  1   
 14   6  30  1   
 15   7  11  1   
 16   8  31  1   
 17   8  32  1   
 18   8  33  1   
 19   9  10  1   
 20   9  12  1   
 21   9  13  1   
 22  10  34  1   
 23  10  35  1   
 24  11  14  ar  
 25  11  15  ar  
 26  12  16  1   
 27  12  36  1   
 28  12  37  1   
 29  13  17  1   
 30  13  38  1   
 31  13  39  1   
 32  14  18  ar  
 33  14  19  1   
 34  15  20  ar  
 35  15  40  1   
 36  16  21  1   
 37  16  41  1   
 38  16  42  1   
 39  17  21  1   
 40  17  43  1   
 41  17  44  1   
 42  18  22  ar  
 43  18  45  1   
 44  19  23  1   
 45  19  24  1   
 46  19  46  1   
 47  20  22  ar  
 48  20  25  1   
 49  21  47  1   
 50  21  48  1   
 51  22  49  1   
 52  23  50  1   
 53  23  51  1   
 54  23  52  1   
 55  24  53  1   
 56  24  54  1   
 57  24  55  1   
 58  25  56  1   
 59  25  57  1   
 60  25  58  1   
@<TRIPOS>SUBSTRUCTURE
  1 ****   2 GROUP 4 **** **** 0

# MOE 2024.06 (io_trps.svl 2023.06)
