@<TRIPOS>MOLECULE
NONAME
47 50 1 0 0 
SMALL
USER_CHARGES


@<TRIPOS>ATOM
  1 S       -0.7190     0.6750     0.7840 S.o2  1 <1>   1.4470 
  2 O       -0.7310    -0.3900     1.7640 O.2   1 <1>  -0.6500 
  3 O       -1.1840     1.9890     1.1700 O.2   1 <1>  -0.6500 
  4 N       -1.6580     0.1910    -0.5450 N.am  1 <1>  -0.8490 
  5 C        0.9410     0.8300     0.0650 C.ar  1 <1>  -0.0090 
  6 C       -3.0980     0.4720    -0.3870 C.3   1 <1>   0.1960 
  7 C       -1.4550    -1.2090    -0.9740 C.3   1 <1>   0.1960 
  8 C        2.0330     0.1670     0.6240 C.ar  1 <1>  -0.1500 
  9 C        1.1530     1.6200    -1.0640 C.ar  1 <1>  -0.1500 
 10 C       -3.8080    -0.5410     0.5370 C.3   1 <1>   0.1900 
 11 C       -2.2260    -2.2530    -0.1320 C.3   1 <1>   0.1100 
 12 C        3.3000     0.2810     0.0740 C.ar  1 <1>  -0.1500 
 13 C        2.4120     1.7460    -1.6280 C.ar  1 <1>  -0.1500 
 14 N       -3.6590    -1.9110    -0.0090 N.3   1 <1>  -0.8100 
 15 C       -5.3000    -0.1840     0.6880 C.3   1 <1>   0.1200 
 16 C        3.4660     1.0700    -1.0460 C.ar  1 <1>   0.1900 
 17 C       -4.3850    -2.8700     0.8550 C.3   1 <1>   0.3330 
 18 O       -5.9500    -1.1170     1.5040 O.3   1 <1>  -0.5600 
 19 F        4.6550     1.1810    -1.5710 F     1 <1>  -0.1900 
 20 C       -4.3330    -4.2810     0.2690 C.ar  1 <1>  -0.1430 
 21 C       -5.8560    -2.4350     1.0290 C.3   1 <1>   0.1200 
 22 C       -3.9670    -5.3530     1.0700 C.ar  1 <1>  -0.1500 
 23 C       -4.6500    -4.5110    -1.0630 C.ar  1 <1>  -0.1500 
 24 C       -3.9190    -6.6350     0.5480 C.ar  1 <1>  -0.1500 
 25 C       -4.6030    -5.7910    -1.5870 C.ar  1 <1>  -0.1500 
 26 C       -4.2370    -6.8540    -0.7810 C.ar  1 <1>  -0.1500 
 27 H       -3.2410     1.4700    -0.0100 H     1 <1>   0.0800 
 28 H       -3.5660     0.4300    -1.3550 H     1 <1>   0.0800 
 29 H       -1.7910    -1.3030    -1.9930 H     1 <1>   0.0800 
 30 H       -0.4050    -1.4490    -0.9650 H     1 <1>   0.0800 
 31 H        1.8900    -0.4440     1.5000 H     1 <1>   0.1500 
 32 H        0.3180     2.1410    -1.5030 H     1 <1>   0.1500 
 33 H       -3.3610    -0.4860     1.5150 H     1 <1>   0.0800 
 34 H       -1.7850    -2.3430     0.8450 H     1 <1>   0.0800 
 35 H       -2.1270    -3.2090    -0.6150 H     1 <1>   0.0800 
 36 H        4.1450    -0.2300     0.5040 H     1 <1>   0.1500 
 37 H        2.5760     2.3550    -2.4990 H     1 <1>   0.1500 
 38 H       -5.7870    -0.1690    -0.2720 H     1 <1>   0.0800 
 39 H       -5.4080     0.7810     1.1500 H     1 <1>   0.0800 
 40 H       -3.9260    -2.8790     1.8290 H     1 <1>   0.0800 
 41 H       -6.3460    -3.0760     1.7390 H     1 <1>   0.0800 
 42 H       -6.3770    -2.4990     0.0910 H     1 <1>   0.0800 
 43 H       -3.7170    -5.1980     2.1050 H     1 <1>   0.1500 
 44 H       -4.9290    -3.6840    -1.6940 H     1 <1>   0.1500 
 45 H       -3.6350    -7.4620     1.1750 H     1 <1>   0.1500 
 46 H       -4.8510    -5.9590    -2.6200 H     1 <1>   0.1500 
 47 H       -4.1990    -7.8490    -1.1870 H     1 <1>   0.1500 
@<TRIPOS>BOND
  1   1   2  2   
  2   1   3  2   
  3   1   4  am  
  4   1   5  1   
  5   4   6  1   
  6   4   7  1   
  7   5   8  ar  
  8   5   9  ar  
  9   6  10  1   
 10   6  27  1   
 11   6  28  1   
 12   7  11  1   
 13   7  29  1   
 14   7  30  1   
 15   8  12  ar  
 16   8  31  1   
 17   9  13  ar  
 18   9  32  1   
 19  10  14  1   
 20  10  15  1   
 21  10  33  1   
 22  11  14  1   
 23  11  34  1   
 24  11  35  1   
 25  12  16  ar  
 26  12  36  1   
 27  13  16  ar  
 28  13  37  1   
 29  14  17  1   
 30  15  18  1   
 31  15  38  1   
 32  15  39  1   
 33  16  19  1   
 34  17  20  1   
 35  17  21  1   
 36  17  40  1   
 37  18  21  1   
 38  20  22  ar  
 39  20  23  ar  
 40  21  41  1   
 41  21  42  1   
 42  22  24  ar  
 43  22  43  1   
 44  23  25  ar  
 45  23  44  1   
 46  24  26  ar  
 47  24  45  1   
 48  25  26  ar  
 49  25  46  1   
 50  26  47  1   
@<TRIPOS>SUBSTRUCTURE
  1 ****  11 GROUP 4 **** **** 0

# MOE 2024.06 (io_trps.svl 2023.06)
