@<TRIPOS>MOLECULE
NONAME
55 58 1 0 0 
SMALL
USER_CHARGES


@<TRIPOS>ATOM
  1 O       -0.7230     0.6140    -1.2510 O.2   1 <1>  -0.5700 
  2 C       -1.5900     1.0610    -0.5210 C.2   1 <1>   0.5440 
  3 N       -2.3470     0.1330     0.1870 N.am  1 <1>  -0.6600 
  4 C       -1.7770     2.5140    -0.4470 C.ar  1 <1>   0.3960 
  5 C       -3.2840     0.4550     1.3080 C.3   1 <1>   0.1400 
  6 C       -2.3380    -1.3180    -0.1700 C.3   1 <1>   0.1400 
  7 N       -2.9880     3.0340    -0.3680 N.ar  1 <1>  -0.6200 
  8 C       -0.6300     3.3280    -0.4780 C.ar  1 <1>  -0.1500 
  9 C       -4.7210    -0.0150     0.9890 C.3   1 <1>   0.4230 
 10 C       -3.7630    -1.7890    -0.5090 C.3   1 <1>   0.3430 
 11 C       -3.1100     4.3830    -0.3260 C.ar  1 <1>   0.3100 
 12 C       -0.7240     4.6900    -0.4210 C.ar  1 <1>   0.0830 
 13 N       -4.7610    -1.4840     0.5900 N.4   1 <1>  -0.9590 
 14 C       -5.3700     0.8720    -0.0980 C.3   1 <1>   0.1200 
 15 C       -2.0080     5.2630    -0.3370 C.ar  1 <1>   0.0000 
 16 C       -4.4030     4.9320    -0.2640 C.ar  1 <1>  -0.1500 
 17 O        0.3420     5.5210    -0.4440 O.3   1 <1>  -0.3630 
 18 C       -6.1740    -1.8590     0.2320 C.3   1 <1>   0.4230 
 19 O       -6.6710     0.4330    -0.3720 O.3   1 <1>  -0.5600 
 20 C       -2.2460     6.6520    -0.2700 C.ar  1 <1>  -0.1500 
 21 C       -4.6100     6.2840    -0.2020 C.ar  1 <1>  -0.1500 
 22 C        1.6650     5.0520    -0.5950 C.3   1 <1>   0.0400 
 23 C       -6.7680    -0.8900    -0.8190 C.3   1 <1>   0.1200 
 24 C       -6.2510    -3.3330    -0.2010 C.3   1 <1>  -0.1600 
 25 C       -3.5170     7.1540    -0.2030 C.ar  1 <1>  -0.1500 
 26 C       -7.6920    -3.8660    -0.2110 C.3   1 <1>  -0.1600 
 27 C       -7.7200    -5.3550    -0.5650 C.3   1 <1>  -0.2400 
 28 H       -2.9410    -0.0460     2.1960 H     1 <1>   0.0800 
 29 H       -3.2840     1.5060     1.5320 H     1 <1>   0.0800 
 30 H       -1.7040    -1.5020    -1.0210 H     1 <1>   0.0800 
 31 H       -1.9440    -1.8880     0.6530 H     1 <1>   0.0800 
 32 H        0.3200     2.8340    -0.5520 H     1 <1>   0.1500 
 33 H       -5.3080     0.1180     1.8820 H     1 <1>   0.0800 
 34 H       -3.7390    -2.8490    -0.7000 H     1 <1>   0.0800 
 35 H       -4.0670    -1.2990    -1.4200 H     1 <1>   0.0800 
 36 H       -4.4930    -2.0330     1.4140 H     1 <1>   0.4500 
 37 H       -4.7980     0.8670    -1.0100 H     1 <1>   0.0800 
 38 H       -5.4400     1.8870     0.2500 H     1 <1>   0.0800 
 39 H       -5.2390     4.2580    -0.2700 H     1 <1>   0.1500 
 40 H       -6.7800    -1.7590     1.1190 H     1 <1>   0.0800 
 41 H       -1.4020     7.3200    -0.2750 H     1 <1>   0.1500 
 42 H       -5.6060     6.6920    -0.1540 H     1 <1>   0.1500 
 43 H        2.3210     5.9040    -0.6090 H     1 <1>   0.0800 
 44 H        1.7430     4.5160    -1.5240 H     1 <1>   0.0800 
 45 H        1.9090     4.4180     0.2380 H     1 <1>   0.0800 
 46 H       -7.8130    -1.0960    -0.9710 H     1 <1>   0.0800 
 47 H       -6.2640    -0.9740    -1.7660 H     1 <1>   0.0800 
 48 H       -5.8370    -3.4550    -1.1870 H     1 <1>   0.0800 
 49 H       -5.6820    -3.9320     0.4880 H     1 <1>   0.0800 
 50 H       -3.6890     8.2160    -0.1530 H     1 <1>   0.1500 
 51 H       -8.1440    -3.7330     0.7590 H     1 <1>   0.0800 
 52 H       -8.2900    -3.3340    -0.9320 H     1 <1>   0.0800 
 53 H       -7.1650    -5.9320     0.1550 H     1 <1>   0.0800 
 54 H       -7.3000    -5.5240    -1.5420 H     1 <1>   0.0800 
 55 H       -8.7350    -5.7130    -0.5700 H     1 <1>   0.0800 
@<TRIPOS>BOND
  1   1   2  2   
  2   2   3  am  
  3   2   4  1   
  4   3   5  1   
  5   3   6  1   
  6   4   7  ar  
  7   4   8  ar  
  8   5   9  1   
  9   5  28  1   
 10   5  29  1   
 11   6  10  1   
 12   6  30  1   
 13   6  31  1   
 14   7  11  ar  
 15   8  12  ar  
 16   8  32  1   
 17   9  13  1   
 18   9  14  1   
 19   9  33  1   
 20  10  13  1   
 21  10  34  1   
 22  10  35  1   
 23  11  15  ar  
 24  11  16  ar  
 25  12  15  ar  
 26  12  17  1   
 27  13  18  1   
 28  13  36  1   
 29  14  19  1   
 30  14  37  1   
 31  14  38  1   
 32  15  20  ar  
 33  16  21  ar  
 34  16  39  1   
 35  17  22  1   
 36  18  23  1   
 37  18  24  1   
 38  18  40  1   
 39  19  23  1   
 40  20  25  ar  
 41  20  41  1   
 42  21  25  ar  
 43  21  42  1   
 44  22  43  1   
 45  22  44  1   
 46  22  45  1   
 47  23  46  1   
 48  23  47  1   
 49  24  26  1   
 50  24  48  1   
 51  24  49  1   
 52  25  50  1   
 53  26  27  1   
 54  26  51  1   
 55  26  52  1   
 56  27  53  1   
 57  27  54  1   
 58  27  55  1   
@<TRIPOS>SUBSTRUCTURE
  1 ****   7 GROUP 4 **** **** 0

# MOE 2024.06 (io_trps.svl 2023.06)
