@<TRIPOS>MOLECULE
NONAME
51 54 1 0 0 
SMALL
USER_CHARGES


@<TRIPOS>ATOM
  1 O       -0.6780     0.3170    -0.3050 O.2   1 <1>  -0.5700 
  2 C       -1.6370     0.9710     0.0740 C.2   1 <1>   0.7160 
  3 N       -2.7910     0.2740     0.3910 N.am  1 <1>  -0.6600 
  4 C       -1.5110     2.4290     0.1570 C.2   1 <1>   0.2030 
  5 C       -2.7890    -1.2010     0.6520 C.3   1 <1>   0.1400 
  6 C       -4.1640     0.8660     0.3880 C.3   1 <1>   0.1400 
  7 N       -2.2970     3.2700     0.8250 N.2   1 <1>  -0.7070 
  8 C       -0.4800     3.1270    -0.4770 C.2   1 <1>  -0.1500 
  9 C       -3.8170    -1.9230    -0.2340 C.3   1 <1>   0.3440 
 10 C       -5.1410     0.0210    -0.4680 C.3   1 <1>   0.2000 
 11 N       -1.7660     4.4860     0.6200 N.pl3 1 <1>   0.6010 
 12 C       -0.6530     4.4340    -0.1800 C.2   1 <1>  -0.0260 
 13 O       -5.0770    -1.3280    -0.0800 O.3   1 <1>  -0.5600 
 14 C       -3.9020    -3.4020     0.1350 C.ar  1 <1>  -0.1440 
 15 C       -6.6250     0.4970    -0.4210 C.3   1 <1>   0.0000 
 16 C       -2.1960     5.7070     1.0990 C.2   1 <1>  -0.1810 
 17 N        0.0730     5.5500    -0.5480 N.2   1 <1>  -0.5760 
 18 C       -3.1020    -4.3220    -0.5290 C.ar  1 <1>  -0.1500 
 19 C       -4.7570    -3.8510     1.1330 C.ar  1 <1>  -0.1500 
 20 C       -7.2320     0.3680     0.9890 C.3   1 <1>  -0.2400 
 21 C       -6.7470     1.9650    -0.8710 C.3   1 <1>  -0.2400 
 22 C       -7.4680    -0.3570    -1.3870 C.3   1 <1>  -0.2400 
 23 C       -1.4910     6.8140     0.7490 C.2   1 <1>  -0.1360 
 24 C       -0.3460     6.6830    -0.0900 C.2   1 <1>   0.3760 
 25 C       -3.1540    -5.6660    -0.2000 C.ar  1 <1>  -0.1500 
 26 C       -4.8100    -5.1940     1.4630 C.ar  1 <1>  -0.1500 
 27 C       -4.0080    -6.1030     0.7960 C.ar  1 <1>  -0.1500 
 28 H       -1.8160    -1.6230     0.4740 H     1 <1>   0.0800 
 29 H       -3.0350    -1.3760     1.6840 H     1 <1>   0.0800 
 30 H       -4.5170     0.9280     1.4010 H     1 <1>   0.0800 
 31 H       -4.1370     1.8580    -0.0180 H     1 <1>   0.0800 
 32 H        0.2980     2.6950    -1.0800 H     1 <1>   0.1500 
 33 H       -3.5310    -1.8320    -1.2670 H     1 <1>   0.0800 
 34 H       -4.8130     0.0740    -1.4930 H     1 <1>   0.0800 
 35 H       -3.0690     5.6950     1.7240 H     1 <1>   0.1500 
 36 H       -2.4320    -3.9970    -1.3060 H     1 <1>   0.1500 
 37 H       -5.3880    -3.1520     1.6550 H     1 <1>   0.1500 
 38 H       -8.2710     0.6440     0.9790 H     1 <1>   0.0800 
 39 H       -6.7270     1.0040     1.6930 H     1 <1>   0.0800 
 40 H       -7.1600    -0.6480     1.3370 H     1 <1>   0.0800 
 41 H       -7.7820     2.2540    -0.9300 H     1 <1>   0.0800 
 42 H       -6.3050     2.1010    -1.8420 H     1 <1>   0.0800 
 43 H       -6.2630     2.6280    -0.1760 H     1 <1>   0.0800 
 44 H       -8.4920    -0.0290    -1.3950 H     1 <1>   0.0800 
 45 H       -7.4520    -1.3910    -1.0890 H     1 <1>   0.0800 
 46 H       -7.0820    -0.2900    -2.3880 H     1 <1>   0.0800 
 47 H       -1.7610     7.8000     1.0810 H     1 <1>   0.1500 
 48 H        0.1880     7.5810    -0.3480 H     1 <1>   0.0600 
 49 H       -2.5300    -6.3710    -0.7210 H     1 <1>   0.1500 
 50 H       -5.4780    -5.5310     2.2370 H     1 <1>   0.1500 
 51 H       -4.0490    -7.1470     1.0520 H     1 <1>   0.1500 
@<TRIPOS>BOND
  1   1   2  2   
  2   2   3  am  
  3   2   4  1   
  4   3   5  1   
  5   3   6  1   
  6   4   7  2   
  7   4   8  1   
  8   5   9  1   
  9   5  28  1   
 10   5  29  1   
 11   6  10  1   
 12   6  30  1   
 13   6  31  1   
 14   7  11  1   
 15   8  12  2   
 16   8  32  1   
 17   9  13  1   
 18   9  14  1   
 19   9  33  1   
 20  10  13  1   
 21  10  15  1   
 22  10  34  1   
 23  11  12  1   
 24  11  16  1   
 25  12  17  1   
 26  14  18  ar  
 27  14  19  ar  
 28  15  20  1   
 29  15  21  1   
 30  15  22  1   
 31  16  23  2   
 32  16  35  1   
 33  17  24  2   
 34  18  25  ar  
 35  18  36  1   
 36  19  26  ar  
 37  19  37  1   
 38  20  38  1   
 39  20  39  1   
 40  20  40  1   
 41  21  41  1   
 42  21  42  1   
 43  21  43  1   
 44  22  44  1   
 45  22  45  1   
 46  22  46  1   
 47  23  24  1   
 48  23  47  1   
 49  24  48  1   
 50  25  27  ar  
 51  25  49  1   
 52  26  27  ar  
 53  26  50  1   
 54  27  51  1   
@<TRIPOS>SUBSTRUCTURE
  1 ****   3 GROUP 4 **** **** 0

# MOE 2024.06 (io_trps.svl 2023.06)
