@<TRIPOS>MOLECULE
NONAME
46 47 1 0 0 
SMALL
USER_CHARGES


@<TRIPOS>ATOM
  1 O       -0.7800    -0.0840     1.8520 O.2   1 <1>  -0.5700 
  2 C       -1.4790     0.4740     1.0390 C.2   1 <1>   0.5690 
  3 N       -2.2030    -0.2460     0.1110 N.am  1 <1>  -0.6600 
  4 C       -1.5490     2.0130     1.1170 C.3   1 <1>   0.1710 
  5 C       -2.0310    -1.7260     0.0260 C.3   1 <1>   0.3200 
  6 C       -3.1460     0.3520    -0.8810 C.3   1 <1>   0.1400 
  7 N       -0.4190     2.7520     0.4810 N.3   1 <1>  -0.8100 
  8 C       -3.3270    -2.4230     0.3850 C.2   1 <1>  -0.3320 
  9 C       -4.5380     0.5800    -0.2750 C.3   1 <1>   0.1200 
 10 C       -0.4420     4.1820     0.8360 C.3   1 <1>   0.2530 
 11 C       -0.3230     2.5370    -0.9690 C.3   1 <1>   0.0300 
 12 N       -4.2680    -2.8140    -0.4960 N.pl3 1 <1>   0.0330 
 13 C       -3.7830    -2.7770     1.6060 C.2   1 <1>   0.0770 
 14 O       -5.3960     1.0110    -1.2770 O.3   1 <1>  -0.6800 
 15 C        0.8610     4.8720     0.4520 C.ar  1 <1>  -0.1440 
 16 C       -5.2430    -3.3740     0.2510 C.2   1 <1>   0.0060 
 17 N       -4.9880    -3.3730     1.5170 N.2   1 <1>  -0.5650 
 18 C        2.0890     4.3440     0.7950 C.ar  1 <1>  -0.1500 
 19 C        0.8860     6.0610    -0.2500 C.ar  1 <1>  -0.1500 
 20 C       -6.5120    -3.9400    -0.3480 C.3   1 <1>  -0.0600 
 21 C        3.2490     5.0080     0.4330 C.ar  1 <1>   0.1600 
 22 C        2.1030     6.6460    -0.5620 C.ar  1 <1>   0.1600 
 23 N        3.2860     6.1500    -0.2370 N.ar  1 <1>  -0.6200 
 24 H       -1.5570     2.2530     2.1650 H     1 <1>   0.0800 
 25 H       -2.4770     2.3630     0.7100 H     1 <1>   0.0800 
 26 H       -1.2620    -2.0600     0.7020 H     1 <1>   0.0800 
 27 H       -1.7200    -1.9980    -0.9670 H     1 <1>   0.0800 
 28 H       -3.2360    -0.3100    -1.7250 H     1 <1>   0.0800 
 29 H       -2.7540     1.2860    -1.2370 H     1 <1>   0.0800 
 30 H       -4.5180     1.3230     0.5020 H     1 <1>   0.0800 
 31 H       -4.9410    -0.3330     0.1250 H     1 <1>   0.0800 
 32 H       -0.5670     4.2820     1.9010 H     1 <1>   0.0800 
 33 H       -1.2750     4.6630     0.3530 H     1 <1>   0.0800 
 34 H       -0.2600     1.4840    -1.1830 H     1 <1>   0.0800 
 35 H        0.5690     3.0020    -1.3540 H     1 <1>   0.0800 
 36 H       -1.1770     2.9560    -1.4730 H     1 <1>   0.0800 
 37 H       -4.2710    -2.7050    -1.5140 H     1 <1>   0.2700 
 38 H       -3.3010    -2.6260     2.5580 H     1 <1>   0.1500 
 39 H       -5.2890     1.9660    -1.4540 H     1 <1>   0.4000 
 40 H        2.1440     3.4160     1.3360 H     1 <1>   0.1500 
 41 H       -0.0250     6.5400    -0.5560 H     1 <1>   0.1500 
 42 H       -6.2760    -4.7390    -1.0260 H     1 <1>   0.0800 
 43 H       -7.0470    -3.1690    -0.8730 H     1 <1>   0.0800 
 44 H       -7.1410    -4.3250     0.4340 H     1 <1>   0.0800 
 45 H        4.1950     4.5760     0.7100 H     1 <1>   0.1500 
 46 H        2.1030     7.5730    -1.1090 H     1 <1>   0.1500 
@<TRIPOS>BOND
  1   1   2  2   
  2   2   3  am  
  3   2   4  1   
  4   3   5  1   
  5   3   6  1   
  6   4   7  1   
  7   4  24  1   
  8   4  25  1   
  9   5   8  1   
 10   5  26  1   
 11   5  27  1   
 12   6   9  1   
 13   6  28  1   
 14   6  29  1   
 15   7  10  1   
 16   7  11  1   
 17   8  12  1   
 18   8  13  2   
 19   9  14  1   
 20   9  30  1   
 21   9  31  1   
 22  10  15  1   
 23  10  32  1   
 24  10  33  1   
 25  11  34  1   
 26  11  35  1   
 27  11  36  1   
 28  12  16  1   
 29  12  37  1   
 30  13  17  1   
 31  13  38  1   
 32  14  39  1   
 33  15  18  ar  
 34  15  19  ar  
 35  16  17  2   
 36  16  20  1   
 37  18  21  ar  
 38  18  40  1   
 39  19  22  ar  
 40  19  41  1   
 41  20  42  1   
 42  20  43  1   
 43  20  44  1   
 44  21  23  ar  
 45  21  45  1   
 46  22  23  ar  
 47  22  46  1   
@<TRIPOS>SUBSTRUCTURE
  1 ****   2 GROUP 4 **** **** 0

# MOE 2024.06 (io_trps.svl 2023.06)
