@<TRIPOS>MOLECULE
NONAME
53 55 1 0 0 
SMALL
USER_CHARGES


@<TRIPOS>ATOM
  1 O        4.7400    -1.3330    -1.7760 O.2   1 <1>  -0.5700 
  2 C        3.6820    -1.4780    -1.1910 C.2   1 <1>   0.5440 
  3 N        3.1790    -0.3660    -0.5660 N.am  1 <1>  -0.6600 
  4 C        3.0480    -2.7800    -1.0640 C.ar  1 <1>   0.0860 
  5 C        3.3690    -0.2890     0.9260 C.3   1 <1>   0.2200 
  6 C        3.0760     0.9080    -1.3480 C.3   1 <1>   0.1400 
  7 C        1.7000    -2.9050    -0.7260 C.ar  1 <1>  -0.1500 
  8 C        3.7740    -3.9550    -1.2590 C.ar  1 <1>  -0.1500 
  9 C        2.4200     0.7110     1.6070 C.3   1 <1>   0.1200 
 10 C        4.8480     0.0260     1.2790 C.3   1 <1>   0.3430 
 11 C        3.7180     2.1400    -0.6810 C.3   1 <1>  -0.0800 
 12 C        1.0940    -4.1410    -0.5570 C.ar  1 <1>   0.1170 
 13 C        3.1870    -5.1960    -1.0980 C.ar  1 <1>  -0.1500 
 14 O        2.9760     1.9910     1.6150 O.3   1 <1>  -0.5600 
 15 N        5.6160     0.6070     0.1210 N.4   1 <1>  -0.9590 
 16 C        2.8400     2.7180     0.4400 C.3   1 <1>   0.1200 
 17 C        5.1950     1.9920    -0.2560 C.3   1 <1>   0.3430 
 18 N       -0.2650    -4.2000    -0.2200 N.am  1 <1>  -0.5470 
 19 C        1.8550    -5.2870    -0.7440 C.ar  1 <1>  -0.1500 
 20 C        7.0870     0.5140     0.3310 C.3   1 <1>   0.2630 
 21 C       -0.9140    -5.0980     0.5840 C.2   1 <1>   0.5690 
 22 O       -0.3370    -5.9660     1.1930 O.2   1 <1>  -0.5700 
 23 C       -2.4360    -4.9730     0.7140 C.3   1 <1>  -0.0190 
 24 C       -2.8550    -4.6720     2.1620 C.3   1 <1>  -0.2400 
 25 C       -3.1480    -6.2400     0.2130 C.3   1 <1>  -0.2400 
 26 H        3.1330    -1.2550     1.3370 H     1 <1>   0.0800 
 27 H        3.5320     0.7650    -2.3140 H     1 <1>   0.0800 
 28 H        2.0330     1.1080    -1.5300 H     1 <1>   0.0800 
 29 H        1.1090    -2.0190    -0.5880 H     1 <1>   0.1500 
 30 H        4.8120    -3.8960    -1.5390 H     1 <1>   0.1500 
 31 H        2.2940     0.4300     2.6380 H     1 <1>   0.0800 
 32 H        1.4490     0.7270     1.1420 H     1 <1>   0.0800 
 33 H        5.3140    -0.8970     1.5790 H     1 <1>   0.0800 
 34 H        4.8840     0.6950     2.1230 H     1 <1>   0.0800 
 35 H        3.7120     2.9050    -1.4370 H     1 <1>   0.0800 
 36 H        3.7640    -6.0930    -1.2480 H     1 <1>   0.1500 
 37 H        5.3630    -0.0050    -0.6890 H     1 <1>   0.4500 
 38 H        1.7990     2.7450     0.1610 H     1 <1>   0.0800 
 39 H        3.1500     3.7250     0.6630 H     1 <1>   0.0800 
 40 H        5.3880     2.6620     0.5660 H     1 <1>   0.0800 
 41 H        5.8070     2.3120    -1.0830 H     1 <1>   0.0800 
 42 H       -0.8520    -3.4740    -0.6250 H     1 <1>   0.3700 
 43 H        1.4040    -6.2560    -0.6160 H     1 <1>   0.1500 
 44 H        7.3850     1.1190     1.1710 H     1 <1>   0.0800 
 45 H        7.6100     0.8550    -0.5480 H     1 <1>   0.0800 
 46 H        7.3720    -0.5090     0.5190 H     1 <1>   0.0800 
 47 H       -2.7630    -4.1530     0.1010 H     1 <1>   0.0800 
 48 H       -2.5610    -5.4800     2.8100 H     1 <1>   0.0800 
 49 H       -3.9210    -4.5460     2.2290 H     1 <1>   0.0800 
 50 H       -2.3800    -3.7710     2.5080 H     1 <1>   0.0800 
 51 H       -2.8630    -7.0890     0.8120 H     1 <1>   0.0800 
 52 H       -2.8770    -6.4400    -0.8080 H     1 <1>   0.0800 
 53 H       -4.2150    -6.1220     0.2690 H     1 <1>   0.0800 
@<TRIPOS>BOND
  1   1   2  2   
  2   2   3  am  
  3   2   4  1   
  4   3   5  1   
  5   3   6  1   
  6   4   7  ar  
  7   4   8  ar  
  8   5   9  1   
  9   5  10  1   
 10   5  26  1   
 11   6  11  1   
 12   6  27  1   
 13   6  28  1   
 14   7  12  ar  
 15   7  29  1   
 16   8  13  ar  
 17   8  30  1   
 18   9  14  1   
 19   9  31  1   
 20   9  32  1   
 21  10  15  1   
 22  10  33  1   
 23  10  34  1   
 24  11  16  1   
 25  11  17  1   
 26  11  35  1   
 27  12  18  1   
 28  12  19  ar  
 29  13  19  ar  
 30  13  36  1   
 31  14  16  1   
 32  15  17  1   
 33  15  20  1   
 34  15  37  1   
 35  16  38  1   
 36  16  39  1   
 37  17  40  1   
 38  17  41  1   
 39  18  21  am  
 40  18  42  1   
 41  19  43  1   
 42  20  44  1   
 43  20  45  1   
 44  20  46  1   
 45  21  22  2   
 46  21  23  1   
 47  23  24  1   
 48  23  25  1   
 49  23  47  1   
 50  24  48  1   
 51  24  49  1   
 52  24  50  1   
 53  25  51  1   
 54  25  52  1   
 55  25  53  1   
@<TRIPOS>SUBSTRUCTURE
  1 ****   7 GROUP 4 **** **** 0

# MOE 2024.06 (io_trps.svl 2023.06)
