@<TRIPOS>MOLECULE
NONAME
67 71 1 0 0 
SMALL
USER_CHARGES


@<TRIPOS>ATOM
  1 N       -0.7550    -0.4220     0.1020 N.ar  1 <1>  -0.6200 
  2 C        0.5670    -0.3650     0.1020 C.ar  1 <1>   0.7710 
  3 C       -1.3490    -1.5990     0.1510 C.ar  1 <1>   0.4100 
  4 N        1.3130    -1.4810     0.1590 N.ar  1 <1>  -0.1790 
  5 N        1.1890     0.8450     0.0500 N.pl3 1 <1>  -0.8380 
  6 N       -2.7100    -1.6180     0.1360 N.pl3 1 <1>  -0.8380 
  7 C       -0.5910    -2.7850     0.2250 C.ar  1 <1>  -0.1500 
  8 C        0.7610    -2.7140     0.2250 C.ar  1 <1>   0.2180 
  9 C        2.6510     1.1030    -0.1310 C.3   1 <1>   0.2090 
 10 C        0.4270     2.1280     0.2150 C.3   1 <1>   0.2090 
 11 C       -3.5330    -0.4270     0.5600 C.3   1 <1>   0.2090 
 12 C       -3.5570    -2.7640    -0.3160 C.3   1 <1>   0.2090 
 13 C        1.6730    -3.9320     0.3060 C.3   1 <1>  -0.0170 
 14 C        3.1990     1.7860     1.1250 C.3   1 <1>  -0.1600 
 15 C        0.9320     2.8510     1.4680 C.3   1 <1>  -0.1600 
 16 C       -4.4460     0.0680    -0.5780 C.3   1 <1>   0.1430 
 17 C       -4.4910    -2.3190    -1.4500 C.3   1 <1>  -0.1600 
 18 C        2.5420    -4.0890    -0.9490 C.3   1 <1>  -0.2400 
 19 C        2.4480     3.0920     1.4210 C.3   1 <1>  -0.1600 
 20 C       -5.2500     1.2420    -0.0550 C.ar  1 <1>   0.1670 
 21 C       -5.3380    -1.0950    -1.0600 C.3   1 <1>  -0.1600 
 22 C       -3.6410     0.7040    -1.7450 C.3   1 <1>  -0.1600 
 23 N       -6.2230     1.1640     0.8170 N.ar  1 <1>  -0.6200 
 24 C       -4.8210     2.4210    -0.5850 C.ar  1 <1>  -0.1430 
 25 C       -3.6700     2.2280    -1.5390 C.3   1 <1>  -0.0170 
 26 C       -6.7840     2.3290     1.1510 C.ar  1 <1>   0.7200 
 27 C       -5.4600     3.5680    -0.1870 C.ar  1 <1>   0.1600 
 28 N       -6.4440     3.5330     0.6800 N.ar  1 <1>  -0.6200 
 29 N       -7.8110     2.2830     2.0730 N.pl3 1 <1>  -0.8380 
 30 C       -8.3200     3.5080     2.7490 C.3   1 <1>   0.1290 
 31 C       -8.5010     1.0130     2.4290 C.3   1 <1>   0.1290 
 32 H        2.3120    -1.3390     0.1780 H     1 <1>   0.4570 
 33 H       -1.0970    -3.7270     0.2960 H     1 <1>   0.1500 
 34 H        2.7900     1.7550    -0.9780 H     1 <1>   0.0800 
 35 H        3.2020     0.2010    -0.3260 H     1 <1>   0.0800 
 36 H       -0.6320     1.9650     0.3100 H     1 <1>   0.0800 
 37 H        0.5830     2.7480    -0.6520 H     1 <1>   0.0800 
 38 H       -2.9120     0.3840     0.8970 H     1 <1>   0.0800 
 39 H       -4.1490    -0.7150     1.3950 H     1 <1>   0.0800 
 40 H       -4.1410    -3.1180     0.5170 H     1 <1>   0.0800 
 41 H       -2.9540    -3.5770    -0.6750 H     1 <1>   0.0800 
 42 H        1.0740    -4.8200     0.4230 H     1 <1>   0.0800 
 43 H        2.3030    -3.8570     1.1770 H     1 <1>   0.0800 
 44 H        4.2440     2.0020     0.9880 H     1 <1>   0.0800 
 45 H        3.1100     1.1190     1.9650 H     1 <1>   0.0800 
 46 H        0.6820     2.2610     2.3320 H     1 <1>   0.0800 
 47 H        0.4210     3.7940     1.5610 H     1 <1>   0.0800 
 48 H       -5.1430    -3.1340    -1.7070 H     1 <1>   0.0800 
 49 H       -3.8980    -2.0940    -2.3180 H     1 <1>   0.0800 
 50 H        1.9250    -4.1680    -1.8270 H     1 <1>   0.0800 
 51 H        3.1300    -4.9880    -0.8740 H     1 <1>   0.0800 
 52 H        3.2170    -3.2600    -1.0700 H     1 <1>   0.0800 
 53 H        2.6690     3.8120     0.6510 H     1 <1>   0.0800 
 54 H        2.7810     3.5020     2.3600 H     1 <1>   0.0800 
 55 H       -5.9440    -0.7780    -1.8900 H     1 <1>   0.0800 
 56 H       -6.0060    -1.3740    -0.2620 H     1 <1>   0.0800 
 57 H       -4.1300     0.4870    -2.6780 H     1 <1>   0.0800 
 58 H       -2.6350     0.3310    -1.8020 H     1 <1>   0.0800 
 59 H       -3.8290     2.7500    -2.4670 H     1 <1>   0.0800 
 60 H       -2.7580     2.5660    -1.0790 H     1 <1>   0.0800 
 61 H       -5.1610     4.5230    -0.5820 H     1 <1>   0.1500 
 62 H       -7.5370     4.2410     2.8440 H     1 <1>   0.0800 
 63 H       -8.6760     3.2670     3.7350 H     1 <1>   0.0800 
 64 H       -9.1240     3.9290     2.1720 H     1 <1>   0.0800 
 65 H       -8.4630     0.3190     1.6070 H     1 <1>   0.0800 
 66 H       -9.5330     1.2040     2.6610 H     1 <1>   0.0800 
 67 H       -8.0190     0.5700     3.2830 H     1 <1>   0.0800 
@<TRIPOS>BOND
  1   1   2  ar  
  2   1   3  ar  
  3   2   4  ar  
  4   2   5  1   
  5   3   6  1   
  6   3   7  ar  
  7   4   8  ar  
  8   4  32  1   
  9   5   9  1   
 10   5  10  1   
 11   6  11  1   
 12   6  12  1   
 13   7   8  ar  
 14   7  33  1   
 15   8  13  1   
 16   9  14  1   
 17   9  34  1   
 18   9  35  1   
 19  10  15  1   
 20  10  36  1   
 21  10  37  1   
 22  11  16  1   
 23  11  38  1   
 24  11  39  1   
 25  12  17  1   
 26  12  40  1   
 27  12  41  1   
 28  13  18  1   
 29  13  42  1   
 30  13  43  1   
 31  14  19  1   
 32  14  44  1   
 33  14  45  1   
 34  15  19  1   
 35  15  46  1   
 36  15  47  1   
 37  16  20  1   
 38  16  21  1   
 39  16  22  1   
 40  17  21  1   
 41  17  48  1   
 42  17  49  1   
 43  18  50  1   
 44  18  51  1   
 45  18  52  1   
 46  19  53  1   
 47  19  54  1   
 48  20  23  ar  
 49  20  24  ar  
 50  21  55  1   
 51  21  56  1   
 52  22  25  1   
 53  22  57  1   
 54  22  58  1   
 55  23  26  ar  
 56  24  25  1   
 57  24  27  ar  
 58  25  59  1   
 59  25  60  1   
 60  26  28  ar  
 61  26  29  1   
 62  27  28  ar  
 63  27  61  1   
 64  29  30  1   
 65  29  31  1   
 66  30  62  1   
 67  30  63  1   
 68  30  64  1   
 69  31  65  1   
 70  31  66  1   
 71  31  67  1   
@<TRIPOS>SUBSTRUCTURE
  1 ****  11 GROUP 4 **** **** 0

# MOE 2024.06 (io_trps.svl 2023.06)
