@<TRIPOS>MOLECULE
NONAME
54 56 1 0 0 
SMALL
USER_CHARGES


@<TRIPOS>ATOM
  1 S       -2.5010    -0.2250    -2.2520 S.3   1 <1>  -0.0800 
  2 C       -1.5750     0.1350    -0.8020 C.2   1 <1>  -0.1400 
  3 C       -1.0350    -0.4030    -3.1980 C.2   1 <1>  -0.1100 
  4 C       -0.2560     0.1130    -1.0690 C.2   1 <1>  -0.1500 
  5 C       -2.3460     0.4110     0.4740 C.3   1 <1>   0.0200 
  6 C        0.0520    -0.1950    -2.4330 C.2   1 <1>  -0.1500 
  7 C       -2.9880    -0.8730     1.0110 C.3   1 <1>  -0.1600 
  8 C       -3.8570    -0.6020     2.2520 C.3   1 <1>  -0.0990 
  9 C       -4.5370    -1.8660     2.7580 C.2   1 <1>   0.5690 
 10 O       -3.9800    -2.4450     3.6610 O.2   1 <1>  -0.5700 
 11 N       -5.7200    -2.3290     2.2220 N.am  1 <1>  -0.6600 
 12 C       -6.4000    -1.7000     1.0470 C.3   1 <1>   0.2200 
 13 C       -6.3290    -3.5670     2.8040 C.3   1 <1>   0.0600 
 14 C       -7.7090    -1.0120     1.4150 C.3   1 <1>  -0.1600 
 15 C       -6.7960    -2.6770    -0.0560 C.3   1 <1>  -0.1600 
 16 C       -8.4520    -0.8630     0.0780 C.3   1 <1>  -0.0800 
 17 C       -7.8560    -1.9190    -0.8690 C.3   1 <1>  -0.0800 
 18 C       -9.9570    -1.1510     0.1670 C.3   1 <1>  -0.1600 
 19 C       -9.0240    -2.7970    -1.3380 C.3   1 <1>  -0.1600 
 20 C      -10.0980    -2.6090    -0.2700 C.3   1 <1>   0.4230 
 21 N      -11.4660    -2.9930    -0.7410 N.4   1 <1>  -0.9590 
 22 C      -12.0120    -2.1740    -1.8740 C.3   1 <1>   0.2630 
 23 C      -12.4350    -2.9960     0.3990 C.3   1 <1>   0.2630 
 24 H       -1.1440    -0.6480    -4.2390 H     1 <1>   0.1500 
 25 H        0.5290     0.3010    -0.3580 H     1 <1>   0.1500 
 26 H       -1.6740     0.8120     1.2130 H     1 <1>   0.0800 
 27 H       -3.1010     1.1500     0.2710 H     1 <1>   0.0800 
 28 H        1.0730    -0.2440    -2.7700 H     1 <1>   0.1500 
 29 H       -3.5860    -1.3240     0.2390 H     1 <1>   0.0800 
 30 H       -2.2130    -1.5760     1.2680 H     1 <1>   0.0800 
 31 H       -4.5950     0.1510     2.0510 H     1 <1>   0.0800 
 32 H       -3.2300    -0.2250     3.0400 H     1 <1>   0.0800 
 33 H       -5.7640    -0.9610     0.5940 H     1 <1>   0.0800 
 34 H       -7.4000    -3.5350     2.7470 H     1 <1>   0.0800 
 35 H       -6.0540    -3.6690     3.8410 H     1 <1>   0.0800 
 36 H       -5.9670    -4.4280     2.2710 H     1 <1>   0.0800 
 37 H       -8.2700    -1.6260     2.0950 H     1 <1>   0.0800 
 38 H       -7.5260    -0.0550     1.8720 H     1 <1>   0.0800 
 39 H       -5.9460    -2.9380    -0.6630 H     1 <1>   0.0800 
 40 H       -7.2220    -3.5700     0.3600 H     1 <1>   0.0800 
 41 H       -8.2780     0.1250    -0.3170 H     1 <1>   0.0800 
 42 H       -7.3820    -1.4360    -1.7090 H     1 <1>   0.0800 
 43 H      -10.4570    -0.4910    -0.5180 H     1 <1>   0.0800 
 44 H      -10.3380    -0.9870     1.1590 H     1 <1>   0.0800 
 45 H       -8.7350    -3.8280    -1.4430 H     1 <1>   0.0800 
 46 H       -9.3540    -2.4230    -2.2890 H     1 <1>   0.0800 
 47 H       -9.8250    -3.2290     0.5700 H     1 <1>   0.0800 
 48 H      -11.3850    -3.9640    -1.0800 H     1 <1>   0.4500 
 49 H      -12.1410    -1.1480    -1.5710 H     1 <1>   0.0800 
 50 H      -12.9700    -2.5600    -2.1840 H     1 <1>   0.0800 
 51 H      -11.3470    -2.2030    -2.7210 H     1 <1>   0.0800 
 52 H      -12.5590    -1.9980     0.7870 H     1 <1>   0.0800 
 53 H      -12.0780    -3.6320     1.1930 H     1 <1>   0.0800 
 54 H      -13.3960    -3.3610     0.0740 H     1 <1>   0.0800 
@<TRIPOS>BOND
  1   1   2  1   
  2   1   3  1   
  3   2   4  2   
  4   2   5  1   
  5   3   6  2   
  6   3  24  1   
  7   4   6  1   
  8   4  25  1   
  9   5   7  1   
 10   5  26  1   
 11   5  27  1   
 12   6  28  1   
 13   7   8  1   
 14   7  29  1   
 15   7  30  1   
 16   8   9  1   
 17   8  31  1   
 18   8  32  1   
 19   9  10  2   
 20   9  11  am  
 21  11  12  1   
 22  11  13  1   
 23  12  14  1   
 24  12  15  1   
 25  12  33  1   
 26  13  34  1   
 27  13  35  1   
 28  13  36  1   
 29  14  16  1   
 30  14  37  1   
 31  14  38  1   
 32  15  17  1   
 33  15  39  1   
 34  15  40  1   
 35  16  17  1   
 36  16  18  1   
 37  16  41  1   
 38  17  19  1   
 39  17  42  1   
 40  18  20  1   
 41  18  43  1   
 42  18  44  1   
 43  19  20  1   
 44  19  45  1   
 45  19  46  1   
 46  20  21  1   
 47  20  47  1   
 48  21  22  1   
 49  21  23  1   
 50  21  48  1   
 51  22  49  1   
 52  22  50  1   
 53  22  51  1   
 54  23  52  1   
 55  23  53  1   
 56  23  54  1   
@<TRIPOS>SUBSTRUCTURE
  1 ****  12 GROUP 4 **** **** 0

# MOE 2024.06 (io_trps.svl 2023.06)
