@<TRIPOS>MOLECULE
NONAME
51 52 1 0 0 
SMALL
USER_CHARGES


@<TRIPOS>ATOM
  1 O        1.6910     0.5460     0.8700 O.3   1 <1>  -0.5600 
  2 C        1.3660     1.9000     0.9590 C.3   1 <1>   0.1200 
  3 C        3.0410     0.3030     0.6050 C.3   1 <1>   0.1200 
  4 C        1.7370     2.6240    -0.3480 C.3   1 <1>   0.1100 
  5 C        3.4580     0.9870    -0.7110 C.3   1 <1>   0.1100 
  6 N        3.1720     2.4410    -0.6790 N.3   1 <1>  -0.8100 
  7 C        3.5250     3.0760    -1.9780 C.3   1 <1>   0.1100 
  8 C        3.9490     4.5480    -1.7890 C.3   1 <1>   0.3430 
  9 N        4.5930     4.6900    -0.4480 N.4   1 <1>  -0.9590 
 10 C        4.3970     5.9990     0.2860 C.3   1 <1>   0.5030 
 11 C        6.0100     4.2200    -0.5560 C.3   1 <1>   0.3430 
 12 C        5.1100     5.8570     1.6580 C.3   1 <1>  -0.1600 
 13 C        2.8990     6.2740     0.6300 C.3   1 <1>  -0.0220 
 14 C        4.9940     7.1630    -0.5590 C.3   1 <1>  -0.0220 
 15 C        6.6590     4.0970     0.8180 C.3   1 <1>  -0.1600 
 16 C        6.5760     5.4150     1.5850 C.3   1 <1>  -0.1600 
 17 C        1.9010     6.5810    -0.4870 C.2   1 <1>  -0.2880 
 18 C        5.0540     8.5240     0.1280 C.2   1 <1>  -0.2880 
 19 C        1.4640     7.8030    -0.8000 C.2   1 <1>  -0.3000 
 20 C        4.4290     9.6240    -0.3000 C.2   1 <1>  -0.3000 
 21 H        1.8880     2.3260     1.7980 H     1 <1>   0.0800 
 22 H        0.3070     1.9700     1.1380 H     1 <1>   0.0800 
 23 H        3.1720    -0.7620     0.5300 H     1 <1>   0.0800 
 24 H        3.6270     0.6680     1.4300 H     1 <1>   0.0800 
 25 H        1.5120     3.6670    -0.2380 H     1 <1>   0.0800 
 26 H        1.1200     2.2300    -1.1400 H     1 <1>   0.0800 
 27 H        2.9240     0.5210    -1.5230 H     1 <1>   0.0800 
 28 H        4.5100     0.8250    -0.8650 H     1 <1>   0.0800 
 29 H        2.7070     3.0060    -2.6770 H     1 <1>   0.0800 
 30 H        4.3580     2.5530    -2.4150 H     1 <1>   0.0800 
 31 H        3.0820     5.1680    -1.8680 H     1 <1>   0.0800 
 32 H        4.6250     4.8460    -2.5730 H     1 <1>   0.0800 
 33 H        4.1000     3.9520     0.0920 H     1 <1>   0.4500 
 34 H        6.5780     4.9110    -1.1570 H     1 <1>   0.0800 
 35 H        6.0370     3.2560    -1.0370 H     1 <1>   0.0800 
 36 H        4.5790     5.1330     2.2520 H     1 <1>   0.0800 
 37 H        5.0550     6.7810     2.2060 H     1 <1>   0.0800 
 38 H        2.8810     7.1280     1.2860 H     1 <1>   0.0800 
 39 H        2.5110     5.4550     1.2090 H     1 <1>   0.0800 
 40 H        4.4150     7.2730    -1.4590 H     1 <1>   0.0800 
 41 H        5.9970     6.9240    -0.8560 H     1 <1>   0.0800 
 42 H        7.6910     3.8170     0.6970 H     1 <1>   0.0800 
 43 H        6.1740     3.3120     1.3720 H     1 <1>   0.0800 
 44 H        6.9660     5.2810     2.5800 H     1 <1>   0.0800 
 45 H        7.1730     6.1690     1.1000 H     1 <1>   0.0800 
 46 H        1.5280     5.7160    -1.0030 H     1 <1>   0.1500 
 47 H        5.6790     8.5440     1.0070 H     1 <1>   0.1500 
 48 H        0.7460     8.0080    -1.5770 H     1 <1>   0.1500 
 49 H        1.7730     8.7080    -0.3040 H     1 <1>   0.1500 
 50 H        4.4910    10.5790     0.1940 H     1 <1>   0.1500 
 51 H        3.8080     9.6750    -1.1790 H     1 <1>   0.1500 
@<TRIPOS>BOND
  1   1   2  1   
  2   1   3  1   
  3   2   4  1   
  4   2  21  1   
  5   2  22  1   
  6   3   5  1   
  7   3  23  1   
  8   3  24  1   
  9   4   6  1   
 10   4  25  1   
 11   4  26  1   
 12   5   6  1   
 13   5  27  1   
 14   5  28  1   
 15   6   7  1   
 16   7   8  1   
 17   7  29  1   
 18   7  30  1   
 19   8   9  1   
 20   8  31  1   
 21   8  32  1   
 22   9  10  1   
 23   9  11  1   
 24   9  33  1   
 25  10  12  1   
 26  10  13  1   
 27  10  14  1   
 28  11  15  1   
 29  11  34  1   
 30  11  35  1   
 31  12  16  1   
 32  12  36  1   
 33  12  37  1   
 34  13  17  1   
 35  13  38  1   
 36  13  39  1   
 37  14  18  1   
 38  14  40  1   
 39  14  41  1   
 40  15  16  1   
 41  15  42  1   
 42  15  43  1   
 43  16  44  1   
 44  16  45  1   
 45  17  19  2   
 46  17  46  1   
 47  18  20  2   
 48  18  47  1   
 49  19  48  1   
 50  19  49  1   
 51  20  50  1   
 52  20  51  1   
@<TRIPOS>SUBSTRUCTURE
  1 ****   9 GROUP 4 **** **** 0

# MOE 2024.06 (io_trps.svl 2023.06)
