@<TRIPOS>MOLECULE
NONAME
37 38 1 0 0 
SMALL
USER_CHARGES


@<TRIPOS>ATOM
  1 S        0.4270     0.4990    -1.1880 S.o2  1 <1>   1.3330 
  2 O       -0.4370     1.5990    -1.5550 O.2   1 <1>  -0.6500 
  3 O        0.7170    -0.5340    -2.1570 O.2   1 <1>  -0.6500 
  4 N       -0.2630    -0.2460     0.1740 N.am  1 <1>  -0.8490 
  5 C        1.9860     1.1460    -0.5850 C.3   1 <1>  -0.0550 
  6 C       -1.2250    -1.2870    -0.1990 C.3   1 <1>   0.1160 
  7 C       -0.8940     0.7030     1.0980 C.3   1 <1>   0.1160 
  8 C        3.0260     0.0640    -0.2180 C.3   1 <1>  -0.0800 
  9 C        4.3950     0.6080     0.1500 C.3   1 <1>   0.2890 
 10 C        2.6710    -0.7910     1.0040 C.3   1 <1>   0.1200 
 11 N        4.2570     1.7990     1.0210 N.pl3 1 <1>  -0.8690 
 12 C        4.9570    -0.5550     0.9580 C.3   1 <1>   0.1200 
 13 O        3.8730    -1.1010     1.6490 O.3   1 <1>  -0.5600 
 14 C        4.5960     3.0600     0.6840 C.ar  1 <1>   0.7200 
 15 N        4.7800     3.8730     1.7180 N.ar  1 <1>  -0.6200 
 16 N        4.6930     3.3550    -0.6120 N.ar  1 <1>  -0.6200 
 17 C        5.0940     5.1160     1.4180 C.ar  1 <1>   0.1600 
 18 C        5.0070     4.6040    -0.8900 C.ar  1 <1>   0.1600 
 19 C        5.2170     5.5210     0.1110 C.ar  1 <1>   0.1900 
 20 F        5.5290     6.7610    -0.1770 F     1 <1>  -0.1900 
 21 H        2.4120     1.7640    -1.3520 H     1 <1>   0.0800 
 22 H        1.8040     1.7770     0.2620 H     1 <1>   0.0800 
 23 H       -1.6340    -1.7510     0.6820 H     1 <1>   0.0800 
 24 H       -0.7360    -2.0490    -0.7830 H     1 <1>   0.0800 
 25 H       -2.0260    -0.8640    -0.7830 H     1 <1>   0.0800 
 26 H       -1.2400     0.1870     1.9780 H     1 <1>   0.0800 
 27 H       -1.7310     1.1910     0.6260 H     1 <1>   0.0800 
 28 H       -0.1850     1.4530     1.4040 H     1 <1>   0.0800 
 29 H        3.1450    -0.5990    -1.0580 H     1 <1>   0.0800 
 30 H        5.0020     0.8250    -0.7140 H     1 <1>   0.0800 
 31 H        2.1730    -1.7050     0.7270 H     1 <1>   0.0800 
 32 H        2.0640    -0.2440     1.7030 H     1 <1>   0.0800 
 33 H        4.2710     1.6120     2.0240 H     1 <1>   0.4000 
 34 H        5.7170    -0.2490     1.6550 H     1 <1>   0.0800 
 35 H        5.3440    -1.3170     0.3040 H     1 <1>   0.0800 
 36 H        5.2550     5.8200     2.2160 H     1 <1>   0.1500 
 37 H        5.0980     4.9020    -1.9200 H     1 <1>   0.1500 
@<TRIPOS>BOND
  1   1   2  2   
  2   1   3  2   
  3   1   4  am  
  4   1   5  1   
  5   4   6  1   
  6   4   7  1   
  7   5   8  1   
  8   5  21  1   
  9   5  22  1   
 10   6  23  1   
 11   6  24  1   
 12   6  25  1   
 13   7  26  1   
 14   7  27  1   
 15   7  28  1   
 16   8   9  1   
 17   8  10  1   
 18   8  29  1   
 19   9  11  1   
 20   9  12  1   
 21   9  30  1   
 22  10  13  1   
 23  10  31  1   
 24  10  32  1   
 25  11  14  1   
 26  11  33  1   
 27  12  13  1   
 28  12  34  1   
 29  12  35  1   
 30  14  15  ar  
 31  14  16  ar  
 32  15  17  ar  
 33  16  18  ar  
 34  17  19  ar  
 35  17  36  1   
 36  18  19  ar  
 37  18  37  1   
 38  19  20  1   
@<TRIPOS>SUBSTRUCTURE
  1 ****   5 GROUP 4 **** **** 0

# MOE 2024.06 (io_trps.svl 2023.06)
