@<TRIPOS>MOLECULE
NONAME
37 38 1 0 0 
SMALL
USER_CHARGES


@<TRIPOS>ATOM
  1 O       -1.3760     0.9300    -1.6030 O.2   1 <1>  -0.5700 
  2 C       -1.9850     1.0040    -0.5680 C.2   1 <1>   0.4230 
  3 C       -3.0350     0.0860    -0.2240 C.ar  1 <1>   0.0860 
  4 C       -1.5430     2.0800     0.4040 C.3   1 <1>  -0.1790 
  5 C       -4.2580     0.4120     0.3600 C.ar  1 <1>   0.1660 
  6 C       -2.8550    -1.2640    -0.4790 C.ar  1 <1>   0.1600 
  7 N       -5.1360    -0.4970     0.7010 N.ar  1 <1>  -0.6200 
  8 C       -4.6890     1.8450     0.6240 C.3   1 <1>  -0.0960 
  9 N       -3.7210    -2.1900    -0.1570 N.ar  1 <1>  -0.6200 
 10 C       -4.8260    -1.7580     0.4390 C.ar  1 <1>   0.7200 
 11 N       -5.7490    -2.6580     0.8150 N.pl3 1 <1>  -0.8690 
 12 C       -5.8760    -4.0620     0.3430 C.3   1 <1>   0.2090 
 13 C       -7.2220    -4.3110    -0.3840 C.3   1 <1>   0.2800 
 14 O       -8.2610    -3.8890     0.4540 O.3   1 <1>  -0.5600 
 15 C       -7.4620    -5.8060    -0.6200 C.3   1 <1>  -0.1600 
 16 C       -7.3290    -3.5030    -1.6810 C.3   1 <1>  -0.2400 
 17 C       -9.0660    -4.9430     0.8800 C.3   1 <1>   0.1200 
 18 C       -8.2930    -6.2160     0.5780 C.3   1 <1>  -0.1600 
 19 H       -1.8640     1.8520     1.4030 H     1 <1>   0.0800 
 20 H       -1.9400     3.0310     0.1020 H     1 <1>   0.0800 
 21 H       -0.4690     2.1430     0.3990 H     1 <1>   0.0800 
 22 H       -1.9460    -1.5780    -0.9660 H     1 <1>   0.1500 
 23 H       -4.3250     2.5050    -0.1400 H     1 <1>   0.0800 
 24 H       -4.3320     2.1660     1.5850 H     1 <1>   0.0800 
 25 H       -5.7630     1.9090     0.6270 H     1 <1>   0.0800 
 26 H       -6.6370    -2.2620     1.1280 H     1 <1>   0.4000 
 27 H       -5.8080    -4.7150     1.1940 H     1 <1>   0.0800 
 28 H       -5.0660    -4.3080    -0.3210 H     1 <1>   0.0800 
 29 H       -6.5470    -6.3660    -0.7010 H     1 <1>   0.0800 
 30 H       -8.0320    -5.9510    -1.5210 H     1 <1>   0.0800 
 31 H       -7.2120    -2.4540    -1.4760 H     1 <1>   0.0800 
 32 H       -8.2860    -3.6610    -2.1440 H     1 <1>   0.0800 
 33 H       -6.5580    -3.8010    -2.3670 H     1 <1>   0.0800 
 34 H       -9.9790    -4.9030     0.3120 H     1 <1>   0.0800 
 35 H       -9.2770    -4.8260     1.9290 H     1 <1>   0.0800 
 36 H       -7.6620    -6.4580     1.4160 H     1 <1>   0.0800 
 37 H       -8.9460    -7.0450     0.3700 H     1 <1>   0.0800 
@<TRIPOS>BOND
  1   1   2  2   
  2   2   3  1   
  3   2   4  1   
  4   3   5  ar  
  5   3   6  ar  
  6   4  19  1   
  7   4  20  1   
  8   4  21  1   
  9   5   7  ar  
 10   5   8  1   
 11   6   9  ar  
 12   6  22  1   
 13   7  10  ar  
 14   8  23  1   
 15   8  24  1   
 16   8  25  1   
 17   9  10  ar  
 18  10  11  1   
 19  11  12  1   
 20  11  26  1   
 21  12  13  1   
 22  12  27  1   
 23  12  28  1   
 24  13  14  1   
 25  13  15  1   
 26  13  16  1   
 27  14  17  1   
 28  15  18  1   
 29  15  29  1   
 30  15  30  1   
 31  16  31  1   
 32  16  32  1   
 33  16  33  1   
 34  17  18  1   
 35  17  34  1   
 36  17  35  1   
 37  18  36  1   
 38  18  37  1   
@<TRIPOS>SUBSTRUCTURE
  1 ****  10 GROUP 4 **** **** 0

# MOE 2024.06 (io_trps.svl 2023.06)
