@<TRIPOS>MOLECULE
NONAME
49 52 1 0 0 
SMALL
USER_CHARGES


@<TRIPOS>ATOM
  1 O       -0.6420     0.2060     2.1920 O.2   1 <1>  -0.5700 
  2 C       -1.3360     0.8670     1.4560 C.2   1 <1>   0.5690 
  3 N       -2.2470     0.2740     0.6210 N.am  1 <1>  -0.6600 
  4 C       -1.1910     2.3850     1.5210 C.3   1 <1>   0.1810 
  5 C       -3.1780     0.9590    -0.3120 C.3   1 <1>   0.1400 
  6 C       -2.3620    -1.1980     0.4690 C.3   1 <1>   0.1400 
  7 O       -1.0020     2.9500     0.2310 O.3   1 <1>  -0.3620 
  8 C       -4.2160    -0.1080    -0.6530 C.3   1 <1>   0.2000 
  9 C       -3.4040    -1.4060    -0.6370 C.3   1 <1>  -0.0800 
 10 C       -0.8270     4.2820     0.0620 C.ar  1 <1>   0.0820 
 11 O       -5.1540    -0.1340     0.3700 O.3   1 <1>  -0.6800 
 12 C       -4.2210    -2.7020    -0.4860 C.3   1 <1>   0.0210 
 13 C       -0.6160     4.7190    -1.2350 C.ar  1 <1>  -0.1500 
 14 C       -0.8460     5.2080     1.1000 C.ar  1 <1>  -0.1500 
 15 C       -3.3090    -3.9140    -0.4740 C.2   1 <1>   0.1080 
 16 C       -0.4270     6.0630    -1.5000 C.ar  1 <1>  -0.1500 
 17 C       -0.6570     6.5530     0.8330 C.ar  1 <1>  -0.1500 
 18 N       -2.5400    -4.2260    -1.4700 N.2   1 <1>  -0.7070 
 19 C       -3.1830    -4.8050     0.5870 C.2   1 <1>  -0.1500 
 20 C       -0.4480     7.0000    -0.4710 C.ar  1 <1>  -0.0230 
 21 N       -1.8950    -5.3370    -1.0670 N.pl3 1 <1>   0.3000 
 22 C       -2.2670    -5.7070     0.1770 C.2   1 <1>  -0.3320 
 23 N       -0.2560     8.3850    -0.7510 N.pl3 1 <1>   0.5930 
 24 C       -1.7160    -6.9170     0.9080 C.3   1 <1>  -0.0600 
 25 N        0.5480     8.8680    -1.6860 N.2   1 <1>  -0.4180 
 26 C       -0.8190     9.4380    -0.1740 C.2   1 <1>   0.0360 
 27 N        0.4540    10.1470    -1.6420 N.2   1 <1>   0.0000 
 28 N       -0.4000    10.5240    -0.6980 N.2   1 <1>  -0.3380 
 29 H       -0.3350     2.6310     2.1220 H     1 <1>   0.0800 
 30 H       -2.0780     2.8080     1.9530 H     1 <1>   0.0800 
 31 H       -3.6300     1.8310     0.1280 H     1 <1>   0.0800 
 32 H       -2.6370     1.2400    -1.1990 H     1 <1>   0.0800 
 33 H       -1.4130    -1.6310     0.1970 H     1 <1>   0.0800 
 34 H       -2.6920    -1.6250     1.4000 H     1 <1>   0.0800 
 35 H       -4.7240     0.0720    -1.5850 H     1 <1>   0.0800 
 36 H       -2.8660    -1.4640    -1.5680 H     1 <1>   0.0800 
 37 H       -4.6760    -0.1750     1.2230 H     1 <1>   0.4000 
 38 H       -4.9040    -2.7940    -1.3110 H     1 <1>   0.0800 
 39 H       -4.7950    -2.6870     0.4220 H     1 <1>   0.0800 
 40 H       -0.5960     3.9990    -2.0340 H     1 <1>   0.1500 
 41 H       -1.0020     4.9040     2.1180 H     1 <1>   0.1500 
 42 H       -0.2600     6.3820    -2.5160 H     1 <1>   0.1500 
 43 H       -0.6650     7.2510     1.6520 H     1 <1>   0.1500 
 44 H       -3.7130    -4.7590     1.5210 H     1 <1>   0.1500 
 45 H       -1.2100    -5.8160    -1.6620 H     1 <1>   0.2700 
 46 H       -2.1670    -6.9980     1.8810 H     1 <1>   0.0800 
 47 H       -0.6510    -6.8240     1.0310 H     1 <1>   0.0800 
 48 H       -1.9290    -7.8150     0.3550 H     1 <1>   0.0800 
 49 H       -1.5320     9.3610     0.6230 H     1 <1>   0.1500 
@<TRIPOS>BOND
  1   1   2  2   
  2   2   3  am  
  3   2   4  1   
  4   3   5  1   
  5   3   6  1   
  6   4   7  1   
  7   4  29  1   
  8   4  30  1   
  9   5   8  1   
 10   5  31  1   
 11   5  32  1   
 12   6   9  1   
 13   6  33  1   
 14   6  34  1   
 15   7  10  1   
 16   8   9  1   
 17   8  11  1   
 18   8  35  1   
 19   9  12  1   
 20   9  36  1   
 21  10  13  ar  
 22  10  14  ar  
 23  11  37  1   
 24  12  15  1   
 25  12  38  1   
 26  12  39  1   
 27  13  16  ar  
 28  13  40  1   
 29  14  17  ar  
 30  14  41  1   
 31  15  18  2   
 32  15  19  1   
 33  16  20  ar  
 34  16  42  1   
 35  17  20  ar  
 36  17  43  1   
 37  18  21  1   
 38  19  22  2   
 39  19  44  1   
 40  20  23  1   
 41  21  22  1   
 42  21  45  1   
 43  22  24  1   
 44  23  25  1   
 45  23  26  1   
 46  24  46  1   
 47  24  47  1   
 48  24  48  1   
 49  25  27  2   
 50  26  28  2   
 51  26  49  1   
 52  27  28  1   
@<TRIPOS>SUBSTRUCTURE
  1 ****   7 GROUP 4 **** **** 0

# MOE 2024.06 (io_trps.svl 2023.06)
