@<TRIPOS>MOLECULE
NONAME
39 40 1 0 0 
SMALL
USER_CHARGES


@<TRIPOS>ATOM
  1 CL      -0.0960    -0.4850    -0.4370 Cl    1 <1>  -0.1770 
  2 C       -1.6440    -1.2710    -0.2140 C.ar  1 <1>   0.1770 
  3 C       -1.9230    -2.4720    -0.8180 C.ar  1 <1>   0.1600 
  4 C       -2.6190    -0.7070     0.5700 C.ar  1 <1>   0.1600 
  5 N       -3.0830    -3.0720    -0.6590 N.ar  1 <1>  -0.6200 
  6 N       -3.7860    -1.2870     0.7460 N.ar  1 <1>  -0.6200 
  7 C       -3.9740    -2.4510     0.1190 C.ar  1 <1>   0.7200 
  8 N       -5.1930    -3.0700     0.2900 N.pl3 1 <1>  -0.8380 
  9 C       -5.6860    -4.1050    -0.6760 C.3   1 <1>   0.2090 
 10 C       -6.0280    -2.8490     1.5050 C.3   1 <1>   0.2090 
 11 C       -7.1730    -3.8900    -1.0180 C.3   1 <1>   0.2000 
 12 C       -7.4840    -2.6000     1.0970 C.3   1 <1>  -0.1600 
 13 O       -7.6130    -4.9290    -1.8380 O.3   1 <1>  -0.6800 
 14 C       -8.0830    -3.7430     0.2350 C.3   1 <1>   0.0000 
 15 C       -8.0910    -5.0780     1.0330 C.3   1 <1>   0.1200 
 16 C       -9.5510    -3.4050    -0.1600 C.3   1 <1>  -0.1600 
 17 O       -8.8160    -4.9710     2.2120 O.3   1 <1>  -0.6800 
 18 C       -9.7620    -2.1730    -1.0620 C.3   1 <1>  -0.1600 
 19 C      -11.2530    -1.9480    -1.3310 C.3   1 <1>  -0.2400 
 20 H       -1.1810    -2.9420    -1.4380 H     1 <1>   0.1500 
 21 H       -2.4330     0.2340     1.0580 H     1 <1>   0.1500 
 22 H       -5.1290    -4.0530    -1.5960 H     1 <1>   0.0800 
 23 H       -5.5330    -5.0780    -0.2460 H     1 <1>   0.0800 
 24 H       -5.9530    -3.7110     2.1430 H     1 <1>   0.0800 
 25 H       -5.6770    -2.0030     2.0700 H     1 <1>   0.0800 
 26 H       -7.2250    -2.9930    -1.6070 H     1 <1>   0.0800 
 27 H       -8.0760    -2.4440     1.9800 H     1 <1>   0.0800 
 28 H       -7.4970    -1.6770     0.5470 H     1 <1>   0.0800 
 29 H       -7.6520    -5.7710    -1.3480 H     1 <1>   0.4000 
 30 H       -7.0970    -5.3940     1.2950 H     1 <1>   0.0800 
 31 H       -8.5510    -5.8600     0.4540 H     1 <1>   0.0800 
 32 H       -9.9730    -4.2570    -0.6660 H     1 <1>   0.0800 
 33 H      -10.1280    -3.2640     0.7370 H     1 <1>   0.0800 
 34 H       -8.4930    -4.2260     2.7520 H     1 <1>   0.4000 
 35 H       -9.3630    -1.2890    -0.5980 H     1 <1>   0.0800 
 36 H       -9.2660    -2.3140    -2.0060 H     1 <1>   0.0800 
 37 H      -11.7810    -1.7780    -0.4090 H     1 <1>   0.0800 
 38 H      -11.6780    -2.8050    -1.8220 H     1 <1>   0.0800 
 39 H      -11.3860    -1.0900    -1.9650 H     1 <1>   0.0800 
@<TRIPOS>BOND
  1   1   2  1   
  2   2   3  ar  
  3   2   4  ar  
  4   3   5  ar  
  5   3  20  1   
  6   4   6  ar  
  7   4  21  1   
  8   5   7  ar  
  9   6   7  ar  
 10   7   8  1   
 11   8   9  1   
 12   8  10  1   
 13   9  11  1   
 14   9  22  1   
 15   9  23  1   
 16  10  12  1   
 17  10  24  1   
 18  10  25  1   
 19  11  13  1   
 20  11  14  1   
 21  11  26  1   
 22  12  14  1   
 23  12  27  1   
 24  12  28  1   
 25  13  29  1   
 26  14  15  1   
 27  14  16  1   
 28  15  17  1   
 29  15  30  1   
 30  15  31  1   
 31  16  18  1   
 32  16  32  1   
 33  16  33  1   
 34  17  34  1   
 35  18  19  1   
 36  18  35  1   
 37  18  36  1   
 38  19  37  1   
 39  19  38  1   
 40  19  39  1   
@<TRIPOS>SUBSTRUCTURE
  1 ****   8 GROUP 4 **** **** 0

# MOE 2024.06 (io_trps.svl 2023.06)
