@<TRIPOS>MOLECULE
NONAME
42 44 1 0 0 
SMALL
USER_CHARGES


@<TRIPOS>ATOM
  1 O        0.0770    -0.4690     0.9620 O.3   1 <1>  -0.3630 
  2 C        1.1660    -1.0770     0.4290 C.ar  1 <1>   0.0830 
  3 C       -1.2330    -0.9050     0.6690 C.3   1 <1>   0.2800 
  4 C        1.0840    -2.2940    -0.2410 C.ar  1 <1>  -0.1440 
  5 C        2.3880    -0.4410     0.5780 C.ar  1 <1>  -0.1500 
  6 C       -1.2660    -2.4370     0.6180 C.3   1 <1>  -0.1600 
  7 C       -1.6600    -0.2480    -0.6500 C.3   1 <1>  -0.2400 
  8 C       -2.1200    -0.3980     1.8080 C.3   1 <1>  -0.2400 
  9 C        2.2430    -2.8490    -0.7660 C.ar  1 <1>  -0.1500 
 10 C       -0.2640    -2.9780    -0.3990 C.3   1 <1>   0.4330 
 11 C        3.5410    -1.0000     0.0550 C.ar  1 <1>  -0.1430 
 12 C        3.4610    -2.2080    -0.6180 C.ar  1 <1>  -0.1500 
 13 N       -0.1210    -4.4330    -0.2030 N.pl3 1 <1>  -0.8690 
 14 C        4.8820    -0.3060     0.2170 C.3   1 <1>  -0.0970 
 15 C       -1.1820    -5.2660    -0.4300 C.ar  1 <1>   0.4100 
 16 N       -1.5380    -5.9680     0.6280 N.ar  1 <1>  -0.6200 
 17 C       -1.8390    -5.3600    -1.6680 C.ar  1 <1>   0.1600 
 18 C       -2.5770    -6.7520     0.3920 C.ar  1 <1>   0.1670 
 19 N       -2.8830    -6.1290    -1.9100 N.ar  1 <1>  -0.6200 
 20 C       -3.2280    -6.8270    -0.8370 C.ar  1 <1>   0.1600 
 21 C       -3.0420    -7.5930     1.5630 C.3   1 <1>  -0.0970 
 22 H        2.4210     0.4940     1.1070 H     1 <1>   0.1500 
 23 H       -2.2550    -2.7700     0.3640 H     1 <1>   0.0800 
 24 H       -1.0210    -2.8190     1.5930 H     1 <1>   0.0800 
 25 H       -0.9880    -0.5010    -1.4490 H     1 <1>   0.0800 
 26 H       -1.6690     0.8210    -0.5420 H     1 <1>   0.0800 
 27 H       -2.6510    -0.5670    -0.9200 H     1 <1>   0.0800 
 28 H       -1.7970    -0.8140     2.7450 H     1 <1>   0.0800 
 29 H       -3.1420    -0.6860     1.6410 H     1 <1>   0.0800 
 30 H       -2.0730     0.6740     1.8690 H     1 <1>   0.0800 
 31 H        2.2010    -3.7880    -1.2920 H     1 <1>   0.1500 
 32 H       -0.6220    -2.7900    -1.3970 H     1 <1>   0.0800 
 33 H        4.3490    -2.6560    -1.0290 H     1 <1>   0.1500 
 34 H        0.2870    -4.6210     0.7150 H     1 <1>   0.4000 
 35 H        4.7480     0.7180     0.5170 H     1 <1>   0.0800 
 36 H        5.4200    -0.3200    -0.7140 H     1 <1>   0.0800 
 37 H        5.4650    -0.8120     0.9640 H     1 <1>   0.0800 
 38 H       -1.4630    -4.7640    -2.4770 H     1 <1>   0.1500 
 39 H       -4.0690    -7.4890    -0.9420 H     1 <1>   0.1500 
 40 H       -3.3170    -6.9510     2.3800 H     1 <1>   0.0800 
 41 H       -2.2420    -8.2350     1.8830 H     1 <1>   0.0800 
 42 H       -3.8880    -8.1990     1.2960 H     1 <1>   0.0800 
@<TRIPOS>BOND
  1   1   2  1   
  2   1   3  1   
  3   2   4  ar  
  4   2   5  ar  
  5   3   6  1   
  6   3   7  1   
  7   3   8  1   
  8   4   9  ar  
  9   4  10  1   
 10   5  11  ar  
 11   5  22  1   
 12   6  10  1   
 13   6  23  1   
 14   6  24  1   
 15   7  25  1   
 16   7  26  1   
 17   7  27  1   
 18   8  28  1   
 19   8  29  1   
 20   8  30  1   
 21   9  12  ar  
 22   9  31  1   
 23  10  13  1   
 24  10  32  1   
 25  11  12  ar  
 26  11  14  1   
 27  12  33  1   
 28  13  15  1   
 29  13  34  1   
 30  14  35  1   
 31  14  36  1   
 32  14  37  1   
 33  15  16  ar  
 34  15  17  ar  
 35  16  18  ar  
 36  17  19  ar  
 37  17  38  1   
 38  18  20  ar  
 39  18  21  1   
 40  19  20  ar  
 41  20  39  1   
 42  21  40  1   
 43  21  41  1   
 44  21  42  1   
@<TRIPOS>SUBSTRUCTURE
  1 ****  10 GROUP 4 **** **** 0

# MOE 2024.06 (io_trps.svl 2023.06)
