@<TRIPOS>MOLECULE
NONAME
55 57 1 0 0 
SMALL
USER_CHARGES


@<TRIPOS>ATOM
  1 O       -1.2630    -2.4480     0.8530 O.2   1 <1>  -0.5700 
  2 C       -0.2560    -3.0020     0.4860 C.2   1 <1>   0.5690 
  3 N       -0.1590    -3.6840    -0.6970 N.am  1 <1>  -0.6600 
  4 C        0.9720    -2.9550     1.3700 C.3   1 <1>  -0.0990 
  5 C        1.1120    -4.3520    -1.0760 C.3   1 <1>   0.1400 
  6 C       -1.3060    -3.8380    -1.6310 C.3   1 <1>   0.0600 
  7 C        2.2220    -2.6280     0.5340 C.3   1 <1>  -0.0800 
  8 C        2.3070    -3.4220    -0.7910 C.3   1 <1>  -0.0800 
  9 C        3.5340    -2.8840     1.2860 C.3   1 <1>  -0.1600 
 10 C        3.6470    -4.1690    -0.7480 C.3   1 <1>  -0.1600 
 11 C        4.5070    -3.3430     0.2050 C.3   1 <1>   0.2200 
 12 N        5.6860    -4.0780     0.7520 N.am  1 <1>  -0.6600 
 13 C        6.9700    -3.5990     0.5920 C.2   1 <1>   0.7150 
 14 C        5.4780    -5.4500     1.3120 C.3   1 <1>   0.0600 
 15 O        7.8990    -4.3840     0.6520 O.2   1 <1>  -0.5700 
 16 C        7.2310    -2.2110     0.3400 C.2   1 <1>  -0.2370 
 17 N        8.0730    -1.7510    -0.6210 N.pl3 1 <1>   0.3140 
 18 C        6.7350    -1.0970     0.9450 C.2   1 <1>  -0.1500 
 19 N        8.0940    -0.4090    -0.6700 N.2   1 <1>  -0.7070 
 20 C        8.8960    -2.5440    -1.5640 C.3   1 <1>   0.0960 
 21 C        7.2960    -0.0220     0.2800 C.2   1 <1>   0.1080 
 22 C       10.3170    -2.7470    -1.0240 C.3   1 <1>  -0.2400 
 23 C        7.0180     1.4410     0.6140 C.3   1 <1>   0.1010 
 24 C        6.3630     2.1540    -0.5750 C.3   1 <1>  -0.2400 
 25 C        8.3090     2.1590     1.0240 C.3   1 <1>  -0.2400 
 26 H        0.8350    -2.2130     2.1360 H     1 <1>   0.0800 
 27 H        1.0710    -3.9140     1.8430 H     1 <1>   0.0800 
 28 H        1.1980    -5.2580    -0.5000 H     1 <1>   0.0800 
 29 H        1.0970    -4.6140    -2.1200 H     1 <1>   0.0800 
 30 H       -1.0600    -3.4050    -2.5840 H     1 <1>   0.0800 
 31 H       -2.1780    -3.3410    -1.2420 H     1 <1>   0.0800 
 32 H       -1.5340    -4.8820    -1.7590 H     1 <1>   0.0800 
 33 H        2.1770    -1.5830     0.2760 H     1 <1>   0.0800 
 34 H        2.3550    -2.7040    -1.5940 H     1 <1>   0.0800 
 35 H        3.3960    -3.6600     2.0150 H     1 <1>   0.0800 
 36 H        3.8800    -1.9940     1.7780 H     1 <1>   0.0800 
 37 H        4.0960    -4.2360    -1.7230 H     1 <1>   0.0800 
 38 H        3.4890    -5.1570    -0.3560 H     1 <1>   0.0800 
 39 H        4.8330    -2.4730    -0.3410 H     1 <1>   0.0800 
 40 H        4.5370    -5.5190     1.8250 H     1 <1>   0.0800 
 41 H        6.2620    -5.6860     2.0110 H     1 <1>   0.0800 
 42 H        5.5030    -6.1720     0.5140 H     1 <1>   0.0800 
 43 H        6.0510    -1.0440     1.7710 H     1 <1>   0.1500 
 44 H        8.4220    -3.4930    -1.7350 H     1 <1>   0.0800 
 45 H        8.9360    -2.0110    -2.4970 H     1 <1>   0.0800 
 46 H       10.2870    -3.2890    -0.0950 H     1 <1>   0.0800 
 47 H       10.7900    -1.7940    -0.8650 H     1 <1>   0.0800 
 48 H       10.9000    -3.3090    -1.7300 H     1 <1>   0.0800 
 49 H        6.3360     1.4740     1.4450 H     1 <1>   0.0800 
 50 H        7.0250     2.1410    -1.4220 H     1 <1>   0.0800 
 51 H        6.1350     3.1740    -0.3250 H     1 <1>   0.0800 
 52 H        5.4530     1.6500    -0.8480 H     1 <1>   0.0800 
 53 H        9.0110     2.1480     0.2080 H     1 <1>   0.0800 
 54 H        8.7570     1.6560     1.8620 H     1 <1>   0.0800 
 55 H        8.1060     3.1780     1.2970 H     1 <1>   0.0800 
@<TRIPOS>BOND
  1   1   2  2   
  2   2   3  am  
  3   2   4  1   
  4   3   5  1   
  5   3   6  1   
  6   4   7  1   
  7   4  26  1   
  8   4  27  1   
  9   5   8  1   
 10   5  28  1   
 11   5  29  1   
 12   6  30  1   
 13   6  31  1   
 14   6  32  1   
 15   7   8  1   
 16   7   9  1   
 17   7  33  1   
 18   8  10  1   
 19   8  34  1   
 20   9  11  1   
 21   9  35  1   
 22   9  36  1   
 23  10  11  1   
 24  10  37  1   
 25  10  38  1   
 26  11  12  1   
 27  11  39  1   
 28  12  13  am  
 29  12  14  1   
 30  13  15  2   
 31  13  16  1   
 32  14  40  1   
 33  14  41  1   
 34  14  42  1   
 35  16  17  1   
 36  16  18  2   
 37  17  19  1   
 38  17  20  1   
 39  18  21  1   
 40  18  43  1   
 41  19  21  2   
 42  20  22  1   
 43  20  44  1   
 44  20  45  1   
 45  21  23  1   
 46  22  46  1   
 47  22  47  1   
 48  22  48  1   
 49  23  24  1   
 50  23  25  1   
 51  23  49  1   
 52  24  50  1   
 53  24  51  1   
 54  24  52  1   
 55  25  53  1   
 56  25  54  1   
 57  25  55  1   
@<TRIPOS>SUBSTRUCTURE
  1 ****  11 GROUP 4 **** **** 0

# MOE 2024.06 (io_trps.svl 2023.06)
