@<TRIPOS>MOLECULE
NONAME
46 47 1 0 0 
SMALL
USER_CHARGES


@<TRIPOS>ATOM
  1 O        0.8970     1.6630    -1.0120 O.2   1 <1>  -0.5700 
  2 C        1.6850     2.2570    -0.3050 C.2   1 <1>   0.7800 
  3 O        2.8330     1.6800     0.0620 O.3   1 <1>  -0.4300 
  4 N        1.4680     3.5340     0.1460 N.am  1 <1>  -0.6600 
  5 C        3.2880     0.3850    -0.2630 C.3   1 <1>   0.2800 
  6 C        0.2660     4.3610    -0.1570 C.3   1 <1>   0.2200 
  7 C        2.5680     4.3670     0.7420 C.3   1 <1>   0.1400 
  8 C        4.6440     0.2540     0.4310 C.3   1 <1>  -0.2400 
  9 C        2.3310    -0.6730     0.2990 C.3   1 <1>  -0.2400 
 10 C        3.4830     0.2550    -1.7790 C.3   1 <1>  -0.2400 
 11 C       -0.1170     5.1610     1.0810 C.3   1 <1>   0.2000 
 12 C       -1.0610     3.6980    -0.5100 C.3   1 <1>  -0.1600 
 13 C        2.0620     5.3630     1.8150 C.3   1 <1>   0.1200 
 14 O        0.9060     6.0480     1.4050 O.3   1 <1>  -0.5600 
 15 C       -1.4190     5.8360     0.6920 C.3   1 <1>  -0.1600 
 16 C       -2.1230     4.7800    -0.1990 C.3   1 <1>  -0.0190 
 17 C       -3.3710     4.1680     0.4320 C.2   1 <1>   0.6590 
 18 O       -3.4500     3.9420     1.6130 O.2   1 <1>  -0.5700 
 19 O       -4.3580     3.8850    -0.4070 O.3   1 <1>  -0.4300 
 20 C       -5.5510     3.2850     0.0390 C.3   1 <1>   0.1200 
 21 C       -6.4550     3.0730    -1.1700 C.3   1 <1>  -0.2400 
 22 H        0.5170     5.0520    -0.9440 H     1 <1>   0.0800 
 23 H        3.3190     3.7380     1.1870 H     1 <1>   0.0800 
 24 H        3.0400     4.9250    -0.0480 H     1 <1>   0.0800 
 25 H        5.0720    -0.7130     0.2370 H     1 <1>   0.0800 
 26 H        4.5320     0.3670     1.4940 H     1 <1>   0.0800 
 27 H        5.3240     1.0040     0.0670 H     1 <1>   0.0800 
 28 H        2.7530    -1.6530     0.1740 H     1 <1>   0.0800 
 29 H        1.3890    -0.6580    -0.2190 H     1 <1>   0.0800 
 30 H        2.1610    -0.5040     1.3460 H     1 <1>   0.0800 
 31 H        3.9600    -0.6810    -2.0080 H     1 <1>   0.0800 
 32 H        4.1030     1.0520    -2.1460 H     1 <1>   0.0800 
 33 H        2.5410     0.2730    -2.2940 H     1 <1>   0.0800 
 34 H       -0.2930     4.5000     1.9150 H     1 <1>   0.0800 
 35 H       -1.0920     3.3960    -1.5420 H     1 <1>   0.0800 
 36 H       -1.2110     2.8400     0.1230 H     1 <1>   0.0800 
 37 H        2.8210     6.0960     2.0260 H     1 <1>   0.0800 
 38 H        1.8380     4.8390     2.7280 H     1 <1>   0.0800 
 39 H       -1.9940     6.0970     1.5630 H     1 <1>   0.0800 
 40 H       -1.2090     6.7200     0.1160 H     1 <1>   0.0800 
 41 H       -2.4170     5.2600    -1.1160 H     1 <1>   0.0800 
 42 H       -5.3060     2.3470     0.5090 H     1 <1>   0.0800 
 43 H       -6.0130     3.9400     0.7600 H     1 <1>   0.0800 
 44 H       -5.9740     2.4290    -1.8840 H     1 <1>   0.0800 
 45 H       -6.6830     4.0170    -1.6330 H     1 <1>   0.0800 
 46 H       -7.3750     2.6130    -0.8590 H     1 <1>   0.0800 
@<TRIPOS>BOND
  1   1   2  2   
  2   2   3  1   
  3   2   4  am  
  4   3   5  1   
  5   4   6  1   
  6   4   7  1   
  7   5   8  1   
  8   5   9  1   
  9   5  10  1   
 10   6  11  1   
 11   6  12  1   
 12   6  22  1   
 13   7  13  1   
 14   7  23  1   
 15   7  24  1   
 16   8  25  1   
 17   8  26  1   
 18   8  27  1   
 19   9  28  1   
 20   9  29  1   
 21   9  30  1   
 22  10  31  1   
 23  10  32  1   
 24  10  33  1   
 25  11  14  1   
 26  11  15  1   
 27  11  34  1   
 28  12  16  1   
 29  12  35  1   
 30  12  36  1   
 31  13  14  1   
 32  13  37  1   
 33  13  38  1   
 34  15  16  1   
 35  15  39  1   
 36  15  40  1   
 37  16  17  1   
 38  16  41  1   
 39  17  18  2   
 40  17  19  1   
 41  19  20  1   
 42  20  21  1   
 43  20  42  1   
 44  20  43  1   
 45  21  44  1   
 46  21  45  1   
 47  21  46  1   
@<TRIPOS>SUBSTRUCTURE
  1 ****   6 GROUP 4 **** **** 0

# MOE 2024.06 (io_trps.svl 2023.06)
