@<TRIPOS>MOLECULE
NONAME
54 58 1 0 0 
SMALL
USER_CHARGES


@<TRIPOS>ATOM
  1 O       -1.7770     0.5170     1.7750 O.2   1 <1>  -0.5700 
  2 C       -1.8960     0.8370     0.6160 C.2   1 <1>   0.5690 
  3 N       -2.2030    -0.0830    -0.3570 N.am  1 <1>  -0.6600 
  4 C       -1.7120     2.3090     0.2910 C.3   1 <1>   0.1570 
  5 C       -2.1870    -1.5530    -0.0390 C.3   1 <1>   0.3640 
  6 C       -2.6660     0.2750    -1.7350 C.3   1 <1>   0.1400 
  7 N       -0.3130     2.7330     0.5170 N.pl3 1 <1>   0.0480 
  8 C       -0.8310    -2.1490    -0.4620 C.ar  1 <1>  -0.1440 
  9 C       -3.4390    -2.2530    -0.6460 C.3   1 <1>   0.2000 
 10 C       -2.9170    -0.9540    -2.6230 C.3   1 <1>   0.1200 
 11 C        0.7920     2.3010    -0.1550 C.ar  1 <1>  -0.1520 
 12 C        0.1310     3.7270     1.3380 C.2   1 <1>   0.1010 
 13 C       -0.6820    -3.1170    -1.4530 C.ar  1 <1>  -0.1500 
 14 C        0.3110    -1.7020     0.1920 C.ar  1 <1>  -0.1500 
 15 O       -3.7290    -1.9040    -1.9880 O.3   1 <1>  -0.5600 
 16 C       -4.7040    -1.9500     0.1690 C.3   1 <1>   0.1200 
 17 C        1.8330     3.0840     0.3070 C.ar  1 <1>   0.2270 
 18 C        1.0210     1.3040    -1.1100 C.ar  1 <1>  -0.1500 
 19 N        1.3920     3.9680     1.2400 N.2   1 <1>  -0.5650 
 20 C       -0.7930     4.4740     2.2880 C.3   1 <1>  -0.0150 
 21 C        0.5690    -3.6060    -1.7860 C.ar  1 <1>  -0.1500 
 22 C        1.5630    -2.1860    -0.1410 C.ar  1 <1>  -0.1500 
 23 O       -4.6440    -2.5720     1.4120 O.3   1 <1>  -0.6800 
 24 C        3.1240     2.9010    -0.1850 C.ar  1 <1>  -0.1500 
 25 C        2.3000     1.1260    -1.5890 C.ar  1 <1>  -0.1500 
 26 C       -1.7310     5.5180     1.7620 C.3   1 <1>  -0.2000 
 27 C       -0.5600     5.9200     2.6040 C.3   1 <1>  -0.2000 
 28 C        1.6950    -3.1390    -1.1320 C.ar  1 <1>  -0.1500 
 29 C        3.3530     1.9250    -1.1300 C.ar  1 <1>  -0.1500 
 30 H       -2.3640     2.8730     0.9300 H     1 <1>   0.0800 
 31 H       -1.9690     2.5280    -0.7240 H     1 <1>   0.0800 
 32 H       -2.2470    -1.6870     1.0270 H     1 <1>   0.0800 
 33 H       -3.5830     0.8340    -1.6620 H     1 <1>   0.0800 
 34 H       -1.9320     0.8950    -2.2160 H     1 <1>   0.0800 
 35 H       -3.2930    -3.3170    -0.6300 H     1 <1>   0.0800 
 36 H       -1.9860    -1.4150    -2.8960 H     1 <1>   0.0800 
 37 H       -3.4140    -0.6570    -3.5290 H     1 <1>   0.0800 
 38 H       -1.5300    -3.5070    -1.9860 H     1 <1>   0.1500 
 39 H        0.2340    -0.9640     0.9730 H     1 <1>   0.1500 
 40 H       -5.5800    -2.3130    -0.3420 H     1 <1>   0.0800 
 41 H       -4.7970    -0.8910     0.3350 H     1 <1>   0.0800 
 42 H        0.2230     0.6760    -1.4560 H     1 <1>   0.1500 
 43 H       -1.1240     3.8520     3.1020 H     1 <1>   0.1000 
 44 H        0.6680    -4.3520    -2.5550 H     1 <1>   0.1500 
 45 H        2.4320    -1.8160     0.3760 H     1 <1>   0.1500 
 46 H       -4.8130    -3.5320     1.3340 H     1 <1>   0.4000 
 47 H        3.9100     3.5280     0.1910 H     1 <1>   0.1500 
 48 H        2.5000     0.3600    -2.3190 H     1 <1>   0.1500 
 49 H       -1.7050     5.7680     0.7160 H     1 <1>   0.1000 
 50 H       -2.7180     5.5910     2.1850 H     1 <1>   0.1000 
 51 H       -0.7230     6.2530     3.6140 H     1 <1>   0.1000 
 52 H        0.2810     6.4060     2.1400 H     1 <1>   0.1000 
 53 H        2.6680    -3.5180    -1.3910 H     1 <1>   0.1500 
 54 H        4.3430     1.7690    -1.5200 H     1 <1>   0.1500 
@<TRIPOS>BOND
  1   1   2  2   
  2   2   3  am  
  3   2   4  1   
  4   3   5  1   
  5   3   6  1   
  6   4   7  1   
  7   4  30  1   
  8   4  31  1   
  9   5   8  1   
 10   5   9  1   
 11   5  32  1   
 12   6  10  1   
 13   6  33  1   
 14   6  34  1   
 15   7  11  1   
 16   7  12  1   
 17   8  13  ar  
 18   8  14  ar  
 19   9  15  1   
 20   9  16  1   
 21   9  35  1   
 22  10  15  1   
 23  10  36  1   
 24  10  37  1   
 25  11  17  ar  
 26  11  18  ar  
 27  12  19  2   
 28  12  20  1   
 29  13  21  ar  
 30  13  38  1   
 31  14  22  ar  
 32  14  39  1   
 33  16  23  1   
 34  16  40  1   
 35  16  41  1   
 36  17  19  1   
 37  17  24  ar  
 38  18  25  ar  
 39  18  42  1   
 40  20  26  1   
 41  20  27  1   
 42  20  43  1   
 43  21  28  ar  
 44  21  44  1   
 45  22  28  ar  
 46  22  45  1   
 47  23  46  1   
 48  24  29  ar  
 49  24  47  1   
 50  25  29  ar  
 51  25  48  1   
 52  26  27  1   
 53  26  49  1   
 54  26  50  1   
 55  27  51  1   
 56  27  52  1   
 57  28  53  1   
 58  29  54  1   
@<TRIPOS>SUBSTRUCTURE
  1 ****   2 GROUP 4 **** **** 0

# MOE 2024.06 (io_trps.svl 2023.06)
