@<TRIPOS>MOLECULE
NONAME
47 50 1 0 0 
SMALL
USER_CHARGES


@<TRIPOS>ATOM
  1 S       -2.3220    -0.5100    -1.1310 S.3   1 <1>  -0.3320 
  2 C       -2.4890     0.5020     0.3450 C.ar  1 <1>   0.4120 
  3 C       -1.9240     0.6800    -2.4890 C.3   1 <1>  -0.0100 
  4 N       -2.3560     1.8050     0.1400 N.ar  1 <1>  -0.6200 
  5 C       -2.7510    -0.1180     1.5680 C.ar  1 <1>   0.0860 
  6 C       -2.4640     2.5560     1.2230 C.ar  1 <1>   0.1600 
  7 C       -2.9110    -1.5450     1.6960 C.2   1 <1>   0.5440 
  8 C       -2.8530     0.7070     2.6790 C.ar  1 <1>  -0.1500 
  9 C       -2.7060     2.0650     2.4950 C.ar  1 <1>  -0.1500 
 10 O       -2.0200    -2.1910     2.2110 O.2   1 <1>  -0.5700 
 11 N       -4.0620    -2.1940     1.2980 N.am  1 <1>  -0.6600 
 12 C       -4.1930    -3.6850     1.3460 C.3   1 <1>   0.1400 
 13 C       -5.2320    -1.5360     0.6350 C.3   1 <1>   0.1400 
 14 C       -4.5810    -4.2500    -0.0330 C.3   1 <1>   0.3430 
 15 C       -5.5570    -2.2160    -0.7150 C.3   1 <1>   0.2950 
 16 O       -5.7210    -3.5920    -0.5250 O.3   1 <1>  -0.5600 
 17 C       -4.8550    -5.7480     0.0580 C.ar  1 <1>  -0.1440 
 18 C       -6.8350    -1.7040    -1.4030 C.3   1 <1>  -0.1950 
 19 C       -3.8190    -6.6470    -0.1530 C.ar  1 <1>  -0.1500 
 20 C       -6.1180    -6.2370     0.3640 C.ar  1 <1>  -0.1500 
 21 C       -7.3150    -0.2870    -1.3120 C.3   1 <1>  -0.2000 
 22 C       -8.1100    -1.3970    -0.6810 C.3   1 <1>  -0.2000 
 23 C       -4.0410    -8.0110    -0.0600 C.ar  1 <1>  -0.1500 
 24 C       -6.3420    -7.6000     0.4570 C.ar  1 <1>  -0.1500 
 25 C       -5.3030    -8.4880     0.2450 C.ar  1 <1>  -0.1500 
 26 H       -1.8010     0.1170    -3.3960 H     1 <1>   0.0800 
 27 H       -1.0150     1.1900    -2.2240 H     1 <1>   0.0800 
 28 H       -2.7420     1.3740    -2.5710 H     1 <1>   0.0800 
 29 H       -2.3520     3.6200     1.0920 H     1 <1>   0.1500 
 30 H       -3.0370     0.2860     3.6530 H     1 <1>   0.1500 
 31 H       -2.7760     2.7410     3.3280 H     1 <1>   0.1500 
 32 H       -3.2720    -4.1410     1.6600 H     1 <1>   0.0800 
 33 H       -4.9500    -3.9520     2.0610 H     1 <1>   0.0800 
 34 H       -6.0830    -1.6130     1.2860 H     1 <1>   0.0800 
 35 H       -5.0390    -0.4940     0.4670 H     1 <1>   0.0800 
 36 H       -3.7770    -4.0800    -0.7280 H     1 <1>   0.0800 
 37 H       -4.7310    -2.0710    -1.3900 H     1 <1>   0.0800 
 38 H       -6.9390    -2.1700    -2.3680 H     1 <1>   0.1000 
 39 H       -2.8310    -6.2910    -0.3900 H     1 <1>   0.1500 
 40 H       -6.9340    -5.5530     0.5260 H     1 <1>   0.1500 
 41 H       -6.8310     0.4210    -0.6630 H     1 <1>   0.1000 
 42 H       -7.7030     0.1800    -2.2020 H     1 <1>   0.1000 
 43 H       -9.0350    -1.7030    -1.1390 H     1 <1>   0.1000 
 44 H       -8.1470    -1.4710     0.3910 H     1 <1>   0.1000 
 45 H       -3.2310    -8.6990    -0.2260 H     1 <1>   0.1500 
 46 H       -7.3250    -7.9670     0.6920 H     1 <1>   0.1500 
 47 H       -5.4760    -9.5470     0.3170 H     1 <1>   0.1500 
@<TRIPOS>BOND
  1   1   2  1   
  2   1   3  1   
  3   2   4  ar  
  4   2   5  ar  
  5   3  26  1   
  6   3  27  1   
  7   3  28  1   
  8   4   6  ar  
  9   5   7  1   
 10   5   8  ar  
 11   6   9  ar  
 12   6  29  1   
 13   7  10  2   
 14   7  11  am  
 15   8   9  ar  
 16   8  30  1   
 17   9  31  1   
 18  11  12  1   
 19  11  13  1   
 20  12  14  1   
 21  12  32  1   
 22  12  33  1   
 23  13  15  1   
 24  13  34  1   
 25  13  35  1   
 26  14  16  1   
 27  14  17  1   
 28  14  36  1   
 29  15  16  1   
 30  15  18  1   
 31  15  37  1   
 32  17  19  ar  
 33  17  20  ar  
 34  18  21  1   
 35  18  22  1   
 36  18  38  1   
 37  19  23  ar  
 38  19  39  1   
 39  20  24  ar  
 40  20  40  1   
 41  21  22  1   
 42  21  41  1   
 43  21  42  1   
 44  22  43  1   
 45  22  44  1   
 46  23  25  ar  
 47  23  45  1   
 48  24  25  ar  
 49  24  46  1   
 50  25  47  1   
@<TRIPOS>SUBSTRUCTURE
  1 ****  11 GROUP 4 **** **** 0

# MOE 2024.06 (io_trps.svl 2023.06)
