@<TRIPOS>MOLECULE
NONAME
50 53 1 0 0 
SMALL
USER_CHARGES


@<TRIPOS>ATOM
  1 S       -0.3330     0.1090     1.2200 S.3   1 <1>  -0.0800 
  2 C        0.9690    -0.9230     0.6660 C.2   1 <1>  -0.0450 
  3 C        0.5920     1.5190     0.7750 C.2   1 <1>   0.1980 
  4 C        1.9560    -0.1080     0.2260 C.2   1 <1>   0.0460 
  5 C        0.8480    -2.3540     0.7750 C.2   1 <1>   0.7150 
  6 N        1.7330     1.2510     0.2790 N.2   1 <1>  -0.5650 
  7 C       -0.0590     2.8710     1.0260 C.3   1 <1>   0.0200 
  8 C        3.3000    -0.5370    -0.3250 C.3   1 <1>  -0.0590 
  9 O        1.7800    -3.0030     1.2140 O.2   1 <1>  -0.5700 
 10 N       -0.2820    -3.0320     0.3670 N.am  1 <1>  -0.6600 
 11 C        0.8200     4.0520     0.5930 C.3   1 <1>  -0.2400 
 12 C       -1.2460    -2.5210    -0.6450 C.3   1 <1>   0.1400 
 13 C       -0.4090    -4.5090     0.4870 C.3   1 <1>   0.1400 
 14 C       -2.2210    -3.6750    -0.8700 C.3   1 <1>   0.2000 
 15 C       -1.3680    -4.9260    -0.6350 C.3   1 <1>  -0.0800 
 16 O       -3.2120    -3.5940     0.0980 O.3   1 <1>  -0.6800 
 17 C       -2.1740    -6.2070    -0.3320 C.3   1 <1>  -0.0170 
 18 C       -1.3760    -7.5130    -0.2200 C.ar  1 <1>  -0.1430 
 19 C       -2.0120    -8.6820     0.2690 C.ar  1 <1>   0.0000 
 20 C       -0.0620    -7.6300    -0.5790 C.ar  1 <1>  -0.1500 
 21 C       -1.2390    -9.8650     0.3770 C.ar  1 <1>   0.3100 
 22 C       -3.3730    -8.7510     0.6520 C.ar  1 <1>  -0.1500 
 23 C        0.6090    -8.8500    -0.4370 C.ar  1 <1>   0.1600 
 24 N        0.0670    -9.9320     0.0220 N.ar  1 <1>  -0.6200 
 25 C       -1.8430   -11.0330     0.8700 C.ar  1 <1>  -0.1500 
 26 C       -3.9320    -9.9070     1.1260 C.ar  1 <1>  -0.1500 
 27 C       -3.1590   -11.0640     1.2400 C.ar  1 <1>  -0.1500 
 28 H       -0.9900     2.9070     0.4900 H     1 <1>   0.0800 
 29 H       -0.2730     2.9560     2.0760 H     1 <1>   0.0800 
 30 H        3.3850    -1.6080    -0.3530 H     1 <1>   0.0800 
 31 H        4.0830    -0.1440     0.2960 H     1 <1>   0.0800 
 32 H        3.4220    -0.1520    -1.3210 H     1 <1>   0.0800 
 33 H        1.0340     3.9860    -0.4590 H     1 <1>   0.0800 
 34 H        1.7510     4.0360     1.1320 H     1 <1>   0.0800 
 35 H        0.3200     4.9830     0.7900 H     1 <1>   0.0800 
 36 H       -1.7640    -1.6400    -0.3100 H     1 <1>   0.0800 
 37 H       -0.7160    -2.3030    -1.5560 H     1 <1>   0.0800 
 38 H        0.5490    -4.9910     0.3890 H     1 <1>   0.0800 
 39 H       -0.8230    -4.7460     1.4520 H     1 <1>   0.0800 
 40 H       -2.6890    -3.6500    -1.8400 H     1 <1>   0.0800 
 41 H       -0.7920    -5.0810    -1.5300 H     1 <1>   0.0800 
 42 H       -2.7930    -3.4360     0.9680 H     1 <1>   0.4000 
 43 H       -2.9140    -6.3340    -1.1030 H     1 <1>   0.0800 
 44 H       -2.6980    -6.0570     0.5950 H     1 <1>   0.0800 
 45 H        0.5100    -6.8160    -0.9790 H     1 <1>   0.1500 
 46 H       -3.9940    -7.8790     0.5690 H     1 <1>   0.1500 
 47 H        1.6450    -8.8910    -0.7290 H     1 <1>   0.1500 
 48 H       -1.2280   -11.9110     0.9450 H     1 <1>   0.1500 
 49 H       -4.9690    -9.9400     1.4140 H     1 <1>   0.1500 
 50 H       -3.6090   -11.9670     1.6150 H     1 <1>   0.1500 
@<TRIPOS>BOND
  1   1   2  1   
  2   1   3  1   
  3   2   4  2   
  4   2   5  1   
  5   3   6  2   
  6   3   7  1   
  7   4   6  1   
  8   4   8  1   
  9   5   9  2   
 10   5  10  am  
 11   7  11  1   
 12   7  28  1   
 13   7  29  1   
 14   8  30  1   
 15   8  31  1   
 16   8  32  1   
 17  10  12  1   
 18  10  13  1   
 19  11  33  1   
 20  11  34  1   
 21  11  35  1   
 22  12  14  1   
 23  12  36  1   
 24  12  37  1   
 25  13  15  1   
 26  13  38  1   
 27  13  39  1   
 28  14  15  1   
 29  14  16  1   
 30  14  40  1   
 31  15  17  1   
 32  15  41  1   
 33  16  42  1   
 34  17  18  1   
 35  17  43  1   
 36  17  44  1   
 37  18  19  ar  
 38  18  20  ar  
 39  19  21  ar  
 40  19  22  ar  
 41  20  23  ar  
 42  20  45  1   
 43  21  24  ar  
 44  21  25  ar  
 45  22  26  ar  
 46  22  46  1   
 47  23  24  ar  
 48  23  47  1   
 49  25  27  ar  
 50  25  48  1   
 51  26  27  ar  
 52  26  49  1   
 53  27  50  1   
@<TRIPOS>SUBSTRUCTURE
  1 ****  13 GROUP 4 **** **** 0

# MOE 2024.06 (io_trps.svl 2023.06)
