@<TRIPOS>MOLECULE
NONAME
42 43 1 0 0 
SMALL
USER_CHARGES


@<TRIPOS>ATOM
  1 O       -0.8540    -0.5640     0.4700 O.2   1 <1>  -0.5700 
  2 C       -1.4170     0.4860     0.7100 C.2   1 <1>   0.5690 
  3 N       -2.7190     0.4470     1.1740 N.am  1 <1>  -0.6600 
  4 C       -0.6180     1.8070     0.4740 C.3   1 <1>   0.2040 
  5 C       -3.3160    -0.8680     1.5690 C.3   1 <1>   0.3200 
  6 C       -3.6590     1.6070     1.3200 C.3   1 <1>   0.1400 
  7 C       -1.3460     2.7060    -0.5480 C.ar  1 <1>  -0.1440 
  8 C        0.7820     1.5290    -0.1250 C.3   1 <1>  -0.2400 
  9 C       -0.3520     2.4900     1.8370 C.3   1 <1>  -0.2400 
 10 C       -3.8740    -1.6000     0.3600 C.2   1 <1>   0.0060 
 11 C       -4.6820     1.6740     0.1780 C.3   1 <1>   0.1200 
 12 C       -1.7420     2.1510    -1.7600 C.ar  1 <1>  -0.1500 
 13 C       -1.6240     4.0520    -0.3210 C.ar  1 <1>  -0.1500 
 14 N       -5.1160    -1.9290     0.1920 N.2   1 <1>  -0.5650 
 15 N       -3.0740    -1.9710    -0.6600 N.pl3 1 <1>   0.0330 
 16 O       -5.6900     2.5620     0.5290 O.3   1 <1>  -0.6800 
 17 C       -2.4040     2.9060    -2.7120 C.ar  1 <1>  -0.1500 
 18 C       -2.2890     4.8080    -1.2710 C.ar  1 <1>  -0.1500 
 19 C       -5.1240    -2.5460    -1.0060 C.2   1 <1>   0.0770 
 20 C       -3.8840    -2.5800    -1.5430 C.2   1 <1>  -0.3020 
 21 C       -2.6810     4.2370    -2.4660 C.ar  1 <1>  -0.1500 
 22 H       -4.1040    -0.7190     2.2850 H     1 <1>   0.0800 
 23 H       -2.5660    -1.4830     2.0360 H     1 <1>   0.0800 
 24 H       -3.1260     2.5360     1.3390 H     1 <1>   0.0800 
 25 H       -4.1790     1.5130     2.2560 H     1 <1>   0.0800 
 26 H        0.6990     0.9970    -1.0550 H     1 <1>   0.0800 
 27 H        1.3710     0.9320     0.5480 H     1 <1>   0.0800 
 28 H        1.3010     2.4520    -0.3110 H     1 <1>   0.0800 
 29 H       -1.2610     2.8030     2.3130 H     1 <1>   0.0800 
 30 H        0.2830     3.3500     1.7150 H     1 <1>   0.0800 
 31 H        0.1440     1.8020     2.4980 H     1 <1>   0.0800 
 32 H       -5.1380     0.7200    -0.0140 H     1 <1>   0.0800 
 33 H       -4.2200     2.0410    -0.7200 H     1 <1>   0.0800 
 34 H       -1.5400     1.1160    -1.9750 H     1 <1>   0.1500 
 35 H       -1.3350     4.5390     0.5910 H     1 <1>   0.1500 
 36 H       -2.0620    -1.7830    -0.7040 H     1 <1>   0.2700 
 37 H       -6.3730     2.1080     1.0600 H     1 <1>   0.4000 
 38 H       -2.7050     2.4570    -3.6420 H     1 <1>   0.1500 
 39 H       -2.5030     5.8450    -1.0780 H     1 <1>   0.1500 
 40 H       -6.0350    -2.9390    -1.4260 H     1 <1>   0.1500 
 41 H       -3.5440    -2.9920    -2.4750 H     1 <1>   0.1500 
 42 H       -3.2000     4.8260    -3.2020 H     1 <1>   0.1500 
@<TRIPOS>BOND
  1   1   2  2   
  2   2   3  am  
  3   2   4  1   
  4   3   5  1   
  5   3   6  1   
  6   4   7  1   
  7   4   8  1   
  8   4   9  1   
  9   5  10  1   
 10   5  22  1   
 11   5  23  1   
 12   6  11  1   
 13   6  24  1   
 14   6  25  1   
 15   7  12  ar  
 16   7  13  ar  
 17   8  26  1   
 18   8  27  1   
 19   8  28  1   
 20   9  29  1   
 21   9  30  1   
 22   9  31  1   
 23  10  14  2   
 24  10  15  1   
 25  11  16  1   
 26  11  32  1   
 27  11  33  1   
 28  12  17  ar  
 29  12  34  1   
 30  13  18  ar  
 31  13  35  1   
 32  14  19  1   
 33  15  20  1   
 34  15  36  1   
 35  16  37  1   
 36  17  21  ar  
 37  17  38  1   
 38  18  21  ar  
 39  18  39  1   
 40  19  20  2   
 41  19  40  1   
 42  20  41  1   
 43  21  42  1   
@<TRIPOS>SUBSTRUCTURE
  1 ****   3 GROUP 4 **** **** 0

# MOE 2024.06 (io_trps.svl 2023.06)
