@<TRIPOS>MOLECULE
NONAME
55 59 1 0 0 
SMALL
USER_CHARGES


@<TRIPOS>ATOM
  1 O        0.0670     1.0140    -1.6560 O.2   1 <1>  -0.5700 
  2 C       -0.5060     1.8200    -0.9430 C.2   1 <1>   0.7160 
  3 N       -1.8630     1.6720    -0.7300 N.am  1 <1>  -0.6600 
  4 C        0.2330     2.9250    -0.3700 C.2   1 <1>  -0.0860 
  5 C       -2.7050     2.7340    -0.1000 C.3   1 <1>   0.1400 
  6 C       -2.6200     0.5280    -1.3260 C.3   1 <1>   0.1400 
  7 C        0.4170     3.3020     0.9410 C.2   1 <1>  -0.3320 
  8 C        0.9320     3.8820    -1.1300 C.2   1 <1>  -0.1500 
  9 C       -3.6680     3.3570    -1.1320 C.3   1 <1>   0.1440 
 10 C       -4.1090     0.8610    -1.5280 C.3   1 <1>  -0.1600 
 11 N        1.1650     4.4320     1.0010 N.pl3 1 <1>   0.0480 
 12 C       -0.0950     2.5850     2.1810 C.3   1 <1>  -0.0600 
 13 C        1.4750     4.7800    -0.2730 C.2   1 <1>  -0.3020 
 14 C       -4.7100     4.1380    -0.3490 C.ar  1 <1>   0.1670 
 15 C       -4.2880     2.2880    -2.0730 C.3   1 <1>  -0.1600 
 16 C       -2.9680     4.4810    -1.9400 C.3   1 <1>  -0.1600 
 17 C        1.6030     5.1510     2.2100 C.3   1 <1>   0.0160 
 18 N       -5.7180     3.6170     0.3080 N.ar  1 <1>  -0.6200 
 19 C       -4.4610     5.4760    -0.3820 C.ar  1 <1>  -0.1440 
 20 C       -3.2290     5.7980    -1.1900 C.3   1 <1>  -0.0170 
 21 C       -6.5160     4.4870     0.9420 C.ar  1 <1>   0.6200 
 22 C       -5.3200     6.3010     0.2950 C.ar  1 <1>   0.1600 
 23 N       -6.3470     5.8170     0.9570 N.ar  1 <1>  -0.6200 
 24 C       -7.6530     3.9420     1.6740 C.ar  1 <1>   0.0000 
 25 C       -8.8140     4.6920     1.8900 C.ar  1 <1>  -0.1500 
 26 C       -7.6380     2.6440     2.1950 C.ar  1 <1>  -0.1500 
 27 C       -9.8950     4.1790     2.5840 C.ar  1 <1>  -0.1500 
 28 C       -8.7150     2.1240     2.8890 C.ar  1 <1>  -0.1500 
 29 C       -9.8480     2.8920     3.0860 C.ar  1 <1>  -0.1500 
 30 H       -2.1070     3.5080     0.3420 H     1 <1>   0.0800 
 31 H       -3.2750     2.2830     0.6940 H     1 <1>   0.0800 
 32 H       -2.5180    -0.3350    -0.6900 H     1 <1>   0.0800 
 33 H       -2.1880     0.2850    -2.2830 H     1 <1>   0.0800 
 34 H        1.0030     3.8630    -2.2040 H     1 <1>   0.1500 
 35 H       -4.6310     0.7620    -0.5920 H     1 <1>   0.0800 
 36 H       -4.5400     0.1510    -2.2110 H     1 <1>   0.0800 
 37 H       -0.6140     1.6830     1.9100 H     1 <1>   0.0800 
 38 H       -0.7720     3.2190     2.7260 H     1 <1>   0.0800 
 39 H        0.7270     2.3190     2.8200 H     1 <1>   0.0800 
 40 H        2.0740     5.6430    -0.5050 H     1 <1>   0.1500 
 41 H       -3.8040     2.3260    -3.0330 H     1 <1>   0.0800 
 42 H       -5.3330     2.4940    -2.2290 H     1 <1>   0.0800 
 43 H       -3.4240     4.5640    -2.9110 H     1 <1>   0.0800 
 44 H       -1.9160     4.2960    -2.0740 H     1 <1>   0.0800 
 45 H        0.7460     5.3870     2.8130 H     1 <1>   0.0800 
 46 H        2.1030     6.0590     1.9280 H     1 <1>   0.0800 
 47 H        2.2780     4.5270     2.7650 H     1 <1>   0.0800 
 48 H       -3.3940     6.6160    -1.8690 H     1 <1>   0.0800 
 49 H       -2.4090     6.0270    -0.5300 H     1 <1>   0.0800 
 50 H       -5.1650     7.3660     0.2970 H     1 <1>   0.1500 
 51 H       -8.8700     5.6960     1.5070 H     1 <1>   0.1500 
 52 H       -6.7650     2.0310     2.0530 H     1 <1>   0.1500 
 53 H      -10.7730     4.7820     2.7330 H     1 <1>   0.1500 
 54 H       -8.6720     1.1210     3.2770 H     1 <1>   0.1500 
 55 H      -10.6880     2.4900     3.6260 H     1 <1>   0.1500 
@<TRIPOS>BOND
  1   1   2  2   
  2   2   3  am  
  3   2   4  1   
  4   3   5  1   
  5   3   6  1   
  6   4   7  2   
  7   4   8  1   
  8   5   9  1   
  9   5  30  1   
 10   5  31  1   
 11   6  10  1   
 12   6  32  1   
 13   6  33  1   
 14   7  11  1   
 15   7  12  1   
 16   8  13  2   
 17   8  34  1   
 18   9  14  1   
 19   9  15  1   
 20   9  16  1   
 21  10  15  1   
 22  10  35  1   
 23  10  36  1   
 24  11  13  1   
 25  11  17  1   
 26  12  37  1   
 27  12  38  1   
 28  12  39  1   
 29  13  40  1   
 30  14  18  ar  
 31  14  19  ar  
 32  15  41  1   
 33  15  42  1   
 34  16  20  1   
 35  16  43  1   
 36  16  44  1   
 37  17  45  1   
 38  17  46  1   
 39  17  47  1   
 40  18  21  ar  
 41  19  20  1   
 42  19  22  ar  
 43  20  48  1   
 44  20  49  1   
 45  21  23  ar  
 46  21  24  1   
 47  22  23  ar  
 48  22  50  1   
 49  24  25  ar  
 50  24  26  ar  
 51  25  27  ar  
 52  25  51  1   
 53  26  28  ar  
 54  26  52  1   
 55  27  29  ar  
 56  27  53  1   
 57  28  29  ar  
 58  28  54  1   
 59  29  55  1   
@<TRIPOS>SUBSTRUCTURE
  1 ****   5 GROUP 4 **** **** 0

# MOE 2024.06 (io_trps.svl 2023.06)
