@<TRIPOS>MOLECULE
NONAME
48 50 1 0 0 
SMALL
USER_CHARGES


@<TRIPOS>ATOM
  1 F       -1.7290    -0.5970    -0.8820 F     1 <1>  -0.1900 
  2 C       -1.9790    -1.8230    -0.4980 C.ar  1 <1>   0.1900 
  3 C       -1.0590    -2.8610    -0.6810 C.ar  1 <1>   0.0820 
  4 C       -3.2030    -2.0420     0.1040 C.ar  1 <1>  -0.1500 
  5 O        0.1730    -2.7730    -1.2610 O.3   1 <1>  -0.3630 
  6 C       -1.4160    -4.1220    -0.2340 C.ar  1 <1>  -0.1500 
  7 C       -3.5260    -3.3140     0.5370 C.ar  1 <1>  -0.1500 
  8 C        0.6650    -1.5880    -1.8460 C.3   1 <1>   0.0400 
  9 C       -2.6440    -4.3860     0.3780 C.ar  1 <1>   0.0530 
 10 C       -2.9750    -5.7190     0.8290 C.2   1 <1>   0.0870 
 11 O       -2.0240    -6.6110     1.0000 O.3   1 <1>  -0.0190 
 12 C       -4.1440    -6.3410     1.1310 C.2   1 <1>  -0.2330 
 13 N       -2.4780    -7.7740     1.3930 N.2   1 <1>  -0.4100 
 14 C       -3.7460    -7.6220     1.4990 C.2   1 <1>   0.3720 
 15 C       -5.5140    -5.9670     1.0140 C.2   1 <1>   1.0330 
 16 N       -4.6290    -8.6150     1.8990 N.pl3 1 <1>  -0.8520 
 17 O       -5.9210    -5.3200     0.0420 O.co2 1 <1>  -0.9000 
 18 O       -6.3970    -6.5040     1.7110 O.co2 1 <1>  -0.9000 
 19 C       -4.7550    -9.8090     1.0290 C.3   1 <1>   0.2090 
 20 C       -6.0510    -9.8090     0.1780 C.3   1 <1>   0.0000 
 21 C       -6.1260    -8.5810    -0.7470 C.3   1 <1>   0.3430 
 22 C       -7.3370    -9.7350     1.0270 C.3   1 <1>  -0.1600 
 23 C       -6.0860   -11.0860    -0.6850 C.3   1 <1>  -0.2400 
 24 N       -7.3970    -7.8900    -0.4160 N.4   1 <1>  -0.9590 
 25 C       -8.2920    -8.8520     0.2380 C.3   1 <1>   0.3430 
 26 C       -7.9550    -7.0430    -1.4980 C.3   1 <1>   0.2630 
 27 H       -3.8940    -1.2280     0.2300 H     1 <1>   0.1500 
 28 H       -0.7130    -4.9240    -0.3710 H     1 <1>   0.1500 
 29 H       -4.4830    -3.4740     1.0030 H     1 <1>   0.1500 
 30 H        1.6300    -1.7990    -2.2690 H     1 <1>   0.0800 
 31 H        0.7580    -0.8340    -1.0850 H     1 <1>   0.0800 
 32 H       -0.0120    -1.2730    -2.6210 H     1 <1>   0.0800 
 33 H       -5.5410    -8.1560     2.0890 H     1 <1>   0.4000 
 34 H       -4.7440   -10.6810     1.6610 H     1 <1>   0.0800 
 35 H       -3.8940    -9.8710     0.3830 H     1 <1>   0.0800 
 36 H       -6.1330    -8.8970    -1.7770 H     1 <1>   0.0800 
 37 H       -5.2890    -7.9200    -0.5930 H     1 <1>   0.0800 
 38 H       -7.1560    -9.2570     1.9740 H     1 <1>   0.0800 
 39 H       -7.7700   -10.7000     1.2240 H     1 <1>   0.0800 
 40 H       -5.2280   -11.1280    -1.3330 H     1 <1>   0.0800 
 41 H       -6.9720   -11.1160    -1.2950 H     1 <1>   0.0800 
 42 H       -6.0760   -11.9630    -0.0610 H     1 <1>   0.0800 
 43 H       -7.1320    -7.2030     0.3420 H     1 <1>   0.4500 
 44 H       -8.9980    -8.3530     0.8830 H     1 <1>   0.0800 
 45 H       -8.8110    -9.4350    -0.5030 H     1 <1>   0.0800 
 46 H       -8.2130    -7.6410    -2.3550 H     1 <1>   0.0800 
 47 H       -7.2250    -6.3020    -1.7860 H     1 <1>   0.0800 
 48 H       -8.8320    -6.5260    -1.1450 H     1 <1>   0.0800 
@<TRIPOS>BOND
  1   1   2  1   
  2   2   3  ar  
  3   2   4  ar  
  4   3   5  1   
  5   3   6  ar  
  6   4   7  ar  
  7   4  27  1   
  8   5   8  1   
  9   6   9  ar  
 10   6  28  1   
 11   7   9  ar  
 12   7  29  1   
 13   8  30  1   
 14   8  31  1   
 15   8  32  1   
 16   9  10  1   
 17  10  11  1   
 18  10  12  2   
 19  11  13  1   
 20  12  14  1   
 21  12  15  1   
 22  13  14  2   
 23  14  16  1   
 24  15  17  ar  
 25  15  18  ar  
 26  16  19  1   
 27  16  33  1   
 28  19  20  1   
 29  19  34  1   
 30  19  35  1   
 31  20  21  1   
 32  20  22  1   
 33  20  23  1   
 34  21  24  1   
 35  21  36  1   
 36  21  37  1   
 37  22  25  1   
 38  22  38  1   
 39  22  39  1   
 40  23  40  1   
 41  23  41  1   
 42  23  42  1   
 43  24  25  1   
 44  24  26  1   
 45  24  43  1   
 46  25  44  1   
 47  25  45  1   
 48  26  46  1   
 49  26  47  1   
 50  26  48  1   
@<TRIPOS>SUBSTRUCTURE
  1 ****  12 GROUP 4 **** **** 0

# MOE 2024.06 (io_trps.svl 2023.06)
