@<TRIPOS>MOLECULE
NONAME
57 60 1 0 0 
SMALL
USER_CHARGES


@<TRIPOS>ATOM
  1 O       -0.7470     0.1420     0.5150 O.2   1 <1>  -0.5700 
  2 C       -1.8090     0.6630     0.2620 C.2   1 <1>   0.5690 
  3 N       -2.8670    -0.0560    -0.2220 N.am  1 <1>  -0.6600 
  4 C       -1.9100     2.1810     0.4950 C.3   1 <1>   0.4040 
  5 C       -4.2240     0.4520    -0.5610 C.3   1 <1>   0.1400 
  6 C       -2.8070    -1.5300    -0.4050 C.3   1 <1>   0.1400 
  7 N       -0.5610     2.8670     0.4960 N.4   1 <1>  -0.9590 
  8 C       -4.9940    -0.7680    -1.0670 C.3   1 <1>   0.2000 
  9 C       -4.2640    -1.9840    -0.5020 C.3   1 <1>  -0.0800 
 10 C       -0.5850     4.1560     1.2500 C.3   1 <1>   0.4230 
 11 C        0.0200     2.9140    -0.8840 C.3   1 <1>   0.2630 
 12 O       -6.3070    -0.7510    -0.6280 O.3   1 <1>  -0.6800 
 13 C       -4.4600    -3.2520    -1.3500 C.3   1 <1>  -0.0170 
 14 C       -1.3100     5.2720     0.4950 C.3   1 <1>  -0.1600 
 15 C        0.8280     4.6980     1.4590 C.3   1 <1>  -0.1600 
 16 C       -3.7120    -4.4370    -0.7470 C.ar  1 <1>  -0.1440 
 17 C       -0.2500     6.0510    -0.2930 C.3   1 <1>  -0.1600 
 18 C        1.1030     5.7150     0.3430 C.3   1 <1>  -0.1600 
 19 C       -4.1940    -5.1410     0.3830 C.ar  1 <1>   0.0000 
 20 C       -2.5300    -4.8490    -1.2890 C.ar  1 <1>  -0.1500 
 21 C       -3.4000    -6.2020     0.8840 C.ar  1 <1>   0.3100 
 22 C       -5.4130    -4.8580     1.0430 C.ar  1 <1>  -0.1500 
 23 C       -1.8290    -5.9200    -0.7220 C.ar  1 <1>   0.1600 
 24 N       -2.2250    -6.5780     0.3210 N.ar  1 <1>  -0.6200 
 25 C       -3.8420    -6.9060     2.0160 C.ar  1 <1>  -0.1500 
 26 C       -5.8160    -5.5660     2.1420 C.ar  1 <1>  -0.1500 
 27 C       -5.0210    -6.6010     2.6390 C.ar  1 <1>  -0.1500 
 28 H       -2.3850     2.3260     1.4500 H     1 <1>   0.0800 
 29 H       -2.5380     2.6130    -0.2620 H     1 <1>   0.0800 
 30 H       -4.6920     0.8510     0.3230 H     1 <1>   0.0800 
 31 H       -4.1710     1.2020    -1.3310 H     1 <1>   0.0800 
 32 H       -2.2750    -1.7480    -1.3170 H     1 <1>   0.0800 
 33 H       -2.3020    -2.0070     0.4200 H     1 <1>   0.0800 
 34 H        0.0430     2.2140     1.0260 H     1 <1>   0.4500 
 35 H       -4.9980    -0.7760    -2.1450 H     1 <1>   0.0800 
 36 H       -4.6000    -2.1650     0.5040 H     1 <1>   0.0800 
 37 H       -1.0520     3.9940     2.2090 H     1 <1>   0.0800 
 38 H       -0.5780     3.5400    -1.5240 H     1 <1>   0.0800 
 39 H        0.0610     1.9210    -1.3040 H     1 <1>   0.0800 
 40 H        1.0220     3.3080    -0.8530 H     1 <1>   0.0800 
 41 H       -6.3590    -0.9070     0.3350 H     1 <1>   0.4000 
 42 H       -4.1050    -3.0730    -2.3500 H     1 <1>   0.0800 
 43 H       -5.5080    -3.4850    -1.4320 H     1 <1>   0.0800 
 44 H       -2.1090     4.9210    -0.1320 H     1 <1>   0.0800 
 45 H       -1.7310     5.9400     1.2270 H     1 <1>   0.0800 
 46 H        0.8420     5.2260     2.3970 H     1 <1>   0.0800 
 47 H        1.5740     3.9250     1.5040 H     1 <1>   0.0800 
 48 H       -0.2540     5.7550    -1.3280 H     1 <1>   0.0800 
 49 H       -0.4440     7.1110    -0.2490 H     1 <1>   0.0800 
 50 H        1.5650     6.6010     0.7470 H     1 <1>   0.0800 
 51 H        1.7680     5.3010    -0.3960 H     1 <1>   0.0800 
 52 H       -2.1050    -4.3720    -2.1530 H     1 <1>   0.1500 
 53 H       -6.0450    -4.0730     0.6740 H     1 <1>   0.1500 
 54 H       -0.9000    -6.2140    -1.1820 H     1 <1>   0.1500 
 55 H       -3.2150    -7.7000     2.3780 H     1 <1>   0.1500 
 56 H       -6.7460    -5.3400     2.6360 H     1 <1>   0.1500 
 57 H       -5.3470    -7.1500     3.5060 H     1 <1>   0.1500 
@<TRIPOS>BOND
  1   1   2  2   
  2   2   3  am  
  3   2   4  1   
  4   3   5  1   
  5   3   6  1   
  6   4   7  1   
  7   4  28  1   
  8   4  29  1   
  9   5   8  1   
 10   5  30  1   
 11   5  31  1   
 12   6   9  1   
 13   6  32  1   
 14   6  33  1   
 15   7  10  1   
 16   7  11  1   
 17   7  34  1   
 18   8   9  1   
 19   8  12  1   
 20   8  35  1   
 21   9  13  1   
 22   9  36  1   
 23  10  14  1   
 24  10  15  1   
 25  10  37  1   
 26  11  38  1   
 27  11  39  1   
 28  11  40  1   
 29  12  41  1   
 30  13  16  1   
 31  13  42  1   
 32  13  43  1   
 33  14  17  1   
 34  14  44  1   
 35  14  45  1   
 36  15  18  1   
 37  15  46  1   
 38  15  47  1   
 39  16  19  ar  
 40  16  20  ar  
 41  17  18  1   
 42  17  48  1   
 43  17  49  1   
 44  18  50  1   
 45  18  51  1   
 46  19  21  ar  
 47  19  22  ar  
 48  20  23  ar  
 49  20  52  1   
 50  21  24  ar  
 51  21  25  ar  
 52  22  26  ar  
 53  22  53  1   
 54  23  24  ar  
 55  23  54  1   
 56  25  27  ar  
 57  25  55  1   
 58  26  27  ar  
 59  26  56  1   
 60  27  57  1   
@<TRIPOS>SUBSTRUCTURE
  1 ****   6 GROUP 4 **** **** 0

# MOE 2024.06 (io_trps.svl 2023.06)
