@<TRIPOS>MOLECULE
NONAME
45 48 1 0 0 
SMALL
USER_CHARGES


@<TRIPOS>ATOM
  1 O       -0.4730     0.2840     0.9560 O.2   1 <1>  -0.5700 
  2 C       -1.4340     0.8670     0.4910 C.2   1 <1>   0.7030 
  3 N       -2.5070     0.1140     0.0630 N.am  1 <1>  -0.6600 
  4 C       -1.4030     2.3160     0.3880 C.2   1 <1>   0.2770 
  5 C       -3.4060     0.4730    -1.0700 C.3   1 <1>   0.1400 
  6 C       -2.6260    -1.3450     0.3450 C.3   1 <1>   0.1400 
  7 N       -0.3010     3.0600    -0.0500 N.pl3 1 <1>  -0.6290 
  8 C       -2.3710     3.2260     0.6980 C.2   1 <1>   0.1820 
  9 C       -4.4390    -0.6490    -1.1060 C.3   1 <1>   0.2000 
 10 C       -3.6420    -1.8840    -0.6740 C.3   1 <1>  -0.0800 
 11 C       -0.6490     4.3550    -0.0080 C.cat 1 <1>   0.9620 
 12 C        0.9690     2.7070    -0.4160 C.2   1 <1>   0.2290 
 13 N       -1.8930     4.4700     0.4300 N.pl3 1 <1>  -0.7000 
 14 C       -3.7630     3.0480     1.2800 C.3   1 <1>  -0.0720 
 15 O       -5.4140    -0.3610    -0.1620 O.3   1 <1>  -0.6800 
 16 C       -4.4920    -3.0580    -0.1510 C.3   1 <1>   0.0200 
 17 N        0.1450     5.3710    -0.3450 N.2   1 <1>  -0.6120 
 18 C        1.8150     3.7120    -0.7570 C.2   1 <1>  -0.1360 
 19 C       -3.6680    -4.2950     0.1660 C.2   1 <1>  -0.0400 
 20 C        1.3470     5.0380    -0.7080 C.2   1 <1>   0.3760 
 21 O       -4.2370    -5.2720     0.8200 O.3   1 <1>  -0.0190 
 22 C       -2.3990    -4.6580    -0.0840 C.2   1 <1>  -0.1500 
 23 N       -3.4200    -6.2630     1.0250 N.2   1 <1>  -0.4100 
 24 C       -2.3040    -5.9220     0.4900 C.2   1 <1>   0.1080 
 25 C       -1.0620    -6.7850     0.4920 C.3   1 <1>  -0.0590 
 26 H       -3.8790     1.4310    -0.9460 H     1 <1>   0.0800 
 27 H       -2.8390     0.4680    -1.9850 H     1 <1>   0.0800 
 28 H       -1.6730    -1.8380     0.2430 H     1 <1>   0.0800 
 29 H       -2.9830    -1.4820     1.3530 H     1 <1>   0.0800 
 30 H       -4.9140    -0.7550    -2.0670 H     1 <1>   0.0800 
 31 H       -3.0910    -2.2260    -1.5320 H     1 <1>   0.0800 
 32 H        1.2520     1.6640    -0.4170 H     1 <1>   0.1500 
 33 H       -2.3300     5.3850     0.5480 H     1 <1>   0.4500 
 34 H       -3.9530     2.0180     1.5220 H     1 <1>   0.0800 
 35 H       -4.5050     3.3810     0.5770 H     1 <1>   0.0800 
 36 H       -3.8600     3.6260     2.1820 H     1 <1>   0.0800 
 37 H       -5.0210    -0.3630     0.7320 H     1 <1>   0.4000 
 38 H       -5.2330    -3.3220    -0.8850 H     1 <1>   0.0800 
 39 H       -5.0150    -2.7680     0.7440 H     1 <1>   0.0800 
 40 H        2.8300     3.5250    -1.0600 H     1 <1>   0.1500 
 41 H        2.0320     5.8210    -0.9880 H     1 <1>   0.0600 
 42 H       -1.6110    -4.1420    -0.5990 H     1 <1>   0.1500 
 43 H       -0.7220    -6.9390    -0.5150 H     1 <1>   0.0800 
 44 H       -1.2800    -7.7390     0.9360 H     1 <1>   0.0800 
 45 H       -0.2860    -6.3060     1.0600 H     1 <1>   0.0800 
@<TRIPOS>BOND
  1   1   2  2   
  2   2   3  am  
  3   2   4  1   
  4   3   5  1   
  5   3   6  1   
  6   4   7  1   
  7   4   8  2   
  8   5   9  1   
  9   5  26  1   
 10   5  27  1   
 11   6  10  1   
 12   6  28  1   
 13   6  29  1   
 14   7  11  ar  
 15   7  12  1   
 16   8  13  1   
 17   8  14  1   
 18   9  10  1   
 19   9  15  1   
 20   9  30  1   
 21  10  16  1   
 22  10  31  1   
 23  11  13  ar  
 24  11  17  1   
 25  12  18  2   
 26  12  32  1   
 27  13  33  1   
 28  14  34  1   
 29  14  35  1   
 30  14  36  1   
 31  15  37  1   
 32  16  19  1   
 33  16  38  1   
 34  16  39  1   
 35  17  20  2   
 36  18  20  1   
 37  18  40  1   
 38  19  21  1   
 39  19  22  2   
 40  20  41  1   
 41  21  23  1   
 42  22  24  1   
 43  22  42  1   
 44  23  24  2   
 45  24  25  1   
 46  25  43  1   
 47  25  44  1   
 48  25  45  1   
@<TRIPOS>SUBSTRUCTURE
  1 ****   3 GROUP 4 **** **** 0

# MOE 2024.06 (io_trps.svl 2023.06)
