@<TRIPOS>MOLECULE
NONAME
61 64 1 0 0 
SMALL
USER_CHARGES


@<TRIPOS>ATOM
  1 O       -0.9440     1.3610    -0.8680 O.2   1 <1>  -0.5700 
  2 C       -2.1310     1.5830    -0.7660 C.2   1 <1>   0.5690 
  3 N       -3.0720     0.6370    -1.0810 N.am  1 <1>  -0.6600 
  4 C       -2.5330     2.9640    -0.2450 C.3   1 <1>  -0.0190 
  5 C       -2.6840    -0.6350    -1.7650 C.3   1 <1>   0.1400 
  6 C       -4.5400     0.7300    -0.8200 C.3   1 <1>   0.1400 
  7 C       -1.4450     3.9720    -0.5830 C.3   1 <1>   0.3430 
  8 C       -2.5690     2.9990     1.2910 C.3   1 <1>  -0.1600 
  9 C       -3.1200    -1.8340    -0.9210 C.3   1 <1>  -0.1600 
 10 C       -4.9830    -0.4560     0.0400 C.3   1 <1>  -0.1600 
 11 N       -0.4390     3.7640     0.4880 N.4   1 <1>  -0.9590 
 12 C       -1.2050     3.5300     1.7380 C.3   1 <1>   0.3430 
 13 C       -4.6230    -1.8020    -0.6110 C.3   1 <1>   0.4240 
 14 C        0.6120     4.8230     0.6000 C.3   1 <1>   0.3430 
 15 O       -5.2620    -1.8600    -1.8640 O.3   1 <1>  -0.5600 
 16 C       -5.0160    -2.9900     0.2940 C.ar  1 <1>  -0.1430 
 17 C        1.5320     4.8590    -0.6250 C.3   1 <1>   0.1200 
 18 C       -6.5830    -2.3020    -1.8970 C.3   1 <1>   0.1200 
 19 C       -5.9640    -3.9220    -0.1150 C.ar  1 <1>  -0.1430 
 20 C       -4.4290    -3.1480     1.5460 C.ar  1 <1>  -0.1500 
 21 O        2.4370     5.8930    -0.4310 O.3   1 <1>  -0.5600 
 22 C       -6.6240    -3.7660    -1.4700 C.3   1 <1>  -0.0170 
 23 C       -6.3100    -4.9870     0.7020 C.ar  1 <1>  -0.1500 
 24 C       -4.7750    -4.2090     2.3630 C.ar  1 <1>  -0.1500 
 25 C        3.3760     6.0340    -1.4510 C.3   1 <1>   0.0400 
 26 C       -5.7150    -5.1360     1.9500 C.ar  1 <1>   0.0830 
 27 O       -5.9960    -6.1470     2.8090 O.3   1 <1>  -0.3620 
 28 C       -6.9240    -7.1550     2.4770 C.3   1 <1>   0.0400 
 29 H       -3.4590     3.2770    -0.6890 H     1 <1>   0.0800 
 30 H       -1.6200    -0.6800    -1.9260 H     1 <1>   0.0800 
 31 H       -3.1630    -0.6760    -2.7290 H     1 <1>   0.0800 
 32 H       -5.0650     0.7140    -1.7610 H     1 <1>   0.0800 
 33 H       -4.7950     1.6390    -0.3100 H     1 <1>   0.0800 
 34 H       -1.8390     4.9740    -0.5330 H     1 <1>   0.0800 
 35 H       -1.0290     3.7890    -1.5620 H     1 <1>   0.0800 
 36 H       -2.7590     2.0250     1.7090 H     1 <1>   0.0800 
 37 H       -3.3360     3.6700     1.6360 H     1 <1>   0.0800 
 38 H       -2.5500    -1.8310    -0.0110 H     1 <1>   0.0800 
 39 H       -2.8910    -2.7470    -1.4400 H     1 <1>   0.0800 
 40 H       -6.0410    -0.4100     0.2150 H     1 <1>   0.0800 
 41 H       -4.5040    -0.3810     0.9970 H     1 <1>   0.0800 
 42 H        0.0040     2.8550     0.2430 H     1 <1>   0.4500 
 43 H       -0.6960     2.8170     2.3680 H     1 <1>   0.0800 
 44 H       -1.3330     4.4540     2.2790 H     1 <1>   0.0800 
 45 H        1.2210     4.6330     1.4690 H     1 <1>   0.0800 
 46 H        0.1460     5.7870     0.7150 H     1 <1>   0.0800 
 47 H        0.9770     5.0640    -1.5240 H     1 <1>   0.0800 
 48 H        2.0800     3.9370    -0.7170 H     1 <1>   0.0800 
 49 H       -6.9430    -2.1950    -2.9050 H     1 <1>   0.0800 
 50 H       -7.1800    -1.6920    -1.2420 H     1 <1>   0.0800 
 51 H       -3.6940    -2.4490     1.9000 H     1 <1>   0.1500 
 52 H       -6.1060    -4.3650    -2.1970 H     1 <1>   0.0800 
 53 H       -7.6470    -4.0930    -1.4270 H     1 <1>   0.0800 
 54 H       -7.0410    -5.6910     0.3560 H     1 <1>   0.1500 
 55 H       -4.3170    -4.3270     3.3280 H     1 <1>   0.1500 
 56 H        4.0220     6.8570    -1.2010 H     1 <1>   0.0800 
 57 H        2.8710     6.2410    -2.3780 H     1 <1>   0.0800 
 58 H        3.9580     5.1310    -1.5290 H     1 <1>   0.0800 
 59 H       -6.9760    -7.8450     3.3000 H     1 <1>   0.0800 
 60 H       -6.5830    -7.6650     1.5930 H     1 <1>   0.0800 
 61 H       -7.8870    -6.7040     2.3170 H     1 <1>   0.0800 
@<TRIPOS>BOND
  1   1   2  2   
  2   2   3  am  
  3   2   4  1   
  4   3   5  1   
  5   3   6  1   
  6   4   7  1   
  7   4   8  1   
  8   4  29  1   
  9   5   9  1   
 10   5  30  1   
 11   5  31  1   
 12   6  10  1   
 13   6  32  1   
 14   6  33  1   
 15   7  11  1   
 16   7  34  1   
 17   7  35  1   
 18   8  12  1   
 19   8  36  1   
 20   8  37  1   
 21   9  13  1   
 22   9  38  1   
 23   9  39  1   
 24  10  13  1   
 25  10  40  1   
 26  10  41  1   
 27  11  12  1   
 28  11  14  1   
 29  11  42  1   
 30  12  43  1   
 31  12  44  1   
 32  13  15  1   
 33  13  16  1   
 34  14  17  1   
 35  14  45  1   
 36  14  46  1   
 37  15  18  1   
 38  16  19  ar  
 39  16  20  ar  
 40  17  21  1   
 41  17  47  1   
 42  17  48  1   
 43  18  22  1   
 44  18  49  1   
 45  18  50  1   
 46  19  22  1   
 47  19  23  ar  
 48  20  24  ar  
 49  20  51  1   
 50  21  25  1   
 51  22  52  1   
 52  22  53  1   
 53  23  26  ar  
 54  23  54  1   
 55  24  26  ar  
 56  24  55  1   
 57  25  56  1   
 58  25  57  1   
 59  25  58  1   
 60  26  27  1   
 61  27  28  1   
 62  28  59  1   
 63  28  60  1   
 64  28  61  1   
@<TRIPOS>SUBSTRUCTURE
  1 ****   3 GROUP 4 **** **** 0

# MOE 2024.06 (io_trps.svl 2023.06)
