@<TRIPOS>MOLECULE
NONAME
48 51 1 0 0 
SMALL
USER_CHARGES


@<TRIPOS>ATOM
  1 O       -0.1600     0.0600     0.2680 O.2   1 <1>  -0.5700 
  2 C       -0.1030     1.2760     0.2930 C.2   1 <1>   0.6160 
  3 N       -1.2830     1.9920     0.2650 N.am  1 <1>  -0.6600 
  4 C        1.1920     1.9280     0.3400 C.2   1 <1>   0.0140 
  5 C       -2.5870     1.2940     0.4690 C.3   1 <1>   0.1400 
  6 C       -1.3380     3.4270    -0.1490 C.3   1 <1>   0.1400 
  7 C        2.2150     1.5200    -0.4540 C.2   1 <1>  -0.1780 
  8 C        1.3630     2.9980     1.2970 C.2   1 <1>  -0.1500 
  9 C       -3.6510     2.2790     0.9570 C.3   1 <1>  -0.1600 
 10 C       -2.6340     3.7020    -0.9070 C.3   1 <1>  -0.1600 
 11 C        3.5640     2.0240    -0.5260 C.ar  1 <1>   0.0280 
 12 C        2.2050     4.0410     1.2070 C.2   1 <1>  -0.0730 
 13 C       -3.8600     3.4610    -0.0080 C.3   1 <1>   0.4180 
 14 C        3.9360     3.3420    -0.2170 C.ar  1 <1>   0.0830 
 15 C        4.5730     1.1590    -0.9410 C.ar  1 <1>  -0.1500 
 16 O        3.0320     4.2880     0.1640 O.3   1 <1>  -0.1590 
 17 O       -4.0380     4.5860     0.8180 O.3   1 <1>  -0.5600 
 18 C       -5.1040     3.2180    -0.8610 C.2   1 <1>  -0.2880 
 19 C        5.2510     3.7570    -0.3270 C.ar  1 <1>  -0.1500 
 20 C        5.8910     1.5720    -1.0470 C.ar  1 <1>  -0.1500 
 21 C       -4.7230     5.6890     0.2920 C.3   1 <1>   0.1200 
 22 C       -6.1620     4.0300    -0.8990 C.2   1 <1>  -0.2760 
 23 C        6.2340     2.8730    -0.7400 C.ar  1 <1>  -0.1500 
 24 C       -6.1620     5.3090    -0.0830 C.3   1 <1>  -0.0220 
 25 C       -7.4200     3.7720    -1.7100 C.3   1 <1>  -0.1020 
 26 H       -2.4650     0.5080     1.1960 H     1 <1>   0.0800 
 27 H       -2.8940     0.8450    -0.4600 H     1 <1>   0.0800 
 28 H       -0.4980     3.6590    -0.7820 H     1 <1>   0.0800 
 29 H       -1.2920     4.0530     0.7260 H     1 <1>   0.0800 
 30 H        2.0280     0.6930    -1.1160 H     1 <1>   0.1500 
 31 H        0.7200     2.9160     2.1570 H     1 <1>   0.1500 
 32 H       -3.3390     2.6440     1.9190 H     1 <1>   0.0800 
 33 H       -4.5800     1.7580     1.0980 H     1 <1>   0.0800 
 34 H       -2.6710     3.0420    -1.7550 H     1 <1>   0.0800 
 35 H       -2.6340     4.7040    -1.2880 H     1 <1>   0.0800 
 36 H        2.2800     4.8020     1.9630 H     1 <1>   0.1500 
 37 H        4.3270     0.1400    -1.1840 H     1 <1>   0.1500 
 38 H       -5.0450     2.3050    -1.4270 H     1 <1>   0.1500 
 39 H        5.5080     4.7740    -0.0920 H     1 <1>   0.1500 
 40 H        6.6470     0.8770    -1.3680 H     1 <1>   0.1500 
 41 H       -4.1940     6.0460    -0.5730 H     1 <1>   0.0800 
 42 H       -4.7250     6.4620     1.0400 H     1 <1>   0.0800 
 43 H        7.2560     3.2010    -0.8210 H     1 <1>   0.1500 
 44 H       -6.5900     6.1150    -0.6510 H     1 <1>   0.0800 
 45 H       -6.7480     5.1750     0.8080 H     1 <1>   0.0800 
 46 H       -7.5710     4.5620    -2.4240 H     1 <1>   0.0800 
 47 H       -8.2750     3.7220    -1.0590 H     1 <1>   0.0800 
 48 H       -7.3400     2.8410    -2.2420 H     1 <1>   0.0800 
@<TRIPOS>BOND
  1   1   2  2   
  2   2   3  am  
  3   2   4  1   
  4   3   5  1   
  5   3   6  1   
  6   4   7  2   
  7   4   8  1   
  8   5   9  1   
  9   5  26  1   
 10   5  27  1   
 11   6  10  1   
 12   6  28  1   
 13   6  29  1   
 14   7  11  1   
 15   7  30  1   
 16   8  12  2   
 17   8  31  1   
 18   9  13  1   
 19   9  32  1   
 20   9  33  1   
 21  10  13  1   
 22  10  34  1   
 23  10  35  1   
 24  11  14  ar  
 25  11  15  ar  
 26  12  16  1   
 27  12  36  1   
 28  13  17  1   
 29  13  18  1   
 30  14  16  1   
 31  14  19  ar  
 32  15  20  ar  
 33  15  37  1   
 34  17  21  1   
 35  18  22  2   
 36  18  38  1   
 37  19  23  ar  
 38  19  39  1   
 39  20  23  ar  
 40  20  40  1   
 41  21  24  1   
 42  21  41  1   
 43  21  42  1   
 44  22  24  1   
 45  22  25  1   
 46  23  43  1   
 47  24  44  1   
 48  24  45  1   
 49  25  46  1   
 50  25  47  1   
 51  25  48  1   
@<TRIPOS>SUBSTRUCTURE
  1 ****   6 GROUP 4 **** **** 0

# MOE 2024.06 (io_trps.svl 2023.06)
