@<TRIPOS>MOLECULE
NONAME
45 48 1 0 0 
SMALL
USER_CHARGES


@<TRIPOS>ATOM
  1 O       -2.1900    -0.6960    -0.2870 O.3   1 <1>  -0.2800 
  2 C       -1.7100     0.5160    -0.0010 C.ar  1 <1>   0.1400 
  3 C       -1.9330    -1.4810     0.7570 C.2   1 <1>  -0.0400 
  4 C       -1.1300     0.5170     1.2550 C.ar  1 <1>   0.0000 
  5 C       -1.7500     1.6560    -0.7920 C.ar  1 <1>  -0.1500 
  6 C       -1.2880    -0.8030     1.7270 C.2   1 <1>  -0.1500 
  7 C       -2.3780    -2.9330     0.7040 C.3   1 <1>   0.5230 
  8 C       -0.5680     1.6930     1.7510 C.ar  1 <1>  -0.1500 
  9 C       -1.1920     2.8170    -0.2950 C.ar  1 <1>  -0.1500 
 10 N       -3.8720    -2.9970     0.6270 N.4   1 <1>  -0.9590 
 11 C       -0.6040     2.8330     0.9730 C.ar  1 <1>  -0.1500 
 12 C       -4.3770    -2.6030    -0.7330 C.3   1 <1>   0.3430 
 13 C       -4.3530    -4.3830     0.8920 C.3   1 <1>   0.3430 
 14 C       -5.2350    -3.7730    -1.2370 C.3   1 <1>   0.2000 
 15 C       -4.7040    -4.9820    -0.4730 C.3   1 <1>  -0.0800 
 16 O       -6.5660    -3.5700    -0.8920 O.3   1 <1>  -0.6800 
 17 C       -3.4860    -5.5940    -1.2010 C.3   1 <1>   0.0210 
 18 C       -2.6080    -6.4190    -0.2810 C.2   1 <1>   0.1080 
 19 N       -1.7170    -5.8890     0.5020 N.2   1 <1>  -0.7070 
 20 C       -2.6470    -7.8040    -0.1780 C.2   1 <1>  -0.1500 
 21 N       -1.1400    -6.9470     1.1180 N.pl3 1 <1>   0.3000 
 22 C       -1.6960    -8.1120     0.7270 C.2   1 <1>  -0.3320 
 23 C       -1.2700    -9.4750     1.2430 C.3   1 <1>  -0.0600 
 24 H       -2.2060     1.6210    -1.7650 H     1 <1>   0.1500 
 25 H       -0.9360    -1.1360     2.6870 H     1 <1>   0.1500 
 26 H       -2.0360    -3.4390     1.5920 H     1 <1>   0.0800 
 27 H       -1.9330    -3.4230    -0.1460 H     1 <1>   0.0800 
 28 H       -0.1140     1.7010     2.7260 H     1 <1>   0.1500 
 29 H       -1.2060     3.7200    -0.8820 H     1 <1>   0.1500 
 30 H       -4.2290    -2.3390     1.3310 H     1 <1>   0.4500 
 31 H       -0.1740     3.7500     1.3400 H     1 <1>   0.1500 
 32 H       -4.9500    -1.6910    -0.7010 H     1 <1>   0.0800 
 33 H       -3.5430    -2.4620    -1.4010 H     1 <1>   0.0800 
 34 H       -3.6270    -4.9720     1.4290 H     1 <1>   0.0800 
 35 H       -5.2500    -4.3380     1.4880 H     1 <1>   0.0800 
 36 H       -5.1880    -3.8860    -2.3080 H     1 <1>   0.0800 
 37 H       -5.4530    -5.7480    -0.3640 H     1 <1>   0.0800 
 38 H       -6.7050    -3.4480     0.0660 H     1 <1>   0.4000 
 39 H       -2.8670    -4.8280    -1.6330 H     1 <1>   0.0800 
 40 H       -3.8290    -6.2150    -2.0100 H     1 <1>   0.0800 
 41 H       -3.2980    -8.4700    -0.7190 H     1 <1>   0.1500 
 42 H       -0.3660    -6.8530     1.7890 H     1 <1>   0.2700 
 43 H       -1.8580   -10.2470     0.7800 H     1 <1>   0.0800 
 44 H       -1.4100    -9.5330     2.3080 H     1 <1>   0.0800 
 45 H       -0.2340    -9.6540     1.0160 H     1 <1>   0.0800 
@<TRIPOS>BOND
  1   1   2  1   
  2   1   3  1   
  3   2   4  ar  
  4   2   5  ar  
  5   3   6  2   
  6   3   7  1   
  7   4   6  1   
  8   4   8  ar  
  9   5   9  ar  
 10   5  24  1   
 11   6  25  1   
 12   7  10  1   
 13   7  26  1   
 14   7  27  1   
 15   8  11  ar  
 16   8  28  1   
 17   9  11  ar  
 18   9  29  1   
 19  10  12  1   
 20  10  13  1   
 21  10  30  1   
 22  11  31  1   
 23  12  14  1   
 24  12  32  1   
 25  12  33  1   
 26  13  15  1   
 27  13  34  1   
 28  13  35  1   
 29  14  15  1   
 30  14  16  1   
 31  14  36  1   
 32  15  17  1   
 33  15  37  1   
 34  16  38  1   
 35  17  18  1   
 36  17  39  1   
 37  17  40  1   
 38  18  19  2   
 39  18  20  1   
 40  19  21  1   
 41  20  22  2   
 42  20  41  1   
 43  21  22  1   
 44  21  42  1   
 45  22  23  1   
 46  23  43  1   
 47  23  44  1   
 48  23  45  1   
@<TRIPOS>SUBSTRUCTURE
  1 ****   7 GROUP 4 **** **** 0

# MOE 2024.06 (io_trps.svl 2023.06)
