@<TRIPOS>MOLECULE
NONAME
59 63 1 0 0 
SMALL
USER_CHARGES


@<TRIPOS>ATOM
  1 O        2.4940    -0.0890     1.1360 O.3   1 <1>  -0.5600 
  2 C        3.0430    -1.0070     0.2090 C.3   1 <1>   0.4600 
  3 C        1.2580     0.5140     0.8190 C.3   1 <1>   0.1200 
  4 C        1.9330    -1.8670    -0.3790 C.2   1 <1>  -0.3320 
  5 C        4.0370    -1.8600     1.0070 C.3   1 <1>  -0.1600 
  6 C        3.7970    -0.2240    -0.8680 C.3   1 <1>  -0.1600 
  7 C        0.1380    -0.5340     0.7320 C.3   1 <1>   0.0210 
  8 N        2.0730    -2.9430    -1.2150 N.pl3 1 <1>   0.0330 
  9 C        0.6220    -1.6630    -0.1410 C.2   1 <1>  -0.1810 
 10 C        5.3560    -1.1410     1.3160 C.3   1 <1>   0.3430 
 11 C        4.8560     0.7090    -0.2710 C.3   1 <1>   0.3430 
 12 C        0.8200    -3.4280    -1.4980 C.ar  1 <1>  -0.1520 
 13 C       -0.1180    -2.6440    -0.8320 C.ar  1 <1>   0.0000 
 14 N        5.2030     0.3220     1.1320 N.4   1 <1>  -0.9590 
 15 C        0.4180    -4.5040    -2.2930 C.ar  1 <1>  -0.1500 
 16 C       -1.4800    -2.9370    -0.9570 C.ar  1 <1>  -0.1500 
 17 C        6.3340     1.1270     1.6860 C.3   1 <1>   0.5240 
 18 C       -0.9250    -4.7810    -2.4080 C.ar  1 <1>  -0.1500 
 19 C       -1.8740    -3.9970    -1.7390 C.ar  1 <1>  -0.1500 
 20 C        5.9520     2.6000     1.7740 C.2   1 <1>   0.0460 
 21 N        5.8570     3.3640     0.6660 N.2   1 <1>  -0.5650 
 22 C        5.6670     3.3260     2.8780 C.2   1 <1>  -0.3020 
 23 C        5.5150     4.5280     1.1120 C.2   1 <1>   0.0060 
 24 N        5.3860     4.5720     2.4550 N.pl3 1 <1>   0.0330 
 25 C        5.2760     5.7380     0.2270 C.3   1 <1>   0.0200 
 26 C        3.7740     6.0130     0.0720 C.3   1 <1>  -0.1600 
 27 C        3.5120     7.2150    -0.8440 C.3   1 <1>  -0.1600 
 28 C        2.0110     7.4710    -0.9970 C.3   1 <1>  -0.2400 
 29 H        1.3580     1.0290    -0.1200 H     1 <1>   0.0800 
 30 H        1.0320     1.2340     1.5860 H     1 <1>   0.0800 
 31 H        4.2740    -2.7520     0.4580 H     1 <1>   0.0800 
 32 H        3.5670    -2.1780     1.9200 H     1 <1>   0.0800 
 33 H        3.1090     0.3420    -1.4680 H     1 <1>   0.0800 
 34 H        4.2810    -0.9170    -1.5300 H     1 <1>   0.0800 
 35 H       -0.7440    -0.0880     0.3080 H     1 <1>   0.0800 
 36 H       -0.1020    -0.9050     1.7120 H     1 <1>   0.0800 
 37 H        2.9380    -3.3470    -1.5850 H     1 <1>   0.2700 
 38 H        6.1260    -1.5030     0.6530 H     1 <1>   0.0800 
 39 H        5.6510    -1.3630     2.3290 H     1 <1>   0.0800 
 40 H        4.4600     1.7120    -0.2670 H     1 <1>   0.0800 
 41 H        5.7370     0.7080    -0.8920 H     1 <1>   0.0800 
 42 H        4.3550     0.5860     1.6670 H     1 <1>   0.4500 
 43 H        1.1510    -5.1030    -2.8030 H     1 <1>   0.1500 
 44 H       -2.1970    -2.3290    -0.4380 H     1 <1>   0.1500 
 45 H        7.2060     1.0250     1.0620 H     1 <1>   0.0800 
 46 H        6.5780     0.7780     2.6750 H     1 <1>   0.0800 
 47 H       -1.2600    -5.6040    -3.0140 H     1 <1>   0.1500 
 48 H       -2.9170    -4.2350    -1.8460 H     1 <1>   0.1500 
 49 H        5.6460     3.0450     3.9170 H     1 <1>   0.1500 
 50 H        5.1270     5.3880     3.0200 H     1 <1>   0.2700 
 51 H        5.7080     5.5510    -0.7410 H     1 <1>   0.0800 
 52 H        5.7700     6.5960     0.6480 H     1 <1>   0.0800 
 53 H        3.3410     6.2000     1.0390 H     1 <1>   0.0800 
 54 H        3.3020     5.1390    -0.3410 H     1 <1>   0.0800 
 55 H        3.9390     7.0310    -1.8160 H     1 <1>   0.0800 
 56 H        3.9810     8.0950    -0.4360 H     1 <1>   0.0800 
 57 H        1.5230     6.6130    -1.4260 H     1 <1>   0.0800 
 58 H        1.8460     8.3140    -1.6450 H     1 <1>   0.0800 
 59 H        1.5640     7.6830    -0.0420 H     1 <1>   0.0800 
@<TRIPOS>BOND
  1   1   2  1   
  2   1   3  1   
  3   2   4  1   
  4   2   5  1   
  5   2   6  1   
  6   3   7  1   
  7   3  29  1   
  8   3  30  1   
  9   4   8  1   
 10   4   9  2   
 11   5  10  1   
 12   5  31  1   
 13   5  32  1   
 14   6  11  1   
 15   6  33  1   
 16   6  34  1   
 17   7   9  1   
 18   7  35  1   
 19   7  36  1   
 20   8  12  1   
 21   8  37  1   
 22   9  13  1   
 23  10  14  1   
 24  10  38  1   
 25  10  39  1   
 26  11  14  1   
 27  11  40  1   
 28  11  41  1   
 29  12  13  ar  
 30  12  15  ar  
 31  13  16  ar  
 32  14  17  1   
 33  14  42  1   
 34  15  18  ar  
 35  15  43  1   
 36  16  19  ar  
 37  16  44  1   
 38  17  20  1   
 39  17  45  1   
 40  17  46  1   
 41  18  19  ar  
 42  18  47  1   
 43  19  48  1   
 44  20  21  1   
 45  20  22  2   
 46  21  23  2   
 47  22  24  1   
 48  22  49  1   
 49  23  24  1   
 50  23  25  1   
 51  24  50  1   
 52  25  26  1   
 53  25  51  1   
 54  25  52  1   
 55  26  27  1   
 56  26  53  1   
 57  26  54  1   
 58  27  28  1   
 59  27  55  1   
 60  27  56  1   
 61  28  57  1   
 62  28  58  1   
 63  28  59  1   
@<TRIPOS>SUBSTRUCTURE
  1 ****   1 GROUP 4 **** **** 0

# MOE 2024.06 (io_trps.svl 2023.06)
