@<TRIPOS>MOLECULE
NONAME
48 50 1 0 0 
SMALL
USER_CHARGES


@<TRIPOS>ATOM
  1 O        1.9330    -1.4950     1.6800 O.2   1 <1>  -0.5700 
  2 C        1.9090    -1.6810     0.4870 C.2   1 <1>   0.5690 
  3 N        1.8910    -0.6430    -0.3940 N.am  1 <1>  -0.7300 
  4 C        1.9060    -3.1200    -0.0500 C.3   1 <1>   0.1710 
  5 C        1.8350     0.7950    -0.0060 C.3   1 <1>   0.1400 
  6 N        0.5670    -3.7260    -0.2880 N.3   1 <1>  -0.8100 
  7 C        3.1490     1.2760     0.6280 C.3   1 <1>   0.2000 
  8 C       -0.1900    -3.8330     0.9760 C.3   1 <1>   0.2530 
  9 C       -0.1950    -3.0210    -1.3290 C.3   1 <1>   0.0300 
 10 O        3.1140     2.6590     0.7540 O.3   1 <1>  -0.5600 
 11 C        4.4030     1.0170    -0.1990 C.3   1 <1>  -0.1600 
 12 C       -1.4680    -4.6410     0.7870 C.ar  1 <1>  -0.1440 
 13 C        4.4060     3.1500     0.9120 C.3   1 <1>   0.1200 
 14 C        5.3260     2.1570     0.2050 C.3   1 <1>  -0.1600 
 15 C       -1.4040    -5.9460     0.3280 C.ar  1 <1>  -0.1500 
 16 C       -2.7040    -4.0810     1.0730 C.ar  1 <1>  -0.1500 
 17 C       -2.5560    -6.7050     0.1450 C.ar  1 <1>  -0.0230 
 18 C       -3.8600    -4.8220     0.9020 C.ar  1 <1>  -0.1500 
 19 N       -2.4740    -8.0390    -0.3440 N.pl3 1 <1>   0.5930 
 20 C       -3.7870    -6.1250     0.4430 C.ar  1 <1>  -0.1500 
 21 N       -1.5200    -8.9300     0.0350 N.2   1 <1>  -0.7070 
 22 C       -3.3070    -8.6230    -1.2420 C.2   1 <1>  -0.3020 
 23 C       -1.7770   -10.0200    -0.6160 C.2   1 <1>   0.1390 
 24 C       -2.8890    -9.8910    -1.4370 C.2   1 <1>  -0.1500 
 25 H        1.8600    -0.8340    -1.3960 H     1 <1>   0.3700 
 26 H        2.4390    -3.7340     0.6550 H     1 <1>   0.0800 
 27 H        2.4640    -3.1450    -0.9680 H     1 <1>   0.0800 
 28 H        1.0380     0.9360     0.7030 H     1 <1>   0.0800 
 29 H        1.6280     1.3860    -0.8810 H     1 <1>   0.0800 
 30 H        3.2560     0.8630     1.6180 H     1 <1>   0.0800 
 31 H       -0.4260    -2.8510     1.3480 H     1 <1>   0.0800 
 32 H        0.4180    -4.3290     1.7140 H     1 <1>   0.0800 
 33 H        0.3960    -2.9350    -2.2240 H     1 <1>   0.0800 
 34 H       -0.4810    -2.0390    -0.9930 H     1 <1>   0.0800 
 35 H       -1.0850    -3.5760    -1.5710 H     1 <1>   0.0800 
 36 H        4.1690     1.0830    -1.2470 H     1 <1>   0.0800 
 37 H        4.8200     0.0490     0.0140 H     1 <1>   0.0800 
 38 H        4.6190     3.1970     1.9670 H     1 <1>   0.0800 
 39 H        4.4550     4.1340     0.4800 H     1 <1>   0.0800 
 40 H        5.7930     2.6070    -0.6530 H     1 <1>   0.0800 
 41 H        6.0880     1.8200     0.8850 H     1 <1>   0.0800 
 42 H       -0.4440    -6.3810     0.1040 H     1 <1>   0.1500 
 43 H       -2.7700    -3.0680     1.4300 H     1 <1>   0.1500 
 44 H       -4.8160    -4.3840     1.1300 H     1 <1>   0.1500 
 45 H       -4.6920    -6.6920     0.3210 H     1 <1>   0.1500 
 46 H       -4.1330    -8.0990    -1.6820 H     1 <1>   0.1500 
 47 H       -1.1880   -10.9180    -0.5250 H     1 <1>   0.1500 
 48 H       -3.2990   -10.6530    -2.0760 H     1 <1>   0.1500 
@<TRIPOS>BOND
  1   1   2  2   
  2   2   3  am  
  3   2   4  1   
  4   3   5  1   
  5   3  25  1   
  6   4   6  1   
  7   4  26  1   
  8   4  27  1   
  9   5   7  1   
 10   5  28  1   
 11   5  29  1   
 12   6   8  1   
 13   6   9  1   
 14   7  10  1   
 15   7  11  1   
 16   7  30  1   
 17   8  12  1   
 18   8  31  1   
 19   8  32  1   
 20   9  33  1   
 21   9  34  1   
 22   9  35  1   
 23  10  13  1   
 24  11  14  1   
 25  11  36  1   
 26  11  37  1   
 27  12  15  ar  
 28  12  16  ar  
 29  13  14  1   
 30  13  38  1   
 31  13  39  1   
 32  14  40  1   
 33  14  41  1   
 34  15  17  ar  
 35  15  42  1   
 36  16  18  ar  
 37  16  43  1   
 38  17  19  1   
 39  17  20  ar  
 40  18  20  ar  
 41  18  44  1   
 42  19  21  1   
 43  19  22  1   
 44  20  45  1   
 45  21  23  2   
 46  22  24  2   
 47  22  46  1   
 48  23  24  1   
 49  23  47  1   
 50  24  48  1   
@<TRIPOS>SUBSTRUCTURE
  1 ****   6 GROUP 4 **** **** 0

# MOE 2024.06 (io_trps.svl 2023.06)
