@<TRIPOS>MOLECULE
NONAME
49 51 1 0 0 
SMALL
USER_CHARGES


@<TRIPOS>ATOM
  1 O       -0.8240     0.5790     1.1980 O.2   1 <1>  -0.5700 
  2 C       -1.8590     1.0810     0.8260 C.2   1 <1>   0.6300 
  3 N       -2.8600     0.3170     0.2900 N.am  1 <1>  -0.6600 
  4 C       -2.0760     2.5850     1.0090 C.3   1 <1>  -0.1000 
  5 C       -4.2530     0.7560     0.0320 C.3   1 <1>   0.1400 
  6 C       -2.7490    -1.1530     0.1210 C.3   1 <1>   0.1400 
  7 C       -2.2430     3.5380    -0.1580 C.3   1 <1>  -0.1900 
  8 C       -1.0360     3.6460     0.7230 C.3   1 <1>  -0.1900 
  9 C       -5.0830    -0.5020     0.2730 C.3   1 <1>   0.2000 
 10 C       -4.1680    -1.6270    -0.2190 C.3   1 <1>  -0.0800 
 11 C       -3.3710     4.5790    -0.0790 C.3   1 <1>  -0.1450 
 12 C       -2.0890     3.0410    -1.6060 C.3   1 <1>  -0.1450 
 13 C       -0.8980     4.7980     1.7310 C.3   1 <1>  -0.1450 
 14 C        0.3580     3.2500     0.2040 C.3   1 <1>  -0.1450 
 15 O       -5.2790    -0.6270     1.6410 O.3   1 <1>  -0.6800 
 16 C       -4.4980    -3.0320     0.3150 C.3   1 <1>   0.0210 
 17 C       -3.5500    -4.0640    -0.2650 C.2   1 <1>   0.1080 
 18 N       -3.5400    -4.3810    -1.5230 N.2   1 <1>  -0.7070 
 19 C       -2.5960    -4.7670     0.4630 C.2   1 <1>  -0.1500 
 20 N       -2.5700    -5.3080    -1.6310 N.pl3 1 <1>   0.3000 
 21 C       -1.9820    -5.5580    -0.4420 C.2   1 <1>  -0.3320 
 22 C       -0.8540    -6.5520    -0.2410 C.3   1 <1>  -0.0600 
 23 H       -2.6820     2.7510     1.8800 H     1 <1>   0.1000 
 24 H       -4.5580     1.5640     0.6740 H     1 <1>   0.0800 
 25 H       -4.3390     1.0570    -0.9970 H     1 <1>   0.0800 
 26 H       -2.0560    -1.3940    -0.6680 H     1 <1>   0.0800 
 27 H       -2.4010    -1.5910     1.0410 H     1 <1>   0.0800 
 28 H       -6.0430    -0.4830    -0.2150 H     1 <1>   0.0800 
 29 H       -4.2410    -1.6590    -1.2930 H     1 <1>   0.0800 
 30 H       -4.2690     4.1890    -0.5220 H     1 <1>   0.0800 
 31 H       -3.0840     5.4690    -0.6100 H     1 <1>   0.0800 
 32 H       -3.6010     4.8460     0.9350 H     1 <1>   0.0800 
 33 H       -3.0430     2.7630    -2.0140 H     1 <1>   0.0800 
 34 H       -1.4480     2.1810    -1.6750 H     1 <1>   0.0800 
 35 H       -1.6750     3.8230    -2.2160 H     1 <1>   0.0800 
 36 H       -0.1770     4.5420     2.4870 H     1 <1>   0.0800 
 37 H       -1.8240     5.0120     2.2310 H     1 <1>   0.0800 
 38 H       -0.5660     5.6880     1.2280 H     1 <1>   0.0800 
 39 H        1.0060     3.0220     1.0310 H     1 <1>   0.0800 
 40 H        0.7860     4.0600    -0.3580 H     1 <1>   0.0800 
 41 H        0.3300     2.3790    -0.4220 H     1 <1>   0.0800 
 42 H       -4.4140    -0.5120     2.0860 H     1 <1>   0.4000 
 43 H       -5.5030    -3.2950     0.0390 H     1 <1>   0.0800 
 44 H       -4.4310    -3.0570     1.3870 H     1 <1>   0.0800 
 45 H       -2.4100    -4.6780     1.5180 H     1 <1>   0.1500 
 46 H       -2.3360    -5.7510    -2.5280 H     1 <1>   0.2700 
 47 H       -0.5570    -6.5690     0.7930 H     1 <1>   0.0800 
 48 H       -0.0020    -6.2740    -0.8360 H     1 <1>   0.0800 
 49 H       -1.1730    -7.5400    -0.5220 H     1 <1>   0.0800 
@<TRIPOS>BOND
  1   1   2  2   
  2   2   3  am  
  3   2   4  1   
  4   3   5  1   
  5   3   6  1   
  6   4   7  1   
  7   4   8  1   
  8   4  23  1   
  9   5   9  1   
 10   5  24  1   
 11   5  25  1   
 12   6  10  1   
 13   6  26  1   
 14   6  27  1   
 15   7   8  1   
 16   7  11  1   
 17   7  12  1   
 18   8  13  1   
 19   8  14  1   
 20   9  10  1   
 21   9  15  1   
 22   9  28  1   
 23  10  16  1   
 24  10  29  1   
 25  11  30  1   
 26  11  31  1   
 27  11  32  1   
 28  12  33  1   
 29  12  34  1   
 30  12  35  1   
 31  13  36  1   
 32  13  37  1   
 33  13  38  1   
 34  14  39  1   
 35  14  40  1   
 36  14  41  1   
 37  15  42  1   
 38  16  17  1   
 39  16  43  1   
 40  16  44  1   
 41  17  18  2   
 42  17  19  1   
 43  18  20  1   
 44  19  21  2   
 45  19  45  1   
 46  20  21  1   
 47  20  46  1   
 48  21  22  1   
 49  22  47  1   
 50  22  48  1   
 51  22  49  1   
@<TRIPOS>SUBSTRUCTURE
  1 ****   6 GROUP 4 **** **** 0

# MOE 2024.06 (io_trps.svl 2023.06)
