@<TRIPOS>MOLECULE
NONAME
56 59 1 0 0 
SMALL
USER_CHARGES


@<TRIPOS>ATOM
  1 O        3.4830    -1.0130    -1.9300 O.2   1 <1>  -0.5700 
  2 C        2.4500    -1.4610    -1.4550 C.2   1 <1>   0.5440 
  3 N        1.5550    -0.5150    -0.9950 N.am  1 <1>  -0.6600 
  4 C        2.2400    -2.9020    -1.3140 C.ar  1 <1>   0.3960 
  5 C        1.3840     0.7620    -1.7650 C.3   1 <1>   0.1400 
  6 C        1.4850    -0.2980     0.4820 C.3   1 <1>   0.1400 
  7 N        1.2730    -3.3570    -0.5040 N.ar  1 <1>  -0.6200 
  8 C        3.0710    -3.7750    -2.0220 C.ar  1 <1>   0.1600 
  9 C        2.2730     1.8990    -1.2030 C.3   1 <1>   0.3430 
 10 C        2.5920     0.6860     0.9430 C.3   1 <1>   0.3430 
 11 C        1.1840    -4.6770    -0.4500 C.ar  1 <1>   0.4100 
 12 N        3.0150    -5.0960    -1.9760 N.ar  1 <1>  -0.6200 
 13 N        3.2750     1.3590    -0.2220 N.4   1 <1>  -0.9590 
 14 N        0.1890    -5.1920     0.3760 N.pl3 1 <1>  -0.8380 
 15 C        2.0580    -5.5110    -1.1720 C.ar  1 <1>   0.1600 
 16 C        4.3070     2.3540     0.1870 C.3   1 <1>   0.2630 
 17 C       -0.8560    -4.3050     0.9670 C.3   1 <1>   0.2090 
 18 C       -0.4210    -6.5320     0.1230 C.3   1 <1>   0.2090 
 19 C       -1.8650    -5.2630     1.5950 C.3   1 <1>   0.2000 
 20 C       -1.8670    -6.4390     0.6190 C.3   1 <1>  -0.0800 
 21 O       -1.3530    -5.6740     2.8170 O.3   1 <1>  -0.6800 
 22 C       -2.4200    -7.7680     1.1730 C.3   1 <1>   0.0210 
 23 C       -2.2990    -8.9020     0.1690 C.2   1 <1>   0.1080 
 24 N       -2.4230    -8.7470    -1.1140 N.2   1 <1>  -0.7070 
 25 C       -2.0440   -10.2260     0.5120 C.2   1 <1>  -0.1500 
 26 N       -2.2560    -9.9820    -1.6260 N.pl3 1 <1>   0.3000 
 27 C       -2.0210   -10.8940    -0.6600 C.2   1 <1>  -0.3320 
 28 C       -1.7910   -12.3710    -0.9200 C.3   1 <1>  -0.0600 
 29 H        1.6420     0.5940    -2.7980 H     1 <1>   0.0800 
 30 H        0.3500     1.0620    -1.7410 H     1 <1>   0.0800 
 31 H        0.5170     0.0980     0.7360 H     1 <1>   0.0800 
 32 H        1.5950    -1.2330     1.0060 H     1 <1>   0.0800 
 33 H        3.8280    -3.3530    -2.6610 H     1 <1>   0.1500 
 34 H        1.6500     2.6330    -0.7210 H     1 <1>   0.0800 
 35 H        2.7790     2.3820    -2.0220 H     1 <1>   0.0800 
 36 H        3.3220     0.1390     1.5160 H     1 <1>   0.0800 
 37 H        2.1550     1.4240     1.5940 H     1 <1>   0.0800 
 38 H        3.7280     0.5820    -0.7530 H     1 <1>   0.4500 
 39 H        1.9450    -6.5730    -1.0610 H     1 <1>   0.1500 
 40 H        3.8500     3.1710     0.7220 H     1 <1>   0.0800 
 41 H        4.8100     2.7470    -0.6810 H     1 <1>   0.0800 
 42 H        5.0400     1.8890     0.8250 H     1 <1>   0.0800 
 43 H       -0.4390    -3.6310     1.6950 H     1 <1>   0.0800 
 44 H       -1.3280    -3.7390     0.1810 H     1 <1>   0.0800 
 45 H       -0.4030    -6.7860    -0.9250 H     1 <1>   0.0800 
 46 H        0.1210    -7.2780     0.6790 H     1 <1>   0.0800 
 47 H       -2.8360    -4.8260     1.7500 H     1 <1>   0.0800 
 48 H       -2.4710    -6.1590    -0.2270 H     1 <1>   0.0800 
 49 H       -0.3960    -5.8460     2.6920 H     1 <1>   0.4000 
 50 H       -3.4570    -7.6420     1.4260 H     1 <1>   0.0800 
 51 H       -1.8940    -8.0490     2.0670 H     1 <1>   0.0800 
 52 H       -1.9010   -10.6050     1.5080 H     1 <1>   0.1500 
 53 H       -2.3110   -10.1690    -2.6340 H     1 <1>   0.2700 
 54 H       -1.6320   -12.8900     0.0090 H     1 <1>   0.0800 
 55 H       -0.9250   -12.5100    -1.5430 H     1 <1>   0.0800 
 56 H       -2.6480   -12.8010    -1.4080 H     1 <1>   0.0800 
@<TRIPOS>BOND
  1   1   2  2   
  2   2   3  am  
  3   2   4  1   
  4   3   5  1   
  5   3   6  1   
  6   4   7  ar  
  7   4   8  ar  
  8   5   9  1   
  9   5  29  1   
 10   5  30  1   
 11   6  10  1   
 12   6  31  1   
 13   6  32  1   
 14   7  11  ar  
 15   8  12  ar  
 16   8  33  1   
 17   9  13  1   
 18   9  34  1   
 19   9  35  1   
 20  10  13  1   
 21  10  36  1   
 22  10  37  1   
 23  11  14  1   
 24  11  15  ar  
 25  12  15  ar  
 26  13  16  1   
 27  13  38  1   
 28  14  17  1   
 29  14  18  1   
 30  15  39  1   
 31  16  40  1   
 32  16  41  1   
 33  16  42  1   
 34  17  19  1   
 35  17  43  1   
 36  17  44  1   
 37  18  20  1   
 38  18  45  1   
 39  18  46  1   
 40  19  20  1   
 41  19  21  1   
 42  19  47  1   
 43  20  22  1   
 44  20  48  1   
 45  21  49  1   
 46  22  23  1   
 47  22  50  1   
 48  22  51  1   
 49  23  24  2   
 50  23  25  1   
 51  24  26  1   
 52  25  27  2   
 53  25  52  1   
 54  26  27  1   
 55  26  53  1   
 56  27  28  1   
 57  28  54  1   
 58  28  55  1   
 59  28  56  1   
@<TRIPOS>SUBSTRUCTURE
  1 ****  11 GROUP 4 **** **** 0

# MOE 2024.06 (io_trps.svl 2023.06)
