@<TRIPOS>MOLECULE
NONAME
45 46 1 0 0 
SMALL
USER_CHARGES


@<TRIPOS>ATOM
  1 S       -0.1700     0.3140     1.4710 S.3   1 <1>  -0.0800 
  2 C       -0.9810     1.3130     0.2860 C.2   1 <1>   0.1980 
  3 C       -0.8250    -1.0980     0.6920 C.2   1 <1>  -0.1400 
  4 N       -1.6510     0.6630    -0.5770 N.2   1 <1>  -0.5650 
  5 C       -0.8070     2.8110     0.3930 C.3   1 <1>   0.0200 
  6 C       -1.5690    -0.7010    -0.3550 C.2   1 <1>   0.0460 
  7 C       -0.4590    -2.4390     1.2980 C.3   1 <1>  -0.0600 
  8 C        0.5470     3.2210    -0.1810 C.3   1 <1>   0.1400 
  9 C       -2.3340    -1.5750    -1.3260 C.3   1 <1>  -0.0590 
 10 N        0.6810     4.6980    -0.1660 N.am  1 <1>  -0.7300 
 11 C        1.2500     5.4110     0.8410 C.2   1 <1>   0.5690 
 12 O        1.6700     4.8780     1.8380 O.2   1 <1>  -0.5700 
 13 C        1.3480     6.9300     0.7160 C.3   1 <1>  -0.0190 
 14 C       -0.0290     7.5860     0.4940 C.3   1 <1>  -0.1600 
 15 C        2.3590     7.3550    -0.3770 C.3   1 <1>  -0.1600 
 16 C        0.0550     9.1220     0.5450 C.3   1 <1>   0.2000 
 17 C        2.1020     8.7650    -0.9450 C.3   1 <1>  -0.1600 
 18 O       -0.9660     9.6040    -0.2920 O.3   1 <1>  -0.5600 
 19 C        1.4320     9.6770     0.0860 C.3   1 <1>   0.2000 
 20 C       -1.8440    10.5020     0.3130 C.3   1 <1>   0.0400 
 21 O        1.2620    10.9170    -0.4950 O.3   1 <1>  -0.6800 
 22 H       -1.5950     3.2870    -0.1610 H     1 <1>   0.0800 
 23 H       -0.8750     3.1060     1.4240 H     1 <1>   0.0800 
 24 H       -0.9090    -3.2430     0.7470 H     1 <1>   0.0800 
 25 H       -0.8030    -2.4830     2.3160 H     1 <1>   0.0800 
 26 H        0.6080    -2.5650     1.2860 H     1 <1>   0.0800 
 27 H        0.6400     2.8630    -1.1920 H     1 <1>   0.0800 
 28 H        1.3360     2.7810     0.4070 H     1 <1>   0.0800 
 29 H       -2.2200    -2.6140    -1.0840 H     1 <1>   0.0800 
 30 H       -1.9710    -1.4060    -2.3230 H     1 <1>   0.0800 
 31 H       -3.3780    -1.3210    -1.2890 H     1 <1>   0.0800 
 32 H        0.3120     5.1910    -0.9810 H     1 <1>   0.3700 
 33 H        1.7200     7.2890     1.6610 H     1 <1>   0.0800 
 34 H       -0.7180     7.2470     1.2470 H     1 <1>   0.0800 
 35 H       -0.4060     7.2840    -0.4680 H     1 <1>   0.0800 
 36 H        3.3480     7.3150     0.0480 H     1 <1>   0.0800 
 37 H        2.3410     6.6560    -1.1950 H     1 <1>   0.0800 
 38 H       -0.1180     9.4490     1.5570 H     1 <1>   0.0800 
 39 H        1.4540     8.6840    -1.8010 H     1 <1>   0.0800 
 40 H        3.0330     9.1990    -1.2670 H     1 <1>   0.0800 
 41 H        2.0860     9.7960     0.9320 H     1 <1>   0.0800 
 42 H       -2.5610    10.8200    -0.4230 H     1 <1>   0.0800 
 43 H       -1.2920    11.3530     0.6750 H     1 <1>   0.0800 
 44 H       -2.3530    10.0080     1.1240 H     1 <1>   0.0800 
 45 H        0.4030    10.8790    -0.9720 H     1 <1>   0.4000 
@<TRIPOS>BOND
  1   1   2  1   
  2   1   3  1   
  3   2   4  2   
  4   2   5  1   
  5   3   6  2   
  6   3   7  1   
  7   4   6  1   
  8   5   8  1   
  9   5  22  1   
 10   5  23  1   
 11   6   9  1   
 12   7  24  1   
 13   7  25  1   
 14   7  26  1   
 15   8  10  1   
 16   8  27  1   
 17   8  28  1   
 18   9  29  1   
 19   9  30  1   
 20   9  31  1   
 21  10  11  am  
 22  10  32  1   
 23  11  12  2   
 24  11  13  1   
 25  13  14  1   
 26  13  15  1   
 27  13  33  1   
 28  14  16  1   
 29  14  34  1   
 30  14  35  1   
 31  15  17  1   
 32  15  36  1   
 33  15  37  1   
 34  16  18  1   
 35  16  19  1   
 36  16  38  1   
 37  17  19  1   
 38  17  39  1   
 39  17  40  1   
 40  18  20  1   
 41  19  21  1   
 42  19  41  1   
 43  20  42  1   
 44  20  43  1   
 45  20  44  1   
 46  21  45  1   
@<TRIPOS>SUBSTRUCTURE
  1 ****  10 GROUP 4 **** **** 0

# MOE 2024.06 (io_trps.svl 2023.06)
