@<TRIPOS>MOLECULE
NONAME
52 55 1 0 0 
SMALL
USER_CHARGES


@<TRIPOS>ATOM
  1 O        0.1230     1.4250    -2.1190 O.2   1 <1>  -0.5700 
  2 C        1.0560     1.4680    -1.3420 C.2   1 <1>   0.7160 
  3 N        1.0680     2.3430    -0.2670 N.am  1 <1>  -0.6600 
  4 C        2.1750     0.5860    -1.5730 C.2   1 <1>  -0.0860 
  5 C       -0.0700     3.2060     0.2300 C.3   1 <1>   0.2200 
  6 C        2.3110     2.4260     0.5690 C.3   1 <1>   0.1400 
  7 C        2.5310    -0.5580    -0.9270 C.2   1 <1>  -0.0400 
  8 C        3.1690     0.7510    -2.5570 C.2   1 <1>  -0.1500 
  9 C        0.3200     4.7060     0.4430 C.3   1 <1>   0.1380 
 10 C       -1.4520     3.1020    -0.4500 C.3   1 <1>  -0.1600 
 11 C        2.2460     3.5050     1.6620 C.3   1 <1>  -0.1600 
 12 O        3.6350    -1.0570    -1.4260 O.3   1 <1>  -0.2800 
 13 C        1.8590    -1.2890     0.2160 C.3   1 <1>  -0.0600 
 14 C        4.0260    -0.2790    -2.4110 C.2   1 <1>  -0.0400 
 15 C        0.3760     5.5510    -0.8660 C.2   1 <1>  -0.2760 
 16 C       -0.7520     5.2100     1.4640 C.3   1 <1>   0.1200 
 17 C        1.7300     4.8280     1.0820 C.3   1 <1>  -0.1600 
 18 C       -2.3750     4.2400     0.0120 C.3   1 <1>   0.1200 
 19 C        5.2820    -0.6440    -3.1690 C.3   1 <1>  -0.0600 
 20 C        0.5030     5.0440    -2.1010 C.2   1 <1>  -0.2880 
 21 C        0.3720     7.0800    -0.7310 C.3   1 <1>  -0.0220 
 22 O       -2.0280     4.6340     1.3040 O.3   1 <1>  -0.5600 
 23 C        0.6500     5.8730    -3.3680 C.3   1 <1>   0.2580 
 24 C        0.2000     7.7790    -2.0890 C.3   1 <1>   0.1200 
 25 O        1.0150     7.1820    -3.0460 O.3   1 <1>  -0.5600 
 26 H       -0.2630     2.8210     1.2180 H     1 <1>   0.0800 
 27 H        2.4990     1.4720     1.0300 H     1 <1>   0.0800 
 28 H        3.1410     2.6490    -0.0810 H     1 <1>   0.0800 
 29 H        3.1950     1.5580    -3.2680 H     1 <1>   0.1500 
 30 H       -1.8980     2.1560    -0.2060 H     1 <1>   0.0800 
 31 H       -1.3900     3.1760    -1.5160 H     1 <1>   0.0800 
 32 H        1.6140     3.1730     2.4680 H     1 <1>   0.0800 
 33 H        3.2320     3.6480     2.0670 H     1 <1>   0.0800 
 34 H        0.9660    -0.7730     0.5190 H     1 <1>   0.0800 
 35 H        2.5310    -1.3530     1.0520 H     1 <1>   0.0800 
 36 H        1.5970    -2.2830    -0.0990 H     1 <1>   0.0800 
 37 H       -0.8670     6.2730     1.4680 H     1 <1>   0.0800 
 38 H       -0.4400     4.9330     2.4550 H     1 <1>   0.0800 
 39 H        2.4340     5.1310     0.3250 H     1 <1>   0.0800 
 40 H        1.7400     5.5930     1.8380 H     1 <1>   0.0800 
 41 H       -3.4010     3.9160     0.0230 H     1 <1>   0.0800 
 42 H       -2.2890     5.0960    -0.6350 H     1 <1>   0.0800 
 43 H        5.4740     0.0790    -3.9410 H     1 <1>   0.0800 
 44 H        5.1640    -1.6140    -3.6180 H     1 <1>   0.0800 
 45 H        6.1180    -0.6700    -2.4950 H     1 <1>   0.0800 
 46 H        0.5340     3.9960    -2.3240 H     1 <1>   0.1500 
 47 H        1.2950     7.4060    -0.2850 H     1 <1>   0.0800 
 48 H       -0.4350     7.4290    -0.1200 H     1 <1>   0.0800 
 49 H       -0.2700     5.8930    -3.9260 H     1 <1>   0.0800 
 50 H        1.4310     5.4690    -3.9880 H     1 <1>   0.0800 
 51 H        0.4770     8.8160    -2.0180 H     1 <1>   0.0800 
 52 H       -0.8210     7.7120    -2.4250 H     1 <1>   0.0800 
@<TRIPOS>BOND
  1   1   2  2   
  2   2   3  am  
  3   2   4  1   
  4   3   5  1   
  5   3   6  1   
  6   4   7  2   
  7   4   8  1   
  8   5   9  1   
  9   5  10  1   
 10   5  26  1   
 11   6  11  1   
 12   6  27  1   
 13   6  28  1   
 14   7  12  1   
 15   7  13  1   
 16   8  14  2   
 17   8  29  1   
 18   9  15  1   
 19   9  16  1   
 20   9  17  1   
 21  10  18  1   
 22  10  30  1   
 23  10  31  1   
 24  11  17  1   
 25  11  32  1   
 26  11  33  1   
 27  12  14  1   
 28  13  34  1   
 29  13  35  1   
 30  13  36  1   
 31  14  19  1   
 32  15  20  2   
 33  15  21  1   
 34  16  22  1   
 35  16  37  1   
 36  16  38  1   
 37  17  39  1   
 38  17  40  1   
 39  18  22  1   
 40  18  41  1   
 41  18  42  1   
 42  19  43  1   
 43  19  44  1   
 44  19  45  1   
 45  20  23  1   
 46  20  46  1   
 47  21  24  1   
 48  21  47  1   
 49  21  48  1   
 50  23  25  1   
 51  23  49  1   
 52  23  50  1   
 53  24  25  1   
 54  24  51  1   
 55  24  52  1   
@<TRIPOS>SUBSTRUCTURE
  1 ****   3 GROUP 4 **** **** 0

# MOE 2024.06 (io_trps.svl 2023.06)
