@<TRIPOS>MOLECULE
NONAME
38 39 1 0 0 
SMALL
USER_CHARGES


@<TRIPOS>ATOM
  1 O       -0.5540     0.2690    -0.4630 O.2   1 <1>  -0.5700 
  2 C       -1.5710     0.4720     0.1470 C.2   1 <1>   0.4230 
  3 C       -2.8010    -0.2030    -0.1590 C.ar  1 <1>   0.0860 
  4 C       -1.4800     1.4340     1.3160 C.3   1 <1>  -0.1790 
  5 C       -4.0700     0.3740    -0.2130 C.ar  1 <1>   0.1660 
  6 C       -2.7690    -1.5610    -0.4340 C.ar  1 <1>   0.1600 
  7 N       -5.1510    -0.3290    -0.4400 N.ar  1 <1>  -0.6200 
  8 C       -4.3030     1.8660    -0.0420 C.3   1 <1>  -0.0960 
  9 N       -3.8340    -2.2830    -0.6720 N.ar  1 <1>  -0.6200 
 10 C       -4.9880    -1.6270    -0.6510 C.ar  1 <1>   0.7200 
 11 N       -6.1250    -2.3080    -0.8740 N.pl3 1 <1>  -0.8690 
 12 C       -6.2580    -3.7340    -1.2230 C.3   1 <1>   0.2090 
 13 C       -7.5400    -4.2770    -0.5960 C.3   1 <1>  -0.1600 
 14 C       -7.7050    -5.7780    -0.8760 C.3   1 <1>  -0.0170 
 15 C       -9.0050    -6.3040    -0.2900 C.ar  1 <1>   0.1670 
 16 N      -10.0990    -6.0890    -1.0050 N.ar  1 <1>  -0.6200 
 17 C       -8.9930    -6.9660     0.9290 C.ar  1 <1>  -0.1500 
 18 C      -11.2240    -6.5510    -0.4840 C.ar  1 <1>   0.1600 
 19 C      -10.1720    -7.4440     1.4590 C.ar  1 <1>  -0.1500 
 20 C      -11.3160    -7.2240     0.7220 C.ar  1 <1>  -0.1500 
 21 H       -2.2890     1.2790     2.0050 H     1 <1>   0.0800 
 22 H       -1.4940     2.4460     0.9580 H     1 <1>   0.0800 
 23 H       -0.5540     1.2700     1.8370 H     1 <1>   0.0800 
 24 H       -1.8140    -2.0590    -0.4470 H     1 <1>   0.1500 
 25 H       -3.4930     2.4330    -0.4620 H     1 <1>   0.0800 
 26 H       -4.4150     2.1040     0.9990 H     1 <1>   0.0800 
 27 H       -5.2050     2.1570    -0.5520 H     1 <1>   0.0800 
 28 H       -6.9670    -1.7370    -0.9140 H     1 <1>   0.4000 
 29 H       -5.4070    -4.2830    -0.8560 H     1 <1>   0.0800 
 30 H       -6.2960    -3.8330    -2.2950 H     1 <1>   0.0800 
 31 H       -8.3870    -3.7510    -1.0010 H     1 <1>   0.0800 
 32 H       -7.5110    -4.1180     0.4680 H     1 <1>   0.0800 
 33 H       -6.8750    -6.3190    -0.4600 H     1 <1>   0.0800 
 34 H       -7.7130    -5.9520    -1.9380 H     1 <1>   0.0800 
 35 H       -8.0700    -7.1070     1.4610 H     1 <1>   0.1500 
 36 H      -12.1240    -6.3860    -1.0510 H     1 <1>   0.1500 
 37 H      -10.1990    -7.9620     2.4020 H     1 <1>   0.1500 
 38 H      -12.2700    -7.5690     1.0760 H     1 <1>   0.1500 
@<TRIPOS>BOND
  1   1   2  2   
  2   2   3  1   
  3   2   4  1   
  4   3   5  ar  
  5   3   6  ar  
  6   4  21  1   
  7   4  22  1   
  8   4  23  1   
  9   5   7  ar  
 10   5   8  1   
 11   6   9  ar  
 12   6  24  1   
 13   7  10  ar  
 14   8  25  1   
 15   8  26  1   
 16   8  27  1   
 17   9  10  ar  
 18  10  11  1   
 19  11  12  1   
 20  11  28  1   
 21  12  13  1   
 22  12  29  1   
 23  12  30  1   
 24  13  14  1   
 25  13  31  1   
 26  13  32  1   
 27  14  15  1   
 28  14  33  1   
 29  14  34  1   
 30  15  16  ar  
 31  15  17  ar  
 32  16  18  ar  
 33  17  19  ar  
 34  17  35  1   
 35  18  20  ar  
 36  18  36  1   
 37  19  20  ar  
 38  19  37  1   
 39  20  38  1   
@<TRIPOS>SUBSTRUCTURE
  1 ****  11 GROUP 4 **** **** 0

# MOE 2024.06 (io_trps.svl 2023.06)
