@<TRIPOS>MOLECULE
NONAME
56 59 1 0 0 
SMALL
USER_CHARGES


@<TRIPOS>ATOM
  1 O       -0.5460     0.2480     0.5100 O.2   1 <1>  -0.5700 
  2 C       -1.5060     0.7740    -0.0010 C.2   1 <1>   0.5690 
  3 N       -2.5350     0.0380    -0.5170 N.am  1 <1>  -0.6600 
  4 C       -1.5690     2.2920    -0.0630 C.3   1 <1>  -0.0990 
  5 C       -3.7940     0.5630    -1.1030 C.3   1 <1>   0.1400 
  6 C       -2.5530    -1.4440    -0.4820 C.3   1 <1>   0.1400 
  7 C       -0.2490     2.9780     0.3300 C.3   1 <1>  -0.0220 
  8 C       -4.6230    -0.6760    -1.4470 C.3   1 <1>   0.2000 
  9 C       -4.0280    -1.8210    -0.6300 C.3   1 <1>  -0.0800 
 10 C       -0.3740     4.5010     0.2200 C.2   1 <1>  -0.1240 
 11 O       -5.9570    -0.5010    -1.1150 O.3   1 <1>  -0.6800 
 12 C       -4.2570    -3.1960    -1.2800 C.3   1 <1>  -0.0170 
 13 C       -0.8240     5.2600     1.2590 C.2   1 <1>  -0.0290 
 14 C       -0.0190     5.1710    -0.9950 C.2   1 <1>   0.3750 
 15 C       -3.6340    -4.3090    -0.4550 C.ar  1 <1>   0.1670 
 16 N       -0.8910     6.6060     1.0600 N.am  1 <1>  -0.5390 
 17 C       -1.2730     4.7890     2.6350 C.3   1 <1>  -0.1020 
 18 N       -0.1010     6.4430    -1.1580 N.2   1 <1>  -0.6610 
 19 C        0.4920     4.3910    -2.1940 C.3   1 <1>  -0.1790 
 20 N       -2.3970    -4.6140    -0.7020 N.ar  1 <1>  -0.6200 
 21 C       -4.4100    -4.9420     0.5290 C.ar  1 <1>  -0.1500 
 22 C       -0.5430     7.1980    -0.1130 C.2   1 <1>   0.8410 
 23 C       -1.8280    -5.5970     0.0410 C.ar  1 <1>   0.3100 
 24 C       -3.8660    -5.9330     1.2870 C.ar  1 <1>  -0.1500 
 25 O       -0.6380     8.4050    -0.2070 O.2   1 <1>  -0.5700 
 26 C       -2.5280    -6.2900     1.0540 C.ar  1 <1>   0.0000 
 27 C       -0.4880    -5.9420    -0.2000 C.ar  1 <1>  -0.1500 
 28 C       -1.8620    -7.2970     1.7800 C.ar  1 <1>  -0.1500 
 29 C        0.1410    -6.9240     0.5180 C.ar  1 <1>  -0.1500 
 30 C       -0.5550    -7.6080     1.5190 C.ar  1 <1>  -0.1500 
 31 H       -1.8300     2.5830    -1.0620 H     1 <1>   0.0800 
 32 H       -2.3490     2.6230     0.5960 H     1 <1>   0.0800 
 33 H       -4.2990     1.1760    -0.3780 H     1 <1>   0.0800 
 34 H       -3.5830     1.1310    -1.9920 H     1 <1>   0.0800 
 35 H       -1.9740    -1.8220    -1.3080 H     1 <1>   0.0800 
 36 H       -2.1380    -1.8190     0.4390 H     1 <1>   0.0800 
 37 H        0.5500     2.6070    -0.2870 H     1 <1>   0.0800 
 38 H        0.0140     2.7000     1.3350 H     1 <1>   0.0800 
 39 H       -4.5590    -0.8730    -2.5040 H     1 <1>   0.0800 
 40 H       -4.4530    -1.8190     0.3590 H     1 <1>   0.0800 
 41 H       -6.0540    -0.3710    -0.1520 H     1 <1>   0.4000 
 42 H       -3.8270    -3.2110    -2.2660 H     1 <1>   0.0800 
 43 H       -5.3130    -3.3730    -1.3850 H     1 <1>   0.0800 
 44 H       -1.2020     7.2640     1.7710 H     1 <1>   0.3700 
 45 H       -2.2360     5.2090     2.8660 H     1 <1>   0.0800 
 46 H       -0.5680     5.1170     3.3770 H     1 <1>   0.0800 
 47 H       -1.3610     3.7220     2.6980 H     1 <1>   0.0800 
 48 H       -0.1980     3.6170    -2.4670 H     1 <1>   0.0800 
 49 H        1.4500     3.9610    -1.9700 H     1 <1>   0.0800 
 50 H        0.6100     5.0450    -3.0410 H     1 <1>   0.0800 
 51 H       -5.4300    -4.6340     0.6730 H     1 <1>   0.1500 
 52 H       -4.4280    -6.4410     2.0490 H     1 <1>   0.1500 
 53 H        0.0290    -5.4030    -0.9720 H     1 <1>   0.1500 
 54 H       -2.4020    -7.8190     2.5500 H     1 <1>   0.1500 
 55 H        1.1690    -7.1770     0.3220 H     1 <1>   0.1500 
 56 H       -0.0480    -8.3780     2.0760 H     1 <1>   0.1500 
@<TRIPOS>BOND
  1   1   2  2   
  2   2   3  am  
  3   2   4  1   
  4   3   5  1   
  5   3   6  1   
  6   4   7  1   
  7   4  31  1   
  8   4  32  1   
  9   5   8  1   
 10   5  33  1   
 11   5  34  1   
 12   6   9  1   
 13   6  35  1   
 14   6  36  1   
 15   7  10  1   
 16   7  37  1   
 17   7  38  1   
 18   8   9  1   
 19   8  11  1   
 20   8  39  1   
 21   9  12  1   
 22   9  40  1   
 23  10  13  2   
 24  10  14  1   
 25  11  41  1   
 26  12  15  1   
 27  12  42  1   
 28  12  43  1   
 29  13  16  1   
 30  13  17  1   
 31  14  18  2   
 32  14  19  1   
 33  15  20  ar  
 34  15  21  ar  
 35  16  22  am  
 36  16  44  1   
 37  17  45  1   
 38  17  46  1   
 39  17  47  1   
 40  18  22  1   
 41  19  48  1   
 42  19  49  1   
 43  19  50  1   
 44  20  23  ar  
 45  21  24  ar  
 46  21  51  1   
 47  22  25  2   
 48  23  26  ar  
 49  23  27  ar  
 50  24  26  ar  
 51  24  52  1   
 52  26  28  ar  
 53  27  29  ar  
 54  27  53  1   
 55  28  30  ar  
 56  28  54  1   
 57  29  30  ar  
 58  29  55  1   
 59  30  56  1   
@<TRIPOS>SUBSTRUCTURE
  1 ****   3 GROUP 4 **** **** 0

# MOE 2024.06 (io_trps.svl 2023.06)
