@<TRIPOS>MOLECULE
NONAME
42 44 1 0 0 
SMALL
USER_CHARGES


@<TRIPOS>ATOM
  1 S        0.3660    -0.5500     1.9480 S.3   1 <1>  -0.0800 
  2 C        0.6410    -1.5930     0.5650 C.2   1 <1>   0.1980 
  3 C       -0.0450     0.7420     0.8610 C.2   1 <1>  -0.1100 
  4 N        0.4580    -1.0190    -0.5590 N.2   1 <1>  -0.5650 
  5 C        1.0780    -3.0260     0.8580 C.3   1 <1>   0.2900 
  6 C        0.0650     0.2980    -0.4000 C.2   1 <1>   0.0460 
  7 N       -0.0050    -4.0490     0.8510 N.3   1 <1>  -0.8100 
  8 C       -0.1990     1.0860    -1.6620 C.3   1 <1>  -0.0590 
  9 C        0.4810    -5.3920     1.2550 C.3   1 <1>   0.2530 
 10 C       -1.2310    -3.6800     1.6030 C.3   1 <1>   0.1100 
 11 C        1.7640    -5.8510     0.5550 C.ar  1 <1>   0.1670 
 12 C       -2.2450    -2.9000     0.7470 C.3   1 <1>   0.2000 
 13 N        1.6490    -6.3410    -0.6720 N.ar  1 <1>  -0.6200 
 14 C        2.9750    -5.7450     1.2280 C.ar  1 <1>  -0.1500 
 15 O       -3.4580    -2.8290     1.4250 O.3   1 <1>  -0.5600 
 16 C       -2.5990    -3.5590    -0.5790 C.3   1 <1>  -0.1600 
 17 C        2.7750    -6.7230    -1.2520 C.ar  1 <1>   0.1600 
 18 C        4.1400    -6.1500     0.6140 C.ar  1 <1>  -0.1500 
 19 C       -4.4790    -2.5460     0.5260 C.3   1 <1>   0.1200 
 20 C       -4.0320    -3.1110    -0.8210 C.3   1 <1>  -0.1600 
 21 C        4.0260    -6.6510    -0.6640 C.ar  1 <1>  -0.1500 
 22 H       -0.3220     1.6900     1.2820 H     1 <1>   0.1500 
 23 H        1.5780    -3.0410     1.8090 H     1 <1>   0.0800 
 24 H        1.7970    -3.2900     0.1020 H     1 <1>   0.0800 
 25 H       -0.4980     2.0900    -1.4250 H     1 <1>   0.0800 
 26 H       -0.9790     0.6090    -2.2270 H     1 <1>   0.0800 
 27 H        0.6940     1.1160    -2.2600 H     1 <1>   0.0800 
 28 H       -0.2860    -6.1140     1.0350 H     1 <1>   0.0800 
 29 H        0.6410    -5.4020     2.3190 H     1 <1>   0.0800 
 30 H       -0.9760    -3.1100     2.4780 H     1 <1>   0.0800 
 31 H       -1.7310    -4.5780     1.9250 H     1 <1>   0.0800 
 32 H       -1.9200    -1.8890     0.5830 H     1 <1>   0.0800 
 33 H        3.0080    -5.3470     2.2250 H     1 <1>   0.1500 
 34 H       -2.5480    -4.6280    -0.4790 H     1 <1>   0.0800 
 35 H       -1.9220    -3.2470    -1.3550 H     1 <1>   0.0800 
 36 H        2.6950    -7.1150    -2.2510 H     1 <1>   0.1500 
 37 H        5.0940    -6.0790     1.1080 H     1 <1>   0.1500 
 38 H       -4.5950    -1.4770     0.4790 H     1 <1>   0.0800 
 39 H       -5.3870    -3.0030     0.8800 H     1 <1>   0.0800 
 40 H       -4.6530    -3.9370    -1.1190 H     1 <1>   0.0800 
 41 H       -4.0780    -2.3450    -1.5730 H     1 <1>   0.0800 
 42 H        4.8950    -6.9830    -1.2030 H     1 <1>   0.1500 
@<TRIPOS>BOND
  1   1   2  1   
  2   1   3  1   
  3   2   4  2   
  4   2   5  1   
  5   3   6  2   
  6   3  22  1   
  7   4   6  1   
  8   5   7  1   
  9   5  23  1   
 10   5  24  1   
 11   6   8  1   
 12   7   9  1   
 13   7  10  1   
 14   8  25  1   
 15   8  26  1   
 16   8  27  1   
 17   9  11  1   
 18   9  28  1   
 19   9  29  1   
 20  10  12  1   
 21  10  30  1   
 22  10  31  1   
 23  11  13  ar  
 24  11  14  ar  
 25  12  15  1   
 26  12  16  1   
 27  12  32  1   
 28  13  17  ar  
 29  14  18  ar  
 30  14  33  1   
 31  15  19  1   
 32  16  20  1   
 33  16  34  1   
 34  16  35  1   
 35  17  21  ar  
 36  17  36  1   
 37  18  21  ar  
 38  18  37  1   
 39  19  20  1   
 40  19  38  1   
 41  19  39  1   
 42  20  40  1   
 43  20  41  1   
 44  21  42  1   
@<TRIPOS>SUBSTRUCTURE
  1 ****   7 GROUP 4 **** **** 0

# MOE 2024.06 (io_trps.svl 2023.06)
