@<TRIPOS>MOLECULE
NONAME
53 55 1 0 0 
SMALL
USER_CHARGES


@<TRIPOS>ATOM
  1 O        0.3950    -0.4600     0.6090 O.3   1 <1>  -0.5600 
  2 C        1.4540    -1.0660    -0.0820 C.3   1 <1>   0.2000 
  3 C       -0.8230    -0.4190    -0.0590 C.3   1 <1>   0.1200 
  4 C        1.6450    -2.4880     0.4720 C.3   1 <1>   0.3430 
  5 C        2.7220    -0.2270     0.1120 C.3   1 <1>   0.2090 
  6 C       -1.3730    -1.8340    -0.2840 C.3   1 <1>  -0.1600 
  7 N        0.4780    -3.4150     0.2370 N.4   1 <1>  -0.9590 
  8 N        2.5640     1.0900    -0.5400 N.pl3 1 <1>  -0.8690 
  9 C       -0.8390    -2.8730     0.7050 C.3   1 <1>   0.3430 
 10 C        0.7470    -4.7480     0.8410 C.3   1 <1>   0.4860 
 11 C        3.6680     1.9160    -0.7030 C.ar  1 <1>   0.4100 
 12 C       -0.2530    -5.7390     0.2800 C.ar  1 <1>  -0.1440 
 13 N        4.8020     1.3270    -1.0330 N.ar  1 <1>  -0.6200 
 14 C        3.5320     3.3280    -0.5030 C.ar  1 <1>   0.4100 
 15 C       -0.1410    -6.1820    -1.0310 C.ar  1 <1>  -0.1500 
 16 C       -1.2920    -6.2070     1.0730 C.ar  1 <1>  -0.1500 
 17 C        5.7920     2.2020    -1.1690 C.ar  1 <1>   0.1600 
 18 N        4.5360     4.1770    -0.6420 N.ar  1 <1>  -0.6200 
 19 N        2.2920     3.8810    -0.1520 N.pl3 1 <1>  -0.8380 
 20 C       -1.0680    -7.0710    -1.5460 C.ar  1 <1>  -0.1500 
 21 C       -2.2170    -7.0960     0.5550 C.ar  1 <1>  -0.1500 
 22 C        5.6640     3.5670    -0.9820 C.ar  1 <1>   0.1600 
 23 C        1.4570     4.2930    -1.3080 C.3   1 <1>   0.1290 
 24 C        2.3010     4.8850     0.9460 C.3   1 <1>   0.1290 
 25 C       -2.1060    -7.5260    -0.7550 C.ar  1 <1>  -0.1500 
 26 H        1.2400    -1.1020    -1.1370 H     1 <1>   0.0800 
 27 H       -0.7000     0.1160    -0.9870 H     1 <1>   0.0800 
 28 H       -1.4980     0.1420     0.5660 H     1 <1>   0.0800 
 29 H        1.8340    -2.4050     1.5300 H     1 <1>   0.0800 
 30 H        2.5250    -2.9090     0.0160 H     1 <1>   0.0800 
 31 H        3.5570    -0.7420    -0.3330 H     1 <1>   0.0800 
 32 H        2.9260    -0.0890     1.1600 H     1 <1>   0.0800 
 33 H       -1.1920    -2.1470    -1.2970 H     1 <1>   0.0800 
 34 H       -2.4420    -1.7800    -0.1730 H     1 <1>   0.0800 
 35 H        0.3770    -3.5810    -0.7710 H     1 <1>   0.4500 
 36 H        1.8020     1.6470    -0.1260 H     1 <1>   0.4000 
 37 H       -1.5560    -3.6760     0.7600 H     1 <1>   0.0800 
 38 H       -0.7440    -2.4360     1.6860 H     1 <1>   0.0800 
 39 H        0.6620    -4.6990     1.9140 H     1 <1>   0.0800 
 40 H        1.7430    -5.0780     0.5910 H     1 <1>   0.0800 
 41 H        0.6630    -5.8510    -1.6660 H     1 <1>   0.1500 
 42 H       -1.3960    -5.8920     2.0980 H     1 <1>   0.1500 
 43 H        6.7530     1.8050    -1.4450 H     1 <1>   0.1500 
 44 H       -0.9830    -7.4170    -2.5630 H     1 <1>   0.1500 
 45 H       -3.0240    -7.4590     1.1700 H     1 <1>   0.1500 
 46 H        6.5280     4.1920    -1.1170 H     1 <1>   0.1500 
 47 H        1.4940     3.5390    -2.0760 H     1 <1>   0.0800 
 48 H        1.8280     5.2190    -1.7150 H     1 <1>   0.0800 
 49 H        0.4360     4.4240    -0.9960 H     1 <1>   0.0800 
 50 H        2.9820     4.5730     1.7190 H     1 <1>   0.0800 
 51 H        1.3160     4.9770     1.3680 H     1 <1>   0.0800 
 52 H        2.6210     5.8410     0.5690 H     1 <1>   0.0800 
 53 H       -2.8260    -8.2190    -1.1560 H     1 <1>   0.1500 
@<TRIPOS>BOND
  1   1   2  1   
  2   1   3  1   
  3   2   4  1   
  4   2   5  1   
  5   2  26  1   
  6   3   6  1   
  7   3  27  1   
  8   3  28  1   
  9   4   7  1   
 10   4  29  1   
 11   4  30  1   
 12   5   8  1   
 13   5  31  1   
 14   5  32  1   
 15   6   9  1   
 16   6  33  1   
 17   6  34  1   
 18   7   9  1   
 19   7  10  1   
 20   7  35  1   
 21   8  11  1   
 22   8  36  1   
 23   9  37  1   
 24   9  38  1   
 25  10  12  1   
 26  10  39  1   
 27  10  40  1   
 28  11  13  ar  
 29  11  14  ar  
 30  12  15  ar  
 31  12  16  ar  
 32  13  17  ar  
 33  14  18  ar  
 34  14  19  1   
 35  15  20  ar  
 36  15  41  1   
 37  16  21  ar  
 38  16  42  1   
 39  17  22  ar  
 40  17  43  1   
 41  18  22  ar  
 42  19  23  1   
 43  19  24  1   
 44  20  25  ar  
 45  20  44  1   
 46  21  25  ar  
 47  21  45  1   
 48  22  46  1   
 49  23  47  1   
 50  23  48  1   
 51  23  49  1   
 52  24  50  1   
 53  24  51  1   
 54  24  52  1   
 55  25  53  1   
@<TRIPOS>SUBSTRUCTURE
  1 ****   2 GROUP 4 **** **** 0

# MOE 2024.06 (io_trps.svl 2023.06)
