@<TRIPOS>MOLECULE
NONAME
46 49 1 0 0 
SMALL
USER_CHARGES


@<TRIPOS>ATOM
  1 O        2.8370    -1.8350     1.9910 O.2   1 <1>  -0.5700 
  2 C        1.9390    -2.1520     1.2280 C.2   1 <1>   0.5440 
  3 N        0.9890    -1.1860     0.9380 N.am  1 <1>  -0.6600 
  4 C        1.9440    -3.5020     0.6580 C.ar  1 <1>   0.3960 
  5 C       -0.1070    -1.3080    -0.0520 C.3   1 <1>   0.1400 
  6 C        1.0730     0.1970     1.4580 C.3   1 <1>   0.1400 
  7 N        0.7990    -4.1290     0.3360 N.ar  1 <1>  -0.6200 
  8 C        3.1840    -4.1200     0.4660 C.ar  1 <1>   0.1600 
  9 C       -0.8000     0.0510    -0.0530 C.3   1 <1>  -0.1600 
 10 C        0.2430     1.0260     0.4860 C.3   1 <1>  -0.1600 
 11 C        0.9700    -5.3420    -0.1710 C.ar  1 <1>   0.4100 
 12 N        3.3780    -5.3290    -0.0440 N.ar  1 <1>  -0.6200 
 13 N       -0.1600    -6.0570    -0.5310 N.3   1 <1>  -0.5900 
 14 C        2.2370    -5.9110    -0.3520 C.ar  1 <1>   0.1600 
 15 C       -1.1570    -5.4300    -1.4760 C.3   1 <1>   0.2450 
 16 C       -1.2690    -6.2320     0.4760 C.3   1 <1>   0.2450 
 17 C       -2.0840    -5.1620    -0.2720 C.3   1 <1>   0.0850 
 18 N       -3.4900    -5.5660    -0.4660 N.pl3 1 <1>   0.4850 
 19 N       -4.0170    -5.8450    -1.6770 N.2   1 <1>  -0.7070 
 20 C       -4.4340    -5.6610     0.5040 C.2   1 <1>  -0.3320 
 21 C       -5.2610    -6.1200    -1.4500 C.2   1 <1>   0.1080 
 22 C       -5.5840    -6.0220    -0.1030 C.2   1 <1>  -0.1500 
 23 C       -4.2060    -5.3920     1.9840 C.3   1 <1>  -0.0600 
 24 C       -6.2210    -6.4970    -2.5540 C.3   1 <1>  -0.0590 
 25 H       -0.7960    -2.0850     0.2320 H     1 <1>   0.0800 
 26 H        0.3090    -1.5240    -1.0210 H     1 <1>   0.0800 
 27 H        2.0940     0.5390     1.4990 H     1 <1>   0.0800 
 28 H        0.6430     0.2250     2.4450 H     1 <1>   0.0800 
 29 H        4.0670    -3.5740     0.7520 H     1 <1>   0.1500 
 30 H       -1.6420     0.0130     0.6150 H     1 <1>   0.0800 
 31 H       -1.1450     0.3220    -1.0350 H     1 <1>   0.0800 
 32 H        0.8780     1.3630    -0.3140 H     1 <1>   0.0800 
 33 H       -0.2000     1.8800     0.9660 H     1 <1>   0.0800 
 34 H        2.2780    -6.8990    -0.7730 H     1 <1>   0.1500 
 35 H       -1.5110    -6.1640    -2.1790 H     1 <1>   0.0000 
 36 H       -0.7740    -4.5360    -1.9350 H     1 <1>   0.0000 
 37 H       -0.9710    -5.9380     1.4660 H     1 <1>   0.0000 
 38 H       -1.6830    -7.2230     0.4170 H     1 <1>   0.0000 
 39 H       -1.9900    -4.1740     0.1420 H     1 <1>   0.0000 
 40 H       -6.5530    -6.1970     0.3300 H     1 <1>   0.1500 
 41 H       -3.8130    -4.4010     2.1280 H     1 <1>   0.0800 
 42 H       -3.5160    -6.1070     2.3940 H     1 <1>   0.0800 
 43 H       -5.1350    -5.4710     2.5210 H     1 <1>   0.0800 
 44 H       -5.8680    -7.3840    -3.0470 H     1 <1>   0.0800 
 45 H       -6.2750    -5.6990    -3.2710 H     1 <1>   0.0800 
 46 H       -7.2010    -6.6810    -2.1550 H     1 <1>   0.0800 
@<TRIPOS>BOND
  1   1   2  2   
  2   2   3  am  
  3   2   4  1   
  4   3   5  1   
  5   3   6  1   
  6   4   7  ar  
  7   4   8  ar  
  8   5   9  1   
  9   5  25  1   
 10   5  26  1   
 11   6  10  1   
 12   6  27  1   
 13   6  28  1   
 14   7  11  ar  
 15   8  12  ar  
 16   8  29  1   
 17   9  10  1   
 18   9  30  1   
 19   9  31  1   
 20  10  32  1   
 21  10  33  1   
 22  11  13  1   
 23  11  14  ar  
 24  12  14  ar  
 25  13  15  1   
 26  13  16  1   
 27  14  34  1   
 28  15  17  1   
 29  15  35  1   
 30  15  36  1   
 31  16  17  1   
 32  16  37  1   
 33  16  38  1   
 34  17  18  1   
 35  17  39  1   
 36  18  19  1   
 37  18  20  1   
 38  19  21  2   
 39  20  22  2   
 40  20  23  1   
 41  21  22  1   
 42  21  24  1   
 43  22  40  1   
 44  23  41  1   
 45  23  42  1   
 46  23  43  1   
 47  24  44  1   
 48  24  45  1   
 49  24  46  1   
@<TRIPOS>SUBSTRUCTURE
  1 ****   7 GROUP 4 **** **** 0

# MOE 2024.06 (io_trps.svl 2023.06)
