@<TRIPOS>MOLECULE
NONAME
48 49 1 0 0 
SMALL
USER_CHARGES


@<TRIPOS>ATOM
  1 O       -1.0700     2.8070     2.0600 O.co2 1 <1>  -0.9000 
  2 C       -1.6860     3.1970     1.0680 C.2   1 <1>   0.9060 
  3 O       -2.6240     3.9980     1.1550 O.co2 1 <1>  -0.9000 
  4 C       -1.0770     2.8910    -0.2760 C.3   1 <1>  -0.1860 
  5 C       -1.8060     3.4010    -1.5390 C.3   1 <1>   0.2000 
  6 C        0.3170     3.5030    -0.2030 C.3   1 <1>   0.3430 
  7 O       -3.1570     3.4720    -1.3020 O.3   1 <1>  -0.6800 
  8 C       -1.3360     4.7880    -2.0000 C.3   1 <1>  -0.1600 
  9 N        0.2690     5.0080    -0.1160 N.4   1 <1>  -0.9590 
 10 C       -0.9140     5.6290    -0.8020 C.3   1 <1>   0.3430 
 11 C        0.2920     5.4230     1.3310 C.3   1 <1>   0.3430 
 12 C        0.6130     6.9140     1.4870 C.3   1 <1>   0.1200 
 13 O        1.6350     7.2660     0.5700 O.3   1 <1>  -0.3630 
 14 C        2.0260     8.5590     0.4270 C.ar  1 <1>   0.0820 
 15 C        1.5200     9.6120     1.1850 C.ar  1 <1>  -0.1500 
 16 C        2.9850     8.8160    -0.5410 C.ar  1 <1>  -0.1500 
 17 C        1.9660    10.9040     0.9650 C.ar  1 <1>  -0.1500 
 18 C        3.4290    10.1070    -0.7580 C.ar  1 <1>  -0.1500 
 19 C        2.9240    11.1600    -0.0130 C.ar  1 <1>   0.0820 
 20 O        3.4190    12.3930    -0.3000 O.3   1 <1>  -0.3620 
 21 C        2.9490    13.5760     0.3070 C.3   1 <1>   0.2000 
 22 C        1.6350    13.9890    -0.3610 C.3   1 <1>  -0.2400 
 23 C        4.0250    14.6400     0.1040 C.3   1 <1>  -0.2400 
 24 H       -0.9830     1.8250    -0.3400 H     1 <1>   0.0800 
 25 H       -1.6740     2.7040    -2.3500 H     1 <1>   0.0800 
 26 H        0.8610     3.2150    -1.0860 H     1 <1>   0.0800 
 27 H        0.8350     3.1010     0.6540 H     1 <1>   0.0800 
 28 H       -3.2770     3.7410    -0.3400 H     1 <1>   0.4000 
 29 H       -0.5010     4.6880    -2.6690 H     1 <1>   0.0800 
 30 H       -2.1260     5.2810    -2.5400 H     1 <1>   0.0800 
 31 H        1.1280     5.4050    -0.5230 H     1 <1>   0.4500 
 32 H       -1.7470     5.6810    -0.1170 H     1 <1>   0.0800 
 33 H       -0.6740     6.6320    -1.1150 H     1 <1>   0.0800 
 34 H       -0.6560     5.2140     1.8020 H     1 <1>   0.0800 
 35 H        1.0380     4.8520     1.8580 H     1 <1>   0.0800 
 36 H        0.9520     7.1210     2.4870 H     1 <1>   0.0800 
 37 H       -0.2620     7.5000     1.2730 H     1 <1>   0.0800 
 38 H        0.7830     9.4530     1.9490 H     1 <1>   0.1500 
 39 H        3.3840     8.0060    -1.1230 H     1 <1>   0.1500 
 40 H        1.5570    11.6960     1.5630 H     1 <1>   0.1500 
 41 H        4.1720    10.3110    -1.5080 H     1 <1>   0.1500 
 42 H        2.8220    13.4030     1.3620 H     1 <1>   0.0800 
 43 H        1.7870    14.1460    -1.4130 H     1 <1>   0.0800 
 44 H        1.2760    14.9050     0.0730 H     1 <1>   0.0800 
 45 H        0.8830    13.2350    -0.2240 H     1 <1>   0.0800 
 46 H        4.1940    14.8050    -0.9450 H     1 <1>   0.0800 
 47 H        4.9420    14.3230     0.5660 H     1 <1>   0.0800 
 48 H        3.7180    15.5660     0.5540 H     1 <1>   0.0800 
@<TRIPOS>BOND
  1   1   2  ar  
  2   2   3  ar  
  3   2   4  1   
  4   4   5  1   
  5   4   6  1   
  6   4  24  1   
  7   5   7  1   
  8   5   8  1   
  9   5  25  1   
 10   6   9  1   
 11   6  26  1   
 12   6  27  1   
 13   7  28  1   
 14   8  10  1   
 15   8  29  1   
 16   8  30  1   
 17   9  10  1   
 18   9  11  1   
 19   9  31  1   
 20  10  32  1   
 21  10  33  1   
 22  11  12  1   
 23  11  34  1   
 24  11  35  1   
 25  12  13  1   
 26  12  36  1   
 27  12  37  1   
 28  13  14  1   
 29  14  15  ar  
 30  14  16  ar  
 31  15  17  ar  
 32  15  38  1   
 33  16  18  ar  
 34  16  39  1   
 35  17  19  ar  
 36  17  40  1   
 37  18  19  ar  
 38  18  41  1   
 39  19  20  1   
 40  20  21  1   
 41  21  22  1   
 42  21  23  1   
 43  21  42  1   
 44  22  43  1   
 45  22  44  1   
 46  22  45  1   
 47  23  46  1   
 48  23  47  1   
 49  23  48  1   
@<TRIPOS>SUBSTRUCTURE
  1 ****  13 GROUP 4 **** **** 0

# MOE 2024.06 (io_trps.svl 2023.06)
