@<TRIPOS>MOLECULE
NONAME
43 45 1 0 0 
SMALL
USER_CHARGES


@<TRIPOS>ATOM
  1 S       -0.0530     0.7280     1.3240 S.3   1 <1>  -0.3320 
  2 C        0.0640     2.3770     0.6490 C.ar  1 <1>   0.7220 
  3 C        1.1060    -0.2950     0.3120 C.3   1 <1>  -0.0100 
  4 N        0.9440     2.5460    -0.3280 N.ar  1 <1>  -0.6200 
  5 N       -0.7420     3.2640     1.2070 N.ar  1 <1>  -0.6200 
  6 C        1.0010     3.7700    -0.8010 C.ar  1 <1>   0.1600 
  7 C       -0.6550     4.4750     0.7080 C.ar  1 <1>   0.1600 
  8 C        0.2220     4.7910    -0.3050 C.ar  1 <1>  -0.1430 
  9 C        0.3490     6.2010    -0.8480 C.3   1 <1>   0.2540 
 10 N        1.7200     6.6940    -0.6110 N.3   1 <1>  -0.8100 
 11 C        2.0500     6.8730     0.8490 C.3   1 <1>   0.1900 
 12 C        2.0500     7.8290    -1.5020 C.3   1 <1>   0.1100 
 13 C        1.7220     8.2690     1.4130 C.3   1 <1>   0.1200 
 14 C        3.5350     6.5200     1.1110 C.3   1 <1>   0.3430 
 15 C        3.2840     8.6600    -1.0850 C.3   1 <1>  -0.0800 
 16 O        2.8010     9.1380     1.2370 O.3   1 <1>  -0.5600 
 17 N        4.3080     6.5060    -0.1730 N.4   1 <1>  -0.9590 
 18 C        2.9230     9.7100    -0.0210 C.3   1 <1>   0.1200 
 19 C        4.5620     7.8750    -0.7160 C.3   1 <1>   0.3430 
 20 C        5.5430     5.6790    -0.0820 C.3   1 <1>   0.2630 
 21 H        1.0570    -1.3040     0.6770 H     1 <1>   0.0800 
 22 H        2.0940     0.1110     0.4290 H     1 <1>   0.0800 
 23 H        0.7850    -0.2400    -0.7130 H     1 <1>   0.0800 
 24 H        1.6930     3.9650    -1.6020 H     1 <1>   0.1500 
 25 H       -1.3000     5.2290     1.1290 H     1 <1>   0.1500 
 26 H       -0.3680     6.8590    -0.3830 H     1 <1>   0.0800 
 27 H        0.1460     6.1790    -1.9060 H     1 <1>   0.0800 
 28 H        1.4690     6.1750     1.4260 H     1 <1>   0.0800 
 29 H        2.2170     7.4350    -2.4910 H     1 <1>   0.0800 
 30 H        1.2000     8.4900    -1.5680 H     1 <1>   0.0800 
 31 H        1.5700     8.1900     2.4760 H     1 <1>   0.0800 
 32 H        0.8310     8.6870     0.9780 H     1 <1>   0.0800 
 33 H        3.5680     5.5410     1.5580 H     1 <1>   0.0800 
 34 H        3.9690     7.2150     1.8110 H     1 <1>   0.0800 
 35 H        3.5410     9.2450    -1.9500 H     1 <1>   0.0800 
 36 H        3.6170     6.0840    -0.8220 H     1 <1>   0.4500 
 37 H        2.0070    10.2240    -0.2610 H     1 <1>   0.0800 
 38 H        3.7070    10.4460     0.0470 H     1 <1>   0.0800 
 39 H        5.1360     8.4470    -0.0050 H     1 <1>   0.0800 
 40 H        5.1580     7.7770    -1.6090 H     1 <1>   0.0800 
 41 H        6.2330     6.1150     0.6210 H     1 <1>   0.0800 
 42 H        6.0230     5.6170    -1.0460 H     1 <1>   0.0800 
 43 H        5.3000     4.6810     0.2440 H     1 <1>   0.0800 
@<TRIPOS>BOND
  1   1   2  1   
  2   1   3  1   
  3   2   4  ar  
  4   2   5  ar  
  5   3  21  1   
  6   3  22  1   
  7   3  23  1   
  8   4   6  ar  
  9   5   7  ar  
 10   6   8  ar  
 11   6  24  1   
 12   7   8  ar  
 13   7  25  1   
 14   8   9  1   
 15   9  10  1   
 16   9  26  1   
 17   9  27  1   
 18  10  11  1   
 19  10  12  1   
 20  11  13  1   
 21  11  14  1   
 22  11  28  1   
 23  12  15  1   
 24  12  29  1   
 25  12  30  1   
 26  13  16  1   
 27  13  31  1   
 28  13  32  1   
 29  14  17  1   
 30  14  33  1   
 31  14  34  1   
 32  15  18  1   
 33  15  19  1   
 34  15  35  1   
 35  16  18  1   
 36  17  19  1   
 37  17  20  1   
 38  17  36  1   
 39  18  37  1   
 40  18  38  1   
 41  19  39  1   
 42  19  40  1   
 43  20  41  1   
 44  20  42  1   
 45  20  43  1   
@<TRIPOS>SUBSTRUCTURE
  1 ****  10 GROUP 4 **** **** 0

# MOE 2024.06 (io_trps.svl 2023.06)
