@<TRIPOS>MOLECULE
NONAME
51 53 1 0 0 
SMALL
USER_CHARGES


@<TRIPOS>ATOM
  1 CL      -0.7690     1.3200    -0.7470 Cl    1 <1>  -0.1770 
  2 C       -1.9880     0.0760    -0.5630 C.ar  1 <1>   0.1770 
  3 C       -1.6300    -1.2680    -0.5960 C.ar  1 <1>   0.0820 
  4 C       -3.2980     0.4730    -0.3870 C.ar  1 <1>  -0.1500 
  5 O       -0.3160    -1.5860    -0.7720 O.3   1 <1>  -0.3630 
  6 C       -2.6350    -2.2210    -0.4480 C.ar  1 <1>  -0.1500 
  7 C       -4.3010    -0.4760    -0.2360 C.ar  1 <1>   0.1170 
  8 C        0.1180    -2.9280    -0.7620 C.3   1 <1>   0.0400 
  9 C       -3.9500    -1.8220    -0.2730 C.ar  1 <1>  -0.1500 
 10 N       -5.6250    -0.0420    -0.0730 N.am  1 <1>  -0.5470 
 11 C       -6.6980    -0.6310     0.5330 C.2   1 <1>   0.6900 
 12 O       -6.5750    -1.6720     1.1510 O.2   1 <1>  -0.5700 
 13 N       -7.9170    -0.0060     0.4560 N.am  1 <1>  -0.6600 
 14 C       -9.0370    -0.4370     1.3430 C.3   1 <1>   0.1400 
 15 C       -8.2310     1.0490    -0.5520 C.3   1 <1>   0.1400 
 16 C       -9.9110     0.7670     1.7040 C.3   1 <1>  -0.1600 
 17 C       -9.7360     1.1130    -0.8190 C.3   1 <1>  -0.1600 
 18 C      -10.5240     1.4630     0.4620 C.3   1 <1>   0.2800 
 19 O      -10.3050     2.8470     0.6530 O.3   1 <1>  -0.5600 
 20 C      -12.0470     1.1340     0.3440 C.3   1 <1>   0.2000 
 21 C      -11.3950     3.7230     0.6880 C.3   1 <1>   0.1200 
 22 O      -12.2780    -0.2120     0.0370 O.3   1 <1>  -0.6800 
 23 C      -12.8270     2.0870    -0.6110 C.3   1 <1>   0.2800 
 24 C      -12.2460     3.5110    -0.5660 C.3   1 <1>  -0.1600 
 25 O      -14.1230     2.1540    -0.1310 O.3   1 <1>  -0.6800 
 26 C      -12.9670     1.6040    -2.0630 C.3   1 <1>  -0.2400 
 27 H       -3.5300     1.5200    -0.3640 H     1 <1>   0.1500 
 28 H       -2.4190    -3.2720    -0.4660 H     1 <1>   0.1500 
 29 H        1.1850    -2.9340    -0.8970 H     1 <1>   0.0800 
 30 H       -0.3550    -3.4540    -1.5730 H     1 <1>   0.0800 
 31 H       -0.1330    -3.3690     0.1860 H     1 <1>   0.0800 
 32 H       -4.7140    -2.5720    -0.1650 H     1 <1>   0.1500 
 33 H       -5.8120     0.9220    -0.3250 H     1 <1>   0.3700 
 34 H       -9.6250    -1.1830     0.8350 H     1 <1>   0.0800 
 35 H       -8.6430    -0.8770     2.2440 H     1 <1>   0.0800 
 36 H       -7.8950     2.0030    -0.1810 H     1 <1>   0.0800 
 37 H       -7.7190     0.8330    -1.4740 H     1 <1>   0.0800 
 38 H       -9.3000     1.4610     2.2540 H     1 <1>   0.0800 
 39 H      -10.6860     0.4300     2.3660 H     1 <1>   0.0800 
 40 H      -10.0480     0.1600    -1.2050 H     1 <1>   0.0800 
 41 H       -9.9270     1.8480    -1.5780 H     1 <1>   0.0800 
 42 H      -12.4600     1.2770     1.3270 H     1 <1>   0.0800 
 43 H      -11.9590     3.5440     1.5880 H     1 <1>   0.0800 
 44 H      -11.0050     4.7260     0.7160 H     1 <1>   0.0800 
 45 H      -13.2460    -0.3540     0.0030 H     1 <1>   0.4000 
 46 H      -11.6070     3.6780    -1.4140 H     1 <1>   0.0800 
 47 H      -13.0280     4.2480    -0.6060 H     1 <1>   0.0800 
 48 H      -14.6730     2.6770    -0.7430 H     1 <1>   0.4000 
 49 H      -12.0000     1.4550    -2.5040 H     1 <1>   0.0800 
 50 H      -13.4930     2.3300    -2.6560 H     1 <1>   0.0800 
 51 H      -13.4950     0.6690    -2.1070 H     1 <1>   0.0800 
@<TRIPOS>BOND
  1   1   2  1   
  2   2   3  ar  
  3   2   4  ar  
  4   3   5  1   
  5   3   6  ar  
  6   4   7  ar  
  7   4  27  1   
  8   5   8  1   
  9   6   9  ar  
 10   6  28  1   
 11   7   9  ar  
 12   7  10  1   
 13   8  29  1   
 14   8  30  1   
 15   8  31  1   
 16   9  32  1   
 17  10  11  am  
 18  10  33  1   
 19  11  12  2   
 20  11  13  am  
 21  13  14  1   
 22  13  15  1   
 23  14  16  1   
 24  14  34  1   
 25  14  35  1   
 26  15  17  1   
 27  15  36  1   
 28  15  37  1   
 29  16  18  1   
 30  16  38  1   
 31  16  39  1   
 32  17  18  1   
 33  17  40  1   
 34  17  41  1   
 35  18  19  1   
 36  18  20  1   
 37  19  21  1   
 38  20  22  1   
 39  20  23  1   
 40  20  42  1   
 41  21  24  1   
 42  21  43  1   
 43  21  44  1   
 44  22  45  1   
 45  23  24  1   
 46  23  25  1   
 47  23  26  1   
 48  24  46  1   
 49  24  47  1   
 50  25  48  1   
 51  26  49  1   
 52  26  50  1   
 53  26  51  1   
@<TRIPOS>SUBSTRUCTURE
  1 ****  13 GROUP 4 **** **** 0

# MOE 2024.06 (io_trps.svl 2023.06)
