@<TRIPOS>MOLECULE
NONAME
42 43 1 0 0 
SMALL
USER_CHARGES


@<TRIPOS>ATOM
  1 F        0.3230     1.6950    -0.9540 F     1 <1>  -0.1900 
  2 C       -0.7670     1.6360    -0.2240 C.ar  1 <1>   0.1900 
  3 C       -1.6700     2.6920    -0.2620 C.ar  1 <1>   0.1000 
  4 C       -0.9830     0.5270     0.5710 C.ar  1 <1>   0.1600 
  5 N       -1.4870     3.8260    -1.0490 N.pl3 1 <1>  -0.8690 
  6 C       -2.7840     2.5170     0.5420 C.ar  1 <1>  -0.1500 
  7 N       -2.0490     0.3700     1.3500 N.ar  1 <1>  -0.6200 
  8 C       -1.5590     5.1750    -0.4620 C.3   1 <1>   0.2890 
  9 C       -2.9210     1.3710     1.3080 C.ar  1 <1>   0.1600 
 10 C       -2.0840     6.1420    -1.5200 C.3   1 <1>  -0.1600 
 11 C       -0.1650     5.5830     0.0140 C.3   1 <1>  -0.1600 
 12 C       -2.0720     7.5780    -0.9950 C.3   1 <1>   0.1400 
 13 C       -0.1720     7.0220     0.5320 C.3   1 <1>   0.1400 
 14 N       -0.6990     7.9290    -0.5270 N.am  1 <1>  -0.6600 
 15 C       -0.0300     9.0040    -1.0660 C.2   1 <1>   0.5690 
 16 O       -0.5220     9.6870    -1.9340 O.2   1 <1>  -0.5700 
 17 C        1.3710     9.3860    -0.6060 C.3   1 <1>  -0.0990 
 18 C        1.4000    10.1250     0.7480 C.3   1 <1>  -0.0800 
 19 C        0.6680    11.4710     0.6680 C.3   1 <1>  -0.2400 
 20 C        2.8490    10.3520     1.1940 C.3   1 <1>  -0.2400 
 21 H       -0.2520    -0.2610     0.5660 H     1 <1>   0.1500 
 22 H       -0.7050     3.7520    -1.7120 H     1 <1>   0.4000 
 23 H       -3.5490     3.2690     0.5620 H     1 <1>   0.1500 
 24 H       -2.2330     5.1730     0.3780 H     1 <1>   0.0800 
 25 H       -3.8000     1.2660     1.9220 H     1 <1>   0.1500 
 26 H       -3.0890     5.8700    -1.7870 H     1 <1>   0.0800 
 27 H       -1.4730     6.0930    -2.4040 H     1 <1>   0.0800 
 28 H        0.5390     5.5090    -0.7950 H     1 <1>   0.0800 
 29 H        0.1500     4.9250     0.8030 H     1 <1>   0.0800 
 30 H       -2.7590     7.6790    -0.1730 H     1 <1>   0.0800 
 31 H       -2.3950     8.2450    -1.7770 H     1 <1>   0.0800 
 32 H        0.8240     7.2960     0.8280 H     1 <1>   0.0800 
 33 H       -0.8050     7.0960     1.3990 H     1 <1>   0.0800 
 34 H        1.8050    10.0210    -1.3580 H     1 <1>   0.0800 
 35 H        1.9760     8.5010    -0.5660 H     1 <1>   0.0800 
 36 H        0.9100     9.5210     1.4920 H     1 <1>   0.0800 
 37 H        1.1160    12.1030    -0.0780 H     1 <1>   0.0800 
 38 H        0.7070    11.9770     1.6160 H     1 <1>   0.0800 
 39 H       -0.3670    11.3240     0.4100 H     1 <1>   0.0800 
 40 H        3.3740    10.9640     0.4810 H     1 <1>   0.0800 
 41 H        3.3660     9.4140     1.2890 H     1 <1>   0.0800 
 42 H        2.8720    10.8470     2.1500 H     1 <1>   0.0800 
@<TRIPOS>BOND
  1   1   2  1   
  2   2   3  ar  
  3   2   4  ar  
  4   3   5  1   
  5   3   6  ar  
  6   4   7  ar  
  7   4  21  1   
  8   5   8  1   
  9   5  22  1   
 10   6   9  ar  
 11   6  23  1   
 12   7   9  ar  
 13   8  10  1   
 14   8  11  1   
 15   8  24  1   
 16   9  25  1   
 17  10  12  1   
 18  10  26  1   
 19  10  27  1   
 20  11  13  1   
 21  11  28  1   
 22  11  29  1   
 23  12  14  1   
 24  12  30  1   
 25  12  31  1   
 26  13  14  1   
 27  13  32  1   
 28  13  33  1   
 29  14  15  am  
 30  15  16  2   
 31  15  17  1   
 32  17  18  1   
 33  17  34  1   
 34  17  35  1   
 35  18  19  1   
 36  18  20  1   
 37  18  36  1   
 38  19  37  1   
 39  19  38  1   
 40  19  39  1   
 41  20  40  1   
 42  20  41  1   
 43  20  42  1   
@<TRIPOS>SUBSTRUCTURE
  1 ****  11 GROUP 4 **** **** 0

# MOE 2024.06 (io_trps.svl 2023.06)
