@<TRIPOS>MOLECULE
NONAME
48 51 1 0 0 
SMALL
USER_CHARGES


@<TRIPOS>ATOM
  1 O       -0.5710     0.5210     0.9340 O.2   1 <1>  -0.5700 
  2 C       -1.5250     1.0750     0.4110 C.2   1 <1>   0.7150 
  3 N       -2.6570     0.3030     0.2200 N.am  1 <1>  -0.6600 
  4 C       -1.4290     2.4710     0.0140 C.2   1 <1>   0.1020 
  5 C       -3.9170     0.7270    -0.4500 C.3   1 <1>   0.1400 
  6 C       -2.6950    -1.1540     0.5050 C.3   1 <1>   0.1400 
  7 N       -2.4350     3.2990    -0.1130 N.2   1 <1>  -0.3380 
  8 N       -0.2780     3.1240    -0.2680 N.pl3 1 <1>   0.0480 
  9 C       -4.8700    -0.4540    -0.2700 C.3   1 <1>   0.2000 
 10 C       -3.9410    -1.6710    -0.2200 C.3   1 <1>  -0.0800 
 11 N       -1.9580     4.4830    -0.4580 N.2   1 <1>  -0.3380 
 12 C       -0.6790     4.3640    -0.5380 C.2   1 <1>   0.0070 
 13 C        1.1280     2.6510    -0.3300 C.3   1 <1>   0.0960 
 14 O       -5.5100    -0.3110     0.9520 O.3   1 <1>  -0.6800 
 15 C       -4.5560    -2.9310     0.4180 C.3   1 <1>   0.0200 
 16 C        0.2510     5.5110    -0.8860 C.3   1 <1>   0.0200 
 17 C        2.0030     3.3540     0.7160 C.3   1 <1>  -0.1600 
 18 C       -3.6550    -4.1510     0.3170 C.2   1 <1>  -0.0400 
 19 C        1.2550     5.7930     0.2420 C.3   1 <1>  -0.1600 
 20 C        2.4130     4.7840     0.3230 C.3   1 <1>  -0.1600 
 21 O       -3.9980    -5.2360     0.9590 O.3   1 <1>  -0.0190 
 22 C       -2.5030    -4.4050    -0.3250 C.2   1 <1>  -0.1500 
 23 N       -3.1390    -6.1980     0.7850 N.2   1 <1>  -0.4100 
 24 C       -2.2260    -5.7260     0.0150 C.2   1 <1>   0.1080 
 25 C       -1.0200    -6.5090    -0.4510 C.3   1 <1>  -0.0590 
 26 H       -4.3280     1.6220    -0.0150 H     1 <1>   0.0800 
 27 H       -3.7210     0.8940    -1.4950 H     1 <1>   0.0800 
 28 H       -1.7990    -1.6370     0.1540 H     1 <1>   0.0800 
 29 H       -2.7800    -1.2990     1.5690 H     1 <1>   0.0800 
 30 H       -5.6190    -0.5160    -1.0420 H     1 <1>   0.0800 
 31 H       -3.6610    -1.9030    -1.2330 H     1 <1>   0.0800 
 32 H        1.1680     1.5910    -0.1720 H     1 <1>   0.0800 
 33 H        1.5110     2.8400    -1.3170 H     1 <1>   0.0800 
 34 H       -4.8610    -0.0010     1.6160 H     1 <1>   0.4000 
 35 H       -5.4900    -3.1570    -0.0660 H     1 <1>   0.0800 
 36 H       -4.7660    -2.7510     1.4580 H     1 <1>   0.0800 
 37 H        0.7640     5.3040    -1.8080 H     1 <1>   0.0800 
 38 H       -0.3490     6.3910    -1.0410 H     1 <1>   0.0800 
 39 H        1.5030     3.3520     1.6700 H     1 <1>   0.0800 
 40 H        2.9040     2.7770     0.8310 H     1 <1>   0.0800 
 41 H        1.6760     6.7700     0.0750 H     1 <1>   0.0800 
 42 H        0.7320     5.8290     1.1830 H     1 <1>   0.0800 
 43 H        3.1110     5.1420     1.0610 H     1 <1>   0.0800 
 44 H        2.9360     4.7630    -0.6180 H     1 <1>   0.0800 
 45 H       -1.9030    -3.7800    -0.9590 H     1 <1>   0.1500 
 46 H       -0.9880    -6.5280    -1.5250 H     1 <1>   0.0800 
 47 H       -1.0750    -7.5190    -0.0870 H     1 <1>   0.0800 
 48 H       -0.1220    -6.0530    -0.0760 H     1 <1>   0.0800 
@<TRIPOS>BOND
  1   1   2  2   
  2   2   3  am  
  3   2   4  1   
  4   3   5  1   
  5   3   6  1   
  6   4   7  2   
  7   4   8  1   
  8   5   9  1   
  9   5  26  1   
 10   5  27  1   
 11   6  10  1   
 12   6  28  1   
 13   6  29  1   
 14   7  11  1   
 15   8  12  1   
 16   8  13  1   
 17   9  10  1   
 18   9  14  1   
 19   9  30  1   
 20  10  15  1   
 21  10  31  1   
 22  11  12  2   
 23  12  16  1   
 24  13  17  1   
 25  13  32  1   
 26  13  33  1   
 27  14  34  1   
 28  15  18  1   
 29  15  35  1   
 30  15  36  1   
 31  16  19  1   
 32  16  37  1   
 33  16  38  1   
 34  17  20  1   
 35  17  39  1   
 36  17  40  1   
 37  18  21  1   
 38  18  22  2   
 39  19  20  1   
 40  19  41  1   
 41  19  42  1   
 42  20  43  1   
 43  20  44  1   
 44  21  23  1   
 45  22  24  1   
 46  22  45  1   
 47  23  24  2   
 48  24  25  1   
 49  25  46  1   
 50  25  47  1   
 51  25  48  1   
@<TRIPOS>SUBSTRUCTURE
  1 ****   3 GROUP 4 **** **** 0

# MOE 2024.06 (io_trps.svl 2023.06)
