@<TRIPOS>MOLECULE
NONAME
48 49 1 0 0 
SMALL
USER_CHARGES


@<TRIPOS>ATOM
  1 S        0.0280     0.5660    -0.7830 S.o2  1 <1>   1.3330 
  2 O       -0.6800    -0.6290    -1.1650 O.2   1 <1>  -0.6500 
  3 O        0.1010     1.7020    -1.6740 O.2   1 <1>  -0.6500 
  4 N        1.6210     0.1320    -0.3850 N.am  1 <1>  -0.8490 
  5 C       -0.6310     1.1730     0.7790 C.3   1 <1>  -0.0550 
  6 C        1.7080    -1.1780     0.2810 C.3   1 <1>   0.1160 
  7 C        2.4790     0.0950    -1.5790 C.3   1 <1>   0.1160 
  8 C       -0.2460     2.6200     1.1800 C.3   1 <1>  -0.0800 
  9 C       -0.9010     3.6920     0.2900 C.3   1 <1>   0.2000 
 10 C        1.2660     2.9180     1.1440 C.3   1 <1>   0.3430 
 11 O       -1.5360     4.6110     1.1190 O.3   1 <1>  -0.6800 
 12 C        0.2670     4.3960    -0.4120 C.3   1 <1>   0.3430 
 13 N        1.4290     4.2510     0.5110 N.4   1 <1>  -0.9590 
 14 C        1.4560     5.3590     1.5000 C.3   1 <1>   0.5240 
 15 C        1.8880     6.6030     0.7530 C.2   1 <1>  -0.1810 
 16 C        3.1360     6.9730     0.3510 C.2   1 <1>  -0.3320 
 17 C        1.0120     7.6080     0.3360 C.2   1 <1>  -0.1500 
 18 N        3.0580     8.1670    -0.3060 N.pl3 1 <1>   0.0480 
 19 C        4.4530     6.2400     0.5740 C.3   1 <1>  -0.0600 
 20 C        1.7470     8.5570    -0.3110 C.2   1 <1>  -0.1320 
 21 C        4.1830     8.9380    -0.8880 C.3   1 <1>   0.0160 
 22 C        1.2870     9.7730    -0.9090 C.1   1 <1>   0.5370 
 23 N        0.9480    10.7440    -1.4000 N.1   1 <1>  -0.5570 
 24 H       -1.7020     1.1210     0.7300 H     1 <1>   0.0800 
 25 H       -0.3320     0.5040     1.5620 H     1 <1>   0.0800 
 26 H        2.7270    -1.3830     0.5650 H     1 <1>   0.0800 
 27 H        1.3690    -1.9620    -0.3770 H     1 <1>   0.0800 
 28 H        1.1020    -1.1940     1.1700 H     1 <1>   0.0800 
 29 H        3.4860    -0.1770    -1.3100 H     1 <1>   0.0800 
 30 H        2.5080     1.0630    -2.0510 H     1 <1>   0.0800 
 31 H        2.1010    -0.6210    -2.2910 H     1 <1>   0.0800 
 32 H       -0.5770     2.7540     2.1960 H     1 <1>   0.0800 
 33 H       -1.6190     3.3140    -0.4200 H     1 <1>   0.0800 
 34 H        1.7770     2.1890     0.5420 H     1 <1>   0.0800 
 35 H        1.6920     2.8980     2.1350 H     1 <1>   0.0800 
 36 H       -2.4430     4.3140     1.3500 H     1 <1>   0.4000 
 37 H        0.0340     5.4260    -0.6250 H     1 <1>   0.0800 
 38 H        0.4830     3.8900    -1.3380 H     1 <1>   0.0800 
 39 H        2.2990     4.3300    -0.0300 H     1 <1>   0.4500 
 40 H        0.4870     5.5040     1.9480 H     1 <1>   0.0800 
 41 H        2.1720     5.1480     2.2770 H     1 <1>   0.0800 
 42 H       -0.0530     7.6240     0.5040 H     1 <1>   0.1500 
 43 H        4.3110     5.3520     1.1620 H     1 <1>   0.0800 
 44 H        5.1440     6.8790     1.0980 H     1 <1>   0.0800 
 45 H        4.8890     5.9610    -0.3690 H     1 <1>   0.0800 
 46 H        5.0310     8.2990    -1.0450 H     1 <1>   0.0800 
 47 H        4.4530     9.7330    -0.2160 H     1 <1>   0.0800 
 48 H        3.8850     9.3560    -1.8330 H     1 <1>   0.0800 
@<TRIPOS>BOND
  1   1   2  2   
  2   1   3  2   
  3   1   4  am  
  4   1   5  1   
  5   4   6  1   
  6   4   7  1   
  7   5   8  1   
  8   5  24  1   
  9   5  25  1   
 10   6  26  1   
 11   6  27  1   
 12   6  28  1   
 13   7  29  1   
 14   7  30  1   
 15   7  31  1   
 16   8   9  1   
 17   8  10  1   
 18   8  32  1   
 19   9  11  1   
 20   9  12  1   
 21   9  33  1   
 22  10  13  1   
 23  10  34  1   
 24  10  35  1   
 25  11  36  1   
 26  12  13  1   
 27  12  37  1   
 28  12  38  1   
 29  13  14  1   
 30  13  39  1   
 31  14  15  1   
 32  14  40  1   
 33  14  41  1   
 34  15  16  2   
 35  15  17  1   
 36  16  18  1   
 37  16  19  1   
 38  17  20  2   
 39  17  42  1   
 40  18  20  1   
 41  18  21  1   
 42  19  43  1   
 43  19  44  1   
 44  19  45  1   
 45  20  22  1   
 46  21  46  1   
 47  21  47  1   
 48  21  48  1   
 49  22  23  3   
@<TRIPOS>SUBSTRUCTURE
  1 ****  13 GROUP 4 **** **** 0

# MOE 2024.06 (io_trps.svl 2023.06)
