@<TRIPOS>MOLECULE
NONAME
52 54 1 0 0 
SMALL
USER_CHARGES


@<TRIPOS>ATOM
  1 O       -1.1460     1.1890    -2.3930 O.2   1 <1>  -0.5700 
  2 C       -1.9050     1.6200    -1.5550 C.2   1 <1>   0.5690 
  3 N       -2.7180     0.7740    -0.8440 N.am  1 <1>  -0.6600 
  4 C       -1.9400     3.1430    -1.3230 C.3   1 <1>   0.1710 
  5 C       -3.7310     1.1500     0.1740 C.3   1 <1>   0.1400 
  6 C       -2.6570    -0.6990    -0.9960 C.3   1 <1>   0.1400 
  7 N       -0.8580     3.7140    -0.4700 N.3   1 <1>  -0.8100 
  8 C       -4.3000    -0.1760     0.6820 C.3   1 <1>   0.2000 
  9 C       -3.2870    -1.2480     0.2840 C.3   1 <1>  -0.0800 
 10 C        0.4690     3.5040    -1.0890 C.3   1 <1>   0.2530 
 11 C       -0.8980     3.2070     0.9070 C.3   1 <1>   0.0300 
 12 O       -4.4570    -0.1670     2.0590 O.3   1 <1>  -0.6800 
 13 C       -3.9250    -2.6390     0.1280 C.3   1 <1>  -0.0170 
 14 C        1.5580     4.2810    -0.3590 C.ar  1 <1>  -0.1440 
 15 C       -2.8910    -3.6930    -0.2350 C.ar  1 <1>   0.1670 
 16 C        2.7050     3.6370     0.0820 C.ar  1 <1>  -0.1500 
 17 C        1.4190     5.6400    -0.1280 C.ar  1 <1>  -0.1500 
 18 N       -2.5710    -3.7900    -1.5150 N.ar  1 <1>  -0.6200 
 19 C       -2.3290    -4.4890     0.7610 C.ar  1 <1>   0.1600 
 20 C        3.6950     4.3430     0.7430 C.ar  1 <1>  -0.1500 
 21 C        2.4090     6.3470     0.5330 C.ar  1 <1>  -0.1500 
 22 C       -1.6610    -4.7260    -1.7310 C.ar  1 <1>   0.1600 
 23 N       -1.4170    -5.4230     0.5480 N.ar  1 <1>  -0.6200 
 24 C        3.5520     5.7020     0.9740 C.ar  1 <1>  -0.1440 
 25 C       -1.1030    -5.5150    -0.7330 C.ar  1 <1>   0.1600 
 26 C        4.6380     6.4770     1.6970 C.3   1 <1>  -0.0970 
 27 H       -2.8880     3.4170    -0.9000 H     1 <1>   0.0800 
 28 H       -1.8910     3.6140    -2.2880 H     1 <1>   0.0800 
 29 H       -3.2600     1.6940     0.9720 H     1 <1>   0.0800 
 30 H       -4.5070     1.7440    -0.2760 H     1 <1>   0.0800 
 31 H       -3.2280    -0.9870    -1.8630 H     1 <1>   0.0800 
 32 H       -1.6410    -1.0370    -1.1150 H     1 <1>   0.0800 
 33 H       -5.2620    -0.3560     0.2320 H     1 <1>   0.0800 
 34 H       -2.5060    -1.2960     1.0230 H     1 <1>   0.0800 
 35 H        0.7090     2.4550    -1.0920 H     1 <1>   0.0800 
 36 H        0.4420     3.8390    -2.1120 H     1 <1>   0.0800 
 37 H       -0.1490     3.6990     1.5050 H     1 <1>   0.0800 
 38 H       -0.7160     2.1460     0.9270 H     1 <1>   0.0800 
 39 H       -1.8580     3.4170     1.3450 H     1 <1>   0.0800 
 40 H       -3.5970    -0.0290     2.5010 H     1 <1>   0.4000 
 41 H       -4.6820    -2.6150    -0.6370 H     1 <1>   0.0800 
 42 H       -4.4070    -2.9130     1.0490 H     1 <1>   0.0800 
 43 H        2.8310     2.5830    -0.0890 H     1 <1>   0.1500 
 44 H        0.5290     6.1450    -0.4630 H     1 <1>   0.1500 
 45 H       -2.6450    -4.3470     1.7790 H     1 <1>   0.1500 
 46 H        4.5790     3.8290     1.0770 H     1 <1>   0.1500 
 47 H        2.2810     7.4010     0.7020 H     1 <1>   0.1500 
 48 H       -1.3410    -4.8750    -2.7470 H     1 <1>   0.1500 
 49 H       -0.3670    -6.2500    -1.0070 H     1 <1>   0.1500 
 50 H        5.1570     5.8390     2.3900 H     1 <1>   0.0800 
 51 H        4.2120     7.2970     2.2460 H     1 <1>   0.0800 
 52 H        5.3440     6.8640     0.9840 H     1 <1>   0.0800 
@<TRIPOS>BOND
  1   1   2  2   
  2   2   3  am  
  3   2   4  1   
  4   3   5  1   
  5   3   6  1   
  6   4   7  1   
  7   4  27  1   
  8   4  28  1   
  9   5   8  1   
 10   5  29  1   
 11   5  30  1   
 12   6   9  1   
 13   6  31  1   
 14   6  32  1   
 15   7  10  1   
 16   7  11  1   
 17   8   9  1   
 18   8  12  1   
 19   8  33  1   
 20   9  13  1   
 21   9  34  1   
 22  10  14  1   
 23  10  35  1   
 24  10  36  1   
 25  11  37  1   
 26  11  38  1   
 27  11  39  1   
 28  12  40  1   
 29  13  15  1   
 30  13  41  1   
 31  13  42  1   
 32  14  16  ar  
 33  14  17  ar  
 34  15  18  ar  
 35  15  19  ar  
 36  16  20  ar  
 37  16  43  1   
 38  17  21  ar  
 39  17  44  1   
 40  18  22  ar  
 41  19  23  ar  
 42  19  45  1   
 43  20  24  ar  
 44  20  46  1   
 45  21  24  ar  
 46  21  47  1   
 47  22  25  ar  
 48  22  48  1   
 49  23  25  ar  
 50  24  26  1   
 51  25  49  1   
 52  26  50  1   
 53  26  51  1   
 54  26  52  1   
@<TRIPOS>SUBSTRUCTURE
  1 ****   2 GROUP 4 **** **** 0

# MOE 2024.06 (io_trps.svl 2023.06)
