@<TRIPOS>MOLECULE
NONAME
46 48 1 0 0 
SMALL
USER_CHARGES


@<TRIPOS>ATOM
  1 O       -1.3720    -0.9350    -1.1320 O.2   1 <1>  -0.5700 
  2 C       -2.1190    -0.1870    -0.5300 C.2   1 <1>   0.5440 
  3 N       -1.7090     1.1080    -0.2910 N.am  1 <1>  -0.6600 
  4 C       -3.3940    -0.6920    -0.0850 C.ar  1 <1>   0.0860 
  5 C       -0.4970     1.6780    -0.9530 C.3   1 <1>   0.1400 
  6 C       -2.2510     1.9930     0.7830 C.3   1 <1>   0.1400 
  7 C       -3.4670    -1.9030     0.5970 C.ar  1 <1>   0.1600 
  8 C       -4.5970    -0.0330    -0.3220 C.ar  1 <1>  -0.1500 
  9 C       -0.7420     3.1390    -1.3650 C.3   1 <1>   0.1200 
 10 C       -2.4070     3.4340     0.2670 C.3   1 <1>   0.1200 
 11 N       -4.5690    -2.4760     1.0500 N.ar  1 <1>  -0.6200 
 12 C       -5.7520    -0.6140     0.1410 C.ar  1 <1>  -0.1500 
 13 O       -1.2030     3.8950    -0.2790 O.3   1 <1>  -0.5600 
 14 C       -5.7040    -1.8300     0.8160 C.ar  1 <1>   0.4100 
 15 N       -6.8650    -2.4050     1.2470 N.pl3 1 <1>  -0.8690 
 16 C       -7.0040    -3.8070     1.6790 C.3   1 <1>   0.4690 
 17 C       -7.7180    -4.5900     0.5770 C.2   1 <1>   0.0060 
 18 C       -7.7820    -3.7960     2.9920 C.3   1 <1>  -0.2400 
 19 N       -8.9820    -4.8500     0.5350 N.2   1 <1>  -0.5650 
 20 N       -7.0880    -5.0950    -0.4960 N.pl3 1 <1>   0.3140 
 21 C       -9.0800    -5.5430    -0.6040 C.2   1 <1>   0.3660 
 22 N       -7.9810    -5.7210    -1.2550 N.2   1 <1>  -0.7070 
 23 C       -5.6580    -5.0450    -0.8870 C.3   1 <1>   0.0960 
 24 C       -5.4230    -4.0430    -2.0250 C.3   1 <1>  -0.2400 
 25 H       -0.2410     1.1040    -1.8270 H     1 <1>   0.0800 
 26 H        0.3340     1.6330    -0.2710 H     1 <1>   0.0800 
 27 H       -1.5640     1.9960     1.6120 H     1 <1>   0.0800 
 28 H       -3.1970     1.6350     1.1440 H     1 <1>   0.0800 
 29 H       -2.5410    -2.4250     0.7720 H     1 <1>   0.1500 
 30 H       -4.6090     0.8990    -0.8590 H     1 <1>   0.1500 
 31 H       -1.4700     3.1910    -2.1550 H     1 <1>   0.0800 
 32 H        0.1740     3.5850    -1.7100 H     1 <1>   0.0800 
 33 H       -2.6720     4.0910     1.0750 H     1 <1>   0.0800 
 34 H       -3.1710     3.4870    -0.4890 H     1 <1>   0.0800 
 35 H       -6.7040    -0.1420    -0.0160 H     1 <1>   0.1500 
 36 H       -7.7480    -2.0420     0.8870 H     1 <1>   0.4000 
 37 H       -6.0430    -4.2500     1.8700 H     1 <1>   0.0800 
 38 H       -8.7470    -3.3420     2.8540 H     1 <1>   0.0800 
 39 H       -7.2320    -3.2540     3.7390 H     1 <1>   0.0800 
 40 H       -7.9260    -4.8050     3.3330 H     1 <1>   0.0800 
 41 H      -10.0320    -5.9230    -0.9380 H     1 <1>   0.1500 
 42 H       -5.3700    -6.0290    -1.2100 H     1 <1>   0.0800 
 43 H       -5.0610    -4.7870    -0.0350 H     1 <1>   0.0800 
 44 H       -5.9720    -4.3420    -2.9000 H     1 <1>   0.0800 
 45 H       -4.3770    -4.0090    -2.2700 H     1 <1>   0.0800 
 46 H       -5.7360    -3.0580    -1.7300 H     1 <1>   0.0800 
@<TRIPOS>BOND
  1   1   2  2   
  2   2   3  am  
  3   2   4  1   
  4   3   5  1   
  5   3   6  1   
  6   4   7  ar  
  7   4   8  ar  
  8   5   9  1   
  9   5  25  1   
 10   5  26  1   
 11   6  10  1   
 12   6  27  1   
 13   6  28  1   
 14   7  11  ar  
 15   7  29  1   
 16   8  12  ar  
 17   8  30  1   
 18   9  13  1   
 19   9  31  1   
 20   9  32  1   
 21  10  13  1   
 22  10  33  1   
 23  10  34  1   
 24  11  14  ar  
 25  12  14  ar  
 26  12  35  1   
 27  14  15  1   
 28  15  16  1   
 29  15  36  1   
 30  16  17  1   
 31  16  18  1   
 32  16  37  1   
 33  17  19  2   
 34  17  20  1   
 35  18  38  1   
 36  18  39  1   
 37  18  40  1   
 38  19  21  1   
 39  20  22  1   
 40  20  23  1   
 41  21  22  2   
 42  21  41  1   
 43  23  24  1   
 44  23  42  1   
 45  23  43  1   
 46  24  44  1   
 47  24  45  1   
 48  24  46  1   
@<TRIPOS>SUBSTRUCTURE
  1 ****  14 GROUP 4 **** **** 0

# MOE 2024.06 (io_trps.svl 2023.06)
