@<TRIPOS>MOLECULE
NONAME
57 60 1 0 0 
SMALL
USER_CHARGES


@<TRIPOS>ATOM
  1 O       -1.4690     1.9710     1.4370 O.2   1 <1>  -0.5700 
  2 C       -1.9770     2.7220     0.6330 C.2   1 <1>   0.5440 
  3 N       -1.1740     3.6980     0.1490 N.am  1 <1>  -0.8000 
  4 C       -3.3680     2.5900     0.2330 C.ar  1 <1>   0.0860 
  5 C       -3.8590     3.1470    -0.9510 C.ar  1 <1>  -0.1500 
  6 C       -4.2790     1.8890     1.0270 C.ar  1 <1>  -0.1500 
  7 C       -5.1880     3.0210    -1.3120 C.ar  1 <1>  -0.1500 
  8 C       -5.6090     1.7560     0.6740 C.ar  1 <1>  -0.1500 
  9 C       -6.0750     2.3280    -0.5060 C.ar  1 <1>   0.0830 
 10 O       -7.3580     2.2530    -0.9280 O.3   1 <1>  -0.3630 
 11 C       -8.3450     1.5760    -0.1930 C.3   1 <1>   0.1200 
 12 C       -9.6530     1.7120    -0.9710 C.3   1 <1>  -0.1600 
 13 C      -10.8150     1.0940    -0.1970 C.3   1 <1>   0.3430 
 14 N      -12.0830     1.2270    -0.9720 N.4   1 <1>  -0.9590 
 15 C      -12.5920     2.6490    -1.0690 C.3   1 <1>   0.3430 
 16 C      -13.1360     0.2890    -0.4460 C.3   1 <1>   0.3430 
 17 C      -13.0580     3.2540     0.2770 C.3   1 <1>   0.1430 
 18 C      -14.1540     0.9630     0.4890 C.3   1 <1>  -0.1600 
 19 C      -14.1310     4.2560    -0.0930 C.ar  1 <1>   0.1670 
 20 C      -13.5840     2.1710     1.2500 C.3   1 <1>  -0.1600 
 21 C      -11.9850     4.1500     0.9580 C.3   1 <1>  -0.1600 
 22 N      -15.3110     3.9420    -0.5770 N.ar  1 <1>  -0.6200 
 23 C      -13.7230     5.5410     0.0960 C.ar  1 <1>  -0.1430 
 24 C      -12.3130     5.6170     0.6190 C.3   1 <1>  -0.0170 
 25 C      -16.0900     4.9840    -0.8370 C.ar  1 <1>   0.4770 
 26 C      -14.6060     6.5450    -0.2150 C.ar  1 <1>   0.1600 
 27 N      -15.8040     6.2700    -0.6870 N.ar  1 <1>  -0.6200 
 28 C      -17.4660     4.6760    -1.3780 C.3   1 <1>  -0.0970 
 29 H       -0.2170     3.7540     0.5000 H     1 <1>   0.3700 
 30 H       -1.5010     4.4740    -0.4210 H     1 <1>   0.3700 
 31 H       -3.1930     3.6800    -1.6040 H     1 <1>   0.1500 
 32 H       -3.9250     1.4400     1.9410 H     1 <1>   0.1500 
 33 H       -5.5450     3.4580    -2.2280 H     1 <1>   0.1500 
 34 H       -6.2580     1.2050     1.3270 H     1 <1>   0.1500 
 35 H       -8.4140     2.0390     0.7770 H     1 <1>   0.0800 
 36 H       -8.0480     0.5450    -0.0980 H     1 <1>   0.0800 
 37 H       -9.5390     1.2110    -1.9160 H     1 <1>   0.0800 
 38 H       -9.8290     2.7590    -1.1420 H     1 <1>   0.0800 
 39 H      -10.9170     1.5730     0.7640 H     1 <1>   0.0800 
 40 H      -10.6030     0.0500    -0.0290 H     1 <1>   0.0800 
 41 H      -11.8730     0.9210    -1.9320 H     1 <1>   0.4500 
 42 H      -13.4440     2.6510    -1.7310 H     1 <1>   0.0800 
 43 H      -11.8500     3.2910    -1.5110 H     1 <1>   0.0800 
 44 H      -12.6590    -0.5210     0.0820 H     1 <1>   0.0800 
 45 H      -13.6770    -0.1440    -1.2720 H     1 <1>   0.0800 
 46 H      -14.5220     0.2330     1.1890 H     1 <1>   0.0800 
 47 H      -15.0020     1.2780    -0.0950 H     1 <1>   0.0800 
 48 H      -14.3460     2.5940     1.8840 H     1 <1>   0.0800 
 49 H      -12.7910     1.8260     1.8890 H     1 <1>   0.0800 
 50 H      -10.9820     3.9040     0.6630 H     1 <1>   0.0800 
 51 H      -12.0530     4.0460     2.0280 H     1 <1>   0.0800 
 52 H      -11.6590     5.9940    -0.1490 H     1 <1>   0.0800 
 53 H      -12.2510     6.2480     1.4890 H     1 <1>   0.0800 
 54 H      -14.3360     7.5790    -0.0820 H     1 <1>   0.1500 
 55 H      -17.7430     3.6650    -1.1460 H     1 <1>   0.0800 
 56 H      -17.4670     4.8080    -2.4430 H     1 <1>   0.0800 
 57 H      -18.1860     5.3420    -0.9400 H     1 <1>   0.0800 
@<TRIPOS>BOND
  1   1   2  2   
  2   2   3  am  
  3   2   4  1   
  4   3  29  1   
  5   3  30  1   
  6   4   5  ar  
  7   4   6  ar  
  8   5   7  ar  
  9   5  31  1   
 10   6   8  ar  
 11   6  32  1   
 12   7   9  ar  
 13   7  33  1   
 14   8   9  ar  
 15   8  34  1   
 16   9  10  1   
 17  10  11  1   
 18  11  12  1   
 19  11  35  1   
 20  11  36  1   
 21  12  13  1   
 22  12  37  1   
 23  12  38  1   
 24  13  14  1   
 25  13  39  1   
 26  13  40  1   
 27  14  15  1   
 28  14  16  1   
 29  14  41  1   
 30  15  17  1   
 31  15  42  1   
 32  15  43  1   
 33  16  18  1   
 34  16  44  1   
 35  16  45  1   
 36  17  19  1   
 37  17  20  1   
 38  17  21  1   
 39  18  20  1   
 40  18  46  1   
 41  18  47  1   
 42  19  22  ar  
 43  19  23  ar  
 44  20  48  1   
 45  20  49  1   
 46  21  24  1   
 47  21  50  1   
 48  21  51  1   
 49  22  25  ar  
 50  23  24  1   
 51  23  26  ar  
 52  24  52  1   
 53  24  53  1   
 54  25  27  ar  
 55  25  28  1   
 56  26  27  ar  
 57  26  54  1   
 58  28  55  1   
 59  28  56  1   
 60  28  57  1   
@<TRIPOS>SUBSTRUCTURE
  1 ****  12 GROUP 4 **** **** 0

# MOE 2024.06 (io_trps.svl 2023.06)
