@<TRIPOS>MOLECULE
NONAME
38 39 1 0 0 
SMALL
USER_CHARGES


@<TRIPOS>ATOM
  1 F       -0.5410     1.2210    -0.6990 F     1 <1>  -0.3400 
  2 C        0.1410     2.3550    -0.5460 C.3   1 <1>   0.9600 
  3 F       -0.4000     3.1800    -1.4380 F     1 <1>  -0.3400 
  4 O        1.4740     2.1250    -1.0010 O.3   1 <1>  -0.3630 
  5 C       -0.0460     2.9380     0.8890 C.3   1 <1>   0.6000 
  6 C        2.3540     1.4340    -0.2400 C.ar  1 <1>   0.0830 
  7 F        0.6750     4.0450     1.0790 F     1 <1>  -0.3400 
  8 F        0.3640     2.1040     1.8460 F     1 <1>  -0.3400 
  9 C        3.4710     2.0810     0.3160 C.ar  1 <1>   0.0860 
 10 C        2.1420     0.0750    -0.0380 C.ar  1 <1>  -0.1500 
 11 C        3.7750     3.4860     0.1060 C.2   1 <1>   0.5440 
 12 C        4.3190     1.3080     1.1140 C.ar  1 <1>  -0.1500 
 13 C        3.0060    -0.6590     0.7490 C.ar  1 <1>  -0.1500 
 14 O        4.3840     4.1220     0.9470 O.2   1 <1>  -0.5700 
 15 N        3.4210     4.1340    -1.0450 N.am  1 <1>  -0.7300 
 16 C        4.0950    -0.0380     1.3310 C.ar  1 <1>  -0.1500 
 17 C        3.5550     5.5930    -1.2640 C.3   1 <1>   0.1400 
 18 C        4.9870     5.9420    -1.6730 C.3   1 <1>   0.0200 
 19 C        5.2880     7.3860    -1.3210 C.2   1 <1>   0.0070 
 20 N        5.2790     8.3580    -2.1670 N.2   1 <1>  -0.3380 
 21 N        5.5880     7.8090    -0.0870 N.pl3 1 <1>   0.0480 
 22 N        5.5790     9.4680    -1.4910 N.2   1 <1>  -0.3380 
 23 C        5.7570     9.1190    -0.2640 C.2   1 <1>   0.0360 
 24 C        5.6940     7.0380     1.1690 C.3   1 <1>   0.0160 
 25 H       -1.0730     3.1790     1.0880 H     1 <1>   0.0800 
 26 H        1.3050    -0.4220    -0.4950 H     1 <1>   0.1500 
 27 H        5.1730     1.7780     1.5710 H     1 <1>   0.1500 
 28 H        2.8350    -1.7100     0.9100 H     1 <1>   0.1500 
 29 H        2.9040     3.6110    -1.7580 H     1 <1>   0.3700 
 30 H        4.7690    -0.6040     1.9520 H     1 <1>   0.1500 
 31 H        3.3040     6.0980    -0.3460 H     1 <1>   0.0800 
 32 H        2.8630     5.9230    -2.0210 H     1 <1>   0.0800 
 33 H        5.1030     5.7990    -2.7320 H     1 <1>   0.0800 
 34 H        5.6900     5.3070    -1.1660 H     1 <1>   0.0800 
 35 H        6.0110     9.7930     0.5340 H     1 <1>   0.1500 
 36 H        6.2870     6.1570     1.0030 H     1 <1>   0.0800 
 37 H        4.7120     6.7460     1.4940 H     1 <1>   0.0800 
 38 H        6.1580     7.6410     1.9270 H     1 <1>   0.0800 
@<TRIPOS>BOND
  1   1   2  1   
  2   2   3  1   
  3   2   4  1   
  4   2   5  1   
  5   4   6  1   
  6   5   7  1   
  7   5   8  1   
  8   5  25  1   
  9   6   9  ar  
 10   6  10  ar  
 11   9  11  1   
 12   9  12  ar  
 13  10  13  ar  
 14  10  26  1   
 15  11  14  2   
 16  11  15  am  
 17  12  16  ar  
 18  12  27  1   
 19  13  16  ar  
 20  13  28  1   
 21  15  17  1   
 22  15  29  1   
 23  16  30  1   
 24  17  18  1   
 25  17  31  1   
 26  17  32  1   
 27  18  19  1   
 28  18  33  1   
 29  18  34  1   
 30  19  20  2   
 31  19  21  1   
 32  20  22  1   
 33  21  23  1   
 34  21  24  1   
 35  22  23  2   
 36  23  35  1   
 37  24  36  1   
 38  24  37  1   
 39  24  38  1   
@<TRIPOS>SUBSTRUCTURE
  1 ****  11 GROUP 4 **** **** 0

# MOE 2024.06 (io_trps.svl 2023.06)
