@<TRIPOS>MOLECULE
NONAME
47 49 1 0 0 
SMALL
USER_CHARGES


@<TRIPOS>ATOM
  1 O        1.3040    -0.8960    -1.5210 O.3   1 <1>  -0.0190 
  2 N        0.2590    -1.6660    -1.5320 N.2   1 <1>  -0.4100 
  3 C        2.1220    -1.1960    -0.5500 C.2   1 <1>  -0.0400 
  4 C        0.3940    -2.5000    -0.5460 C.2   1 <1>   0.2350 
  5 C        1.5950    -2.2270     0.1230 C.2   1 <1>  -0.1500 
  6 C        3.3950    -0.3960    -0.3670 C.3   1 <1>   0.3890 
  7 C       -0.5540    -3.5390    -0.1930 C.ar  1 <1>   0.0540 
  8 N        3.0390     0.9910    -0.0090 N.pl3 1 <1>  -0.8690 
  9 C       -1.8970    -3.4320    -0.5470 C.ar  1 <1>  -0.1500 
 10 C       -0.1660    -4.6810     0.5090 C.ar  1 <1>  -0.1500 
 11 C        3.9630     2.0010     0.0410 C.ar  1 <1>   0.4100 
 12 C       -2.8220    -4.4060    -0.2160 C.ar  1 <1>   0.0830 
 13 C       -1.0790    -5.6640     0.8480 C.ar  1 <1>  -0.1500 
 14 N        5.2300     1.6440     0.0490 N.ar  1 <1>  -0.6200 
 15 C        3.5780     3.3360     0.0790 C.ar  1 <1>  -0.1430 
 16 O       -4.1020    -4.1930    -0.6090 O.3   1 <1>  -0.3630 
 17 C       -2.4080    -5.5320     0.4890 C.ar  1 <1>  -0.1500 
 18 C        6.1050     2.6260     0.0960 C.ar  1 <1>   0.4770 
 19 C        4.5940     4.2610     0.1220 C.ar  1 <1>   0.1600 
 20 C        2.0910     3.7090     0.0740 C.3   1 <1>  -0.0170 
 21 C       -5.1200    -5.1310    -0.3390 C.3   1 <1>   0.0400 
 22 N        5.8670     3.9230     0.1300 N.ar  1 <1>  -0.6200 
 23 C        7.5590     2.2200     0.1040 C.3   1 <1>  -0.0970 
 24 C        1.7890     5.2120     0.1820 C.3   1 <1>  -0.1600 
 25 C        0.2790     5.4760     0.1870 C.3   1 <1>  -0.2400 
 26 H        1.9730    -2.7400     0.9860 H     1 <1>   0.1500 
 27 H        3.9660    -0.4010    -1.2810 H     1 <1>   0.0800 
 28 H        3.9940    -0.8230     0.4190 H     1 <1>   0.0800 
 29 H        2.0830     1.2320    -0.2710 H     1 <1>   0.4000 
 30 H       -2.2320    -2.5680    -1.0940 H     1 <1>   0.1500 
 31 H        0.8630    -4.8110     0.7900 H     1 <1>   0.1500 
 32 H       -0.7550    -6.5350     1.3900 H     1 <1>   0.1500 
 33 H       -3.0980    -6.3070     0.7630 H     1 <1>   0.1500 
 34 H        4.3830     5.3140     0.1530 H     1 <1>   0.1500 
 35 H        1.6160     3.2060     0.8980 H     1 <1>   0.0800 
 36 H        1.6520     3.3360    -0.8350 H     1 <1>   0.0800 
 37 H       -6.0390    -4.7530    -0.7490 H     1 <1>   0.0800 
 38 H       -5.2150    -5.2470     0.7260 H     1 <1>   0.0800 
 39 H       -4.8660    -6.0650    -0.8090 H     1 <1>   0.0800 
 40 H        7.6740     1.2750     0.6010 H     1 <1>   0.0800 
 41 H        8.1460     2.9570     0.6190 H     1 <1>   0.0800 
 42 H        7.9070     2.1340    -0.9070 H     1 <1>   0.0800 
 43 H        2.2300     5.7310    -0.6520 H     1 <1>   0.0800 
 44 H        2.2130     5.6010     1.0920 H     1 <1>   0.0800 
 45 H       -0.1710     5.1140    -0.7220 H     1 <1>   0.0800 
 46 H        0.0910     6.5320     0.2630 H     1 <1>   0.0800 
 47 H       -0.1880     4.9860     1.0240 H     1 <1>   0.0800 
@<TRIPOS>BOND
  1   1   2  1   
  2   1   3  1   
  3   2   4  2   
  4   3   5  2   
  5   3   6  1   
  6   4   5  1   
  7   4   7  1   
  8   5  26  1   
  9   6   8  1   
 10   6  27  1   
 11   6  28  1   
 12   7   9  ar  
 13   7  10  ar  
 14   8  11  1   
 15   8  29  1   
 16   9  12  ar  
 17   9  30  1   
 18  10  13  ar  
 19  10  31  1   
 20  11  14  ar  
 21  11  15  ar  
 22  12  16  1   
 23  12  17  ar  
 24  13  17  ar  
 25  13  32  1   
 26  14  18  ar  
 27  15  19  ar  
 28  15  20  1   
 29  16  21  1   
 30  17  33  1   
 31  18  22  ar  
 32  18  23  1   
 33  19  22  ar  
 34  19  34  1   
 35  20  24  1   
 36  20  35  1   
 37  20  36  1   
 38  21  37  1   
 39  21  38  1   
 40  21  39  1   
 41  23  40  1   
 42  23  41  1   
 43  23  42  1   
 44  24  25  1   
 45  24  43  1   
 46  24  44  1   
 47  25  45  1   
 48  25  46  1   
 49  25  47  1   
@<TRIPOS>SUBSTRUCTURE
  1 ****   3 GROUP 4 **** **** 0

# MOE 2024.06 (io_trps.svl 2023.06)
