@<TRIPOS>MOLECULE
NONAME
56 60 1 0 0 
SMALL
USER_CHARGES


@<TRIPOS>ATOM
  1 O       -0.6740     0.3640     1.7880 O.2   1 <1>  -0.5700 
  2 C       -1.6030     1.0590     1.4160 C.2   1 <1>   0.5440 
  3 N       -2.7750     0.4480     1.0310 N.am  1 <1>  -0.6600 
  4 C       -1.4540     2.4990     1.3570 C.ar  1 <1>   0.0860 
  5 C       -3.7260     1.0360     0.0510 C.3   1 <1>   0.1400 
  6 C       -2.9980    -1.0130     1.1200 C.3   1 <1>   0.1400 
  7 C       -0.3460     3.0800     0.7610 C.ar  1 <1>  -0.1500 
  8 C       -2.4380     3.3500     1.9050 C.ar  1 <1>  -0.1500 
  9 C       -4.5670    -0.1350    -0.4800 C.3   1 <1>   0.2000 
 10 C       -3.7140    -1.3720    -0.1820 C.3   1 <1>  -0.0800 
 11 C       -0.2250     4.4670     0.6790 C.ar  1 <1>   0.0000 
 12 C       -2.3370     4.7190     1.8360 C.ar  1 <1>  -0.1500 
 13 O       -5.7630    -0.2260     0.2420 O.3   1 <1>  -0.5600 
 14 C       -4.4980    -2.6940    -0.1100 C.3   1 <1>   0.0200 
 15 C       -1.2220     5.2800     1.2120 C.ar  1 <1>  -0.1520 
 16 C        0.7460     5.3410     0.1420 C.2   1 <1>  -0.1810 
 17 C       -6.8050     0.5680    -0.2320 C.3   1 <1>   0.0400 
 18 C       -3.6000    -3.9150     0.0120 C.2   1 <1>  -0.0400 
 19 N       -0.8740     6.5900     1.0020 N.pl3 1 <1>   0.0330 
 20 C        0.3240     6.6070     0.3450 C.2   1 <1>  -0.3320 
 21 C        2.0440     4.9780    -0.5490 C.3   1 <1>   0.0210 
 22 O       -4.1530    -5.0890     0.1630 O.3   1 <1>  -0.0190 
 23 C       -2.2680    -4.0910    -0.0020 C.2   1 <1>  -0.1500 
 24 C        1.0750     7.8530    -0.0830 C.3   1 <1>   0.0200 
 25 C        2.9600     6.2140    -0.6400 C.3   1 <1>  -0.1600 
 26 N       -3.2670    -6.0390     0.2520 N.2   1 <1>  -0.4100 
 27 C       -2.1220    -5.4660     0.1580 C.2   1 <1>   0.1080 
 28 C        2.1870     7.4750    -1.0800 C.3   1 <1>  -0.1600 
 29 C       -0.7980    -6.1940     0.2140 C.3   1 <1>  -0.0590 
 30 H       -4.3450     1.7820     0.5170 H     1 <1>   0.0800 
 31 H       -3.1680     1.4810    -0.7540 H     1 <1>   0.0800 
 32 H       -2.0730    -1.5510     1.2310 H     1 <1>   0.0800 
 33 H       -3.6320    -1.2140     1.9670 H     1 <1>   0.0800 
 34 H        0.4320     2.4620     0.3540 H     1 <1>   0.1500 
 35 H       -3.2840     2.8970     2.3920 H     1 <1>   0.1500 
 36 H       -4.7900    -0.0450    -1.5300 H     1 <1>   0.0800 
 37 H       -2.9700    -1.4500    -0.9550 H     1 <1>   0.0800 
 38 H       -3.0940     5.3570     2.2560 H     1 <1>   0.1500 
 39 H       -5.0950    -2.8020    -0.9980 H     1 <1>   0.0800 
 40 H       -5.1680    -2.6760     0.7320 H     1 <1>   0.0800 
 41 H       -7.6550     0.4220     0.4120 H     1 <1>   0.0800 
 42 H       -7.0570     0.2640    -1.2340 H     1 <1>   0.0800 
 43 H       -6.5110     1.6030    -0.2120 H     1 <1>   0.0800 
 44 H       -1.4180     7.4050     1.2950 H     1 <1>   0.2700 
 45 H        2.5420     4.1950    -0.0050 H     1 <1>   0.0800 
 46 H        1.8180     4.6170    -1.5370 H     1 <1>   0.0800 
 47 H       -1.4710    -3.3800    -0.1090 H     1 <1>   0.1500 
 48 H        0.4030     8.5550    -0.5440 H     1 <1>   0.0800 
 49 H        1.5090     8.3130     0.7870 H     1 <1>   0.0800 
 50 H        3.3930     6.3940     0.3290 H     1 <1>   0.0800 
 51 H        3.7610     6.0140    -1.3290 H     1 <1>   0.0800 
 52 H        1.7410     7.2870    -2.0410 H     1 <1>   0.0800 
 53 H        2.8660     8.3020    -1.1870 H     1 <1>   0.0800 
 54 H       -0.1900    -5.7870     1.0000 H     1 <1>   0.0800 
 55 H       -0.2840    -6.0890    -0.7240 H     1 <1>   0.0800 
 56 H       -0.9620    -7.2390     0.4060 H     1 <1>   0.0800 
@<TRIPOS>BOND
  1   1   2  2   
  2   2   3  am  
  3   2   4  1   
  4   3   5  1   
  5   3   6  1   
  6   4   7  ar  
  7   4   8  ar  
  8   5   9  1   
  9   5  30  1   
 10   5  31  1   
 11   6  10  1   
 12   6  32  1   
 13   6  33  1   
 14   7  11  ar  
 15   7  34  1   
 16   8  12  ar  
 17   8  35  1   
 18   9  10  1   
 19   9  13  1   
 20   9  36  1   
 21  10  14  1   
 22  10  37  1   
 23  11  15  ar  
 24  11  16  1   
 25  12  15  ar  
 26  12  38  1   
 27  13  17  1   
 28  14  18  1   
 29  14  39  1   
 30  14  40  1   
 31  15  19  1   
 32  16  20  2   
 33  16  21  1   
 34  17  41  1   
 35  17  42  1   
 36  17  43  1   
 37  18  22  1   
 38  18  23  2   
 39  19  20  1   
 40  19  44  1   
 41  20  24  1   
 42  21  25  1   
 43  21  45  1   
 44  21  46  1   
 45  22  26  1   
 46  23  27  1   
 47  23  47  1   
 48  24  28  1   
 49  24  48  1   
 50  24  49  1   
 51  25  28  1   
 52  25  50  1   
 53  25  51  1   
 54  26  27  2   
 55  27  29  1   
 56  28  52  1   
 57  28  53  1   
 58  29  54  1   
 59  29  55  1   
 60  29  56  1   
@<TRIPOS>SUBSTRUCTURE
  1 ****   2 GROUP 4 **** **** 0

# MOE 2024.06 (io_trps.svl 2023.06)
