@<TRIPOS>MOLECULE
NONAME
44 46 1 0 0 
SMALL
USER_CHARGES


@<TRIPOS>ATOM
  1 O        0.4190    -0.3080    -1.1990 O.2   1 <1>  -0.5700 
  2 C        1.3400    -0.6190    -0.4670 C.2   1 <1>   0.7030 
  3 N        2.2030     0.3520    -0.0050 N.am  1 <1>  -0.4940 
  4 C        1.4990    -2.0090    -0.0780 C.2   1 <1>   0.2770 
  5 C        2.1850     1.7410    -0.2730 C.2   1 <1>  -0.0880 
  6 N        0.4400    -2.9100     0.1100 N.pl3 1 <1>  -0.6290 
  7 C        2.6390    -2.7170     0.1750 C.2   1 <1>   0.1820 
  8 N        3.2640     2.4680    -0.6820 N.pl3 1 <1>   0.3140 
  9 C        1.1550     2.6180    -0.1780 C.2   1 <1>  -0.1810 
 10 C        0.9730    -4.0850     0.4780 C.cat 1 <1>   0.9620 
 11 C       -0.9150    -2.8020    -0.0490 C.2   1 <1>   0.2290 
 12 N        2.2910    -3.9820     0.5310 N.pl3 1 <1>  -0.7000 
 13 C        4.1070    -2.3330     0.0960 C.3   1 <1>  -0.0720 
 14 N        2.9500     3.7690    -0.8480 N.2   1 <1>  -0.7070 
 15 C        4.6160     1.9710    -1.0180 C.3   1 <1>   0.0960 
 16 C        1.6920     3.8460    -0.5480 C.2   1 <1>   0.1390 
 17 C       -0.2870     2.3900     0.2330 C.3   1 <1>  -0.0590 
 18 N        0.2810    -5.1920     0.7440 N.2   1 <1>  -0.6120 
 19 C       -1.6590    -3.9080     0.2030 C.2   1 <1>  -0.1360 
 20 C        5.4340     1.5840     0.2320 C.3   1 <1>  -0.0800 
 21 C       -1.0060    -5.0880     0.6030 C.2   1 <1>   0.3760 
 22 C        5.6960     2.7950     1.1380 C.3   1 <1>  -0.2400 
 23 C        6.7710     0.9610    -0.1900 C.3   1 <1>  -0.2400 
 24 H        2.8810     0.0740     0.7030 H     1 <1>   0.3700 
 25 H       -1.3430    -1.8610    -0.3660 H     1 <1>   0.1500 
 26 H        2.8700    -4.7850     0.7810 H     1 <1>   0.4500 
 27 H        4.2420    -1.3900    -0.3990 H     1 <1>   0.0800 
 28 H        4.6480    -3.0760    -0.4640 H     1 <1>   0.0800 
 29 H        4.5310    -2.2760     1.0830 H     1 <1>   0.0800 
 30 H        5.1280     2.7440    -1.5620 H     1 <1>   0.0800 
 31 H        4.5040     1.1250    -1.6700 H     1 <1>   0.0800 
 32 H        1.1340     4.7670    -0.5850 H     1 <1>   0.1500 
 33 H       -0.3790     1.4860     0.8060 H     1 <1>   0.0800 
 34 H       -0.9040     2.3110    -0.6440 H     1 <1>   0.0800 
 35 H       -0.6350     3.2130     0.8320 H     1 <1>   0.0800 
 36 H       -2.7300    -3.9100     0.1040 H     1 <1>   0.1500 
 37 H        4.8910     0.8480     0.7970 H     1 <1>   0.0800 
 38 H       -1.6140    -5.9550     0.8020 H     1 <1>   0.0600 
 39 H        6.2260     3.5620     0.6000 H     1 <1>   0.0800 
 40 H        6.2830     2.5100     1.9930 H     1 <1>   0.0800 
 41 H        4.7710     3.2160     1.4930 H     1 <1>   0.0800 
 42 H        7.3590     1.6710    -0.7460 H     1 <1>   0.0800 
 43 H        6.6130     0.0940    -0.8060 H     1 <1>   0.0800 
 44 H        7.3350     0.6620     0.6770 H     1 <1>   0.0800 
@<TRIPOS>BOND
  1   1   2  2   
  2   2   3  am  
  3   2   4  1   
  4   3   5  1   
  5   3  24  1   
  6   4   6  1   
  7   4   7  2   
  8   5   8  1   
  9   5   9  2   
 10   6  10  ar  
 11   6  11  1   
 12   7  12  1   
 13   7  13  1   
 14   8  14  1   
 15   8  15  1   
 16   9  16  1   
 17   9  17  1   
 18  10  12  ar  
 19  10  18  1   
 20  11  19  2   
 21  11  25  1   
 22  12  26  1   
 23  13  27  1   
 24  13  28  1   
 25  13  29  1   
 26  14  16  2   
 27  15  20  1   
 28  15  30  1   
 29  15  31  1   
 30  16  32  1   
 31  17  33  1   
 32  17  34  1   
 33  17  35  1   
 34  18  21  2   
 35  19  21  1   
 36  19  36  1   
 37  20  22  1   
 38  20  23  1   
 39  20  37  1   
 40  21  38  1   
 41  22  39  1   
 42  22  40  1   
 43  22  41  1   
 44  23  42  1   
 45  23  43  1   
 46  23  44  1   
@<TRIPOS>SUBSTRUCTURE
  1 ****   2 GROUP 4 **** **** 0

# MOE 2024.06 (io_trps.svl 2023.06)
