@<TRIPOS>MOLECULE
NONAME
50 52 1 0 0 
SMALL
USER_CHARGES


@<TRIPOS>ATOM
  1 S        0.8950     0.6580     0.4210 S.o2  1 <1>   1.3330 
  2 O       -0.2170    -0.2260     0.6900 O.2   1 <1>  -0.6500 
  3 O        1.7620     1.0570     1.5080 O.2   1 <1>  -0.6500 
  4 N        1.8670    -0.0650    -0.7680 N.am  1 <1>  -0.8490 
  5 C        0.2480     2.1000    -0.4270 C.3   1 <1>  -0.0550 
  6 C        3.2010     0.5390    -0.8710 C.3   1 <1>   0.1160 
  7 C        1.9900    -1.5130    -0.5770 C.3   1 <1>   0.1160 
  8 C       -0.6990     2.9590     0.4370 C.3   1 <1>  -0.0800 
  9 C       -1.4060     4.0050    -0.4220 C.3   1 <1>   0.2000 
 10 C        0.0810     3.8280     1.4250 C.3   1 <1>   0.1100 
 11 O       -2.5760     4.3760     0.2210 O.3   1 <1>  -0.6800 
 12 C       -0.4470     5.2020    -0.4380 C.3   1 <1>   0.1100 
 13 N        0.5500     4.9610     0.6250 N.3   1 <1>  -0.8100 
 14 C        0.9030     6.1520     1.4350 C.3   1 <1>   0.2900 
 15 C        1.6460     7.2330     0.6530 C.2   1 <1>   0.2980 
 16 O        1.0110     7.8770    -0.2920 O.3   1 <1>  -0.0190 
 17 N        2.8470     7.6010     0.8440 N.2   1 <1>  -0.5650 
 18 N        1.8840     8.7190    -0.7480 N.2   1 <1>  -0.4100 
 19 C        2.9740     8.5540    -0.0850 C.2   1 <1>   0.4620 
 20 C        4.1930     9.3180    -0.2840 C.ar  1 <1>   0.0540 
 21 C        5.4700     8.7440    -0.3760 C.ar  1 <1>  -0.1440 
 22 C        4.0990    10.7070    -0.3970 C.ar  1 <1>  -0.1500 
 23 C        6.5870     9.5460    -0.5550 C.ar  1 <1>  -0.1500 
 24 C        5.6740     7.2360    -0.2940 C.3   1 <1>  -0.0970 
 25 C        5.2150    11.5010    -0.5790 C.ar  1 <1>  -0.1500 
 26 C        6.4650    10.9200    -0.6550 C.ar  1 <1>  -0.1500 
 27 H        1.0600     2.7060    -0.7760 H     1 <1>   0.0800 
 28 H       -0.2930     1.7560    -1.2870 H     1 <1>   0.0800 
 29 H        3.7390     0.1050    -1.6970 H     1 <1>   0.0800 
 30 H        3.7600     0.3760     0.0360 H     1 <1>   0.0800 
 31 H        3.1190     1.5990    -1.0390 H     1 <1>   0.0800 
 32 H        2.5990    -1.9420    -1.3540 H     1 <1>   0.0800 
 33 H        1.0170    -1.9740    -0.6210 H     1 <1>   0.0800 
 34 H        2.4310    -1.7280     0.3820 H     1 <1>   0.0800 
 35 H       -1.4060     2.3160     0.9340 H     1 <1>   0.0800 
 36 H       -1.6640     3.6600    -1.4090 H     1 <1>   0.0800 
 37 H        0.9090     3.3150     1.8820 H     1 <1>   0.0800 
 38 H       -0.5820     4.1730     2.2010 H     1 <1>   0.0800 
 39 H       -2.3700     4.7150     1.1110 H     1 <1>   0.4000 
 40 H       -0.9870     6.1220    -0.2910 H     1 <1>   0.0800 
 41 H        0.0660     5.2470    -1.3830 H     1 <1>   0.0800 
 42 H        0.0130     6.5790     1.8640 H     1 <1>   0.0800 
 43 H        1.5430     5.8400     2.2420 H     1 <1>   0.0800 
 44 H        3.1290    11.1690    -0.3400 H     1 <1>   0.1500 
 45 H        7.5660     9.1050    -0.6190 H     1 <1>   0.1500 
 46 H        6.6620     6.9600    -0.6170 H     1 <1>   0.0800 
 47 H        4.9630     6.7280    -0.9210 H     1 <1>   0.0800 
 48 H        5.5410     6.9040     0.7200 H     1 <1>   0.0800 
 49 H        5.1110    12.5690    -0.6600 H     1 <1>   0.1500 
 50 H        7.3390    11.5320    -0.7940 H     1 <1>   0.1500 
@<TRIPOS>BOND
  1   1   2  2   
  2   1   3  2   
  3   1   4  am  
  4   1   5  1   
  5   4   6  1   
  6   4   7  1   
  7   5   8  1   
  8   5  27  1   
  9   5  28  1   
 10   6  29  1   
 11   6  30  1   
 12   6  31  1   
 13   7  32  1   
 14   7  33  1   
 15   7  34  1   
 16   8   9  1   
 17   8  10  1   
 18   8  35  1   
 19   9  11  1   
 20   9  12  1   
 21   9  36  1   
 22  10  13  1   
 23  10  37  1   
 24  10  38  1   
 25  11  39  1   
 26  12  13  1   
 27  12  40  1   
 28  12  41  1   
 29  13  14  1   
 30  14  15  1   
 31  14  42  1   
 32  14  43  1   
 33  15  16  1   
 34  15  17  2   
 35  16  18  1   
 36  17  19  1   
 37  18  19  2   
 38  19  20  1   
 39  20  21  ar  
 40  20  22  ar  
 41  21  23  ar  
 42  21  24  1   
 43  22  25  ar  
 44  22  44  1   
 45  23  26  ar  
 46  23  45  1   
 47  24  46  1   
 48  24  47  1   
 49  24  48  1   
 50  25  26  ar  
 51  25  49  1   
 52  26  50  1   
@<TRIPOS>SUBSTRUCTURE
  1 ****  13 GROUP 4 **** **** 0

# MOE 2024.06 (io_trps.svl 2023.06)
