@<TRIPOS>MOLECULE
NONAME
52 55 1 0 0 
SMALL
USER_CHARGES


@<TRIPOS>ATOM
  1 O       -2.3850    -4.4470     4.1890 O.3   1 <1>  -0.8290 
  2 C       -2.1350    -4.9530     3.0720 C.ar  1 <1>   0.1390 
  3 N       -3.0560    -5.7590     2.4910 N.ar  1 <1>  -0.3100 
  4 C       -0.9150    -4.6730     2.4640 C.ar  1 <1>  -0.1500 
  5 N       -2.8010    -6.3090     1.3310 N.ar  1 <1>  -0.3100 
  6 C       -0.6560    -5.2560     1.2570 C.ar  1 <1>  -0.1500 
  7 C       -1.6380    -6.0800     0.7320 C.ar  1 <1>   0.1670 
  8 C       -1.4100    -6.8050    -0.5800 C.3   1 <1>  -0.0160 
  9 C       -2.2520    -6.2180    -1.7240 C.3   1 <1>  -0.0990 
 10 C       -2.6180    -7.3280    -2.6900 C.2   1 <1>   0.5690 
 11 O       -1.8860    -7.4880    -3.6390 O.2   1 <1>  -0.5700 
 12 N       -3.6800    -8.1620    -2.4410 N.am  1 <1>  -0.6600 
 13 C       -4.8200    -7.8880    -1.5160 C.3   1 <1>   0.1400 
 14 C       -3.6880    -9.5520    -2.9680 C.3   1 <1>   0.1400 
 15 C       -4.7540    -8.8370    -0.3200 C.3   1 <1>  -0.1600 
 16 C       -3.5710   -10.5230    -1.7860 C.3   1 <1>  -0.1600 
 17 C       -4.6900   -10.3140    -0.7510 C.3   1 <1>   0.4240 
 18 O       -5.8720   -10.5760    -1.4780 O.3   1 <1>  -0.5600 
 19 C       -4.5320   -11.2830     0.4560 C.ar  1 <1>  -0.1430 
 20 C       -7.0090   -10.9300    -0.7620 C.3   1 <1>   0.1200 
 21 C       -3.4240   -11.2410     1.3120 C.ar  1 <1>   0.0830 
 22 C       -5.5190   -12.2320     0.7230 C.ar  1 <1>  -0.1430 
 23 C       -6.7640   -12.2940    -0.1370 C.3   1 <1>  -0.0170 
 24 O       -2.4390   -10.3270     1.1400 O.3   1 <1>  -0.3630 
 25 C       -3.3000   -12.1450     2.3600 C.ar  1 <1>  -0.1500 
 26 C       -5.3930   -13.1240     1.7750 C.ar  1 <1>  -0.1500 
 27 C       -2.1580    -9.4510     2.2190 C.3   1 <1>   0.0400 
 28 C       -4.2820   -13.0860     2.5930 C.ar  1 <1>  -0.1500 
 29 H       -0.2340    -4.0190     2.9710 H     1 <1>   0.1500 
 30 H        0.2690    -5.0850     0.7440 H     1 <1>   0.1500 
 31 H       -1.6720    -7.8370    -0.4250 H     1 <1>   0.0800 
 32 H       -0.3710    -6.7820    -0.8510 H     1 <1>   0.0800 
 33 H       -1.6790    -5.4710    -2.2410 H     1 <1>   0.0800 
 34 H       -3.1290    -5.7320    -1.3470 H     1 <1>   0.0800 
 35 H       -5.7420    -8.0470    -2.0490 H     1 <1>   0.0800 
 36 H       -4.8210    -6.8720    -1.1690 H     1 <1>   0.0800 
 37 H       -2.8650    -9.7060    -3.6450 H     1 <1>   0.0800 
 38 H       -4.6030    -9.7240    -3.5090 H     1 <1>   0.0800 
 39 H       -5.5920    -8.6730     0.3290 H     1 <1>   0.0800 
 40 H       -3.8830    -8.5760     0.2420 H     1 <1>   0.0800 
 41 H       -2.6100   -10.3790    -1.3320 H     1 <1>   0.0800 
 42 H       -3.6080   -11.5360    -2.1410 H     1 <1>   0.0800 
 43 H       -7.8350   -10.9700    -1.4500 H     1 <1>   0.0800 
 44 H       -7.2060   -10.1850    -0.0110 H     1 <1>   0.0800 
 45 H       -6.6380   -13.0290    -0.9110 H     1 <1>   0.0800 
 46 H       -7.6160   -12.5670     0.4590 H     1 <1>   0.0800 
 47 H       -2.4320   -12.1190     2.9910 H     1 <1>   0.1500 
 48 H       -6.1600   -13.8550     1.9620 H     1 <1>   0.1500 
 49 H       -1.4440    -8.7200     1.8880 H     1 <1>   0.0800 
 50 H       -1.7480   -10.0060     3.0420 H     1 <1>   0.0800 
 51 H       -3.0660    -8.9540     2.5170 H     1 <1>   0.0800 
 52 H       -4.1820   -13.7850     3.4050 H     1 <1>   0.1500 
@<TRIPOS>BOND
  1   1   2  1   
  2   2   3  ar  
  3   2   4  ar  
  4   3   5  ar  
  5   4   6  ar  
  6   4  29  1   
  7   5   7  ar  
  8   6   7  ar  
  9   6  30  1   
 10   7   8  1   
 11   8   9  1   
 12   8  31  1   
 13   8  32  1   
 14   9  10  1   
 15   9  33  1   
 16   9  34  1   
 17  10  11  2   
 18  10  12  am  
 19  12  13  1   
 20  12  14  1   
 21  13  15  1   
 22  13  35  1   
 23  13  36  1   
 24  14  16  1   
 25  14  37  1   
 26  14  38  1   
 27  15  17  1   
 28  15  39  1   
 29  15  40  1   
 30  16  17  1   
 31  16  41  1   
 32  16  42  1   
 33  17  18  1   
 34  17  19  1   
 35  18  20  1   
 36  19  21  ar  
 37  19  22  ar  
 38  20  23  1   
 39  20  43  1   
 40  20  44  1   
 41  21  24  1   
 42  21  25  ar  
 43  22  23  1   
 44  22  26  ar  
 45  23  45  1   
 46  23  46  1   
 47  24  27  1   
 48  25  28  ar  
 49  25  47  1   
 50  26  28  ar  
 51  26  48  1   
 52  27  49  1   
 53  27  50  1   
 54  27  51  1   
 55  28  52  1   
@<TRIPOS>SUBSTRUCTURE
  1 ****  15 GROUP 4 **** **** 0

# MOE 2024.06 (io_trps.svl 2023.06)
