@<TRIPOS>MOLECULE
NONAME
47 49 1 0 0 
SMALL
USER_CHARGES


@<TRIPOS>ATOM
  1 O       -0.0490     0.3370    -2.2030 O.2   1 <1>  -0.5700 
  2 C        0.7510    -0.5310    -1.9420 C.2   1 <1>   0.5690 
  3 N        2.0610    -0.2680    -1.7280 N.am  1 <1>  -0.7300 
  4 C        0.2810    -1.9820    -1.7990 C.3   1 <1>   0.1710 
  5 C        2.6080     1.0600    -1.4230 C.3   1 <1>   0.2840 
  6 N        1.1220    -2.8140    -0.8850 N.3   1 <1>  -0.8100 
  7 C        2.7730     1.1450     0.0830 C.ar  1 <1>  -0.1440 
  8 C        1.0640    -2.3540     0.5140 C.3   1 <1>   0.1100 
  9 C        0.6760    -4.2180    -0.8620 C.3   1 <1>   0.1100 
 10 C        1.7010     1.5370     0.8710 C.ar  1 <1>  -0.1500 
 11 C        3.9770     0.8130     0.6870 C.ar  1 <1>  -0.1500 
 12 C        1.5140    -3.5660     1.3190 C.3   1 <1>   0.2000 
 13 C        0.8590    -4.7310     0.5810 C.3   1 <1>  -0.0800 
 14 C        1.8310     1.6010     2.2480 C.ar  1 <1>  -0.1500 
 15 C        4.1070     0.8750     2.0640 C.ar  1 <1>  -0.1500 
 16 O        2.8810    -3.6880     1.1640 O.3   1 <1>  -0.6800 
 17 C       -0.4810    -5.1150     1.2380 C.3   1 <1>  -0.0170 
 18 C        3.0350     1.2690     2.8450 C.ar  1 <1>  -0.1500 
 19 C       -1.1430    -6.2900     0.5350 C.ar  1 <1>   0.1670 
 20 N       -2.0980    -5.9980    -0.3340 N.ar  1 <1>  -0.6200 
 21 C       -0.7270    -7.5810     0.8270 C.ar  1 <1>  -0.1500 
 22 C       -2.6610    -7.0340    -0.9360 C.ar  1 <1>   0.1600 
 23 C       -1.3210    -8.6490     0.1910 C.ar  1 <1>  -0.1500 
 24 C       -2.3160    -8.3560    -0.7150 C.ar  1 <1>  -0.1500 
 25 H        2.6030    -1.0590    -1.3690 H     1 <1>   0.3700 
 26 H        0.2910    -2.4220    -2.7800 H     1 <1>   0.0800 
 27 H       -0.7370    -1.9750    -1.4520 H     1 <1>   0.0800 
 28 H        3.5560     1.1840    -1.9180 H     1 <1>   0.0800 
 29 H        1.9380     1.8280    -1.7700 H     1 <1>   0.0800 
 30 H        1.6980    -1.5030     0.6920 H     1 <1>   0.0800 
 31 H        0.0510    -2.1030     0.7800 H     1 <1>   0.0800 
 32 H       -0.3560    -4.2890    -1.1630 H     1 <1>   0.0800 
 33 H        1.2710    -4.7960    -1.5480 H     1 <1>   0.0800 
 34 H        0.7600     1.7870     0.4100 H     1 <1>   0.1500 
 35 H        4.8160     0.5020     0.0900 H     1 <1>   0.1500 
 36 H        1.2850    -3.5070     2.3690 H     1 <1>   0.0800 
 37 H        1.5000    -5.5950     0.5920 H     1 <1>   0.0800 
 38 H        0.9960     1.9070     2.8530 H     1 <1>   0.1500 
 39 H        5.0420     0.6140     2.5280 H     1 <1>   0.1500 
 40 H        3.0600    -3.5550     0.2090 H     1 <1>   0.4000 
 41 H       -1.1530    -4.2750     1.2300 H     1 <1>   0.0800 
 42 H       -0.3100    -5.3830     2.2650 H     1 <1>   0.0800 
 43 H        3.1370     1.3170     3.9150 H     1 <1>   0.1500 
 44 H        0.0560    -7.7490     1.5450 H     1 <1>   0.1500 
 45 H       -3.4410    -6.8170    -1.6450 H     1 <1>   0.1500 
 46 H       -1.0220    -9.6640     0.3940 H     1 <1>   0.1500 
 47 H       -2.8220    -9.1420    -1.2460 H     1 <1>   0.1500 
@<TRIPOS>BOND
  1   1   2  2   
  2   2   3  am  
  3   2   4  1   
  4   3   5  1   
  5   3  25  1   
  6   4   6  1   
  7   4  26  1   
  8   4  27  1   
  9   5   7  1   
 10   5  28  1   
 11   5  29  1   
 12   6   8  1   
 13   6   9  1   
 14   7  10  ar  
 15   7  11  ar  
 16   8  12  1   
 17   8  30  1   
 18   8  31  1   
 19   9  13  1   
 20   9  32  1   
 21   9  33  1   
 22  10  14  ar  
 23  10  34  1   
 24  11  15  ar  
 25  11  35  1   
 26  12  13  1   
 27  12  16  1   
 28  12  36  1   
 29  13  17  1   
 30  13  37  1   
 31  14  18  ar  
 32  14  38  1   
 33  15  18  ar  
 34  15  39  1   
 35  16  40  1   
 36  17  19  1   
 37  17  41  1   
 38  17  42  1   
 39  18  43  1   
 40  19  20  ar  
 41  19  21  ar  
 42  20  22  ar  
 43  21  23  ar  
 44  21  44  1   
 45  22  24  ar  
 46  22  45  1   
 47  23  24  ar  
 48  23  46  1   
 49  24  47  1   
@<TRIPOS>SUBSTRUCTURE
  1 ****   8 GROUP 4 **** **** 0

# MOE 2024.06 (io_trps.svl 2023.06)
