@<TRIPOS>MOLECULE
NONAME
46 47 1 0 0 
SMALL
USER_CHARGES


@<TRIPOS>ATOM
  1 O       -0.6670    -0.1530    -1.1170 O.2   1 <1>  -0.5700 
  2 C       -1.4660     0.5180    -0.4900 C.2   1 <1>   0.5440 
  3 N       -2.6150    -0.0720    -0.0090 N.am  1 <1>  -0.6600 
  4 C       -1.1770     1.9210    -0.2700 C.ar  1 <1>   0.0860 
  5 C       -3.0610    -1.4330    -0.4440 C.3   1 <1>   0.1400 
  6 C       -3.4710     0.4990     1.0670 C.3   1 <1>   0.1400 
  7 C       -2.0770     2.9320    -0.5710 C.ar  1 <1>  -0.1500 
  8 C        0.0340     2.3490     0.2480 C.ar  1 <1>  -0.1500 
  9 C       -4.5180    -1.3690    -0.9300 C.3   1 <1>   0.2000 
 10 C       -4.9220     0.5870     0.5730 C.3   1 <1>  -0.1600 
 11 C       -1.7520     4.2540    -0.3310 C.ar  1 <1>   0.1670 
 12 C        0.2720     3.6960     0.4530 C.ar  1 <1>   0.1660 
 13 O       -4.9160    -2.6380    -1.3150 O.3   1 <1>  -0.6800 
 14 C       -5.4840    -0.8020     0.1490 C.3   1 <1>  -0.1060 
 15 N       -0.6000     4.6500     0.1780 N.ar  1 <1>  -0.6200 
 16 C       -2.7410     5.3530    -0.6540 C.3   1 <1>  -0.0970 
 17 C        1.5960     4.1580     1.0220 C.3   1 <1>  -0.0970 
 18 C       -5.5370    -1.7670     1.3580 C.2   1 <1>   0.9060 
 19 C       -6.9010    -0.6330    -0.4760 C.3   1 <1>  -0.1600 
 20 O       -5.5470    -2.9910     1.1560 O.co2 1 <1>  -0.9000 
 21 O       -5.5610    -1.3120     2.5090 O.co2 1 <1>  -0.9000 
 22 C       -7.9600    -0.0300     0.4630 C.3   1 <1>  -0.1600 
 23 C       -9.3350     0.0010    -0.2090 C.3   1 <1>  -0.2400 
 24 H       -2.4400    -1.7940    -1.2440 H     1 <1>   0.0800 
 25 H       -2.9820    -2.1120     0.3880 H     1 <1>   0.0800 
 26 H       -3.4170    -0.1410     1.9330 H     1 <1>   0.0800 
 27 H       -3.1260     1.4710     1.3680 H     1 <1>   0.0800 
 28 H       -3.0280     2.6710    -0.9950 H     1 <1>   0.1500 
 29 H        0.7820     1.6160     0.4860 H     1 <1>   0.1500 
 30 H       -4.5490    -0.7550    -1.8120 H     1 <1>   0.0800 
 31 H       -5.5130     0.9880     1.3770 H     1 <1>   0.0800 
 32 H       -4.9750     1.2770    -0.2480 H     1 <1>   0.0800 
 33 H       -5.1980    -3.0920    -0.4610 H     1 <1>   0.4000 
 34 H       -3.6540     4.9510    -1.0520 H     1 <1>   0.0800 
 35 H       -2.3090     6.0210    -1.3760 H     1 <1>   0.0800 
 36 H       -2.9640     5.9070     0.2400 H     1 <1>   0.0800 
 37 H        2.2480     3.3270     1.2140 H     1 <1>   0.0800 
 38 H        1.4250     4.6880     1.9410 H     1 <1>   0.0800 
 39 H        2.0730     4.8210     0.3240 H     1 <1>   0.0800 
 40 H       -6.8290    -0.0260    -1.3610 H     1 <1>   0.0800 
 41 H       -7.2490    -1.6050    -0.7840 H     1 <1>   0.0800 
 42 H       -8.0210    -0.6180     1.3640 H     1 <1>   0.0800 
 43 H       -7.6860     0.9720     0.7400 H     1 <1>   0.0800 
 44 H       -9.6460    -0.9970    -0.4630 H     1 <1>   0.0800 
 45 H       -9.3030     0.5950    -1.1050 H     1 <1>   0.0800 
 46 H      -10.0610     0.4250     0.4620 H     1 <1>   0.0800 
@<TRIPOS>BOND
  1   1   2  2   
  2   2   3  am  
  3   2   4  1   
  4   3   5  1   
  5   3   6  1   
  6   4   7  ar  
  7   4   8  ar  
  8   5   9  1   
  9   5  24  1   
 10   5  25  1   
 11   6  10  1   
 12   6  26  1   
 13   6  27  1   
 14   7  11  ar  
 15   7  28  1   
 16   8  12  ar  
 17   8  29  1   
 18   9  13  1   
 19   9  14  1   
 20   9  30  1   
 21  10  14  1   
 22  10  31  1   
 23  10  32  1   
 24  11  15  ar  
 25  11  16  1   
 26  12  15  ar  
 27  12  17  1   
 28  13  33  1   
 29  14  18  1   
 30  14  19  1   
 31  16  34  1   
 32  16  35  1   
 33  16  36  1   
 34  17  37  1   
 35  17  38  1   
 36  17  39  1   
 37  18  20  ar  
 38  18  21  ar  
 39  19  22  1   
 40  19  40  1   
 41  19  41  1   
 42  22  23  1   
 43  22  42  1   
 44  22  43  1   
 45  23  44  1   
 46  23  45  1   
 47  23  46  1   
@<TRIPOS>SUBSTRUCTURE
  1 ****   6 GROUP 4 **** **** 0

# MOE 2024.06 (io_trps.svl 2023.06)
