@<TRIPOS>MOLECULE
NONAME
42 44 1 0 0 
SMALL
USER_CHARGES


@<TRIPOS>ATOM
  1 O       -2.2290     1.1480    -1.5400 O.2   1 <1>  -0.5700 
  2 C       -1.9540     1.1340    -0.3570 C.2   1 <1>   0.5440 
  3 N       -2.0000    -0.0620     0.3010 N.am  1 <1>  -0.7300 
  4 C       -1.6030     2.3440     0.3410 C.ar  1 <1>   0.0860 
  5 C       -2.3450    -1.3620    -0.3240 C.3   1 <1>   0.2200 
  6 C       -0.6910     3.2880    -0.1230 C.ar  1 <1>   0.1660 
  7 C       -2.1860     2.6430     1.5620 C.ar  1 <1>   0.1600 
  8 C       -3.7670    -1.7360     0.0570 C.3   1 <1>  -0.0800 
  9 C       -1.5450    -2.4760     0.3400 C.3   1 <1>   0.1200 
 10 N       -0.4010     4.3750     0.5520 N.ar  1 <1>  -0.6200 
 11 C        0.0370     3.1170    -1.4460 C.3   1 <1>  -0.0960 
 12 N       -1.9110     3.7180     2.2580 N.ar  1 <1>  -0.6200 
 13 C       -3.5760    -2.4050     1.4240 C.3   1 <1>   0.1200 
 14 C       -4.3960    -2.6880    -0.9780 C.3   1 <1>  -0.0170 
 15 O       -2.2340    -2.7930     1.5110 O.3   1 <1>  -0.5600 
 16 C       -1.0220     4.5270     1.7080 C.ar  1 <1>   0.7200 
 17 C       -5.8330    -3.0310    -0.6170 C.ar  1 <1>  -0.1440 
 18 N       -0.7300     5.6300     2.3910 N.pl3 1 <1>  -0.9000 
 19 C       -6.1860    -4.2550    -0.0850 C.ar  1 <1>  -0.1500 
 20 C       -6.8610    -2.1300    -0.8070 C.ar  1 <1>  -0.1500 
 21 C       -7.5110    -4.5080     0.2290 C.ar  1 <1>   0.1600 
 22 C       -8.1540    -2.4830    -0.4590 C.ar  1 <1>   0.1600 
 23 N       -8.5030    -3.6500     0.0580 N.ar  1 <1>  -0.6200 
 24 H       -1.7330    -0.1370     1.2860 H     1 <1>   0.3700 
 25 H       -2.1830    -1.3240    -1.3890 H     1 <1>   0.0800 
 26 H       -2.9140     1.9620     1.9700 H     1 <1>   0.1500 
 27 H       -4.3880    -0.8610     0.1390 H     1 <1>   0.0800 
 28 H       -0.5380    -2.1830     0.5780 H     1 <1>   0.0800 
 29 H       -1.5310    -3.3560    -0.2790 H     1 <1>   0.0800 
 30 H        0.3680     2.1030    -1.5710 H     1 <1>   0.0800 
 31 H        0.8970     3.7610    -1.4880 H     1 <1>   0.0800 
 32 H       -0.6240     3.3710    -2.2550 H     1 <1>   0.0800 
 33 H       -4.1980    -3.2710     1.5610 H     1 <1>   0.0800 
 34 H       -3.7630    -1.7050     2.2200 H     1 <1>   0.0800 
 35 H       -3.8170    -3.5930    -1.0550 H     1 <1>   0.0800 
 36 H       -4.3890    -2.2170    -1.9460 H     1 <1>   0.0800 
 37 H       -0.2100     6.3640     1.9180 H     1 <1>   0.4000 
 38 H       -1.3240     5.8850     3.1740 H     1 <1>   0.4000 
 39 H       -5.4460    -5.0150     0.0890 H     1 <1>   0.1500 
 40 H       -6.6690    -1.1570    -1.2220 H     1 <1>   0.1500 
 41 H       -7.7680    -5.4670     0.6440 H     1 <1>   0.1500 
 42 H       -8.9430    -1.7670    -0.6140 H     1 <1>   0.1500 
@<TRIPOS>BOND
  1   1   2  2   
  2   2   3  am  
  3   2   4  1   
  4   3   5  1   
  5   3  24  1   
  6   4   6  ar  
  7   4   7  ar  
  8   5   8  1   
  9   5   9  1   
 10   5  25  1   
 11   6  10  ar  
 12   6  11  1   
 13   7  12  ar  
 14   7  26  1   
 15   8  13  1   
 16   8  14  1   
 17   8  27  1   
 18   9  15  1   
 19   9  28  1   
 20   9  29  1   
 21  10  16  ar  
 22  11  30  1   
 23  11  31  1   
 24  11  32  1   
 25  12  16  ar  
 26  13  15  1   
 27  13  33  1   
 28  13  34  1   
 29  14  17  1   
 30  14  35  1   
 31  14  36  1   
 32  16  18  1   
 33  17  19  ar  
 34  17  20  ar  
 35  18  37  1   
 36  18  38  1   
 37  19  21  ar  
 38  19  39  1   
 39  20  22  ar  
 40  20  40  1   
 41  21  23  ar  
 42  21  41  1   
 43  22  23  ar  
 44  22  42  1   
@<TRIPOS>SUBSTRUCTURE
  1 ****   3 GROUP 4 **** **** 0

# MOE 2024.06 (io_trps.svl 2023.06)
