@<TRIPOS>MOLECULE
NONAME
48 50 1 0 0 
SMALL
USER_CHARGES


@<TRIPOS>ATOM
  1 O       -1.8680    -2.0090     0.2140 O.3   1 <1>  -0.2800 
  2 C       -2.3870    -1.2570    -0.7490 C.2   1 <1>   0.0870 
  3 C       -1.0220    -2.8630    -0.3210 C.2   1 <1>  -0.0400 
  4 C       -3.3530    -0.2200    -0.4540 C.ar  1 <1>   0.0530 
  5 C       -1.8610    -1.6560    -1.9380 C.2   1 <1>  -0.1500 
  6 C       -0.9770    -2.6990    -1.6580 C.2   1 <1>  -0.1500 
  7 C       -0.2690    -3.8190     0.5790 C.3   1 <1>  -0.0600 
  8 C       -4.3120    -0.3020     0.5680 C.ar  1 <1>  -0.1430 
  9 C       -3.3360     0.9350    -1.2340 C.ar  1 <1>  -0.1500 
 10 C       -5.1820     0.7560     0.7950 C.ar  1 <1>  -0.1500 
 11 C       -4.4340    -1.5230     1.4750 C.3   1 <1>   0.4860 
 12 C       -4.2160     1.9760    -1.0160 C.ar  1 <1>  -0.1500 
 13 C       -5.1410     1.8890     0.0050 C.ar  1 <1>  -0.1500 
 14 N       -5.2940    -2.5850     0.8750 N.4   1 <1>  -0.9590 
 15 C       -4.6570    -3.2480    -0.2870 C.3   1 <1>   0.5230 
 16 C       -6.6900    -2.1260     0.6000 C.3   1 <1>   0.3430 
 17 C       -5.5010    -4.4310    -0.6880 C.2   1 <1>  -0.3320 
 18 C       -7.6970    -3.1140     1.2240 C.3   1 <1>   0.1200 
 19 N       -5.5590    -5.6150    -0.0400 N.pl3 1 <1>   0.0480 
 20 C       -6.3380    -4.5260    -1.7450 C.2   1 <1>   0.0770 
 21 O       -7.1610    -3.6710     2.3920 O.3   1 <1>  -0.6800 
 22 C       -6.4570    -6.3400    -0.7440 C.2   1 <1>   0.0360 
 23 C       -4.8110    -6.0710     1.1480 C.3   1 <1>   0.0160 
 24 N       -6.9510    -5.7180    -1.7640 N.2   1 <1>  -0.5650 
 25 H       -2.0600    -1.2640    -2.9200 H     1 <1>   0.1500 
 26 H       -0.3880    -3.2340    -2.3840 H     1 <1>   0.1500 
 27 H       -0.9570    -4.4460     1.1150 H     1 <1>   0.0800 
 28 H        0.3210    -3.2630     1.2860 H     1 <1>   0.0800 
 29 H        0.3870    -4.4390    -0.0050 H     1 <1>   0.0800 
 30 H       -2.6110     1.0300    -2.0250 H     1 <1>   0.1500 
 31 H       -5.9020     0.7210     1.5940 H     1 <1>   0.1500 
 32 H       -4.8690    -1.2080     2.4100 H     1 <1>   0.0800 
 33 H       -3.4590    -1.9180     1.7030 H     1 <1>   0.0800 
 34 H       -4.1780     2.8580    -1.6340 H     1 <1>   0.1500 
 35 H       -5.8200     2.7060     0.1850 H     1 <1>   0.1500 
 36 H       -5.4500    -3.3070     1.5970 H     1 <1>   0.4500 
 37 H       -3.6620    -3.5790    -0.0370 H     1 <1>   0.0800 
 38 H       -4.5880    -2.5560    -1.1100 H     1 <1>   0.0800 
 39 H       -6.8660    -2.0300    -0.4590 H     1 <1>   0.0800 
 40 H       -6.8530    -1.1610     1.0480 H     1 <1>   0.0800 
 41 H       -7.9180    -3.9140     0.5380 H     1 <1>   0.0800 
 42 H       -8.6160    -2.6070     1.4670 H     1 <1>   0.0800 
 43 H       -6.5490    -3.7920    -2.5070 H     1 <1>   0.1500 
 44 H       -7.8420    -4.2120     2.8520 H     1 <1>   0.4000 
 45 H       -6.7240    -7.3460    -0.4690 H     1 <1>   0.1500 
 46 H       -3.7780    -5.7920     1.0540 H     1 <1>   0.0800 
 47 H       -4.8790    -7.1410     1.2240 H     1 <1>   0.0800 
 48 H       -5.2330    -5.6280     2.0320 H     1 <1>   0.0800 
@<TRIPOS>BOND
  1   1   2  1   
  2   1   3  1   
  3   2   4  1   
  4   2   5  2   
  5   3   6  2   
  6   3   7  1   
  7   4   8  ar  
  8   4   9  ar  
  9   5   6  1   
 10   5  25  1   
 11   6  26  1   
 12   7  27  1   
 13   7  28  1   
 14   7  29  1   
 15   8  10  ar  
 16   8  11  1   
 17   9  12  ar  
 18   9  30  1   
 19  10  13  ar  
 20  10  31  1   
 21  11  14  1   
 22  11  32  1   
 23  11  33  1   
 24  12  13  ar  
 25  12  34  1   
 26  13  35  1   
 27  14  15  1   
 28  14  16  1   
 29  14  36  1   
 30  15  17  1   
 31  15  37  1   
 32  15  38  1   
 33  16  18  1   
 34  16  39  1   
 35  16  40  1   
 36  17  19  1   
 37  17  20  2   
 38  18  21  1   
 39  18  41  1   
 40  18  42  1   
 41  19  22  1   
 42  19  23  1   
 43  20  24  1   
 44  20  43  1   
 45  21  44  1   
 46  22  24  2   
 47  22  45  1   
 48  23  46  1   
 49  23  47  1   
 50  23  48  1   
@<TRIPOS>SUBSTRUCTURE
  1 ****  15 GROUP 4 **** **** 0

# MOE 2024.06 (io_trps.svl 2023.06)
