@<TRIPOS>MOLECULE
NONAME
43 46 1 0 0 
SMALL
USER_CHARGES


@<TRIPOS>ATOM
  1 O       -1.9080    -1.3320     0.7770 O.3   1 <1>  -0.5600 
  2 C       -1.9050    -0.1070     1.4560 C.3   1 <1>   0.1200 
  3 C       -1.8900    -1.3840    -0.6150 C.3   1 <1>   0.1200 
  4 C       -2.9410     0.9440     0.9800 C.3   1 <1>   0.4230 
  5 C       -3.1900    -0.8560    -1.2630 C.3   1 <1>  -0.0800 
  6 N       -2.5900     1.4400    -0.4000 N.4   1 <1>  -0.9590 
  7 C       -4.4240     0.5060     1.1430 C.3   1 <1>   0.1100 
  8 C       -4.5070    -1.3200    -0.6160 C.3   1 <1>   0.1100 
  9 C       -3.2110     0.6520    -1.5010 C.3   1 <1>   0.3430 
 10 C       -2.8970     2.8930    -0.5620 C.3   1 <1>   0.2630 
 11 N       -4.7320    -0.8930     0.7820 N.3   1 <1>  -0.8100 
 12 C       -6.0790    -1.2800     1.2510 C.3   1 <1>   0.2910 
 13 C       -6.3110    -2.7660     1.0880 C.2   1 <1>  -0.1810 
 14 C       -7.2680    -3.3670     0.3390 C.2   1 <1>  -0.0260 
 15 C       -5.5910    -3.8020     1.6590 C.2   1 <1>   0.1390 
 16 N       -8.2540    -2.8270    -0.4640 N.2   1 <1>  -0.5760 
 17 N       -7.0820    -4.7200     0.5110 N.pl3 1 <1>   0.6010 
 18 N       -6.0400    -4.9820     1.3260 N.2   1 <1>  -0.7070 
 19 C       -9.0290    -3.6770    -1.0570 C.2   1 <1>   0.3760 
 20 C       -7.9210    -5.6040    -0.1340 C.2   1 <1>  -0.1810 
 21 C       -8.9010    -5.0890    -0.9220 C.2   1 <1>  -0.1360 
 22 H       -2.1020    -0.3390     2.4880 H     1 <1>   0.0800 
 23 H       -0.9100     0.2970     1.3990 H     1 <1>   0.0800 
 24 H       -1.0180    -0.8660    -0.9730 H     1 <1>   0.0800 
 25 H       -1.7800    -2.4260    -0.8660 H     1 <1>   0.0800 
 26 H       -2.8150     1.7820     1.6440 H     1 <1>   0.0800 
 27 H       -3.2080    -1.2840    -2.2490 H     1 <1>   0.0800 
 28 H       -1.5740     1.3050    -0.4840 H     1 <1>   0.4500 
 29 H       -5.0700     1.1760     0.6020 H     1 <1>   0.0800 
 30 H       -4.6550     0.6220     2.1880 H     1 <1>   0.0800 
 31 H       -4.5100    -2.3970    -0.6460 H     1 <1>   0.0800 
 32 H       -5.3350    -0.9870    -1.2210 H     1 <1>   0.0800 
 33 H       -4.2350     0.9590    -1.6360 H     1 <1>   0.0800 
 34 H       -2.6850     0.8640    -2.4180 H     1 <1>   0.0800 
 35 H       -3.9580     3.0640    -0.4730 H     1 <1>   0.0800 
 36 H       -2.5730     3.2380    -1.5310 H     1 <1>   0.0800 
 37 H       -2.3900     3.4710     0.1940 H     1 <1>   0.0800 
 38 H       -6.1870    -1.0350     2.2940 H     1 <1>   0.0800 
 39 H       -6.8300    -0.7400     0.6990 H     1 <1>   0.0800 
 40 H       -4.7410    -3.6580     2.3080 H     1 <1>   0.1500 
 41 H       -9.8160    -3.3090    -1.6920 H     1 <1>   0.0600 
 42 H       -7.7360    -6.6470     0.0370 H     1 <1>   0.1500 
 43 H       -9.5950    -5.7120    -1.4560 H     1 <1>   0.1500 
@<TRIPOS>BOND
  1   1   2  1   
  2   1   3  1   
  3   2   4  1   
  4   2  22  1   
  5   2  23  1   
  6   3   5  1   
  7   3  24  1   
  8   3  25  1   
  9   4   6  1   
 10   4   7  1   
 11   4  26  1   
 12   5   8  1   
 13   5   9  1   
 14   5  27  1   
 15   6   9  1   
 16   6  10  1   
 17   6  28  1   
 18   7  11  1   
 19   7  29  1   
 20   7  30  1   
 21   8  11  1   
 22   8  31  1   
 23   8  32  1   
 24   9  33  1   
 25   9  34  1   
 26  10  35  1   
 27  10  36  1   
 28  10  37  1   
 29  11  12  1   
 30  12  13  1   
 31  12  38  1   
 32  12  39  1   
 33  13  14  2   
 34  13  15  1   
 35  14  16  1   
 36  14  17  1   
 37  15  18  2   
 38  15  40  1   
 39  16  19  2   
 40  17  18  1   
 41  17  20  1   
 42  19  21  1   
 43  19  41  1   
 44  20  21  2   
 45  20  42  1   
 46  21  43  1   
@<TRIPOS>SUBSTRUCTURE
  1 ****   8 GROUP 4 **** **** 0

# MOE 2024.06 (io_trps.svl 2023.06)
