@<TRIPOS>MOLECULE
NONAME
37 39 1 0 0 
SMALL
USER_CHARGES


@<TRIPOS>ATOM
  1 O       -0.8150    -0.6840    -1.8660 O.2   1 <1>  -0.5700 
  2 C       -1.7270    -0.9180    -1.1070 C.2   1 <1>   0.5690 
  3 N       -2.1150    -0.0280    -0.1400 N.am  1 <1>  -0.6600 
  4 C       -2.4780    -2.2250    -1.2930 C.3   1 <1>  -0.0190 
  5 C       -3.2690    -0.3140     0.7720 C.3   1 <1>   0.2200 
  6 C       -1.3480     1.2160     0.1420 C.3   1 <1>   0.0600 
  7 C       -2.4220    -3.1510    -0.0600 C.3   1 <1>   0.1200 
  8 C       -3.8980    -1.9540    -1.8100 C.3   1 <1>   0.2090 
  9 C       -3.0600    -1.5890     1.6320 C.3   1 <1>   0.1200 
 10 C       -4.5980    -0.3330    -0.0140 C.3   1 <1>   0.2090 
 11 O       -2.1010    -2.4770     1.1220 O.3   1 <1>  -0.5600 
 12 N       -4.8670    -1.6340    -0.7130 N.pl3 1 <1>  -0.8380 
 13 C       -5.8570    -2.5110    -0.3030 C.ar  1 <1>   0.7200 
 14 N       -6.6090    -2.1420     0.7260 N.ar  1 <1>  -0.6200 
 15 N       -5.9590    -3.6640    -0.9630 N.ar  1 <1>  -0.6200 
 16 C       -7.5330    -2.9840     1.1120 C.ar  1 <1>   0.4100 
 17 C       -6.8940    -4.4900    -0.5570 C.ar  1 <1>   0.1600 
 18 N       -8.2710    -2.5440     2.1710 N.pl3 1 <1>  -0.9000 
 19 C       -7.7320    -4.2080     0.4920 C.ar  1 <1>   0.0730 
 20 C       -8.7430    -5.1190     0.9110 C.1   1 <1>   0.4840 
 21 N       -9.5600    -5.8430     1.2400 N.1   1 <1>  -0.5570 
 22 H       -1.9820    -2.7480    -2.0890 H     1 <1>   0.0800 
 23 H       -3.3540     0.5090     1.4590 H     1 <1>   0.0800 
 24 H       -1.9920     2.0720     0.0460 H     1 <1>   0.0800 
 25 H       -0.5290     1.3230    -0.5490 H     1 <1>   0.0800 
 26 H       -0.9490     1.1750     1.1400 H     1 <1>   0.0800 
 27 H       -1.6400    -3.8750    -0.2090 H     1 <1>   0.0800 
 28 H       -3.3440    -3.6870     0.0830 H     1 <1>   0.0800 
 29 H       -4.2260    -2.8120    -2.3680 H     1 <1>   0.0800 
 30 H       -3.8730    -1.1320    -2.5050 H     1 <1>   0.0800 
 31 H       -3.9830    -2.1210     1.7800 H     1 <1>   0.0800 
 32 H       -2.7050    -1.2880     2.6010 H     1 <1>   0.0800 
 33 H       -4.5870     0.4620    -0.7390 H     1 <1>   0.0800 
 34 H       -5.3910    -0.1020     0.6740 H     1 <1>   0.0800 
 35 H       -6.9940    -5.4260    -1.0820 H     1 <1>   0.1500 
 36 H       -8.1320    -1.5710     2.4540 H     1 <1>   0.4000 
 37 H       -9.1760    -2.9500     2.4250 H     1 <1>   0.4000 
@<TRIPOS>BOND
  1   1   2  2   
  2   2   3  am  
  3   2   4  1   
  4   3   5  1   
  5   3   6  1   
  6   4   7  1   
  7   4   8  1   
  8   4  22  1   
  9   5   9  1   
 10   5  10  1   
 11   5  23  1   
 12   6  24  1   
 13   6  25  1   
 14   6  26  1   
 15   7  11  1   
 16   7  27  1   
 17   7  28  1   
 18   8  12  1   
 19   8  29  1   
 20   8  30  1   
 21   9  11  1   
 22   9  31  1   
 23   9  32  1   
 24  10  12  1   
 25  10  33  1   
 26  10  34  1   
 27  12  13  1   
 28  13  14  ar  
 29  13  15  ar  
 30  14  16  ar  
 31  15  17  ar  
 32  16  18  1   
 33  16  19  ar  
 34  17  19  ar  
 35  17  35  1   
 36  18  36  1   
 37  18  37  1   
 38  19  20  1   
 39  20  21  3   
@<TRIPOS>SUBSTRUCTURE
  1 ****  12 GROUP 4 **** **** 0

# MOE 2024.06 (io_trps.svl 2023.06)
