@<TRIPOS>MOLECULE
NONAME
41 42 1 0 0 
SMALL
USER_CHARGES


@<TRIPOS>ATOM
  1 O        0.3660     1.4580     2.4010 O.co2 1 <1>  -0.9000 
  2 C       -0.1640     2.5370     2.0710 C.2   1 <1>   1.0330 
  3 O       -1.2570     2.8380     2.5940 O.co2 1 <1>  -0.9000 
  4 C        0.4400     3.4650     1.1130 C.2   1 <1>  -0.0060 
  5 N        1.6310     3.3400     0.4290 N.2   1 <1>  -0.5650 
  6 C       -0.1040     4.6390     0.7420 C.2   1 <1>  -0.0100 
  7 C        1.7020     4.4140    -0.2730 C.2   1 <1>   0.5620 
  8 O        0.6830     5.2340    -0.1160 O.3   1 <1>  -0.2800 
  9 N        2.7410     4.7660    -1.1210 N.pl3 1 <1>  -0.8220 
 10 C        2.9640     6.1720    -1.5170 C.3   1 <1>   0.2090 
 11 C        3.6950     3.7220    -1.5860 C.3   1 <1>   0.1290 
 12 C        3.3370     7.0040    -0.2790 C.3   1 <1>  -0.0800 
 13 C        3.6830     8.4520    -0.6110 C.3   1 <1>   0.3430 
 14 C        4.5430     6.4730     0.4970 C.3   1 <1>  -0.1600 
 15 N        4.9220     8.7800     0.1650 N.4   1 <1>  -0.9590 
 16 C        5.0980     7.7050     1.1780 C.3   1 <1>   0.3430 
 17 C        4.8960    10.1370     0.8030 C.3   1 <1>   0.3430 
 18 C        4.8980    11.2760    -0.2220 C.3   1 <1>   0.1200 
 19 O        4.8580    12.4650     0.4900 O.3   1 <1>  -0.5600 
 20 C        4.8790    13.6140    -0.2980 C.3   1 <1>   0.0400 
 21 H       -1.0300     5.0920     1.0500 H     1 <1>   0.1500 
 22 H        2.0610     6.5540    -1.9640 H     1 <1>   0.0800 
 23 H        3.7490     6.2150    -2.2520 H     1 <1>   0.0800 
 24 H        3.2910     2.7380    -1.4100 H     1 <1>   0.0800 
 25 H        4.6230     3.8080    -1.0510 H     1 <1>   0.0800 
 26 H        3.8740     3.8280    -2.6410 H     1 <1>   0.0800 
 27 H        2.4870     7.0310     0.3820 H     1 <1>   0.0800 
 28 H        2.8650     9.0920    -0.3180 H     1 <1>   0.0800 
 29 H        3.8620     8.5700    -1.6670 H     1 <1>   0.0800 
 30 H        5.2820     6.0640    -0.1690 H     1 <1>   0.0800 
 31 H        4.2570     5.7140     1.2070 H     1 <1>   0.0800 
 32 H        5.7280     8.7260    -0.4730 H     1 <1>   0.4500 
 33 H        6.1320     7.5780     1.4600 H     1 <1>   0.0800 
 34 H        4.5090     7.9230     2.0550 H     1 <1>   0.0800 
 35 H        5.7620    10.2540     1.4340 H     1 <1>   0.0800 
 36 H        4.0160    10.2300     1.4190 H     1 <1>   0.0800 
 37 H        4.0280    11.2350    -0.8550 H     1 <1>   0.0800 
 38 H        5.8000    11.2620    -0.8100 H     1 <1>   0.0800 
 39 H        4.8420    14.4690     0.3550 H     1 <1>   0.0800 
 40 H        4.0210    13.6210    -0.9480 H     1 <1>   0.0800 
 41 H        5.7910    13.6410    -0.8710 H     1 <1>   0.0800 
@<TRIPOS>BOND
  1   1   2  ar  
  2   2   3  ar  
  3   2   4  1   
  4   4   5  1   
  5   4   6  2   
  6   5   7  2   
  7   6   8  1   
  8   6  21  1   
  9   7   8  1   
 10   7   9  1   
 11   9  10  1   
 12   9  11  1   
 13  10  12  1   
 14  10  22  1   
 15  10  23  1   
 16  11  24  1   
 17  11  25  1   
 18  11  26  1   
 19  12  13  1   
 20  12  14  1   
 21  12  27  1   
 22  13  15  1   
 23  13  28  1   
 24  13  29  1   
 25  14  16  1   
 26  14  30  1   
 27  14  31  1   
 28  15  16  1   
 29  15  17  1   
 30  15  32  1   
 31  16  33  1   
 32  16  34  1   
 33  17  18  1   
 34  17  35  1   
 35  17  36  1   
 36  18  19  1   
 37  18  37  1   
 38  18  38  1   
 39  19  20  1   
 40  20  39  1   
 41  20  40  1   
 42  20  41  1   
@<TRIPOS>SUBSTRUCTURE
  1 ****  12 GROUP 4 **** **** 0

# MOE 2024.06 (io_trps.svl 2023.06)
