@<TRIPOS>MOLECULE
NONAME
59 61 1 0 0 
SMALL
USER_CHARGES


@<TRIPOS>ATOM
  1 O       -0.0310     1.0420    -0.0830 O.2   1 <1>  -0.5700 
  2 C       -0.1470     2.2450    -0.1030 C.2   1 <1>   0.5690 
  3 N       -1.1760     2.8960     0.5210 N.am  1 <1>  -0.6600 
  4 C        0.8910     3.0560    -0.8790 C.3   1 <1>   0.1810 
  5 C       -1.3210     4.3880     0.4350 C.3   1 <1>   0.3640 
  6 C       -2.1790     2.1840     1.3640 C.3   1 <1>   0.0600 
  7 O        0.9920     4.3800    -0.4170 O.3   1 <1>  -0.5600 
  8 C       -2.7390     4.7790    -0.0160 C.ar  1 <1>  -0.1430 
  9 C       -0.2380     5.0910    -0.4250 C.3   1 <1>   0.2610 
 10 C       -3.3830     4.2770    -1.1530 C.ar  1 <1>  -0.1430 
 11 C       -3.4100     5.7010     0.7790 C.ar  1 <1>  -0.1500 
 12 C       -0.0160     6.5140     0.0970 C.2   1 <1>   0.5690 
 13 C       -4.6700     4.7010    -1.4510 C.ar  1 <1>  -0.1500 
 14 C       -2.7550     3.2630    -2.1040 C.3   1 <1>  -0.0960 
 15 C       -4.6910     6.1180     0.4700 C.ar  1 <1>  -0.1500 
 16 O       -0.8010     7.3900    -0.1800 O.2   1 <1>  -0.5700 
 17 N        1.0820     6.7710     0.8600 N.am  1 <1>  -0.7300 
 18 C       -5.3240     5.6150    -0.6480 C.ar  1 <1>  -0.1500 
 19 C        1.4580     8.0980     1.3770 C.3   1 <1>   0.1400 
 20 C        2.3810     8.7730     0.3580 C.3   1 <1>  -0.1600 
 21 C        2.6450    10.2620     0.6520 C.3   1 <1>  -0.0800 
 22 C        1.3640    11.1080     0.5090 C.3   1 <1>  -0.1600 
 23 C        3.7260    10.7900    -0.3080 C.3   1 <1>  -0.1600 
 24 C        1.6370    12.6070     0.6280 C.3   1 <1>   0.3430 
 25 C        3.9490    12.2950    -0.1590 C.3   1 <1>   0.3430 
 26 N        2.6610    13.0120    -0.3770 N.4   1 <1>  -0.9590 
 27 C        2.8600    14.4920    -0.3760 C.3   1 <1>   0.2630 
 28 H        0.6360     3.0720    -1.9220 H     1 <1>   0.0800 
 29 H        1.8560     2.5960    -0.7650 H     1 <1>   0.0800 
 30 H       -1.1880     4.7500     1.4390 H     1 <1>   0.0800 
 31 H       -2.2120     2.6250     2.3450 H     1 <1>   0.0800 
 32 H       -1.9220     1.1430     1.4640 H     1 <1>   0.0800 
 33 H       -3.1540     2.2530     0.9140 H     1 <1>   0.0800 
 34 H       -0.5680     5.1670    -1.4440 H     1 <1>   0.0800 
 35 H       -2.9380     6.1170     1.6520 H     1 <1>   0.1500 
 36 H       -5.1800     4.3200    -2.3180 H     1 <1>   0.1500 
 37 H       -3.3220     3.1880    -3.0140 H     1 <1>   0.0800 
 38 H       -2.7360     2.2900    -1.6450 H     1 <1>   0.0800 
 39 H       -1.7570     3.5470    -2.3690 H     1 <1>   0.0800 
 40 H       -5.1920     6.8350     1.0970 H     1 <1>   0.1500 
 41 H        1.7720     6.0160     0.9460 H     1 <1>   0.3700 
 42 H       -6.3210     5.9350    -0.8940 H     1 <1>   0.1500 
 43 H        0.5600     8.6730     1.5230 H     1 <1>   0.0800 
 44 H        1.9520     7.9910     2.3280 H     1 <1>   0.0800 
 45 H        3.3150     8.2390     0.3490 H     1 <1>   0.0800 
 46 H        1.9400     8.6840    -0.6210 H     1 <1>   0.0800 
 47 H        3.0130    10.3540     1.6620 H     1 <1>   0.0800 
 48 H        0.6590    10.8410     1.2770 H     1 <1>   0.0800 
 49 H        0.8910    10.9090    -0.4380 H     1 <1>   0.0800 
 50 H        3.4550    10.5760    -1.3270 H     1 <1>   0.0800 
 51 H        4.6560    10.2850    -0.1110 H     1 <1>   0.0800 
 52 H        1.9920    12.8310     1.6210 H     1 <1>   0.0800 
 53 H        0.7210    13.1510     0.4630 H     1 <1>   0.0800 
 54 H        4.6810    12.6220    -0.8800 H     1 <1>   0.0800 
 55 H        4.3250    12.5090     0.8290 H     1 <1>   0.0800 
 56 H        2.3060    12.7230    -1.3000 H     1 <1>   0.4500 
 57 H        3.2300    14.8200     0.5820 H     1 <1>   0.0800 
 58 H        1.9270    14.9940    -0.5760 H     1 <1>   0.0800 
 59 H        3.5700    14.7740    -1.1360 H     1 <1>   0.0800 
@<TRIPOS>BOND
  1   1   2  2   
  2   2   3  am  
  3   2   4  1   
  4   3   5  1   
  5   3   6  1   
  6   4   7  1   
  7   4  28  1   
  8   4  29  1   
  9   5   8  1   
 10   5   9  1   
 11   5  30  1   
 12   6  31  1   
 13   6  32  1   
 14   6  33  1   
 15   7   9  1   
 16   8  10  ar  
 17   8  11  ar  
 18   9  12  1   
 19   9  34  1   
 20  10  13  ar  
 21  10  14  1   
 22  11  15  ar  
 23  11  35  1   
 24  12  16  2   
 25  12  17  am  
 26  13  18  ar  
 27  13  36  1   
 28  14  37  1   
 29  14  38  1   
 30  14  39  1   
 31  15  18  ar  
 32  15  40  1   
 33  17  19  1   
 34  17  41  1   
 35  18  42  1   
 36  19  20  1   
 37  19  43  1   
 38  19  44  1   
 39  20  21  1   
 40  20  45  1   
 41  20  46  1   
 42  21  22  1   
 43  21  23  1   
 44  21  47  1   
 45  22  24  1   
 46  22  48  1   
 47  22  49  1   
 48  23  25  1   
 49  23  50  1   
 50  23  51  1   
 51  24  26  1   
 52  24  52  1   
 53  24  53  1   
 54  25  26  1   
 55  25  54  1   
 56  25  55  1   
 57  26  27  1   
 58  26  56  1   
 59  27  57  1   
 60  27  58  1   
 61  27  59  1   
@<TRIPOS>SUBSTRUCTURE
  1 ****  12 GROUP 4 **** **** 0

# MOE 2024.06 (io_trps.svl 2023.06)
