@<TRIPOS>MOLECULE
NONAME
48 50 1 0 0 
SMALL
USER_CHARGES


@<TRIPOS>ATOM
  1 O       -0.7940     1.0040     1.2330 O.2   1 <1>  -0.5700 
  2 C       -1.6510     1.0640     0.3820 C.2   1 <1>   0.5690 
  3 N       -2.8850     0.4900     0.5640 N.am  1 <1>  -0.6600 
  4 C       -1.3320     1.7970    -0.9200 C.3   1 <1>  -0.0990 
  5 C       -4.0040     0.5030    -0.4190 C.3   1 <1>   0.1400 
  6 C       -3.2220    -0.2400     1.8200 C.3   1 <1>   0.1400 
  7 C        0.0900     2.3810    -1.0100 C.3   1 <1>  -0.2400 
  8 C       -4.3570    -0.9390    -0.7920 C.3   1 <1>  -0.1600 
  9 C       -3.5780    -1.6890     1.4820 C.3   1 <1>  -0.1600 
 10 C       -4.7120    -1.7770     0.4490 C.3   1 <1>   0.4240 
 11 O       -5.8280    -1.1830     1.0720 O.3   1 <1>  -0.5600 
 12 C       -4.9850    -3.2490     0.0700 C.ar  1 <1>  -0.1440 
 13 C       -7.0920    -1.5140     0.5860 C.3   1 <1>   0.1200 
 14 C       -6.2330    -3.8260     0.2620 C.ar  1 <1>  -0.1440 
 15 C       -3.9790    -4.0310    -0.4830 C.ar  1 <1>  -0.1500 
 16 C       -7.3520    -2.9930     0.8560 C.3   1 <1>  -0.0170 
 17 C       -6.4630    -5.1470    -0.0860 C.ar  1 <1>  -0.1500 
 18 C       -4.1880    -5.3550    -0.8330 C.ar  1 <1>   0.0820 
 19 C       -5.4550    -5.9290    -0.6440 C.ar  1 <1>   0.0820 
 20 O       -3.0960    -5.9870    -1.3510 O.3   1 <1>  -0.3630 
 21 O       -5.6830    -7.2210    -1.0210 O.3   1 <1>  -0.3630 
 22 C       -2.8800    -7.3640    -1.1360 C.3   1 <1>   0.0400 
 23 C       -6.9730    -7.7920    -1.0080 C.3   1 <1>   0.0400 
 24 H       -2.0360     2.6000    -1.0330 H     1 <1>   0.0800 
 25 H       -1.4670     1.1090    -1.7340 H     1 <1>   0.0800 
 26 H       -3.7450     1.0490    -1.3070 H     1 <1>   0.0800 
 27 H       -4.8570     0.9840     0.0290 H     1 <1>   0.0800 
 28 H       -4.0560     0.2450     2.2960 H     1 <1>   0.0800 
 29 H       -2.3930    -0.2240     2.5070 H     1 <1>   0.0800 
 30 H        0.2500     3.0900    -0.2150 H     1 <1>   0.0800 
 31 H        0.2330     2.8780    -1.9520 H     1 <1>   0.0800 
 32 H        0.8190     1.5950    -0.9160 H     1 <1>   0.0800 
 33 H       -3.5110    -1.3740    -1.2890 H     1 <1>   0.0800 
 34 H       -5.1720    -0.9520    -1.4890 H     1 <1>   0.0800 
 35 H       -3.8730    -2.2100     2.3740 H     1 <1>   0.0800 
 36 H       -2.6940    -2.1680     1.1070 H     1 <1>   0.0800 
 37 H       -7.1360    -1.2980    -0.4670 H     1 <1>   0.0800 
 38 H       -7.8130    -0.9050     1.1020 H     1 <1>   0.0800 
 39 H       -3.0000    -3.6220    -0.6530 H     1 <1>   0.1500 
 40 H       -8.2950    -3.2700     0.4220 H     1 <1>   0.0800 
 41 H       -7.4040    -3.1590     1.9170 H     1 <1>   0.0800 
 42 H       -7.4410    -5.5510     0.0850 H     1 <1>   0.1500 
 43 H       -1.8370    -7.5670    -1.2940 H     1 <1>   0.0800 
 44 H       -3.4690    -7.9210    -1.8420 H     1 <1>   0.0800 
 45 H       -3.1570    -7.6100    -0.1270 H     1 <1>   0.0800 
 46 H       -6.9020    -8.7850    -1.4130 H     1 <1>   0.0800 
 47 H       -7.6250    -7.1940    -1.6210 H     1 <1>   0.0800 
 48 H       -7.3260    -7.8360     0.0060 H     1 <1>   0.0800 
@<TRIPOS>BOND
  1   1   2  2   
  2   2   3  am  
  3   2   4  1   
  4   3   5  1   
  5   3   6  1   
  6   4   7  1   
  7   4  24  1   
  8   4  25  1   
  9   5   8  1   
 10   5  26  1   
 11   5  27  1   
 12   6   9  1   
 13   6  28  1   
 14   6  29  1   
 15   7  30  1   
 16   7  31  1   
 17   7  32  1   
 18   8  10  1   
 19   8  33  1   
 20   8  34  1   
 21   9  10  1   
 22   9  35  1   
 23   9  36  1   
 24  10  11  1   
 25  10  12  1   
 26  11  13  1   
 27  12  14  ar  
 28  12  15  ar  
 29  13  16  1   
 30  13  37  1   
 31  13  38  1   
 32  14  16  1   
 33  14  17  ar  
 34  15  18  ar  
 35  15  39  1   
 36  16  40  1   
 37  16  41  1   
 38  17  19  ar  
 39  17  42  1   
 40  18  19  ar  
 41  18  20  1   
 42  19  21  1   
 43  20  22  1   
 44  21  23  1   
 45  22  43  1   
 46  22  44  1   
 47  22  45  1   
 48  23  46  1   
 49  23  47  1   
 50  23  48  1   
@<TRIPOS>SUBSTRUCTURE
  1 ****  12 GROUP 4 **** **** 0

# MOE 2024.06 (io_trps.svl 2023.06)
