@<TRIPOS>MOLECULE
NONAME
46 48 1 0 0 
SMALL
USER_CHARGES


@<TRIPOS>ATOM
  1 F        1.5260     2.7060     0.8060 F     1 <1>  -0.3400 
  2 C        1.6240     1.7770    -0.1420 C.3   1 <1>   0.8560 
  3 F        0.5520     1.0070     0.0190 F     1 <1>  -0.3400 
  4 N        2.9070     1.0050     0.0560 N.pl3 1 <1>   0.0480 
  5 C        4.1400     1.4860    -0.3400 C.2   1 <1>  -0.2370 
  6 C        3.1280    -0.2160     0.6440 C.2   1 <1>  -0.3320 
  7 C        4.3150     2.7690    -0.9650 C.2   1 <1>   0.7150 
  8 C        5.0890     0.5460    -0.0300 C.2   1 <1>  -0.1500 
  9 C        4.4520    -0.5160     0.5950 C.2   1 <1>  -0.1500 
 10 C        2.0570    -1.1030     1.2610 C.3   1 <1>  -0.0600 
 11 O        3.5710     3.0950    -1.8690 O.2   1 <1>  -0.5700 
 12 N        5.2970     3.6470    -0.5670 N.am  1 <1>  -0.6600 
 13 C        5.9400     3.5490     0.8010 C.3   1 <1>   0.2200 
 14 C        5.6130     4.8240    -1.4400 C.3   1 <1>   0.1400 
 15 C        5.7420     4.8290     1.6280 C.3   1 <1>   0.1200 
 16 C        7.4350     3.1640     0.7030 C.3   1 <1>   0.3430 
 17 C        6.8630     5.6340    -1.0440 C.3   1 <1>  -0.0800 
 18 O        6.7410     5.7670     1.3670 O.3   1 <1>  -0.5600 
 19 N        7.9910     3.3800    -0.6780 N.4   1 <1>  -0.9590 
 20 C        6.6150     6.5020     0.1980 C.3   1 <1>   0.1200 
 21 C        8.1830     4.8380    -0.9470 C.3   1 <1>   0.3430 
 22 C        9.3400     2.6800    -0.7780 C.3   1 <1>   0.2370 
 23 C       10.3750     3.1540     0.2450 C.2   1 <1>   0.9060 
 24 O       11.0810     4.1200    -0.0550 O.co2 1 <1>  -0.9000 
 25 O       10.3530     2.6330     1.3640 O.co2 1 <1>  -0.9000 
 26 H        1.5530     2.2520    -1.1030 H     1 <1>   0.0800 
 27 H        6.1460     0.5870    -0.2230 H     1 <1>   0.1500 
 28 H        4.9370    -1.4040     0.9640 H     1 <1>   0.1500 
 29 H        2.5060    -1.9680     1.7140 H     1 <1>   0.0800 
 30 H        1.3670    -1.4380     0.5070 H     1 <1>   0.0800 
 31 H        1.5160    -0.5660     2.0190 H     1 <1>   0.0800 
 32 H        5.4480     2.7770     1.3650 H     1 <1>   0.0800 
 33 H        5.7390     4.4680    -2.4500 H     1 <1>   0.0800 
 34 H        4.7570     5.4790    -1.4480 H     1 <1>   0.0800 
 35 H        5.8270     4.5850     2.6730 H     1 <1>   0.0800 
 36 H        4.7720     5.2670     1.4630 H     1 <1>   0.0800 
 37 H        7.5380     2.1250     0.9670 H     1 <1>   0.0800 
 38 H        8.0090     3.7240     1.4250 H     1 <1>   0.0800 
 39 H        7.0110     6.3430    -1.8390 H     1 <1>   0.0800 
 40 H        7.3110     3.0000    -1.3460 H     1 <1>   0.4500 
 41 H        5.6430     6.9660     0.1770 H     1 <1>   0.0800 
 42 H        7.3570     7.2810     0.2470 H     1 <1>   0.0800 
 43 H        8.8070     5.2680    -0.1770 H     1 <1>   0.0800 
 44 H        8.7160     4.9450    -1.8770 H     1 <1>   0.0800 
 45 H        9.2140     1.6230    -0.6290 H     1 <1>   0.0800 
 46 H        9.7630     2.8380    -1.7530 H     1 <1>   0.0800 
@<TRIPOS>BOND
  1   1   2  1   
  2   2   3  1   
  3   2   4  1   
  4   2  26  1   
  5   4   5  1   
  6   4   6  1   
  7   5   7  1   
  8   5   8  2   
  9   6   9  2   
 10   6  10  1   
 11   7  11  2   
 12   7  12  am  
 13   8   9  1   
 14   8  27  1   
 15   9  28  1   
 16  10  29  1   
 17  10  30  1   
 18  10  31  1   
 19  12  13  1   
 20  12  14  1   
 21  13  15  1   
 22  13  16  1   
 23  13  32  1   
 24  14  17  1   
 25  14  33  1   
 26  14  34  1   
 27  15  18  1   
 28  15  35  1   
 29  15  36  1   
 30  16  19  1   
 31  16  37  1   
 32  16  38  1   
 33  17  20  1   
 34  17  21  1   
 35  17  39  1   
 36  18  20  1   
 37  19  21  1   
 38  19  22  1   
 39  19  40  1   
 40  20  41  1   
 41  20  42  1   
 42  21  43  1   
 43  21  44  1   
 44  22  23  1   
 45  22  45  1   
 46  22  46  1   
 47  23  24  ar  
 48  23  25  ar  
@<TRIPOS>SUBSTRUCTURE
  1 ****  12 GROUP 4 **** **** 0

# MOE 2024.06 (io_trps.svl 2023.06)
