@<TRIPOS>MOLECULE
NONAME
59 61 1 0 0 
SMALL
USER_CHARGES


@<TRIPOS>ATOM
  1 O       -4.2430     2.5240    -1.2140 O.2   1 <1>  -0.5700 
  2 C       -3.5180     1.7530    -0.6140 C.2   1 <1>   0.5440 
  3 N       -3.8460     0.4110    -0.5980 N.am  1 <1>  -0.6600 
  4 C       -2.3380     2.2630     0.0520 C.ar  1 <1>   0.0860 
  5 C       -2.9610    -0.6230     0.0610 C.3   1 <1>   0.3640 
  6 C       -5.1690    -0.0240    -1.1380 C.3   1 <1>   0.1400 
  7 C       -2.2590     2.3300     1.4420 C.ar  1 <1>  -0.1500 
  8 C       -1.2280     2.6670    -0.6850 C.ar  1 <1>  -0.1500 
  9 C       -1.5710    -0.5840    -0.5850 C.ar  1 <1>  -0.1430 
 10 C       -3.4830    -2.0960     0.0320 C.3   1 <1>   0.2000 
 11 C       -5.2190    -1.5220    -1.4340 C.3   1 <1>   0.1200 
 12 C       -1.1010     2.7330     2.0810 C.ar  1 <1>  -0.1440 
 13 C       -0.0560     3.0710    -0.0730 C.ar  1 <1>  -0.1440 
 14 C       -0.4360    -0.5300     0.2110 C.ar  1 <1>  -0.1500 
 15 C       -1.4180    -0.5850    -1.9630 C.ar  1 <1>  -0.1500 
 16 O       -4.8420    -2.2190    -0.2930 O.3   1 <1>  -0.5600 
 17 C       -3.3050    -2.8100     1.3810 C.3   1 <1>   0.1200 
 18 C        0.0120     3.0790     1.3190 C.ar  1 <1>   0.0830 
 19 C       -1.0530     2.7840     3.6010 C.3   1 <1>  -0.0970 
 20 C        1.1270     3.4750    -0.9400 C.3   1 <1>  -0.0970 
 21 C        0.8330    -0.4770    -0.3410 C.ar  1 <1>   0.0830 
 22 C       -0.1590    -0.5150    -2.5330 C.ar  1 <1>  -0.1500 
 23 O       -1.9870    -2.7510     1.8240 O.3   1 <1>  -0.6800 
 24 O        1.1570     3.4230     1.9420 O.3   1 <1>  -0.3630 
 25 O        1.8570    -0.4540     0.5560 O.3   1 <1>  -0.3620 
 26 C        0.9810    -0.4440    -1.7370 C.ar  1 <1>   0.0830 
 27 C        2.1090     2.3950     2.0930 C.3   1 <1>   0.0400 
 28 C        3.0530    -1.1540     0.2910 C.3   1 <1>   0.0400 
 29 O        2.2250    -0.3210    -2.2850 O.3   1 <1>  -0.3630 
 30 C        2.4070     0.0210    -3.6410 C.3   1 <1>   0.0400 
 31 H       -2.8590    -0.3380     1.0930 H     1 <1>   0.0800 
 32 H       -5.9330     0.2190    -0.4210 H     1 <1>   0.0800 
 33 H       -5.3850     0.5160    -2.0430 H     1 <1>   0.0800 
 34 H       -3.1240     2.0520     2.0160 H     1 <1>   0.1500 
 35 H       -1.2940     2.6400    -1.7580 H     1 <1>   0.1500 
 36 H       -2.9410    -2.6480    -0.7150 H     1 <1>   0.0800 
 37 H       -4.5660    -1.7830    -2.2480 H     1 <1>   0.0800 
 38 H       -6.2240    -1.8150    -1.6830 H     1 <1>   0.0800 
 39 H       -0.5240    -0.5220     1.2830 H     1 <1>   0.1500 
 40 H       -2.2840    -0.6250    -2.6000 H     1 <1>   0.1500 
 41 H       -3.5820    -3.8460     1.2950 H     1 <1>   0.0800 
 42 H       -3.9190    -2.3380     2.1290 H     1 <1>   0.0800 
 43 H       -2.0350     2.6760     4.0230 H     1 <1>   0.0800 
 44 H       -0.6460     3.7260     3.9210 H     1 <1>   0.0800 
 45 H       -0.4270     1.9930     3.9720 H     1 <1>   0.0800 
 46 H        0.7910     3.8340    -1.8950 H     1 <1>   0.0800 
 47 H        1.7680     2.6260    -1.0950 H     1 <1>   0.0800 
 48 H        1.6910     4.2580    -0.4650 H     1 <1>   0.0800 
 49 H       -0.0930    -0.5110    -3.6040 H     1 <1>   0.1500 
 50 H       -1.3850    -3.2250     1.2150 H     1 <1>   0.4000 
 51 H        2.9260     2.7730     2.6790 H     1 <1>   0.0800 
 52 H        2.4580     2.0940     1.1220 H     1 <1>   0.0800 
 53 H        1.6470     1.5600     2.5910 H     1 <1>   0.0800 
 54 H        3.5360    -1.3600     1.2290 H     1 <1>   0.0800 
 55 H        3.6890    -0.5370    -0.3170 H     1 <1>   0.0800 
 56 H        2.8190    -2.0740    -0.2140 H     1 <1>   0.0800 
 57 H        3.4560     0.1860    -3.8060 H     1 <1>   0.0800 
 58 H        1.8580     0.9220    -3.8510 H     1 <1>   0.0800 
 59 H        2.0660    -0.7930    -4.2560 H     1 <1>   0.0800 
@<TRIPOS>BOND
  1   1   2  2   
  2   2   3  am  
  3   2   4  1   
  4   3   5  1   
  5   3   6  1   
  6   4   7  ar  
  7   4   8  ar  
  8   5   9  1   
  9   5  10  1   
 10   5  31  1   
 11   6  11  1   
 12   6  32  1   
 13   6  33  1   
 14   7  12  ar  
 15   7  34  1   
 16   8  13  ar  
 17   8  35  1   
 18   9  14  ar  
 19   9  15  ar  
 20  10  16  1   
 21  10  17  1   
 22  10  36  1   
 23  11  16  1   
 24  11  37  1   
 25  11  38  1   
 26  12  18  ar  
 27  12  19  1   
 28  13  18  ar  
 29  13  20  1   
 30  14  21  ar  
 31  14  39  1   
 32  15  22  ar  
 33  15  40  1   
 34  17  23  1   
 35  17  41  1   
 36  17  42  1   
 37  18  24  1   
 38  19  43  1   
 39  19  44  1   
 40  19  45  1   
 41  20  46  1   
 42  20  47  1   
 43  20  48  1   
 44  21  25  1   
 45  21  26  ar  
 46  22  26  ar  
 47  22  49  1   
 48  23  50  1   
 49  24  27  1   
 50  25  28  1   
 51  26  29  1   
 52  27  51  1   
 53  27  52  1   
 54  27  53  1   
 55  28  54  1   
 56  28  55  1   
 57  28  56  1   
 58  29  30  1   
 59  30  57  1   
 60  30  58  1   
 61  30  59  1   
@<TRIPOS>SUBSTRUCTURE
  1 ****   9 GROUP 4 **** **** 0

# MOE 2024.06 (io_trps.svl 2023.06)
