@<TRIPOS>MOLECULE
NONAME
46 47 1 0 0 
SMALL
USER_CHARGES


@<TRIPOS>ATOM
  1 O        0.1570     0.0680    -1.4530 O.2   1 <1>  -0.5700 
  2 C        1.1070    -0.6450    -1.2400 C.2   1 <1>   0.5690 
  3 N        2.2980    -0.1570    -0.7630 N.am  1 <1>  -0.4940 
  4 C        0.9010    -2.1680    -1.4790 C.3   1 <1>   0.4840 
  5 C        2.5040     1.0630    -0.1110 C.2   1 <1>   0.2040 
  6 N       -0.1760    -2.7760    -0.6120 N.4   1 <1>  -0.9590 
  7 C        2.1680    -3.0150    -1.3030 C.3   1 <1>  -0.2400 
  8 O        1.5170     1.6880     0.4840 O.3   1 <1>  -0.0190 
  9 C        3.6260     1.7810     0.0920 C.2   1 <1>  -0.1810 
 10 C       -1.5180    -2.3170    -1.0760 C.3   1 <1>   0.3430 
 11 C       -0.0220    -2.4200     0.8280 C.3   1 <1>   0.3430 
 12 N        1.9200     2.7780     1.0790 N.2   1 <1>  -0.4100 
 13 C        3.1830     2.8620     0.8540 C.2   1 <1>   0.1080 
 14 C        5.0500     1.5230    -0.3720 C.3   1 <1>  -0.0590 
 15 C       -2.6090    -3.3240    -0.7050 C.3   1 <1>  -0.1600 
 16 C       -0.3160    -3.6330     1.7110 C.3   1 <1>  -0.1600 
 17 C        4.0410     4.0050     1.3690 C.3   1 <1>   0.0210 
 18 C       -2.7280    -3.6770     0.7900 C.3   1 <1>  -0.1600 
 19 C       -1.5330    -4.4880     1.3130 C.3   1 <1>  -0.1600 
 20 C        4.1640     5.1210     0.3260 C.3   1 <1>  -0.2400 
 21 H        3.1330    -0.7310    -0.8520 H     1 <1>   0.3700 
 22 H        0.5940    -2.2680    -2.5060 H     1 <1>   0.0800 
 23 H       -0.1480    -3.7980    -0.6940 H     1 <1>   0.4500 
 24 H        2.5530    -2.9520    -0.3010 H     1 <1>   0.0800 
 25 H        2.9290    -2.6760    -1.9840 H     1 <1>   0.0800 
 26 H        1.9630    -4.0440    -1.5380 H     1 <1>   0.0800 
 27 H       -1.5140    -2.2000    -2.1480 H     1 <1>   0.0800 
 28 H       -1.7450    -1.3530    -0.6480 H     1 <1>   0.0800 
 29 H       -0.6990    -1.6180     1.0770 H     1 <1>   0.0800 
 30 H        0.9790    -2.0760     1.0320 H     1 <1>   0.0800 
 31 H        5.1000     0.6430    -0.9860 H     1 <1>   0.0800 
 32 H        5.6970     1.3910     0.4770 H     1 <1>   0.0800 
 33 H        5.4040     2.3590    -0.9490 H     1 <1>   0.0800 
 34 H       -2.4730    -4.2240    -1.2800 H     1 <1>   0.0800 
 35 H       -3.5490    -2.9040    -1.0190 H     1 <1>   0.0800 
 36 H       -0.4720    -3.2640     2.7100 H     1 <1>   0.0800 
 37 H        0.5560    -4.2610     1.7520 H     1 <1>   0.0800 
 38 H        5.0160     3.6370     1.6300 H     1 <1>   0.0800 
 39 H        3.5900     4.4020     2.2620 H     1 <1>   0.0800 
 40 H       -3.6120    -4.2810     0.9100 H     1 <1>   0.0800 
 41 H       -2.8750    -2.7890     1.3830 H     1 <1>   0.0800 
 42 H       -1.8480    -5.0370     2.1860 H     1 <1>   0.0800 
 43 H       -1.2480    -5.2230     0.5800 H     1 <1>   0.0800 
 44 H        4.6230     4.7480    -0.5720 H     1 <1>   0.0800 
 45 H        4.7600     5.9270     0.7130 H     1 <1>   0.0800 
 46 H        3.1870     5.5000     0.0800 H     1 <1>   0.0800 
@<TRIPOS>BOND
  1   1   2  2   
  2   2   3  am  
  3   2   4  1   
  4   3   5  1   
  5   3  21  1   
  6   4   6  1   
  7   4   7  1   
  8   4  22  1   
  9   5   8  1   
 10   5   9  2   
 11   6  10  1   
 12   6  11  1   
 13   6  23  1   
 14   7  24  1   
 15   7  25  1   
 16   7  26  1   
 17   8  12  1   
 18   9  13  1   
 19   9  14  1   
 20  10  15  1   
 21  10  27  1   
 22  10  28  1   
 23  11  16  1   
 24  11  29  1   
 25  11  30  1   
 26  12  13  2   
 27  13  17  1   
 28  14  31  1   
 29  14  32  1   
 30  14  33  1   
 31  15  18  1   
 32  15  34  1   
 33  15  35  1   
 34  16  19  1   
 35  16  36  1   
 36  16  37  1   
 37  17  20  1   
 38  17  38  1   
 39  17  39  1   
 40  18  19  1   
 41  18  40  1   
 42  18  41  1   
 43  19  42  1   
 44  19  43  1   
 45  20  44  1   
 46  20  45  1   
 47  20  46  1   
@<TRIPOS>SUBSTRUCTURE
  1 ****   2 GROUP 4 **** **** 0

# MOE 2024.06 (io_trps.svl 2023.06)
