@<TRIPOS>MOLECULE
NONAME
43 45 1 0 0 
SMALL
USER_CHARGES


@<TRIPOS>ATOM
  1 S        0.5530    -0.4240    -1.2510 S.3   1 <1>  -0.0800 
  2 C        1.1450    -1.1580     0.2170 C.2   1 <1>  -0.1400 
  3 C        0.9220     1.1480    -0.5810 C.2   1 <1>   0.1980 
  4 C        1.5580    -0.1860     1.0460 C.2   1 <1>   0.0460 
  5 C        1.1170    -2.6640     0.3120 C.3   1 <1>   0.5230 
  6 N        1.4190     1.1080     0.5870 N.2   1 <1>  -0.5650 
  7 C        0.6220     2.3620    -1.4280 C.3   1 <1>  -0.0600 
  8 C        2.1610    -0.3320     2.4280 C.3   1 <1>  -0.0590 
  9 N       -0.1910    -3.1020     0.8660 N.4   1 <1>  -0.9590 
 10 C       -1.3930    -2.7130     0.0780 C.3   1 <1>   0.3430 
 11 C       -0.3070    -4.5670     1.1160 C.3   1 <1>   0.3430 
 12 C       -2.4920    -3.6210     0.6300 C.3   1 <1>   0.2000 
 13 C       -1.7700    -4.9530     0.8300 C.3   1 <1>  -0.0800 
 14 O       -2.8500    -3.1390     1.8830 O.3   1 <1>  -0.6800 
 15 C       -1.8960    -5.8650    -0.4090 C.3   1 <1>   0.0200 
 16 C       -0.9140    -7.0190    -0.3450 C.2   1 <1>  -0.0400 
 17 O       -0.7410    -7.6640     0.7780 O.3   1 <1>  -0.0190 
 18 C       -0.0970    -7.5600    -1.2610 C.2   1 <1>  -0.1500 
 19 N        0.1610    -8.5910     0.6680 N.2   1 <1>  -0.4100 
 20 C        0.5600    -8.5630    -0.5530 C.2   1 <1>   0.1080 
 21 C        1.6000    -9.4990    -1.1290 C.3   1 <1>  -0.0590 
 22 H        1.9110    -2.9880     0.9660 H     1 <1>   0.0800 
 23 H        1.2820    -3.0950    -0.6620 H     1 <1>   0.0800 
 24 H        0.9010     3.2530    -0.8950 H     1 <1>   0.0800 
 25 H       -0.4280     2.4040    -1.6520 H     1 <1>   0.0800 
 26 H        1.1800     2.3160    -2.3450 H     1 <1>   0.0800 
 27 H        2.2410    -1.3620     2.7170 H     1 <1>   0.0800 
 28 H        1.5480     0.1870     3.1440 H     1 <1>   0.0800 
 29 H        3.1410     0.1100     2.4380 H     1 <1>   0.0800 
 30 H       -0.3300    -2.6300     1.7720 H     1 <1>   0.4500 
 31 H       -1.6430    -1.6720     0.2090 H     1 <1>   0.0800 
 32 H       -1.2360    -2.9200    -0.9670 H     1 <1>   0.0800 
 33 H        0.3590    -5.1180     0.4720 H     1 <1>   0.0800 
 34 H       -0.0570    -4.7910     2.1420 H     1 <1>   0.0800 
 35 H       -3.3670    -3.6650     0.0030 H     1 <1>   0.0800 
 36 H       -2.1720    -5.4890     1.6740 H     1 <1>   0.0800 
 37 H       -3.6510    -3.5890     2.2260 H     1 <1>   0.4000 
 38 H       -1.7180    -5.3140    -1.3150 H     1 <1>   0.0800 
 39 H       -2.8940    -6.2660    -0.4550 H     1 <1>   0.0800 
 40 H        0.0510    -7.3170    -2.2980 H     1 <1>   0.1500 
 41 H        2.4050    -8.9350    -1.5630 H     1 <1>   0.0800 
 42 H        1.1540   -10.1190    -1.8840 H     1 <1>   0.0800 
 43 H        1.9960   -10.1300    -0.3530 H     1 <1>   0.0800 
@<TRIPOS>BOND
  1   1   2  1   
  2   1   3  1   
  3   2   4  2   
  4   2   5  1   
  5   3   6  2   
  6   3   7  1   
  7   4   6  1   
  8   4   8  1   
  9   5   9  1   
 10   5  22  1   
 11   5  23  1   
 12   7  24  1   
 13   7  25  1   
 14   7  26  1   
 15   8  27  1   
 16   8  28  1   
 17   8  29  1   
 18   9  10  1   
 19   9  11  1   
 20   9  30  1   
 21  10  12  1   
 22  10  31  1   
 23  10  32  1   
 24  11  13  1   
 25  11  33  1   
 26  11  34  1   
 27  12  13  1   
 28  12  14  1   
 29  12  35  1   
 30  13  15  1   
 31  13  36  1   
 32  14  37  1   
 33  15  16  1   
 34  15  38  1   
 35  15  39  1   
 36  16  17  1   
 37  16  18  2   
 38  17  19  1   
 39  18  20  1   
 40  18  40  1   
 41  19  20  2   
 42  20  21  1   
 43  21  41  1   
 44  21  42  1   
 45  21  43  1   
@<TRIPOS>SUBSTRUCTURE
  1 ****   9 GROUP 4 **** **** 0

# MOE 2024.06 (io_trps.svl 2023.06)
