@<TRIPOS>MOLECULE
NONAME
50 53 1 0 0 
SMALL
USER_CHARGES


@<TRIPOS>ATOM
  1 S        0.3920     0.8430     1.9220 S.3   1 <1>  -0.0800 
  2 C       -0.8870     1.4230     0.8650 C.2   1 <1>  -0.1400 
  3 C       -0.7020    -0.3220     2.6580 C.2   1 <1>  -0.1100 
  4 C       -2.0300     0.7650     1.1000 C.2   1 <1>  -0.1810 
  5 C       -0.6730     2.5290    -0.1620 C.3   1 <1>   0.4600 
  6 C       -1.9320    -0.2370     2.1170 C.2   1 <1>  -0.1500 
  7 C       -3.2700     1.1180     0.3100 C.3   1 <1>   0.0210 
  8 O       -1.8430     2.6440    -0.9500 O.3   1 <1>  -0.5600 
  9 C        0.4610     2.1670    -1.1270 C.3   1 <1>  -0.1600 
 10 C       -0.3870     3.8770     0.5120 C.3   1 <1>  -0.1600 
 11 C       -3.0910     2.5200    -0.3070 C.3   1 <1>   0.1200 
 12 C        0.7120     3.2790    -2.1480 C.3   1 <1>   0.1400 
 13 C       -0.1310     4.9790    -0.5180 C.3   1 <1>   0.1400 
 14 N        0.9660     4.5600    -1.4330 N.am  1 <1>  -0.6600 
 15 C        2.0470     5.3680    -1.7370 C.2   1 <1>   0.7160 
 16 O        2.7720     5.0620    -2.6670 O.2   1 <1>  -0.5700 
 17 C        2.3190     6.5770    -0.9850 C.2   1 <1>  -0.0860 
 18 C        2.2440     7.8800    -1.4150 C.2   1 <1>  -0.3320 
 19 C        2.7190     6.6600     0.3610 C.2   1 <1>  -0.1810 
 20 N        2.5630     8.7140    -0.4100 N.pl3 1 <1>   0.0330 
 21 C        1.8710     8.3760    -2.8020 C.3   1 <1>  -0.0600 
 22 C        2.8570     7.9810     0.7090 C.2   1 <1>  -0.2370 
 23 C        2.9750     5.4660     1.2670 C.3   1 <1>  -0.0590 
 24 C        3.2300     8.5750     1.9640 C.2   1 <1>   0.5940 
 25 O        3.3980     7.9510     2.9810 O.2   1 <1>  -0.5700 
 26 C        3.4220    10.0740     2.0440 C.3   1 <1>  -0.1790 
 27 H       -0.3010    -0.9570     3.4280 H     1 <1>   0.1500 
 28 H       -2.7800    -0.8400     2.3910 H     1 <1>   0.1500 
 29 H       -4.1310     1.1190     0.9520 H     1 <1>   0.0800 
 30 H       -3.4240     0.3930    -0.4690 H     1 <1>   0.0800 
 31 H        0.2160     1.2530    -1.6340 H     1 <1>   0.0800 
 32 H        1.3680     2.0020    -0.5760 H     1 <1>   0.0800 
 33 H        0.4830     3.7800     1.1330 H     1 <1>   0.0800 
 34 H       -1.2030     4.1520     1.1520 H     1 <1>   0.0800 
 35 H       -3.1580     3.2750     0.4560 H     1 <1>   0.0800 
 36 H       -3.8560     2.7020    -1.0400 H     1 <1>   0.0800 
 37 H       -0.1480     3.3970    -2.7850 H     1 <1>   0.0800 
 38 H        1.5520     3.0120    -2.7660 H     1 <1>   0.0800 
 39 H        0.1110     5.8970    -0.0120 H     1 <1>   0.0800 
 40 H       -1.0220     5.1470    -1.1000 H     1 <1>   0.0800 
 41 H        2.5880     9.7370    -0.4740 H     1 <1>   0.2700 
 42 H        1.6620     7.5470    -3.4560 H     1 <1>   0.0800 
 43 H        2.6840     8.9390    -3.2240 H     1 <1>   0.0800 
 44 H        0.9970     9.0000    -2.7540 H     1 <1>   0.0800 
 45 H        3.0180     4.5530     0.7020 H     1 <1>   0.0800 
 46 H        2.1930     5.3920     2.0000 H     1 <1>   0.0800 
 47 H        3.9120     5.5910     1.7790 H     1 <1>   0.0800 
 48 H        4.1500    10.3890     1.3200 H     1 <1>   0.0800 
 49 H        3.7740    10.3430     3.0230 H     1 <1>   0.0800 
 50 H        2.4870    10.5710     1.8660 H     1 <1>   0.0800 
@<TRIPOS>BOND
  1   1   2  1   
  2   1   3  1   
  3   2   4  2   
  4   2   5  1   
  5   3   6  2   
  6   3  27  1   
  7   4   6  1   
  8   4   7  1   
  9   5   8  1   
 10   5   9  1   
 11   5  10  1   
 12   6  28  1   
 13   7  11  1   
 14   7  29  1   
 15   7  30  1   
 16   8  11  1   
 17   9  12  1   
 18   9  31  1   
 19   9  32  1   
 20  10  13  1   
 21  10  33  1   
 22  10  34  1   
 23  11  35  1   
 24  11  36  1   
 25  12  14  1   
 26  12  37  1   
 27  12  38  1   
 28  13  14  1   
 29  13  39  1   
 30  13  40  1   
 31  14  15  am  
 32  15  16  2   
 33  15  17  1   
 34  17  18  2   
 35  17  19  1   
 36  18  20  1   
 37  18  21  1   
 38  19  22  2   
 39  19  23  1   
 40  20  22  1   
 41  20  41  1   
 42  21  42  1   
 43  21  43  1   
 44  21  44  1   
 45  22  24  1   
 46  23  45  1   
 47  23  46  1   
 48  23  47  1   
 49  24  25  2   
 50  24  26  1   
 51  26  48  1   
 52  26  49  1   
 53  26  50  1   
@<TRIPOS>SUBSTRUCTURE
  1 ****  13 GROUP 4 **** **** 0

# MOE 2024.06 (io_trps.svl 2023.06)
