@<TRIPOS>MOLECULE
NONAME
40 42 1 0 0 
SMALL
USER_CHARGES


@<TRIPOS>ATOM
  1 N       -0.2730     0.5270    -0.5370 N.ar  1 <1>  -0.6250 
  2 C       -1.1660    -0.2650     0.0300 C.ar  1 <1>   0.7150 
  3 C        0.0700     1.5920     0.1500 C.ar  1 <1>   0.1570 
  4 N       -1.7780    -0.1120     1.1900 N.ar  1 <1>  -0.6250 
  5 N       -1.5130    -1.3440    -0.6700 N.pl3 1 <1>  -0.9030 
  6 C       -0.4960     1.8510     1.3820 C.ar  1 <1>  -0.1590 
  7 C        1.1210     2.4890    -0.5100 C.3   1 <1>   0.0530 
  8 C       -1.4260     0.9580     1.8600 C.ar  1 <1>   0.1510 
  9 C        2.5010     1.8080    -0.4770 C.3   1 <1>  -0.1690 
 10 C        1.2280     3.9100     0.0750 C.3   1 <1>  -0.1690 
 11 C        3.5530     2.6500    -1.1990 C.3   1 <1>   0.1580 
 12 C        2.2950     4.7370    -0.6500 C.3   1 <1>   0.1580 
 13 N        3.5980     4.0160    -0.6060 N.pl3 1 <1>  -0.5980 
 14 C        4.6890     4.4890     0.0450 C.cat 1 <1>   1.0680 
 15 N        5.5110     3.7440     0.7520 N.pl3 1 <1>  -0.7050 
 16 N        5.1510     5.7420     0.1190 N.pl3 1 <1>  -0.4640 
 17 C        6.4590     4.5750     1.2610 C.2   1 <1>   0.4780 
 18 N        6.2740     5.7870     0.8980 N.2   1 <1>  -0.2680 
 19 C        4.6910     6.9680    -0.5770 C.3   1 <1>   0.2660 
 20 C        7.5760     4.0700     2.1470 C.3   1 <1>  -0.0820 
 21 H       -2.3890    -1.7720    -0.3850 H     1 <1>   0.3930 
 22 H       -1.3320    -1.2940    -1.6670 H     1 <1>   0.3930 
 23 H       -0.2410     2.7090     1.9710 H     1 <1>   0.1410 
 24 H        0.8290     2.5900    -1.5430 H     1 <1>   0.0700 
 25 H       -1.8920     1.1270     2.8160 H     1 <1>   0.1410 
 26 H        2.4330     0.8490    -0.9620 H     1 <1>   0.0700 
 27 H        2.7990     1.6340     0.5410 H     1 <1>   0.0700 
 28 H        1.4830     3.8660     1.1190 H     1 <1>   0.0700 
 29 H        0.2760     4.4040    -0.0150 H     1 <1>   0.0700 
 30 H        3.2930     2.7290    -2.2420 H     1 <1>   0.0700 
 31 H        4.5140     2.1690    -1.1370 H     1 <1>   0.0700 
 32 H        2.3700     5.6980    -0.1720 H     1 <1>   0.0700 
 33 H        2.0040     4.8870    -1.6770 H     1 <1>   0.0700 
 34 H        5.4110     2.7470     0.9130 H     1 <1>   0.4430 
 35 H        4.1690     6.7150    -1.4820 H     1 <1>   0.0700 
 36 H        5.5410     7.5790    -0.8300 H     1 <1>   0.0700 
 37 H        4.0410     7.5310     0.0710 H     1 <1>   0.0700 
 38 H        8.1690     3.3470     1.6180 H     1 <1>   0.0700 
 39 H        7.1690     3.6160     3.0320 H     1 <1>   0.0700 
 40 H        8.2110     4.8870     2.4410 H     1 <1>   0.0700 
@<TRIPOS>BOND
  1   1   2  ar  
  2   1   3  ar  
  3   2   4  ar  
  4   2   5  1   
  5   3   6  ar  
  6   3   7  1   
  7   4   8  ar  
  8   5  21  1   
  9   5  22  1   
 10   6   8  ar  
 11   6  23  1   
 12   7   9  1   
 13   7  10  1   
 14   7  24  1   
 15   8  25  1   
 16   9  11  1   
 17   9  26  1   
 18   9  27  1   
 19  10  12  1   
 20  10  28  1   
 21  10  29  1   
 22  11  13  1   
 23  11  30  1   
 24  11  31  1   
 25  12  13  1   
 26  12  32  1   
 27  12  33  1   
 28  13  14  ar  
 29  14  15  ar  
 30  14  16  ar  
 31  15  17  1   
 32  15  34  1   
 33  16  18  1   
 34  16  19  1   
 35  17  18  2   
 36  17  20  1   
 37  19  35  1   
 38  19  36  1   
 39  19  37  1   
 40  20  38  1   
 41  20  39  1   
 42  20  40  1   
@<TRIPOS>SUBSTRUCTURE
  1 ****   9 GROUP 4 **** **** 0

# MOE 2024.06 (io_trps.svl 2023.06)
