@<TRIPOS>MOLECULE
NONAME
37 38 1 0 0 
SMALL
USER_CHARGES


@<TRIPOS>ATOM
  1 O       -0.9810    -1.1430    -2.0790 O.3   1 <1>  -0.8500 
  2 C       -0.7190    -2.0370    -1.2570 C.2   1 <1>  -0.1500 
  3 C       -1.5190    -2.3590    -0.1560 C.2   1 <1>  -0.1240 
  4 C        0.4730    -2.7810    -1.4590 C.2   1 <1>  -0.1500 
  5 C       -1.1370    -3.4100     0.6930 C.2   1 <1>   0.6160 
  6 C       -2.8180    -1.5950     0.1510 C.3   1 <1>   0.2380 
  7 C        0.8370    -3.7980    -0.6440 C.2   1 <1>  -0.0290 
  8 O       -1.7950    -3.7280     1.7070 O.2   1 <1>  -0.5700 
  9 N        0.0310    -4.1530     0.4370 N.am  1 <1>  -0.4690 
 10 C       -3.9620    -2.0430    -0.7550 C.2   1 <1>  -0.0400 
 11 C       -2.6420    -0.0720     0.1020 C.3   1 <1>  -0.0990 
 12 C        2.1310    -4.5550    -0.9000 C.3   1 <1>  -0.1020 
 13 C        0.3850    -5.2770     1.3530 C.3   1 <1>   0.0600 
 14 O       -5.2050    -2.0210    -0.3020 O.3   1 <1>  -0.2800 
 15 C       -3.9380    -2.4860    -2.0300 C.2   1 <1>  -0.1500 
 16 C       -3.8120     0.6340     0.7350 C.2   1 <1>   0.6590 
 17 C       -5.9890    -2.4500    -1.2710 C.2   1 <1>  -0.0100 
 18 C       -5.2680    -2.7550    -2.3710 C.2   1 <1>  -0.1500 
 19 O       -3.9010     0.7610     1.9320 O.2   1 <1>  -0.5700 
 20 O       -4.7320     1.1240    -0.0890 O.3   1 <1>  -0.4300 
 21 C       -5.9010     1.7460     0.3910 C.3   1 <1>   0.0400 
 22 H        1.0570    -2.4730    -2.3050 H     1 <1>   0.1500 
 23 H       -3.1180    -1.8290     1.1560 H     1 <1>   0.0800 
 24 H       -2.5510     0.2580    -0.9150 H     1 <1>   0.0800 
 25 H       -1.7440     0.1970     0.6240 H     1 <1>   0.0800 
 26 H        2.7580    -4.5200    -0.0290 H     1 <1>   0.0800 
 27 H        2.6660    -4.1100    -1.7190 H     1 <1>   0.0800 
 28 H        1.9170    -5.5760    -1.1550 H     1 <1>   0.0800 
 29 H       -0.5060    -5.7330     1.7450 H     1 <1>   0.0800 
 30 H        0.9720    -4.8950     2.1690 H     1 <1>   0.0800 
 31 H        0.9370    -6.0370     0.8340 H     1 <1>   0.0800 
 32 H       -3.0690    -2.5970    -2.6600 H     1 <1>   0.1500 
 33 H       -7.0470    -2.5050    -1.0920 H     1 <1>   0.1500 
 34 H       -5.5980    -3.1250    -3.3230 H     1 <1>   0.1500 
 35 H       -6.4900     2.0560    -0.4530 H     1 <1>   0.0800 
 36 H       -5.6210     2.5980     0.9860 H     1 <1>   0.0800 
 37 H       -6.4470     1.0360     0.9860 H     1 <1>   0.0800 
@<TRIPOS>BOND
  1   1   2  1   
  2   2   3  2   
  3   2   4  1   
  4   3   5  1   
  5   3   6  1   
  6   4   7  2   
  7   4  22  1   
  8   5   8  2   
  9   5   9  am  
 10   6  10  1   
 11   6  11  1   
 12   6  23  1   
 13   7   9  1   
 14   7  12  1   
 15   9  13  1   
 16  10  14  1   
 17  10  15  2   
 18  11  16  1   
 19  11  24  1   
 20  11  25  1   
 21  12  26  1   
 22  12  27  1   
 23  12  28  1   
 24  13  29  1   
 25  13  30  1   
 26  13  31  1   
 27  14  17  1   
 28  15  18  1   
 29  15  32  1   
 30  16  19  2   
 31  16  20  1   
 32  17  18  2   
 33  17  33  1   
 34  18  34  1   
 35  20  21  1   
 36  21  35  1   
 37  21  36  1   
 38  21  37  1   
@<TRIPOS>SUBSTRUCTURE
  1 ****   6 GROUP 4 **** **** 0

# MOE 2024.06 (io_trps.svl 2023.06)
