@<TRIPOS>MOLECULE
NONAME
61 64 1 0 0 
SMALL
USER_CHARGES


@<TRIPOS>ATOM
  1 O       -1.7440    -0.0310    -1.3690 O.2   1 <1>  -0.5700 
  2 C       -1.7290     0.5730    -0.3090 C.2   1 <1>   0.7160 
  3 N       -1.9190    -0.1540     0.8480 N.am  1 <1>  -0.6600 
  4 C       -1.5830     1.9900    -0.3000 C.2   1 <1>  -0.0860 
  5 C       -2.0860    -1.6370     0.8020 C.3   1 <1>   0.1400 
  6 C       -2.4640     0.4830     2.0870 C.3   1 <1>   0.1400 
  7 C       -2.6480     2.8880    -0.3460 C.2   1 <1>   0.3720 
  8 C       -0.4920     2.7900    -0.2010 C.2   1 <1>   0.0870 
  9 C       -3.5900    -1.9780     0.6660 C.3   1 <1>   0.2800 
 10 C       -3.6060    -0.3600     2.6850 C.3   1 <1>  -0.1600 
 11 N       -2.2350     4.1040    -0.2620 N.2   1 <1>  -0.4100 
 12 N       -3.9890     2.5020    -0.4380 N.pl3 1 <1>  -0.8210 
 13 O       -0.9310     4.0240    -0.1790 O.3   1 <1>  -0.0190 
 14 C        0.9160     2.5010    -0.1100 C.ar  1 <1>   0.0530 
 15 O       -3.9490    -1.6680    -0.6430 O.3   1 <1>  -0.6800 
 16 C       -4.4440    -1.0730     1.6000 C.3   1 <1>  -0.1600 
 17 C       -3.8090    -3.5020     0.9430 C.3   1 <1>   0.3430 
 18 C       -4.4070     2.1040    -1.8150 C.3   1 <1>   0.2090 
 19 C       -4.9810     3.4710     0.1190 C.3   1 <1>   0.2090 
 20 C        1.7740     3.3420     0.6000 C.ar  1 <1>  -0.1500 
 21 C        1.4750     1.3790    -0.7220 C.ar  1 <1>  -0.1500 
 22 N       -4.9540    -4.2240     0.2460 N.4   1 <1>  -0.9590 
 23 C       -5.8410     1.5480    -1.7990 C.3   1 <1>   0.1200 
 24 C       -6.3990     2.8730     0.0680 C.3   1 <1>   0.1200 
 25 C        3.1260     3.0710     0.7050 C.ar  1 <1>  -0.1500 
 26 C        2.8260     1.1020    -0.6190 C.ar  1 <1>  -0.1500 
 27 C       -4.6130    -4.5130    -1.1840 C.3   1 <1>   0.2630 
 28 C       -6.2500    -3.4770     0.3070 C.3   1 <1>   0.2630 
 29 O       -6.7330     2.4690    -1.2330 O.3   1 <1>  -0.5600 
 30 C        3.6550     1.9470     0.0960 C.ar  1 <1>  -0.1500 
 31 H       -1.6890    -2.0510     1.7130 H     1 <1>   0.0800 
 32 H       -1.5260    -2.0610    -0.0140 H     1 <1>   0.0800 
 33 H       -2.8520     1.4600     1.8600 H     1 <1>   0.0800 
 34 H       -1.6730     0.6030     2.8080 H     1 <1>   0.0800 
 35 H       -4.2390     0.2830     3.2720 H     1 <1>   0.0800 
 36 H       -3.1880    -1.0860     3.3610 H     1 <1>   0.0800 
 37 H       -3.3440    -0.9530    -0.9690 H     1 <1>   0.4000 
 38 H       -5.2120    -1.6430     2.0900 H     1 <1>   0.0800 
 39 H       -4.9310    -0.3070     1.0180 H     1 <1>   0.0800 
 40 H       -3.9260    -3.6150     2.0080 H     1 <1>   0.0800 
 41 H       -2.8930    -4.0090     0.6890 H     1 <1>   0.0800 
 42 H       -3.7400     1.3550    -2.2030 H     1 <1>   0.0800 
 43 H       -4.3620     2.9580    -2.4700 H     1 <1>   0.0800 
 44 H       -4.9580     4.3860    -0.4480 H     1 <1>   0.0800 
 45 H       -4.7230     3.7030     1.1380 H     1 <1>   0.0800 
 46 H        1.3750     4.2190     1.0770 H     1 <1>   0.1500 
 47 H        0.8510     0.7160    -1.2940 H     1 <1>   0.1500 
 48 H       -5.0880    -5.1310     0.7180 H     1 <1>   0.4500 
 49 H       -5.8810     0.6360    -1.2310 H     1 <1>   0.0800 
 50 H       -6.1710     1.3470    -2.8030 H     1 <1>   0.0800 
 51 H       -7.1210     3.6070     0.3790 H     1 <1>   0.0800 
 52 H       -6.4680     2.0210     0.7200 H     1 <1>   0.0800 
 53 H        3.7680     3.7330     1.2590 H     1 <1>   0.1500 
 54 H        3.2360     0.2300    -1.1000 H     1 <1>   0.1500 
 55 H       -4.5130    -3.5960    -1.7420 H     1 <1>   0.0800 
 56 H       -5.3880    -5.1050    -1.6410 H     1 <1>   0.0800 
 57 H       -3.6840    -5.0550    -1.2480 H     1 <1>   0.0800 
 58 H       -6.1560    -2.5280    -0.1960 H     1 <1>   0.0800 
 59 H       -6.5350    -3.3000     1.3300 H     1 <1>   0.0800 
 60 H       -7.0310    -4.0430    -0.1750 H     1 <1>   0.0800 
 61 H        4.7070     1.7330     0.1760 H     1 <1>   0.1500 
@<TRIPOS>BOND
  1   1   2  2   
  2   2   3  am  
  3   2   4  1   
  4   3   5  1   
  5   3   6  1   
  6   4   7  1   
  7   4   8  2   
  8   5   9  1   
  9   5  31  1   
 10   5  32  1   
 11   6  10  1   
 12   6  33  1   
 13   6  34  1   
 14   7  11  2   
 15   7  12  1   
 16   8  13  1   
 17   8  14  1   
 18   9  15  1   
 19   9  16  1   
 20   9  17  1   
 21  10  16  1   
 22  10  35  1   
 23  10  36  1   
 24  11  13  1   
 25  12  18  1   
 26  12  19  1   
 27  14  20  ar  
 28  14  21  ar  
 29  15  37  1   
 30  16  38  1   
 31  16  39  1   
 32  17  22  1   
 33  17  40  1   
 34  17  41  1   
 35  18  23  1   
 36  18  42  1   
 37  18  43  1   
 38  19  24  1   
 39  19  44  1   
 40  19  45  1   
 41  20  25  ar  
 42  20  46  1   
 43  21  26  ar  
 44  21  47  1   
 45  22  27  1   
 46  22  28  1   
 47  22  48  1   
 48  23  29  1   
 49  23  49  1   
 50  23  50  1   
 51  24  29  1   
 52  24  51  1   
 53  24  52  1   
 54  25  30  ar  
 55  25  53  1   
 56  26  30  ar  
 57  26  54  1   
 58  27  55  1   
 59  27  56  1   
 60  27  57  1   
 61  28  58  1   
 62  28  59  1   
 63  28  60  1   
 64  30  61  1   
@<TRIPOS>SUBSTRUCTURE
  1 ****   2 GROUP 4 **** **** 0

# MOE 2024.06 (io_trps.svl 2023.06)
