@<TRIPOS>MOLECULE
NONAME
43 45 1 0 0 
SMALL
USER_CHARGES


@<TRIPOS>ATOM
  1 F       -1.5360    -3.5520    -1.5510 F     1 <1>  -0.1900 
  2 C       -0.2670    -3.2350    -1.4550 C.ar  1 <1>   0.1900 
  3 C        0.4480    -3.6590    -0.3400 C.ar  1 <1>   0.0820 
  4 C        0.3060    -2.4980    -2.4720 C.ar  1 <1>  -0.1500 
  5 O       -0.2090    -4.3800     0.6090 O.3   1 <1>  -0.3630 
  6 C        1.7980    -3.3240    -0.2620 C.ar  1 <1>  -0.1500 
  7 C        1.6490    -2.1730    -2.3770 C.ar  1 <1>  -0.1500 
  8 C        0.4630    -4.9280     1.7250 C.3   1 <1>   0.1200 
  9 C        2.3870    -2.5860    -1.2780 C.ar  1 <1>  -0.1500 
 10 C       -0.5470    -5.7020     2.5850 C.3   1 <1>   0.2090 
 11 N       -1.1050    -6.9130     1.9080 N.pl3 1 <1>  -0.8690 
 12 C       -1.9610    -7.0780     0.8910 C.ar  1 <1>   0.7710 
 13 N       -2.4540    -8.2920     0.7530 N.ar  1 <1>  -0.6200 
 14 N       -2.2850    -6.0630     0.0740 N.ar  1 <1>  -0.1790 
 15 C       -3.3220    -8.5010    -0.2210 C.ar  1 <1>   0.4100 
 16 C       -3.1660    -6.2330    -0.9380 C.ar  1 <1>   0.2110 
 17 N       -3.8340    -9.7530    -0.3430 N.pl3 1 <1>  -0.8380 
 18 C       -3.7050    -7.4650    -1.0970 C.ar  1 <1>  -0.1500 
 19 C       -4.7400   -10.2570    -1.4180 C.3   1 <1>   0.2090 
 20 C       -3.5400   -10.8600     0.6130 C.3   1 <1>   0.2090 
 21 C       -4.6270   -11.7800    -1.3420 C.3   1 <1>   0.2000 
 22 C       -4.3740   -12.0470     0.1340 C.3   1 <1>  -0.1600 
 23 O       -3.5000   -12.1750    -2.0400 O.3   1 <1>  -0.6800 
 24 H       -0.2800    -2.1850    -3.3180 H     1 <1>   0.1500 
 25 H        2.4070    -3.6210     0.5710 H     1 <1>   0.1500 
 26 H        2.1210    -1.5980    -3.1570 H     1 <1>   0.1500 
 27 H        0.8870    -4.1180     2.2940 H     1 <1>   0.0800 
 28 H        1.2470    -5.5810     1.3800 H     1 <1>   0.0800 
 29 H        3.4310    -2.3280    -1.2150 H     1 <1>   0.1500 
 30 H       -1.3480    -5.0440     2.8810 H     1 <1>   0.0800 
 31 H       -0.0490    -6.0190     3.4860 H     1 <1>   0.0800 
 32 H       -0.9250    -7.7880     2.4160 H     1 <1>   0.4000 
 33 H       -1.7690    -5.1900     0.2180 H     1 <1>   0.4570 
 34 H       -3.4050    -5.3960    -1.5760 H     1 <1>   0.1500 
 35 H       -4.4150    -7.6640    -1.8760 H     1 <1>   0.1500 
 36 H       -4.4580    -9.8990    -2.3930 H     1 <1>   0.0800 
 37 H       -5.7490    -9.9580    -1.1960 H     1 <1>   0.0800 
 38 H       -3.8030   -10.5770     1.6190 H     1 <1>   0.0800 
 39 H       -2.4900   -11.0970     0.5710 H     1 <1>   0.0800 
 40 H       -5.4820   -12.2980    -1.7410 H     1 <1>   0.0800 
 41 H       -5.3110   -12.0420     0.6610 H     1 <1>   0.0800 
 42 H       -3.8880   -12.9910     0.3080 H     1 <1>   0.0800 
 43 H       -2.7410   -11.6410    -1.7300 H     1 <1>   0.4000 
@<TRIPOS>BOND
  1   1   2  1   
  2   2   3  ar  
  3   2   4  ar  
  4   3   5  1   
  5   3   6  ar  
  6   4   7  ar  
  7   4  24  1   
  8   5   8  1   
  9   6   9  ar  
 10   6  25  1   
 11   7   9  ar  
 12   7  26  1   
 13   8  10  1   
 14   8  27  1   
 15   8  28  1   
 16   9  29  1   
 17  10  11  1   
 18  10  30  1   
 19  10  31  1   
 20  11  12  1   
 21  11  32  1   
 22  12  13  ar  
 23  12  14  ar  
 24  13  15  ar  
 25  14  16  ar  
 26  14  33  1   
 27  15  17  1   
 28  15  18  ar  
 29  16  18  ar  
 30  16  34  1   
 31  17  19  1   
 32  17  20  1   
 33  18  35  1   
 34  19  21  1   
 35  19  36  1   
 36  19  37  1   
 37  20  22  1   
 38  20  38  1   
 39  20  39  1   
 40  21  22  1   
 41  21  23  1   
 42  21  40  1   
 43  22  41  1   
 44  22  42  1   
 45  23  43  1   
@<TRIPOS>SUBSTRUCTURE
  1 ****  14 GROUP 4 **** **** 0

# MOE 2024.06 (io_trps.svl 2023.06)
