@<TRIPOS>MOLECULE
NONAME
51 54 1 0 0 
SMALL
USER_CHARGES


@<TRIPOS>ATOM
  1 O       -1.1790     1.2240    -2.0460 O.2   1 <1>  -0.5700 
  2 C       -2.1300     1.5670    -1.3620 C.2   1 <1>   0.5440 
  3 N       -3.2860     0.8010    -1.4230 N.am  1 <1>  -0.6600 
  4 C       -1.9760     2.7330    -0.4880 C.ar  1 <1>   0.3960 
  5 C       -3.4450    -0.3270    -2.3840 C.3   1 <1>   0.1400 
  6 C       -4.4430     0.9480    -0.4970 C.3   1 <1>   0.1400 
  7 N       -2.8900     3.7230    -0.4930 N.ar  1 <1>  -0.6200 
  8 C       -0.8580     2.7890     0.3390 C.ar  1 <1>  -0.1500 
  9 C       -3.5940    -1.6370    -1.6060 C.3   1 <1>  -0.1600 
 10 C       -4.6060    -0.3400     0.3130 C.3   1 <1>  -0.1600 
 11 C       -2.6760     4.7430     0.3170 C.ar  1 <1>   0.1600 
 12 C       -0.6500     3.8540     1.1850 C.ar  1 <1>   0.0830 
 13 C       -4.7500    -1.5810    -0.5910 C.3   1 <1>   0.4240 
 14 C       -1.5950     4.8630     1.1670 C.ar  1 <1>  -0.1500 
 15 O        0.4510     3.8430     1.9670 O.3   1 <1>  -0.3630 
 16 O       -5.8910    -1.3680    -1.3950 O.3   1 <1>  -0.5600 
 17 C       -4.8610    -2.9030     0.2240 C.ar  1 <1>  -0.1430 
 18 C        0.7520     4.9140     2.8350 C.3   1 <1>   0.0400 
 19 C       -7.1320    -1.6990    -0.8650 C.3   1 <1>   0.1200 
 20 C       -3.8260    -3.3610     1.0500 C.ar  1 <1>   0.0830 
 21 C       -6.0240    -3.6700     0.1460 C.ar  1 <1>  -0.1430 
 22 C       -7.1880    -3.2110    -0.7080 C.3   1 <1>  -0.0170 
 23 O       -2.6940    -2.6170     1.1620 O.3   1 <1>  -0.3630 
 24 C       -3.9630    -4.5590     1.7500 C.ar  1 <1>  -0.1500 
 25 C       -6.1470    -4.8600     0.8430 C.ar  1 <1>  -0.1500 
 26 C       -1.5440    -3.0670     1.8430 C.3   1 <1>   0.0400 
 27 C       -5.1170    -5.3060     1.6450 C.ar  1 <1>  -0.1500 
 28 H       -2.5980    -0.3930    -3.0440 H     1 <1>   0.0800 
 29 H       -4.3190    -0.1530    -2.9870 H     1 <1>   0.0800 
 30 H       -5.3320     1.1400    -1.0740 H     1 <1>   0.0800 
 31 H       -4.3030     1.7700     0.1800 H     1 <1>   0.0800 
 32 H       -0.1440     1.9870     0.3120 H     1 <1>   0.1500 
 33 H       -2.6600    -1.8270    -1.1180 H     1 <1>   0.0800 
 34 H       -3.7660    -2.4480    -2.2890 H     1 <1>   0.0800 
 35 H       -5.4530    -0.2600     0.9660 H     1 <1>   0.0800 
 36 H       -3.7420    -0.4360     0.9400 H     1 <1>   0.0800 
 37 H       -3.4080     5.5340     0.3030 H     1 <1>   0.1500 
 38 H       -1.5090     5.7300     1.7910 H     1 <1>   0.1500 
 39 H        1.6740     4.6850     3.3390 H     1 <1>   0.0800 
 40 H       -0.0420     5.0160     3.5530 H     1 <1>   0.0800 
 41 H        0.8660     5.8120     2.2540 H     1 <1>   0.0800 
 42 H       -7.8860    -1.3620    -1.5530 H     1 <1>   0.0800 
 43 H       -7.2640    -1.2020     0.0800 H     1 <1>   0.0800 
 44 H       -7.1360    -3.6750    -1.6760 H     1 <1>   0.0800 
 45 H       -8.1200    -3.4830    -0.2480 H     1 <1>   0.0800 
 46 H       -3.1830    -4.9290     2.3870 H     1 <1>   0.1500 
 47 H       -7.0470    -5.4450     0.7660 H     1 <1>   0.1500 
 48 H       -0.7740    -2.3270     1.7210 H     1 <1>   0.0800 
 49 H       -1.2250    -3.9990     1.4120 H     1 <1>   0.0800 
 50 H       -1.7780    -3.1810     2.8860 H     1 <1>   0.0800 
 51 H       -5.2160    -6.2310     2.1860 H     1 <1>   0.1500 
@<TRIPOS>BOND
  1   1   2  2   
  2   2   3  am  
  3   2   4  1   
  4   3   5  1   
  5   3   6  1   
  6   4   7  ar  
  7   4   8  ar  
  8   5   9  1   
  9   5  28  1   
 10   5  29  1   
 11   6  10  1   
 12   6  30  1   
 13   6  31  1   
 14   7  11  ar  
 15   8  12  ar  
 16   8  32  1   
 17   9  13  1   
 18   9  33  1   
 19   9  34  1   
 20  10  13  1   
 21  10  35  1   
 22  10  36  1   
 23  11  14  ar  
 24  11  37  1   
 25  12  14  ar  
 26  12  15  1   
 27  13  16  1   
 28  13  17  1   
 29  14  38  1   
 30  15  18  1   
 31  16  19  1   
 32  17  20  ar  
 33  17  21  ar  
 34  18  39  1   
 35  18  40  1   
 36  18  41  1   
 37  19  22  1   
 38  19  42  1   
 39  19  43  1   
 40  20  23  1   
 41  20  24  ar  
 42  21  22  1   
 43  21  25  ar  
 44  22  44  1   
 45  22  45  1   
 46  23  26  1   
 47  24  27  ar  
 48  24  46  1   
 49  25  27  ar  
 50  25  47  1   
 51  26  48  1   
 52  26  49  1   
 53  26  50  1   
 54  27  51  1   
@<TRIPOS>SUBSTRUCTURE
  1 ****  10 GROUP 4 **** **** 0

# MOE 2024.06 (io_trps.svl 2023.06)
