@<TRIPOS>MOLECULE
NONAME
44 46 1 0 0 
SMALL
USER_CHARGES


@<TRIPOS>ATOM
  1 O       -0.2350    -0.9530    -0.5760 O.3   1 <1>  -0.3630 
  2 C       -0.3930    -2.1990    -0.0840 C.ar  1 <1>   0.3920 
  3 C        1.0030    -0.4530    -1.0300 C.3   1 <1>   0.0400 
  4 N       -1.6050    -2.4440     0.3890 N.ar  1 <1>  -0.6200 
  5 C        0.6370    -3.1390    -0.0810 C.ar  1 <1>  -0.1500 
  6 C       -1.8060    -3.6470     0.8860 C.ar  1 <1>   0.1600 
  7 C        0.4090    -4.3990     0.4290 C.ar  1 <1>  -0.1500 
  8 C       -0.8580    -4.6570     0.9190 C.ar  1 <1>  -0.1440 
  9 C       -1.2300    -6.0120     1.4810 C.3   1 <1>   0.4870 
 10 N       -1.3870    -6.9840     0.3590 N.4   1 <1>  -0.9590 
 11 C       -2.5340    -6.5980    -0.5290 C.3   1 <1>   0.3430 
 12 C       -1.7040    -8.3470     0.8950 C.3   1 <1>   0.3430 
 13 C       -3.7320    -7.4050    -0.0230 C.3   1 <1>   0.2000 
 14 C       -3.1000    -8.7350     0.3780 C.3   1 <1>  -0.0800 
 15 O       -4.2200    -6.7930     1.1280 O.3   1 <1>  -0.6800 
 16 C       -3.0170    -9.7120    -0.8120 C.3   1 <1>  -0.0170 
 17 C       -2.1850   -10.9340    -0.4570 C.ar  1 <1>  -0.1430 
 18 C       -0.9710   -11.1930    -1.0620 C.ar  1 <1>  -0.1500 
 19 C       -2.6000   -11.8460     0.4940 C.ar  1 <1>  -0.1500 
 20 C       -0.2410   -12.3080    -0.6830 C.ar  1 <1>   0.1600 
 21 C       -1.7930   -12.9300     0.8010 C.ar  1 <1>   0.1600 
 22 N       -0.6200   -13.1730     0.2420 N.ar  1 <1>  -0.6200 
 23 H        0.8590     0.5710    -1.3250 H     1 <1>   0.0800 
 24 H        1.3270    -1.0330    -1.8760 H     1 <1>   0.0800 
 25 H        1.7170    -0.5030    -0.2270 H     1 <1>   0.0800 
 26 H        1.6070    -2.8960    -0.4700 H     1 <1>   0.1500 
 27 H       -2.7920    -3.8330     1.2810 H     1 <1>   0.1500 
 28 H        1.1970    -5.1330     0.4410 H     1 <1>   0.1500 
 29 H       -2.1520    -5.9370     2.0360 H     1 <1>   0.0800 
 30 H       -0.4560    -6.3430     2.1540 H     1 <1>   0.0800 
 31 H       -0.5140    -6.9850    -0.1820 H     1 <1>   0.4500 
 32 H       -2.7400    -5.5410    -0.5130 H     1 <1>   0.0800 
 33 H       -2.3170    -6.8930    -1.5420 H     1 <1>   0.0800 
 34 H       -0.9640    -9.0680     0.5850 H     1 <1>   0.0800 
 35 H       -1.7240    -8.3230     1.9730 H     1 <1>   0.0800 
 36 H       -4.5260    -7.4810    -0.7470 H     1 <1>   0.0800 
 37 H       -3.6630    -9.2100     1.1630 H     1 <1>   0.0800 
 38 H       -5.1130    -7.1330     1.3590 H     1 <1>   0.4000 
 39 H       -2.5870    -9.2300    -1.6730 H     1 <1>   0.0800 
 40 H       -4.0080   -10.0350    -1.0860 H     1 <1>   0.0800 
 41 H       -0.5780   -10.5510    -1.8290 H     1 <1>   0.1500 
 42 H       -3.5410   -11.7370     1.0000 H     1 <1>   0.1500 
 43 H        0.7030   -12.5010    -1.1650 H     1 <1>   0.1500 
 44 H       -2.1290   -13.6340     1.5440 H     1 <1>   0.1500 
@<TRIPOS>BOND
  1   1   2  1   
  2   1   3  1   
  3   2   4  ar  
  4   2   5  ar  
  5   3  23  1   
  6   3  24  1   
  7   3  25  1   
  8   4   6  ar  
  9   5   7  ar  
 10   5  26  1   
 11   6   8  ar  
 12   6  27  1   
 13   7   8  ar  
 14   7  28  1   
 15   8   9  1   
 16   9  10  1   
 17   9  29  1   
 18   9  30  1   
 19  10  11  1   
 20  10  12  1   
 21  10  31  1   
 22  11  13  1   
 23  11  32  1   
 24  11  33  1   
 25  12  14  1   
 26  12  34  1   
 27  12  35  1   
 28  13  14  1   
 29  13  15  1   
 30  13  36  1   
 31  14  16  1   
 32  14  37  1   
 33  15  38  1   
 34  16  17  1   
 35  16  39  1   
 36  16  40  1   
 37  17  18  ar  
 38  17  19  ar  
 39  18  20  ar  
 40  18  41  1   
 41  19  21  ar  
 42  19  42  1   
 43  20  22  ar  
 44  20  43  1   
 45  21  22  ar  
 46  21  44  1   
@<TRIPOS>SUBSTRUCTURE
  1 ****  10 GROUP 4 **** **** 0

# MOE 2024.06 (io_trps.svl 2023.06)
