@<TRIPOS>MOLECULE
NONAME
41 43 1 0 0 
SMALL
USER_CHARGES


@<TRIPOS>ATOM
  1 S        0.7360    -0.2270    -1.3050 S.o2  1 <1>   1.5000 
  2 O        1.8210    -1.1610    -1.0810 O.2   1 <1>  -0.6500 
  3 O        0.3740     0.0950    -2.6650 O.2   1 <1>  -0.6500 
  4 N        1.3170     1.2080    -0.6070 N.am  1 <1>  -0.8490 
  5 C       -0.7230    -0.6730    -0.3340 C.2   1 <1>  -0.0220 
  6 C        1.7210     1.1070     0.8220 C.3   1 <1>   0.2760 
  7 C        2.1010     2.0360    -1.5430 C.3   1 <1>   0.1960 
  8 S       -1.7910     0.6220     0.2050 S.3   1 <1>  -0.0800 
  9 C       -1.2140    -1.8590     0.0840 C.2   1 <1>  -0.1500 
 10 C        1.6850     2.4770     1.5190 C.3   1 <1>   0.1200 
 11 C        3.0880     0.4130     1.0810 C.3   1 <1>   0.3430 
 12 C        3.3620     2.7030    -0.9730 C.3   1 <1>  -0.0800 
 13 C       -2.8670    -0.5120     0.9980 C.2   1 <1>  -0.1100 
 14 C       -2.4250    -1.7720     0.8430 C.2   1 <1>  -0.1810 
 15 O        2.8900     3.1580     1.3440 O.3   1 <1>  -0.5600 
 16 N        4.0000     0.3720    -0.1120 N.4   1 <1>  -0.9590 
 17 C        3.0550     3.7560     0.1020 C.3   1 <1>   0.1200 
 18 C        4.4740     1.7240    -0.5500 C.3   1 <1>   0.3430 
 19 C       -3.0950    -3.0200     1.3830 C.3   1 <1>  -0.0590 
 20 C        5.1430    -0.5530     0.1290 C.3   1 <1>   0.2630 
 21 H        0.9750     0.5220     1.3320 H     1 <1>   0.0800 
 22 H        2.4080     1.4410    -2.3880 H     1 <1>   0.0800 
 23 H        1.4460     2.7980    -1.9340 H     1 <1>   0.0800 
 24 H       -0.7640    -2.8160    -0.1190 H     1 <1>   0.1500 
 25 H        1.5670     2.3340     2.5790 H     1 <1>   0.0800 
 26 H        0.8620     3.0790     1.1680 H     1 <1>   0.0800 
 27 H        2.8830    -0.5980     1.3910 H     1 <1>   0.0800 
 28 H        3.5820     0.9050     1.9040 H     1 <1>   0.0800 
 29 H        3.7730     3.2700    -1.7890 H     1 <1>   0.0800 
 30 H       -3.7300    -0.1090     1.5000 H     1 <1>   0.1500 
 31 H        3.4130    -0.0460    -0.8610 H     1 <1>   0.4500 
 32 H        2.1770     4.3330    -0.1380 H     1 <1>   0.0800 
 33 H        3.8860     4.4350     0.1950 H     1 <1>   0.0800 
 34 H        5.0500     2.1770     0.2420 H     1 <1>   0.0800 
 35 H        5.1350     1.5920    -1.3920 H     1 <1>   0.0800 
 36 H       -2.4300    -3.5380     2.0510 H     1 <1>   0.0800 
 37 H       -3.3570    -3.6770     0.5720 H     1 <1>   0.0800 
 38 H       -3.9910    -2.7630     1.9190 H     1 <1>   0.0800 
 39 H        5.7560    -0.1900     0.9380 H     1 <1>   0.0800 
 40 H        5.7500    -0.6340    -0.7580 H     1 <1>   0.0800 
 41 H        4.7780    -1.5360     0.3820 H     1 <1>   0.0800 
@<TRIPOS>BOND
  1   1   2  2   
  2   1   3  2   
  3   1   4  am  
  4   1   5  1   
  5   4   6  1   
  6   4   7  1   
  7   5   8  1   
  8   5   9  2   
  9   6  10  1   
 10   6  11  1   
 11   6  21  1   
 12   7  12  1   
 13   7  22  1   
 14   7  23  1   
 15   8  13  1   
 16   9  14  1   
 17   9  24  1   
 18  10  15  1   
 19  10  25  1   
 20  10  26  1   
 21  11  16  1   
 22  11  27  1   
 23  11  28  1   
 24  12  17  1   
 25  12  18  1   
 26  12  29  1   
 27  13  14  2   
 28  13  30  1   
 29  14  19  1   
 30  15  17  1   
 31  16  18  1   
 32  16  20  1   
 33  16  31  1   
 34  17  32  1   
 35  17  33  1   
 36  18  34  1   
 37  18  35  1   
 38  19  36  1   
 39  19  37  1   
 40  19  38  1   
 41  20  39  1   
 42  20  40  1   
 43  20  41  1   
@<TRIPOS>SUBSTRUCTURE
  1 ****   4 GROUP 4 **** **** 0

# MOE 2024.06 (io_trps.svl 2023.06)
