@<TRIPOS>MOLECULE
NONAME
48 51 1 0 0 
SMALL
USER_CHARGES


@<TRIPOS>ATOM
  1 O       -0.1870     1.0580     1.3230 O.2   1 <1>  -0.5700 
  2 C        0.0770     2.2330     1.1050 C.2   1 <1>   0.7160 
  3 N       -0.9840     3.1230     1.0080 N.am  1 <1>  -0.6600 
  4 C        1.4780     2.6180     0.9370 C.2   1 <1>   0.2030 
  5 C       -2.3710     2.7480     1.4200 C.3   1 <1>   0.1400 
  6 C       -0.8740     4.4800     0.4080 C.3   1 <1>   0.1400 
  7 N        2.0560     3.7620     1.2870 N.2   1 <1>  -0.7070 
  8 C        2.4410     1.7700     0.3710 C.2   1 <1>  -0.1810 
  9 C       -3.3570     2.8140     0.2300 C.3   1 <1>   0.0000 
 10 C       -1.8360     4.6060    -0.7780 C.3   1 <1>  -0.1600 
 11 N        3.3510     3.6380     0.9500 N.pl3 1 <1>   0.3000 
 12 C        3.6010     2.4380     0.4000 C.2   1 <1>  -0.3320 
 13 C        2.3130     0.3620    -0.1900 C.3   1 <1>   0.3010 
 14 C       -4.7670     2.4450     0.7340 C.3   1 <1>   0.2000 
 15 C       -3.2780     4.2240    -0.4030 C.3   1 <1>  -0.1600 
 16 C       -3.0610     1.6970    -0.7870 C.3   1 <1>  -0.1600 
 17 C        4.8890     1.8440    -0.1290 C.3   1 <1>   0.0200 
 18 O        3.4610     0.0540    -0.9480 O.3   1 <1>  -0.5600 
 19 O       -5.7270     2.8820    -0.1860 O.3   1 <1>  -0.5600 
 20 C       -4.7890     0.9110     0.7680 C.3   1 <1>  -0.1600 
 21 C       -3.7230     0.4340    -0.2290 C.3   1 <1>  -0.1600 
 22 C        4.6880     0.3250    -0.3180 C.3   1 <1>   0.1200 
 23 C       -7.0030     3.0750     0.3370 C.3   1 <1>   0.0400 
 24 H       -2.3800     1.7640     1.8550 H     1 <1>   0.0800 
 25 H       -2.6890     3.4360     2.1830 H     1 <1>   0.0800 
 26 H       -1.1140     5.2140     1.1590 H     1 <1>   0.0800 
 27 H        0.1230     4.6740     0.0590 H     1 <1>   0.0800 
 28 H       -1.8170     5.6190    -1.1400 H     1 <1>   0.0800 
 29 H       -1.4880     3.9730    -1.5740 H     1 <1>   0.0800 
 30 H        4.0390     4.3840     1.1100 H     1 <1>   0.2700 
 31 H        1.4580     0.2870    -0.8380 H     1 <1>   0.0800 
 32 H        2.2190    -0.3560     0.6060 H     1 <1>   0.0800 
 33 H       -4.9730     2.8860     1.6950 H     1 <1>   0.0800 
 34 H       -3.8950     4.2700    -1.2840 H     1 <1>   0.0800 
 35 H       -3.6610     4.9450     0.2980 H     1 <1>   0.0800 
 36 H       -3.5290     1.9410    -1.7250 H     1 <1>   0.0800 
 37 H       -2.0090     1.5530    -0.9580 H     1 <1>   0.0800 
 38 H        5.6990     2.0150     0.5570 H     1 <1>   0.0800 
 39 H        5.1380     2.2920    -1.0750 H     1 <1>   0.0800 
 40 H       -4.5190     0.5740     1.7530 H     1 <1>   0.0800 
 41 H       -5.7590     0.5150     0.5240 H     1 <1>   0.0800 
 42 H       -2.9890    -0.1700     0.2790 H     1 <1>   0.0800 
 43 H       -4.1610    -0.1440    -1.0240 H     1 <1>   0.0800 
 44 H        4.6930    -0.1770     0.6340 H     1 <1>   0.0800 
 45 H        5.4720    -0.0840    -0.9310 H     1 <1>   0.0800 
 46 H       -7.6500     3.3770    -0.4680 H     1 <1>   0.0800 
 47 H       -6.9670     3.8510     1.0820 H     1 <1>   0.0800 
 48 H       -7.3630     2.1550     0.7630 H     1 <1>   0.0800 
@<TRIPOS>BOND
  1   1   2  2   
  2   2   3  am  
  3   2   4  1   
  4   3   5  1   
  5   3   6  1   
  6   4   7  2   
  7   4   8  1   
  8   5   9  1   
  9   5  24  1   
 10   5  25  1   
 11   6  10  1   
 12   6  26  1   
 13   6  27  1   
 14   7  11  1   
 15   8  12  2   
 16   8  13  1   
 17   9  14  1   
 18   9  15  1   
 19   9  16  1   
 20  10  15  1   
 21  10  28  1   
 22  10  29  1   
 23  11  12  1   
 24  11  30  1   
 25  12  17  1   
 26  13  18  1   
 27  13  31  1   
 28  13  32  1   
 29  14  19  1   
 30  14  20  1   
 31  14  33  1   
 32  15  34  1   
 33  15  35  1   
 34  16  21  1   
 35  16  36  1   
 36  16  37  1   
 37  17  22  1   
 38  17  38  1   
 39  17  39  1   
 40  18  22  1   
 41  19  23  1   
 42  20  21  1   
 43  20  40  1   
 44  20  41  1   
 45  21  42  1   
 46  21  43  1   
 47  22  44  1   
 48  22  45  1   
 49  23  46  1   
 50  23  47  1   
 51  23  48  1   
@<TRIPOS>SUBSTRUCTURE
  1 ****   2 GROUP 4 **** **** 0

# MOE 2024.06 (io_trps.svl 2023.06)
