@<TRIPOS>MOLECULE
NONAME
48 50 1 0 0 
SMALL
USER_CHARGES


@<TRIPOS>ATOM
  1 O        0.5610     1.3720    -1.1390 O.3   1 <1>  -0.6800 
  2 C        0.1790     2.4030    -0.3070 C.3   1 <1>   0.2000 
  3 C       -0.9420     3.1870    -0.9900 C.3   1 <1>  -0.1600 
  4 C        1.4040     3.2800    -0.0490 C.3   1 <1>  -0.1600 
  5 C       -1.2950     4.4260    -0.1670 C.3   1 <1>   0.2090 
  6 C        1.0230     4.5310     0.7450 C.3   1 <1>   0.2090 
  7 N       -0.0700     5.2550     0.0270 N.pl3 1 <1>  -0.8380 
  8 C        0.0460     6.5530    -0.3510 C.ar  1 <1>   0.4100 
  9 N        0.8020     7.3460     0.3890 N.ar  1 <1>  -0.6200 
 10 C       -0.6160     7.0370    -1.4970 C.ar  1 <1>  -0.1500 
 11 C        0.8960     8.6110     0.0400 C.ar  1 <1>   0.7710 
 12 C       -0.4960     8.3430    -1.8310 C.ar  1 <1>   0.2110 
 13 N        0.2710     9.1260    -1.0340 N.ar  1 <1>  -0.1790 
 14 N        1.6560     9.3770     0.8310 N.pl3 1 <1>  -0.8690 
 15 C        2.0320    10.8180     0.7760 C.3   1 <1>   0.2090 
 16 C        3.4740    11.0230     1.2490 C.3   1 <1>   0.0960 
 17 N        3.8420    12.4270     1.0050 N.pl3 1 <1>   0.0480 
 18 C        4.4740    12.9600    -0.0620 C.2   1 <1>  -0.3320 
 19 C        3.5010    13.4860     1.7720 C.2   1 <1>   0.0360 
 20 C        4.4690    14.3010     0.1300 C.2   1 <1>   0.0460 
 21 C        5.0610    12.1380    -1.2010 C.3   1 <1>  -0.0600 
 22 N        3.8520    14.6230     1.2780 N.2   1 <1>  -0.5650 
 23 C        5.0410    15.4090    -0.7280 C.3   1 <1>  -0.0590 
 24 H       -0.1900     0.7750    -1.3140 H     1 <1>   0.4000 
 25 H       -0.1690     1.9750     0.6180 H     1 <1>   0.0800 
 26 H       -1.8150     2.5680    -1.0840 H     1 <1>   0.0800 
 27 H       -0.6280     3.4980    -1.9700 H     1 <1>   0.0800 
 28 H        1.8390     3.5840    -0.9840 H     1 <1>   0.0800 
 29 H        2.1370     2.7200     0.5020 H     1 <1>   0.0800 
 30 H       -1.6670     4.1240     0.7980 H     1 <1>   0.0800 
 31 H       -2.0740     4.9860    -0.6520 H     1 <1>   0.0800 
 32 H        1.8940     5.1540     0.8540 H     1 <1>   0.0800 
 33 H        0.6830     4.2570     1.7290 H     1 <1>   0.0800 
 34 H       -1.1910     6.3550    -2.0950 H     1 <1>   0.1500 
 35 H       -0.9770     8.7740    -2.6950 H     1 <1>   0.1500 
 36 H        0.4000    10.1170    -1.2050 H     1 <1>   0.4570 
 37 H        2.0160     8.8670     1.6480 H     1 <1>   0.4000 
 38 H        1.3690    11.3810     1.4140 H     1 <1>   0.0800 
 39 H        1.9420    11.1870    -0.2310 H     1 <1>   0.0800 
 40 H        4.1460    10.3860     0.7040 H     1 <1>   0.0800 
 41 H        3.5620    10.8190     2.3000 H     1 <1>   0.0800 
 42 H        2.9770    13.3780     2.7050 H     1 <1>   0.1500 
 43 H        4.2940    11.5650    -1.6870 H     1 <1>   0.0800 
 44 H        5.8140    11.4690    -0.8220 H     1 <1>   0.0800 
 45 H        5.5220    12.7740    -1.9340 H     1 <1>   0.0800 
 46 H        5.5040    15.0200    -1.6130 H     1 <1>   0.0800 
 47 H        5.7730    15.9540    -0.1620 H     1 <1>   0.0800 
 48 H        4.2540    16.0830    -1.0120 H     1 <1>   0.0800 
@<TRIPOS>BOND
  1   1   2  1   
  2   1  24  1   
  3   2   3  1   
  4   2   4  1   
  5   2  25  1   
  6   3   5  1   
  7   3  26  1   
  8   3  27  1   
  9   4   6  1   
 10   4  28  1   
 11   4  29  1   
 12   5   7  1   
 13   5  30  1   
 14   5  31  1   
 15   6   7  1   
 16   6  32  1   
 17   6  33  1   
 18   7   8  1   
 19   8   9  ar  
 20   8  10  ar  
 21   9  11  ar  
 22  10  12  ar  
 23  10  34  1   
 24  11  13  ar  
 25  11  14  1   
 26  12  13  ar  
 27  12  35  1   
 28  13  36  1   
 29  14  15  1   
 30  14  37  1   
 31  15  16  1   
 32  15  38  1   
 33  15  39  1   
 34  16  17  1   
 35  16  40  1   
 36  16  41  1   
 37  17  18  1   
 38  17  19  1   
 39  18  20  2   
 40  18  21  1   
 41  19  22  2   
 42  19  42  1   
 43  20  22  1   
 44  20  23  1   
 45  21  43  1   
 46  21  44  1   
 47  21  45  1   
 48  23  46  1   
 49  23  47  1   
 50  23  48  1   
@<TRIPOS>SUBSTRUCTURE
  1 ****  11 GROUP 4 **** **** 0

# MOE 2024.06 (io_trps.svl 2023.06)
