@<TRIPOS>MOLECULE
NONAME
41 42 1 0 0 
SMALL
USER_CHARGES


@<TRIPOS>ATOM
  1 O        4.2380    -1.8970     1.5060 O.2   1 <1>  -0.5700 
  2 C        3.0890    -1.8650     1.1390 C.2   1 <1>   0.5690 
  3 N        2.4300    -0.7360     0.7550 N.am  1 <1>  -0.4940 
  4 C        2.2820    -3.1640     1.0940 C.3   1 <1>   0.1710 
  5 C        2.8500     0.5940     0.6770 C.2   1 <1>   0.2040 
  6 N        1.0290    -3.0670     0.2790 N.3   1 <1>  -0.8100 
  7 O        4.0420     0.9760     1.0670 O.3   1 <1>  -0.0190 
  8 C        2.1960     1.6840     0.2290 C.2   1 <1>  -0.1810 
  9 C        0.0940    -4.1640     0.6390 C.3   1 <1>   0.2530 
 10 C        1.3430    -3.1300    -1.1630 C.3   1 <1>   0.0300 
 11 N        4.2180     2.2630     0.9040 N.2   1 <1>  -0.4100 
 12 C        3.1230     2.7120     0.4010 C.2   1 <1>   0.1080 
 13 C        0.7900     1.8020    -0.3340 C.3   1 <1>  -0.0590 
 14 C       -1.2650    -4.0340    -0.0460 C.ar  1 <1>   0.1670 
 15 C        2.9090     4.1740     0.0540 C.3   1 <1>   0.0210 
 16 N       -1.6340    -5.0280    -0.8440 N.ar  1 <1>  -0.6200 
 17 C       -2.0390    -2.9070     0.1940 C.ar  1 <1>  -0.1500 
 18 C        3.2400     4.4520    -1.4170 C.3   1 <1>  -0.2400 
 19 C       -2.8180    -4.8920    -1.4200 C.ar  1 <1>   0.1600 
 20 C       -3.2700    -2.7790    -0.4130 C.ar  1 <1>  -0.1500 
 21 C       -3.6610    -3.8080    -1.2430 C.ar  1 <1>  -0.1500 
 22 H        1.4830    -0.9460     0.4320 H     1 <1>   0.3700 
 23 H        2.0300    -3.4030     2.1120 H     1 <1>   0.0800 
 24 H        2.9100    -3.9520     0.7180 H     1 <1>   0.0800 
 25 H       -0.0740    -4.1560     1.7020 H     1 <1>   0.0800 
 26 H        0.5300    -5.1140     0.3820 H     1 <1>   0.0800 
 27 H        2.0500    -2.3640    -1.4340 H     1 <1>   0.0800 
 28 H        0.4490    -2.9810    -1.7460 H     1 <1>   0.0800 
 29 H        1.7600    -4.0900    -1.4180 H     1 <1>   0.0800 
 30 H        0.3110     0.8400    -0.3630 H     1 <1>   0.0800 
 31 H        0.8270     2.1960    -1.3340 H     1 <1>   0.0800 
 32 H        0.2030     2.4610     0.2800 H     1 <1>   0.0800 
 33 H        3.5440     4.7750     0.6810 H     1 <1>   0.0800 
 34 H        1.8900     4.4480     0.2590 H     1 <1>   0.0800 
 35 H       -1.6730    -2.1390     0.8500 H     1 <1>   0.1500 
 36 H        4.2650     4.1900    -1.6140 H     1 <1>   0.0800 
 37 H        3.1000     5.4940    -1.6380 H     1 <1>   0.0800 
 38 H        2.6060     3.8700    -2.0610 H     1 <1>   0.0800 
 39 H       -3.1350    -5.6890    -2.0710 H     1 <1>   0.1500 
 40 H       -3.8950    -1.9190    -0.2480 H     1 <1>   0.1500 
 41 H       -4.6090    -3.7740    -1.7480 H     1 <1>   0.1500 
@<TRIPOS>BOND
  1   1   2  2   
  2   2   3  am  
  3   2   4  1   
  4   3   5  1   
  5   3  22  1   
  6   4   6  1   
  7   4  23  1   
  8   4  24  1   
  9   5   7  1   
 10   5   8  2   
 11   6   9  1   
 12   6  10  1   
 13   7  11  1   
 14   8  12  1   
 15   8  13  1   
 16   9  14  1   
 17   9  25  1   
 18   9  26  1   
 19  10  27  1   
 20  10  28  1   
 21  10  29  1   
 22  11  12  2   
 23  12  15  1   
 24  13  30  1   
 25  13  31  1   
 26  13  32  1   
 27  14  16  ar  
 28  14  17  ar  
 29  15  18  1   
 30  15  33  1   
 31  15  34  1   
 32  16  19  ar  
 33  17  20  ar  
 34  17  35  1   
 35  18  36  1   
 36  18  37  1   
 37  18  38  1   
 38  19  21  ar  
 39  19  39  1   
 40  20  21  ar  
 41  20  40  1   
 42  21  41  1   
@<TRIPOS>SUBSTRUCTURE
  1 ****   3 GROUP 4 **** **** 0

# MOE 2024.06 (io_trps.svl 2023.06)
