@<TRIPOS>MOLECULE
NONAME
45 48 1 0 0 
SMALL
USER_CHARGES


@<TRIPOS>ATOM
  1 CL       0.3130    -2.2800     3.1230 Cl    1 <1>  -0.1240 
  2 C       -0.9170    -2.5160     1.9110 C.2   1 <1>   0.2640 
  3 O       -0.8960    -3.6180     1.2020 O.3   1 <1>  -0.2800 
  4 C       -1.9410    -1.7110     1.5660 C.2   1 <1>  -0.1500 
  5 C       -1.9240    -3.5760     0.3530 C.2   1 <1>   0.0550 
  6 C       -2.5980    -2.4020     0.5460 C.2   1 <1>  -0.1500 
  7 C       -2.1670    -4.6600    -0.5750 C.2   1 <1>   0.7150 
  8 O       -1.2360    -5.1420    -1.1970 O.2   1 <1>  -0.5700 
  9 N       -3.4410    -5.1560    -0.7940 N.am  1 <1>  -0.6600 
 10 C       -4.5610    -5.0200     0.1770 C.3   1 <1>   0.1400 
 11 C       -3.7350    -6.0970    -1.9130 C.3   1 <1>   0.1400 
 12 C       -4.8820    -6.3920     0.7760 C.3   1 <1>  -0.1600 
 13 C       -4.0490    -7.4830    -1.3450 C.3   1 <1>  -0.1600 
 14 C       -5.1880    -7.4420    -0.3110 C.3   1 <1>   0.4240 
 15 O       -6.2910    -6.9520    -1.0430 O.3   1 <1>  -0.5600 
 16 C       -5.4710    -8.8530     0.2820 C.ar  1 <1>  -0.1430 
 17 C       -7.5660    -7.2130    -0.5540 C.3   1 <1>   0.1200 
 18 C       -4.5050    -9.5660     1.0060 C.ar  1 <1>   0.0830 
 19 C       -6.7200    -9.4460     0.0990 C.ar  1 <1>  -0.1430 
 20 C       -7.8110    -8.7100    -0.6510 C.3   1 <1>  -0.0170 
 21 O       -3.2880    -8.9980     1.2150 O.3   1 <1>  -0.3630 
 22 C       -4.7950   -10.8340     1.5060 C.ar  1 <1>  -0.1500 
 23 C       -6.9960   -10.7080     0.5970 C.ar  1 <1>  -0.1500 
 24 C       -2.1990    -9.7000     1.7700 C.3   1 <1>   0.0400 
 25 C       -6.0340   -11.4030     1.3000 C.ar  1 <1>  -0.1500 
 26 H       -2.2030    -0.7520     1.9730 H     1 <1>   0.1500 
 27 H       -3.4690    -2.0550     0.0170 H     1 <1>   0.1500 
 28 H       -5.4250    -4.6290    -0.3340 H     1 <1>   0.0800 
 29 H       -4.3070    -4.3450     0.9740 H     1 <1>   0.0800 
 30 H       -2.8990    -6.1630    -2.5880 H     1 <1>   0.0800 
 31 H       -4.5790    -5.7270    -2.4700 H     1 <1>   0.0800 
 32 H       -5.7090    -6.3150     1.4550 H     1 <1>   0.0800 
 33 H       -4.0340    -6.6950     1.3570 H     1 <1>   0.0800 
 34 H       -3.1470    -7.8640    -0.9110 H     1 <1>   0.0800 
 35 H       -4.3240    -8.1500    -2.1410 H     1 <1>   0.0800 
 36 H       -8.2700    -6.6740    -1.1630 H     1 <1>   0.0800 
 37 H       -7.6370    -6.8700     0.4630 H     1 <1>   0.0800 
 38 H       -7.8110    -9.0100    -1.6840 H     1 <1>   0.0800 
 39 H       -8.7740    -8.9380    -0.2300 H     1 <1>   0.0800 
 40 H       -4.0710   -11.3950     2.0620 H     1 <1>   0.1500 
 41 H       -7.9630   -11.1550     0.4410 H     1 <1>   0.1500 
 42 H       -1.3400    -9.0530     1.7480 H     1 <1>   0.0800 
 43 H       -2.0100   -10.5770     1.1770 H     1 <1>   0.0800 
 44 H       -2.4320    -9.9610     2.7870 H     1 <1>   0.0800 
 45 H       -6.2520   -12.3840     1.6860 H     1 <1>   0.1500 
@<TRIPOS>BOND
  1   1   2  1   
  2   2   3  1   
  3   2   4  2   
  4   3   5  1   
  5   4   6  1   
  6   4  26  1   
  7   5   6  2   
  8   5   7  1   
  9   6  27  1   
 10   7   8  2   
 11   7   9  am  
 12   9  10  1   
 13   9  11  1   
 14  10  12  1   
 15  10  28  1   
 16  10  29  1   
 17  11  13  1   
 18  11  30  1   
 19  11  31  1   
 20  12  14  1   
 21  12  32  1   
 22  12  33  1   
 23  13  14  1   
 24  13  34  1   
 25  13  35  1   
 26  14  15  1   
 27  14  16  1   
 28  15  17  1   
 29  16  18  ar  
 30  16  19  ar  
 31  17  20  1   
 32  17  36  1   
 33  17  37  1   
 34  18  21  1   
 35  18  22  ar  
 36  19  20  1   
 37  19  23  ar  
 38  20  38  1   
 39  20  39  1   
 40  21  24  1   
 41  22  25  ar  
 42  22  40  1   
 43  23  25  ar  
 44  23  41  1   
 45  24  42  1   
 46  24  43  1   
 47  24  44  1   
 48  25  45  1   
@<TRIPOS>SUBSTRUCTURE
  1 ****  12 GROUP 4 **** **** 0

# MOE 2024.06 (io_trps.svl 2023.06)
