@<TRIPOS>MOLECULE
NONAME
50 52 1 0 0 
SMALL
USER_CHARGES


@<TRIPOS>ATOM
  1 S        1.1340     0.8480    -1.4880 S.o2  1 <1>   1.3330 
  2 O        1.7540     1.8360    -2.3420 O.2   1 <1>  -0.6500 
  3 O        0.6720    -0.4040    -2.0320 O.2   1 <1>  -0.6500 
  4 N        2.2000     0.5170    -0.2100 N.am  1 <1>  -0.8490 
  5 C       -0.2460     1.6710    -0.6830 C.3   1 <1>  -0.0550 
  6 C        1.8060    -0.6600     0.5770 C.3   1 <1>   0.1160 
  7 C        3.5690     0.3170    -0.7020 C.3   1 <1>   0.1160 
  8 C        0.1380     2.9430     0.1050 C.3   1 <1>  -0.0800 
  9 C       -1.0940     3.6180     0.7250 C.3   1 <1>   0.2000 
 10 C        0.7890     4.0170    -0.7860 C.3   1 <1>   0.3430 
 11 O       -0.8200     3.9160     2.0530 O.3   1 <1>  -0.6800 
 12 C       -1.2430     4.9390    -0.0380 C.3   1 <1>   0.3430 
 13 N        0.1350     5.3120    -0.4560 N.4   1 <1>  -0.9590 
 14 C        0.8530     5.9980     0.6590 C.3   1 <1>   0.4860 
 15 C        1.9830     6.8330     0.0700 C.ar  1 <1>  -0.1440 
 16 C        3.3210     6.4110    -0.0160 C.ar  1 <1>  -0.0230 
 17 C        1.6250     8.0940    -0.3890 C.ar  1 <1>  -0.1500 
 18 N        3.7850     5.1210     0.4110 N.pl3 1 <1>   0.5930 
 19 C        4.2530     7.3020    -0.5530 C.ar  1 <1>  -0.1500 
 20 C        2.5650     8.9490    -0.9300 C.ar  1 <1>  -0.1500 
 21 N        3.1840     4.3700     1.3730 N.2   1 <1>  -0.7070 
 22 C        4.8390     4.4310    -0.0950 C.2   1 <1>  -0.3020 
 23 C        3.8830     8.5510    -1.0100 C.ar  1 <1>  -0.1500 
 24 C        3.8800     3.2790     1.4630 C.2   1 <1>   0.1390 
 25 C        4.9350     3.2590     0.5640 C.2   1 <1>  -0.1500 
 26 H       -0.9720     1.9230    -1.4330 H     1 <1>   0.0800 
 27 H       -0.7130     0.9760    -0.0120 H     1 <1>   0.0800 
 28 H        2.4820    -0.7940     1.4060 H     1 <1>   0.0800 
 29 H        1.8260    -1.5490    -0.0330 H     1 <1>   0.0800 
 30 H        0.8130    -0.5340     0.9700 H     1 <1>   0.0800 
 31 H        4.2370     0.1220     0.1180 H     1 <1>   0.0800 
 32 H        3.9120     1.2000    -1.2140 H     1 <1>   0.0800 
 33 H        3.6030    -0.5130    -1.3900 H     1 <1>   0.0800 
 34 H        0.8430     2.6670     0.8720 H     1 <1>   0.0800 
 35 H       -1.9930     3.0250     0.6880 H     1 <1>   0.0800 
 36 H        0.6020     3.7860    -1.8230 H     1 <1>   0.0800 
 37 H        1.8550     4.0510    -0.6410 H     1 <1>   0.0800 
 38 H       -0.7500     3.1060     2.6020 H     1 <1>   0.4000 
 39 H       -1.7040     5.6950     0.5770 H     1 <1>   0.0800 
 40 H       -1.8480     4.7740    -0.9140 H     1 <1>   0.0800 
 41 H        0.1510     5.9470    -1.2630 H     1 <1>   0.4500 
 42 H        0.1730     6.6650     1.1630 H     1 <1>   0.0800 
 43 H        1.1920     5.2900     1.3930 H     1 <1>   0.0800 
 44 H        0.6060     8.4370    -0.3240 H     1 <1>   0.1500 
 45 H        5.2930     7.0320    -0.6170 H     1 <1>   0.1500 
 46 H        2.2760     9.9250    -1.2840 H     1 <1>   0.1500 
 47 H        5.4580     4.8070    -0.8880 H     1 <1>   0.1500 
 48 H        4.6210     9.2180    -1.4230 H     1 <1>   0.1500 
 49 H        3.6590     2.4810     2.1540 H     1 <1>   0.1500 
 50 H        5.6540     2.4670     0.4420 H     1 <1>   0.1500 
@<TRIPOS>BOND
  1   1   2  2   
  2   1   3  2   
  3   1   4  am  
  4   1   5  1   
  5   4   6  1   
  6   4   7  1   
  7   5   8  1   
  8   5  26  1   
  9   5  27  1   
 10   6  28  1   
 11   6  29  1   
 12   6  30  1   
 13   7  31  1   
 14   7  32  1   
 15   7  33  1   
 16   8   9  1   
 17   8  10  1   
 18   8  34  1   
 19   9  11  1   
 20   9  12  1   
 21   9  35  1   
 22  10  13  1   
 23  10  36  1   
 24  10  37  1   
 25  11  38  1   
 26  12  13  1   
 27  12  39  1   
 28  12  40  1   
 29  13  14  1   
 30  13  41  1   
 31  14  15  1   
 32  14  42  1   
 33  14  43  1   
 34  15  16  ar  
 35  15  17  ar  
 36  16  18  1   
 37  16  19  ar  
 38  17  20  ar  
 39  17  44  1   
 40  18  21  1   
 41  18  22  1   
 42  19  23  ar  
 43  19  45  1   
 44  20  23  ar  
 45  20  46  1   
 46  21  24  2   
 47  22  25  2   
 48  22  47  1   
 49  23  48  1   
 50  24  25  1   
 51  24  49  1   
 52  25  50  1   
@<TRIPOS>SUBSTRUCTURE
  1 ****  10 GROUP 4 **** **** 0

# MOE 2024.06 (io_trps.svl 2023.06)
