@<TRIPOS>MOLECULE
NONAME
42 44 1 0 0 
SMALL
USER_CHARGES


@<TRIPOS>ATOM
  1 F        0.5830     0.7600    -0.6350 F     1 <1>  -0.1900 
  2 C        0.4080     2.0240    -0.3570 C.ar  1 <1>   0.1900 
  3 C        0.6060     2.4550     0.9400 C.ar  1 <1>  -0.1500 
  4 C        0.0320     2.8840    -1.3690 C.ar  1 <1>  -0.1500 
  5 C        0.4230     3.7970     1.2300 C.ar  1 <1>  -0.1500 
  6 C       -0.1480     4.2240    -1.0680 C.ar  1 <1>  -0.1500 
  7 C        0.0500     4.6890     0.2290 C.ar  1 <1>  -0.1430 
  8 C       -0.1250     6.1650     0.5660 C.3   1 <1>   0.3440 
  9 O       -1.2100     6.6840    -0.1550 O.3   1 <1>  -0.5600 
 10 C        1.1610     6.9450     0.2050 C.3   1 <1>   0.3430 
 11 C       -1.4670     8.0440     0.0430 C.3   1 <1>   0.1200 
 12 N        1.0070     8.4460     0.3290 N.4   1 <1>  -0.9590 
 13 C       -0.2470     8.8890    -0.3780 C.3   1 <1>   0.3430 
 14 C        2.2330     9.1190    -0.2100 C.3   1 <1>   0.3430 
 15 C        2.3010    10.6160     0.1210 C.3   1 <1>   0.0200 
 16 C        3.5950    11.1830    -0.4320 C.2   1 <1>   0.0060 
 17 N        4.4210    10.4720    -1.1280 N.2   1 <1>  -0.5650 
 18 N        3.9970    12.4670    -0.2520 N.pl3 1 <1>   0.0480 
 19 C        5.4180    11.3270    -1.4210 C.2   1 <1>   0.0770 
 20 C        5.1750    12.5460    -0.8950 C.2   1 <1>  -0.3020 
 21 C        3.3360    13.5680     0.4730 C.3   1 <1>   0.0160 
 22 H        0.8940     1.7500     1.7000 H     1 <1>   0.1500 
 23 H       -0.1190     2.5080    -2.3660 H     1 <1>   0.1500 
 24 H        0.5730     4.1310     2.2420 H     1 <1>   0.1500 
 25 H       -0.4520     4.8980    -1.8520 H     1 <1>   0.1500 
 26 H       -0.3440     6.2690     1.6140 H     1 <1>   0.0800 
 27 H        1.4200     6.6930    -0.8110 H     1 <1>   0.0800 
 28 H        1.9650     6.6030     0.8350 H     1 <1>   0.0800 
 29 H       -1.7180     8.2050     1.0770 H     1 <1>   0.0800 
 30 H       -2.3200     8.3040    -0.5590 H     1 <1>   0.0800 
 31 H        0.9220     8.6700     1.3290 H     1 <1>   0.4500 
 32 H       -0.4460     9.9270    -0.1660 H     1 <1>   0.0800 
 33 H       -0.1190     8.7890    -1.4430 H     1 <1>   0.0800 
 34 H        2.2800     8.9980    -1.2810 H     1 <1>   0.0800 
 35 H        3.1140     8.6510     0.2000 H     1 <1>   0.0800 
 36 H        2.2870    10.7570     1.1860 H     1 <1>   0.0800 
 37 H        1.4790    11.1400    -0.3290 H     1 <1>   0.0800 
 38 H        6.2710    11.0200    -2.0040 H     1 <1>   0.1500 
 39 H        5.7680    13.4410    -0.9470 H     1 <1>   0.1500 
 40 H        2.3690    13.7520     0.0430 H     1 <1>   0.0800 
 41 H        3.9330    14.4590     0.3950 H     1 <1>   0.0800 
 42 H        3.2320    13.3030     1.5090 H     1 <1>   0.0800 
@<TRIPOS>BOND
  1   1   2  1   
  2   2   3  ar  
  3   2   4  ar  
  4   3   5  ar  
  5   3  22  1   
  6   4   6  ar  
  7   4  23  1   
  8   5   7  ar  
  9   5  24  1   
 10   6   7  ar  
 11   6  25  1   
 12   7   8  1   
 13   8   9  1   
 14   8  10  1   
 15   8  26  1   
 16   9  11  1   
 17  10  12  1   
 18  10  27  1   
 19  10  28  1   
 20  11  13  1   
 21  11  29  1   
 22  11  30  1   
 23  12  13  1   
 24  12  14  1   
 25  12  31  1   
 26  13  32  1   
 27  13  33  1   
 28  14  15  1   
 29  14  34  1   
 30  14  35  1   
 31  15  16  1   
 32  15  36  1   
 33  15  37  1   
 34  16  17  2   
 35  16  18  1   
 36  17  19  1   
 37  18  20  1   
 38  18  21  1   
 39  19  20  2   
 40  19  38  1   
 41  20  39  1   
 42  21  40  1   
 43  21  41  1   
 44  21  42  1   
@<TRIPOS>SUBSTRUCTURE
  1 ****  10 GROUP 4 **** **** 0

# MOE 2024.06 (io_trps.svl 2023.06)
