@<TRIPOS>MOLECULE
NONAME
47 50 1 0 0 
SMALL
USER_CHARGES


@<TRIPOS>ATOM
  1 S       -1.1860    -0.2540     1.2450 S.3   1 <1>  -0.0800 
  2 C        0.1510    -1.1120     0.4920 C.2   1 <1>  -0.1400 
  3 C       -0.2820    -0.0640     2.7360 C.2   1 <1>  -0.1100 
  4 C        1.1840    -1.2220     1.3500 C.2   1 <1>  -0.1500 
  5 C       -0.0490    -1.5790    -0.9340 C.3   1 <1>   0.5230 
  6 C        0.9350    -0.6250     2.6270 C.2   1 <1>  -0.1500 
  7 N       -1.2540    -2.4570    -0.9690 N.4   1 <1>  -0.9590 
  8 C       -1.0610    -3.6870    -0.1160 C.3   1 <1>   0.3430 
  9 C       -1.6490    -2.7770    -2.3700 C.3   1 <1>   0.3430 
 10 C       -2.3090    -4.6110    -0.0990 C.3   1 <1>   0.2890 
 11 C       -2.9250    -3.6250    -2.3590 C.3   1 <1>  -0.1600 
 12 N       -2.0160    -5.9020     0.5830 N.pl3 1 <1>  -0.8690 
 13 C       -2.7680    -4.9140    -1.5320 C.3   1 <1>  -0.1600 
 14 C       -2.9570    -6.7700     1.0200 C.ar  1 <1>   0.7710 
 15 N       -3.7280    -6.4360     2.0990 N.ar  1 <1>  -0.1790 
 16 N       -3.0580    -7.8980     0.3840 N.ar  1 <1>  -0.5670 
 17 C       -4.6870    -7.2420     2.5780 C.ar  1 <1>   0.4610 
 18 C       -4.0220    -8.7400     0.8390 C.ar  1 <1>   0.1050 
 19 N       -5.4210    -6.8740     3.6410 N.pl3 1 <1>  -0.9000 
 20 C       -4.8460    -8.4580     1.9030 C.ar  1 <1>   0.0000 
 21 N       -4.3790    -9.9680     0.3860 N.pl3 1 <1>   0.3140 
 22 C       -5.6720    -9.5880     2.0040 C.2   1 <1>   0.1390 
 23 N       -5.4020   -10.4790     1.1140 N.2   1 <1>  -0.7070 
 24 C       -3.7980   -10.7240    -0.7340 C.3   1 <1>   0.0160 
 25 H       -0.7590     0.4600     3.5470 H     1 <1>   0.1500 
 26 H        2.1330    -1.6950     1.1550 H     1 <1>   0.1500 
 27 H        0.8220    -2.1140    -1.2740 H     1 <1>   0.0800 
 28 H       -0.1960    -0.7190    -1.5680 H     1 <1>   0.0800 
 29 H        1.6850    -0.6390     3.4010 H     1 <1>   0.1500 
 30 H       -1.9980    -1.8820    -0.5470 H     1 <1>   0.4500 
 31 H       -0.8320    -3.3940     0.8960 H     1 <1>   0.0800 
 32 H       -0.2260    -4.2490    -0.5010 H     1 <1>   0.0800 
 33 H       -0.8590    -3.3240    -2.8600 H     1 <1>   0.0800 
 34 H       -1.8260    -1.8690    -2.9250 H     1 <1>   0.0800 
 35 H       -3.1010    -4.1020     0.4250 H     1 <1>   0.0800 
 36 H       -3.1710    -3.8880    -3.3750 H     1 <1>   0.0800 
 37 H       -3.7430    -3.0360    -1.9800 H     1 <1>   0.0800 
 38 H       -1.2820    -6.4210     0.0820 H     1 <1>   0.4000 
 39 H       -3.7110    -5.4350    -1.5150 H     1 <1>   0.0800 
 40 H       -2.0460    -5.5500    -2.0190 H     1 <1>   0.0800 
 41 H       -3.5000    -5.5760     2.5740 H     1 <1>   0.4570 
 42 H       -6.1590    -7.4820     4.0240 H     1 <1>   0.4000 
 43 H       -5.3480    -6.0060     4.1840 H     1 <1>   0.4000 
 44 H       -6.4490    -9.7090     2.7420 H     1 <1>   0.1500 
 45 H       -2.9170   -10.2270    -1.0940 H     1 <1>   0.0800 
 46 H       -4.5250   -10.7940    -1.5230 H     1 <1>   0.0800 
 47 H       -3.5450   -11.7110    -0.3960 H     1 <1>   0.0800 
@<TRIPOS>BOND
  1   1   2  1   
  2   1   3  1   
  3   2   4  2   
  4   2   5  1   
  5   3   6  2   
  6   3  25  1   
  7   4   6  1   
  8   4  26  1   
  9   5   7  1   
 10   5  27  1   
 11   5  28  1   
 12   6  29  1   
 13   7   8  1   
 14   7   9  1   
 15   7  30  1   
 16   8  10  1   
 17   8  31  1   
 18   8  32  1   
 19   9  11  1   
 20   9  33  1   
 21   9  34  1   
 22  10  12  1   
 23  10  13  1   
 24  10  35  1   
 25  11  13  1   
 26  11  36  1   
 27  11  37  1   
 28  12  14  1   
 29  12  38  1   
 30  13  39  1   
 31  13  40  1   
 32  14  15  ar  
 33  14  16  ar  
 34  15  17  ar  
 35  15  41  1   
 36  16  18  ar  
 37  17  19  1   
 38  17  20  ar  
 39  18  20  ar  
 40  18  21  1   
 41  19  42  1   
 42  19  43  1   
 43  20  22  1   
 44  21  23  1   
 45  21  24  1   
 46  22  23  2   
 47  22  44  1   
 48  24  45  1   
 49  24  46  1   
 50  24  47  1   
@<TRIPOS>SUBSTRUCTURE
  1 ****  12 GROUP 4 **** **** 0

# MOE 2024.06 (io_trps.svl 2023.06)
