@<TRIPOS>MOLECULE
NONAME
45 47 1 0 0 
SMALL
USER_CHARGES


@<TRIPOS>ATOM
  1 O       -0.6030    -1.2220    -0.2350 O.2   1 <1>  -0.5700 
  2 C        0.2750    -2.0160    -0.0240 C.2   1 <1>   0.5690 
  3 N        0.0210    -3.2280     0.5110 N.am  1 <1>  -0.7300 
  4 C        1.7160    -1.6840    -0.3430 C.3   1 <1>  -0.0990 
  5 C        1.0640    -4.2310     0.7910 C.3   1 <1>   0.1400 
  6 C        2.4140    -2.8880    -1.0090 C.3   1 <1>  -0.0800 
  7 C        2.0760    -4.2620    -0.3750 C.3   1 <1>  -0.0800 
  8 C        3.9440    -2.7720    -1.0050 C.3   1 <1>  -0.1600 
  9 C        3.4230    -4.8960     0.0060 C.3   1 <1>  -0.1600 
 10 C        4.4320    -4.2120    -0.9140 C.3   1 <1>   0.4230 
 11 N        5.8630    -4.3430    -0.4960 N.4   1 <1>  -0.9590 
 12 C        6.2220    -3.8560     0.8720 C.3   1 <1>   0.4860 
 13 C        6.3410    -5.7460    -0.6980 C.3   1 <1>   0.2630 
 14 C        6.8030    -2.4630     0.7590 C.ar  1 <1>  -0.1440 
 15 C        6.1980    -1.4140     1.4330 C.ar  1 <1>   0.1600 
 16 C        7.9300    -2.2010     0.0000 C.ar  1 <1>  -0.1500 
 17 N        6.5920    -0.1590     1.3830 N.ar  1 <1>  -0.6200 
 18 C        8.3600    -0.8930    -0.0520 C.ar  1 <1>  -0.1500 
 19 C        7.6620     0.0920     0.6460 C.ar  1 <1>   0.3930 
 20 O        8.0240     1.3900     0.6260 O.3   1 <1>  -0.3620 
 21 C        9.1950     1.8560    -0.0080 C.3   1 <1>   0.0400 
 22 H       -0.9500    -3.4340     0.7620 H     1 <1>   0.3700 
 23 H        1.7490    -0.8280    -0.9920 H     1 <1>   0.0800 
 24 H        2.1950    -1.4220     0.5820 H     1 <1>   0.0800 
 25 H        1.5520    -3.9590     1.7120 H     1 <1>   0.0800 
 26 H        0.6120    -5.2010     0.9170 H     1 <1>   0.0800 
 27 H        2.0770    -2.9230    -2.0330 H     1 <1>   0.0800 
 28 H        1.6350    -4.8670    -1.1510 H     1 <1>   0.0800 
 29 H        4.2420    -2.2080    -0.1450 H     1 <1>   0.0800 
 30 H        4.2970    -2.2820    -1.8960 H     1 <1>   0.0800 
 31 H        3.4000    -5.9610    -0.1470 H     1 <1>   0.0800 
 32 H        3.6310    -4.6840     1.0380 H     1 <1>   0.0800 
 33 H        4.3180    -4.6430    -1.8970 H     1 <1>   0.0800 
 34 H        6.3920    -3.7310    -1.1330 H     1 <1>   0.4500 
 35 H        5.3620    -3.8480     1.5190 H     1 <1>   0.0800 
 36 H        6.9670    -4.5000     1.3120 H     1 <1>   0.0800 
 37 H        5.8220    -6.4200    -0.0350 H     1 <1>   0.0800 
 38 H        7.3990    -5.8160    -0.5000 H     1 <1>   0.0800 
 39 H        6.1640    -6.0600    -1.7140 H     1 <1>   0.0800 
 40 H        5.3330    -1.6030     2.0480 H     1 <1>   0.1500 
 41 H        8.4700    -2.9690    -0.5280 H     1 <1>   0.1500 
 42 H        9.2300    -0.6460    -0.6290 H     1 <1>   0.1500 
 43 H        9.2650     2.9160     0.1640 H     1 <1>   0.0800 
 44 H        9.1230     1.6640    -1.0640 H     1 <1>   0.0800 
 45 H       10.0480     1.3620     0.4210 H     1 <1>   0.0800 
@<TRIPOS>BOND
  1   1   2  2   
  2   2   3  am  
  3   2   4  1   
  4   3   5  1   
  5   3  22  1   
  6   4   6  1   
  7   4  23  1   
  8   4  24  1   
  9   5   7  1   
 10   5  25  1   
 11   5  26  1   
 12   6   7  1   
 13   6   8  1   
 14   6  27  1   
 15   7   9  1   
 16   7  28  1   
 17   8  10  1   
 18   8  29  1   
 19   8  30  1   
 20   9  10  1   
 21   9  31  1   
 22   9  32  1   
 23  10  11  1   
 24  10  33  1   
 25  11  12  1   
 26  11  13  1   
 27  11  34  1   
 28  12  14  1   
 29  12  35  1   
 30  12  36  1   
 31  13  37  1   
 32  13  38  1   
 33  13  39  1   
 34  14  15  ar  
 35  14  16  ar  
 36  15  17  ar  
 37  15  40  1   
 38  16  18  ar  
 39  16  41  1   
 40  17  19  ar  
 41  18  19  ar  
 42  18  42  1   
 43  19  20  1   
 44  20  21  1   
 45  21  43  1   
 46  21  44  1   
 47  21  45  1   
@<TRIPOS>SUBSTRUCTURE
  1 ****   8 GROUP 4 **** **** 0

# MOE 2024.06 (io_trps.svl 2023.06)
