@<TRIPOS>MOLECULE
NONAME
49 50 1 0 0 
SMALL
USER_CHARGES


@<TRIPOS>ATOM
  1 F        2.0420    -0.8670    -0.6160 F     1 <1>  -0.1900 
  2 C        2.3940     0.3860    -0.5090 C.ar  1 <1>   0.1900 
  3 C        1.9030     1.1290     0.5470 C.ar  1 <1>  -0.1500 
  4 C        3.2430     0.9230    -1.4570 C.ar  1 <1>  -0.1500 
  5 C        2.2820     2.4570     0.6560 C.ar  1 <1>  -0.1500 
  6 C        3.6140     2.2520    -1.3360 C.ar  1 <1>  -0.1500 
  7 C        3.1420     3.0220    -0.2790 C.ar  1 <1>  -0.1430 
  8 C        3.5560     4.4880    -0.1590 C.3   1 <1>  -0.0160 
  9 C        4.8700     4.7270     0.6250 C.3   1 <1>   0.3000 
 10 N        5.0950     6.1720     0.8060 N.am  1 <1>  -0.7300 
 11 C        4.7860     4.1480     2.0410 C.3   1 <1>  -0.2400 
 12 C        6.0930     4.1330    -0.0800 C.3   1 <1>  -0.2400 
 13 C        5.2270     7.1340    -0.1470 C.2   1 <1>   0.5690 
 14 O        5.1250     6.9000    -1.3270 O.2   1 <1>  -0.5700 
 15 C        5.5220     8.5610     0.3210 C.3   1 <1>  -0.0190 
 16 C        5.1050     9.6360    -0.7060 C.3   1 <1>  -0.1600 
 17 C        7.0140     8.7190     0.6980 C.3   1 <1>  -0.1600 
 18 C        5.2720    11.0690    -0.1550 C.3   1 <1>   0.2000 
 19 C        7.5020    10.1820     0.7150 C.3   1 <1>  -0.1600 
 20 O        5.6330    11.9170    -1.2180 O.3   1 <1>  -0.5600 
 21 C        6.3510    11.1610     0.9560 C.3   1 <1>   0.2000 
 22 C        4.5910    12.2790    -2.0710 C.3   1 <1>   0.0400 
 23 O        6.8720    12.4380     0.9790 O.3   1 <1>  -0.6800 
 24 H        1.2410     0.6770     1.2620 H     1 <1>   0.1500 
 25 H        3.6020     0.3160    -2.2670 H     1 <1>   0.1500 
 26 H        1.9040     3.0480     1.4710 H     1 <1>   0.1500 
 27 H        4.2720     2.6870    -2.0690 H     1 <1>   0.1500 
 28 H        2.7620     5.0320     0.3190 H     1 <1>   0.0800 
 29 H        3.6550     4.8840    -1.1530 H     1 <1>   0.0800 
 30 H        5.2420     6.4320     1.7790 H     1 <1>   0.3700 
 31 H        4.6900     3.0780     2.0000 H     1 <1>   0.0800 
 32 H        3.9310     4.5420     2.5600 H     1 <1>   0.0800 
 33 H        5.6770     4.3740     2.5980 H     1 <1>   0.0800 
 34 H        6.0240     3.0610    -0.1110 H     1 <1>   0.0800 
 35 H        6.9960     4.3960     0.4410 H     1 <1>   0.0800 
 36 H        6.1570     4.4930    -1.0910 H     1 <1>   0.0800 
 37 H        4.9320     8.7240     1.2050 H     1 <1>   0.0800 
 38 H        4.0790     9.4800    -0.9890 H     1 <1>   0.0800 
 39 H        5.7170     9.5150    -1.5840 H     1 <1>   0.0800 
 40 H        7.1740     8.2780     1.6670 H     1 <1>   0.0800 
 41 H        7.6200     8.1720    -0.0060 H     1 <1>   0.0800 
 42 H        4.3420    11.4160     0.2620 H     1 <1>   0.0800 
 43 H        7.9450    10.4100    -0.2400 H     1 <1>   0.0800 
 44 H        8.2550    10.3050     1.4740 H     1 <1>   0.0800 
 45 H        5.9130    10.9680     1.9200 H     1 <1>   0.0800 
 46 H        4.9870    12.9450    -2.8170 H     1 <1>   0.0800 
 47 H        3.8260    12.7820    -1.5060 H     1 <1>   0.0800 
 48 H        4.1950    11.4000    -2.5500 H     1 <1>   0.0800 
 49 H        6.8250    12.7600     0.0490 H     1 <1>   0.4000 
@<TRIPOS>BOND
  1   1   2  1   
  2   2   3  ar  
  3   2   4  ar  
  4   3   5  ar  
  5   3  24  1   
  6   4   6  ar  
  7   4  25  1   
  8   5   7  ar  
  9   5  26  1   
 10   6   7  ar  
 11   6  27  1   
 12   7   8  1   
 13   8   9  1   
 14   8  28  1   
 15   8  29  1   
 16   9  10  1   
 17   9  11  1   
 18   9  12  1   
 19  10  13  am  
 20  10  30  1   
 21  11  31  1   
 22  11  32  1   
 23  11  33  1   
 24  12  34  1   
 25  12  35  1   
 26  12  36  1   
 27  13  14  2   
 28  13  15  1   
 29  15  16  1   
 30  15  17  1   
 31  15  37  1   
 32  16  18  1   
 33  16  38  1   
 34  16  39  1   
 35  17  19  1   
 36  17  40  1   
 37  17  41  1   
 38  18  20  1   
 39  18  21  1   
 40  18  42  1   
 41  19  21  1   
 42  19  43  1   
 43  19  44  1   
 44  20  22  1   
 45  21  23  1   
 46  21  45  1   
 47  22  46  1   
 48  22  47  1   
 49  22  48  1   
 50  23  49  1   
@<TRIPOS>SUBSTRUCTURE
  1 ****  10 GROUP 4 **** **** 0

# MOE 2024.06 (io_trps.svl 2023.06)
