@<TRIPOS>MOLECULE
NONAME
51 54 1 0 0 
SMALL
USER_CHARGES


@<TRIPOS>ATOM
  1 F        5.2070     1.5850    -0.0780 F     1 <1>  -0.3400 
  2 C        4.5950     2.2540    -1.0480 C.3   1 <1>   1.1640 
  3 F        3.5520     1.5180    -1.4080 F     1 <1>  -0.3400 
  4 F        5.4310     2.2540    -2.0800 F     1 <1>  -0.3400 
  5 C        4.1810     3.6660    -0.6050 C.ar  1 <1>  -0.1440 
  6 C        4.4540     4.7800    -1.3810 C.ar  1 <1>  -0.1500 
  7 C        3.5030     3.8370     0.6170 C.ar  1 <1>  -0.1500 
  8 C        4.0650     6.0430    -0.9430 C.ar  1 <1>   0.2270 
  9 C        3.1110     5.0820     1.0540 C.ar  1 <1>  -0.1500 
 10 N        4.2560     7.2510    -1.5360 N.2   1 <1>  -0.5650 
 11 C        3.3980     6.1920     0.2570 C.ar  1 <1>  -0.1520 
 12 C        3.7190     8.0960    -0.7240 C.2   1 <1>   0.0060 
 13 N        3.1660     7.5250     0.3860 N.pl3 1 <1>   0.0480 
 14 C        3.7000     9.5920    -0.9900 C.3   1 <1>   0.3200 
 15 C        2.5170     8.1790     1.5410 C.3   1 <1>   0.0160 
 16 N        4.4540    10.3700     0.0310 N.am  1 <1>  -0.7300 
 17 C        5.7020    10.2920     0.5590 C.2   1 <1>   0.5690 
 18 O        5.9470    11.0470     1.4660 O.2   1 <1>  -0.5700 
 19 C        6.8390     9.3390     0.1250 C.3   1 <1>   0.0610 
 20 C        8.2090    10.0340     0.3340 C.3   1 <1>   0.4230 
 21 C        6.9450     9.0070    -1.3900 C.3   1 <1>  -0.1600 
 22 C        6.7870     8.0160     0.9510 C.3   1 <1>  -0.1600 
 23 N        9.0840     9.2050    -0.5070 N.4   1 <1>  -0.9060 
 24 C        8.3400    11.3730    -0.4170 C.3   1 <1>  -0.1600 
 25 C        8.3740     9.4100    -1.7670 C.3   1 <1>   0.4230 
 26 C        6.9450     8.1830     2.4710 C.3   1 <1>  -0.2400 
 27 C        8.4470    10.9320    -1.8840 C.3   1 <1>  -0.1600 
 28 H        4.9610     4.7140    -2.3260 H     1 <1>   0.1500 
 29 H        3.2850     2.9730     1.2250 H     1 <1>   0.1500 
 30 H        2.5930     5.2020     1.9900 H     1 <1>   0.1500 
 31 H        2.6760     9.9230    -0.9930 H     1 <1>   0.0800 
 32 H        4.0970     9.7920    -1.9690 H     1 <1>   0.0800 
 33 H        1.8180     7.5000     1.9930 H     1 <1>   0.0800 
 34 H        1.9910     9.0570     1.2160 H     1 <1>   0.0800 
 35 H        3.2670     8.4530     2.2600 H     1 <1>   0.0800 
 36 H        3.8950    11.1160     0.4550 H     1 <1>   0.3700 
 37 H        8.5080    10.0940     1.3680 H     1 <1>   0.0800 
 38 H        6.2440     9.5500    -1.9920 H     1 <1>   0.0800 
 39 H        6.8040     7.9580    -1.5830 H     1 <1>   0.0800 
 40 H        5.8450     7.5350     0.7800 H     1 <1>   0.0800 
 41 H        7.5360     7.3210     0.6140 H     1 <1>   0.0800 
 42 H       10.0390     9.5740    -0.5390 H     1 <1>   0.4500 
 43 H        9.0710     8.2240    -0.2120 H     1 <1>   0.4500 
 44 H        7.5100    12.0380    -0.2550 H     1 <1>   0.0800 
 45 H        9.2350    11.8830    -0.1040 H     1 <1>   0.0800 
 46 H        8.7840     8.8770    -2.6120 H     1 <1>   0.0800 
 47 H        6.1710     8.8110     2.8760 H     1 <1>   0.0800 
 48 H        7.9010     8.6000     2.7330 H     1 <1>   0.0800 
 49 H        6.8640     7.2210     2.9480 H     1 <1>   0.0800 
 50 H        9.3870    11.2340    -2.3130 H     1 <1>   0.0800 
 51 H        7.6490    11.3270    -2.4890 H     1 <1>   0.0800 
@<TRIPOS>BOND
  1   1   2  1   
  2   2   3  1   
  3   2   4  1   
  4   2   5  1   
  5   5   6  ar  
  6   5   7  ar  
  7   6   8  ar  
  8   6  28  1   
  9   7   9  ar  
 10   7  29  1   
 11   8  10  1   
 12   8  11  ar  
 13   9  11  ar  
 14   9  30  1   
 15  10  12  2   
 16  11  13  1   
 17  12  13  1   
 18  12  14  1   
 19  13  15  1   
 20  14  16  1   
 21  14  31  1   
 22  14  32  1   
 23  15  33  1   
 24  15  34  1   
 25  15  35  1   
 26  16  17  am  
 27  16  36  1   
 28  17  18  2   
 29  17  19  1   
 30  19  20  1   
 31  19  21  1   
 32  19  22  1   
 33  20  23  1   
 34  20  24  1   
 35  20  37  1   
 36  21  25  1   
 37  21  38  1   
 38  21  39  1   
 39  22  26  1   
 40  22  40  1   
 41  22  41  1   
 42  23  25  1   
 43  23  42  1   
 44  23  43  1   
 45  24  27  1   
 46  24  44  1   
 47  24  45  1   
 48  25  27  1   
 49  25  46  1   
 50  26  47  1   
 51  26  48  1   
 52  26  49  1   
 53  27  50  1   
 54  27  51  1   
@<TRIPOS>SUBSTRUCTURE
  1 ****  10 GROUP 4 **** **** 0

# MOE 2024.06 (io_trps.svl 2023.06)
