@<TRIPOS>MOLECULE
NONAME
56 58 1 0 0 
SMALL
USER_CHARGES


@<TRIPOS>ATOM
  1 O        0.1000     1.1010     1.0140 O.2   1 <1>  -0.5700 
  2 C        0.0410     2.3050     0.9280 C.2   1 <1>   0.5690 
  3 N       -1.1530     2.9750     1.0310 N.am  1 <1>  -0.6600 
  4 C        1.3610     3.0410     0.6610 C.3   1 <1>  -0.0190 
  5 C       -2.4170     2.2320     1.3310 C.3   1 <1>   0.1400 
  6 C       -1.4050     4.4180     0.7540 C.3   1 <1>   0.1400 
  7 C        1.6040     3.1560    -0.8550 C.3   1 <1>  -0.1600 
  8 C        2.5630     2.3420     1.3330 C.3   1 <1>  -0.1600 
  9 C       -3.3640     2.2660     0.1170 C.3   1 <1>   0.0000 
 10 C       -2.3320     4.5540    -0.4590 C.3   1 <1>  -0.1600 
 11 C        2.9620     3.7770    -1.1790 C.3   1 <1>   0.3430 
 12 C        3.8900     2.9980     0.9650 C.3   1 <1>   0.3430 
 13 C       -4.6570     1.4890     0.4270 C.3   1 <1>   0.2000 
 14 C       -3.6300     3.7440    -0.2840 C.3   1 <1>  -0.1600 
 15 C       -2.8120     1.4640    -1.0750 C.3   1 <1>  -0.1600 
 16 N        4.0450     2.9940    -0.5200 N.4   1 <1>  -0.9590 
 17 O       -5.5580     2.2540     1.1710 O.3   1 <1>  -0.5600 
 18 C       -5.2350     1.0980    -0.9350 C.3   1 <1>  -0.1600 
 19 C       -4.0370     1.0350    -1.8930 C.3   1 <1>  -0.1600 
 20 C        5.3860     3.5070    -0.9520 C.3   1 <1>   0.3430 
 21 C       -6.6110     1.5390     1.7350 C.3   1 <1>   0.0400 
 22 C        6.5420     2.5720    -0.5640 C.3   1 <1>   0.1200 
 23 O        7.7110     3.1320    -1.0450 O.3   1 <1>  -0.6800 
 24 H        1.3000     4.0240     1.0870 H     1 <1>   0.0800 
 25 H       -2.2060     1.2120     1.6020 H     1 <1>   0.0800 
 26 H       -2.9040     2.6940     2.1730 H     1 <1>   0.0800 
 27 H       -1.8770     4.8590     1.6160 H     1 <1>   0.0800 
 28 H       -0.4970     4.9550     0.5630 H     1 <1>   0.0800 
 29 H        0.8290     3.7570    -1.2970 H     1 <1>   0.0800 
 30 H        1.5420     2.1800    -1.3060 H     1 <1>   0.0800 
 31 H        2.6020     1.3040     1.0500 H     1 <1>   0.0800 
 32 H        2.4360     2.3720     2.4020 H     1 <1>   0.0800 
 33 H       -2.5830     5.5910    -0.5960 H     1 <1>   0.0800 
 34 H       -1.8120     4.2330    -1.3420 H     1 <1>   0.0800 
 35 H        2.9850     4.7980    -0.8310 H     1 <1>   0.0800 
 36 H        3.1060     3.7800    -2.2480 H     1 <1>   0.0800 
 37 H        4.6950     2.4500     1.4280 H     1 <1>   0.0800 
 38 H        3.9110     4.0110     1.3350 H     1 <1>   0.0800 
 39 H       -4.4090     0.6000     0.9840 H     1 <1>   0.0800 
 40 H       -4.2130     3.7930    -1.1860 H     1 <1>   0.0800 
 41 H       -4.2070     4.2190     0.4910 H     1 <1>   0.0800 
 42 H       -2.1070     2.0140    -1.6700 H     1 <1>   0.0800 
 43 H       -2.3170     0.5800    -0.7080 H     1 <1>   0.0800 
 44 H        3.9470     2.0200    -0.8400 H     1 <1>   0.4500 
 45 H       -5.7350     0.1480    -0.8800 H     1 <1>   0.0800 
 46 H       -5.9240     1.8530    -1.2710 H     1 <1>   0.0800 
 47 H       -3.9010     0.0430    -2.2890 H     1 <1>   0.0800 
 48 H       -4.1910     1.7170    -2.7110 H     1 <1>   0.0800 
 49 H        5.3970     3.6140    -2.0250 H     1 <1>   0.0800 
 50 H        5.5620     4.4760    -0.5160 H     1 <1>   0.0800 
 51 H       -7.2150     2.2270     2.3000 H     1 <1>   0.0800 
 52 H       -6.2180     0.7810     2.3890 H     1 <1>   0.0800 
 53 H       -7.2050     1.0970     0.9540 H     1 <1>   0.0800 
 54 H        6.4260     1.6030    -1.0190 H     1 <1>   0.0800 
 55 H        6.6360     2.4800     0.5040 H     1 <1>   0.0800 
 56 H        8.4940     2.5730    -0.8490 H     1 <1>   0.4000 
@<TRIPOS>BOND
  1   1   2  2   
  2   2   3  am  
  3   2   4  1   
  4   3   5  1   
  5   3   6  1   
  6   4   7  1   
  7   4   8  1   
  8   4  24  1   
  9   5   9  1   
 10   5  25  1   
 11   5  26  1   
 12   6  10  1   
 13   6  27  1   
 14   6  28  1   
 15   7  11  1   
 16   7  29  1   
 17   7  30  1   
 18   8  12  1   
 19   8  31  1   
 20   8  32  1   
 21   9  13  1   
 22   9  14  1   
 23   9  15  1   
 24  10  14  1   
 25  10  33  1   
 26  10  34  1   
 27  11  16  1   
 28  11  35  1   
 29  11  36  1   
 30  12  16  1   
 31  12  37  1   
 32  12  38  1   
 33  13  17  1   
 34  13  18  1   
 35  13  39  1   
 36  14  40  1   
 37  14  41  1   
 38  15  19  1   
 39  15  42  1   
 40  15  43  1   
 41  16  20  1   
 42  16  44  1   
 43  17  21  1   
 44  18  19  1   
 45  18  45  1   
 46  18  46  1   
 47  19  47  1   
 48  19  48  1   
 49  20  22  1   
 50  20  49  1   
 51  20  50  1   
 52  21  51  1   
 53  21  52  1   
 54  21  53  1   
 55  22  23  1   
 56  22  54  1   
 57  22  55  1   
 58  23  56  1   
@<TRIPOS>SUBSTRUCTURE
  1 ****   2 GROUP 4 **** **** 0

# MOE 2024.06 (io_trps.svl 2023.06)
