@<TRIPOS>MOLECULE
NONAME
48 50 1 0 0 
SMALL
USER_CHARGES


@<TRIPOS>ATOM
  1 O       -0.4410     0.4390     0.6650 O.2   1 <1>  -0.5700 
  2 C       -1.5010     1.0320     0.5990 C.2   1 <1>   0.5440 
  3 N       -2.6480     0.3040     0.3730 N.am  1 <1>  -0.6600 
  4 C       -1.5250     2.4770     0.7340 C.ar  1 <1>   0.0860 
  5 C       -3.8900     0.8500    -0.2320 C.3   1 <1>   0.1400 
  6 C       -2.6300    -1.1780     0.2700 C.3   1 <1>   0.1400 
  7 C       -0.5820     3.2660     0.0790 C.ar  1 <1>  -0.1500 
  8 C       -2.4720     3.1280     1.5200 C.ar  1 <1>  -0.1500 
  9 C       -4.5180    -0.3330    -0.9660 C.3   1 <1>   0.2000 
 10 C       -4.0250    -1.5700    -0.2210 C.3   1 <1>  -0.0800 
 11 C       -0.5750     4.6540     0.1740 C.ar  1 <1>   0.0830 
 12 C       -2.4900     4.5050     1.6220 C.ar  1 <1>  -0.1500 
 13 O       -5.9020    -0.2760    -0.9410 O.3   1 <1>  -0.6800 
 14 C       -4.0390    -2.8420    -1.0800 C.3   1 <1>   0.0210 
 15 O        0.3710     5.3910    -0.4790 O.3   1 <1>  -0.3630 
 16 C       -1.5600     5.2870     0.9570 C.ar  1 <1>   0.0830 
 17 C       -3.4560    -4.0160    -0.3180 C.2   1 <1>   0.1080 
 18 C        1.5250     4.8030    -1.0410 C.3   1 <1>   0.0400 
 19 O       -1.7190     6.6250     1.1550 O.3   1 <1>  -0.3630 
 20 N       -3.9990    -4.4930     0.7590 N.2   1 <1>  -0.7070 
 21 C       -2.2930    -4.6940    -0.6660 C.2   1 <1>  -0.1500 
 22 C       -0.9060     7.6140     0.5650 C.3   1 <1>   0.0400 
 23 N       -3.1890    -5.5020     1.1300 N.pl3 1 <1>   0.3000 
 24 C       -2.1470    -5.6420     0.2830 C.2   1 <1>  -0.3320 
 25 C       -1.0590    -6.6890     0.4360 C.3   1 <1>  -0.0600 
 26 H       -4.5410     1.1960     0.5520 H     1 <1>   0.0800 
 27 H       -3.6660     1.6510    -0.9150 H     1 <1>   0.0800 
 28 H       -1.8740    -1.4730    -0.4380 H     1 <1>   0.0800 
 29 H       -2.4110    -1.6240     1.2260 H     1 <1>   0.0800 
 30 H        0.1480     2.7450    -0.5110 H     1 <1>   0.1500 
 31 H       -3.1980     2.5460     2.0600 H     1 <1>   0.1500 
 32 H       -4.1950    -0.3340    -1.9930 H     1 <1>   0.0800 
 33 H       -4.6310    -1.7310     0.6530 H     1 <1>   0.0800 
 34 H       -3.2320     4.9920     2.2290 H     1 <1>   0.1500 
 35 H       -6.2310    -0.4510    -0.0380 H     1 <1>   0.4000 
 36 H       -3.4750    -2.6880    -1.9830 H     1 <1>   0.0800 
 37 H       -5.0510    -3.0790    -1.3550 H     1 <1>   0.0800 
 38 H        2.1700     5.5920    -1.3810 H     1 <1>   0.0800 
 39 H        1.2350     4.1870    -1.8730 H     1 <1>   0.0800 
 40 H        2.0260     4.2220    -0.2860 H     1 <1>   0.0800 
 41 H       -1.6640    -4.4860    -1.5130 H     1 <1>   0.1500 
 42 H       -1.2680     8.5760     0.8780 H     1 <1>   0.0800 
 43 H       -0.9730     7.5270    -0.5050 H     1 <1>   0.0800 
 44 H        0.1070     7.4770     0.9000 H     1 <1>   0.0800 
 45 H       -3.3730    -6.0730     1.9630 H     1 <1>   0.2700 
 46 H       -0.3430    -6.5970    -0.3620 H     1 <1>   0.0800 
 47 H       -1.4840    -7.6760     0.4030 H     1 <1>   0.0800 
 48 H       -0.5450    -6.5580     1.3720 H     1 <1>   0.0800 
@<TRIPOS>BOND
  1   1   2  2   
  2   2   3  am  
  3   2   4  1   
  4   3   5  1   
  5   3   6  1   
  6   4   7  ar  
  7   4   8  ar  
  8   5   9  1   
  9   5  26  1   
 10   5  27  1   
 11   6  10  1   
 12   6  28  1   
 13   6  29  1   
 14   7  11  ar  
 15   7  30  1   
 16   8  12  ar  
 17   8  31  1   
 18   9  10  1   
 19   9  13  1   
 20   9  32  1   
 21  10  14  1   
 22  10  33  1   
 23  11  15  1   
 24  11  16  ar  
 25  12  16  ar  
 26  12  34  1   
 27  13  35  1   
 28  14  17  1   
 29  14  36  1   
 30  14  37  1   
 31  15  18  1   
 32  16  19  1   
 33  17  20  2   
 34  17  21  1   
 35  18  38  1   
 36  18  39  1   
 37  18  40  1   
 38  19  22  1   
 39  20  23  1   
 40  21  24  2   
 41  21  41  1   
 42  22  42  1   
 43  22  43  1   
 44  22  44  1   
 45  23  24  1   
 46  23  45  1   
 47  24  25  1   
 48  25  46  1   
 49  25  47  1   
 50  25  48  1   
@<TRIPOS>SUBSTRUCTURE
  1 ****   3 GROUP 4 **** **** 0

# MOE 2024.06 (io_trps.svl 2023.06)
