@<TRIPOS>MOLECULE
NONAME
39 41 1 0 0 
SMALL
USER_CHARGES


@<TRIPOS>ATOM
  1 F       -1.4390     0.2980     1.5400 F     1 <1>  -0.3400 
  2 C       -1.7020     0.0130     0.2660 C.3   1 <1>   0.2600 
  3 C       -2.3860     1.2360    -0.3410 C.3   1 <1>   0.2000 
  4 C       -2.7770    -1.0800     0.2410 C.3   1 <1>   0.2090 
  5 O       -2.3770     1.1240    -1.7320 O.3   1 <1>  -0.6800 
  6 C       -3.8340     1.1050     0.1420 C.3   1 <1>   0.2090 
  7 N       -4.0960    -0.3670     0.1670 N.pl3 1 <1>  -0.8380 
  8 C       -5.2960    -1.0000     0.1850 C.ar  1 <1>   0.4100 
  9 N       -5.2840    -2.3150     0.1000 N.ar  1 <1>  -0.6200 
 10 C       -6.5030    -0.2820     0.2920 C.ar  1 <1>  -0.1500 
 11 C       -6.4430    -2.9570     0.1190 C.ar  1 <1>   0.7710 
 12 C       -7.6770    -0.9570     0.3100 C.ar  1 <1>   0.2180 
 13 N       -7.6140    -2.3060     0.2210 N.ar  1 <1>  -0.1790 
 14 N       -6.4520    -4.3090     0.0340 N.pl3 1 <1>  -0.8380 
 15 C       -9.0360    -0.2880     0.4260 C.3   1 <1>  -0.0970 
 16 C       -7.6200    -5.2300    -0.0310 C.3   1 <1>   0.2090 
 17 C       -5.1860    -5.0920    -0.0370 C.3   1 <1>   0.2090 
 18 C       -7.0390    -6.5790    -0.4300 C.3   1 <1>  -0.1600 
 19 C       -5.6080    -6.5490     0.0900 C.3   1 <1>  -0.1600 
 20 H       -0.7690    -0.2550    -0.1950 H     1 <1>   0.0800 
 21 H       -1.9150     2.1650    -0.0690 H     1 <1>   0.0800 
 22 H       -2.7190    -1.7070     1.1140 H     1 <1>   0.0800 
 23 H       -2.6600    -1.6850    -0.6410 H     1 <1>   0.0800 
 24 H       -2.9750     0.3960    -1.9980 H     1 <1>   0.4000 
 25 H       -4.5100     1.6310    -0.5090 H     1 <1>   0.0800 
 26 H       -3.9150     1.4930     1.1430 H     1 <1>   0.0800 
 27 H       -6.4700     0.7870     0.3640 H     1 <1>   0.1500 
 28 H       -8.4370    -2.8940     0.2370 H     1 <1>   0.4570 
 29 H       -8.9240     0.7810     0.4890 H     1 <1>   0.0800 
 30 H       -9.5460    -0.6230     1.3110 H     1 <1>   0.0800 
 31 H       -9.6400    -0.5110    -0.4360 H     1 <1>   0.0800 
 32 H       -8.0710    -5.3080     0.9460 H     1 <1>   0.0800 
 33 H       -8.3490    -4.9050    -0.7550 H     1 <1>   0.0800 
 34 H       -4.7140    -4.9220    -0.9910 H     1 <1>   0.0800 
 35 H       -4.5070    -4.8130     0.7530 H     1 <1>   0.0800 
 36 H       -7.6050    -7.3980    -0.0230 H     1 <1>   0.0800 
 37 H       -7.0350    -6.6580    -1.5040 H     1 <1>   0.0800 
 38 H       -4.9560    -7.2030    -0.4620 H     1 <1>   0.0800 
 39 H       -5.5870    -6.8320     1.1290 H     1 <1>   0.0800 
@<TRIPOS>BOND
  1   1   2  1   
  2   2   3  1   
  3   2   4  1   
  4   2  20  1   
  5   3   5  1   
  6   3   6  1   
  7   3  21  1   
  8   4   7  1   
  9   4  22  1   
 10   4  23  1   
 11   5  24  1   
 12   6   7  1   
 13   6  25  1   
 14   6  26  1   
 15   7   8  1   
 16   8   9  ar  
 17   8  10  ar  
 18   9  11  ar  
 19  10  12  ar  
 20  10  27  1   
 21  11  13  ar  
 22  11  14  1   
 23  12  13  ar  
 24  12  15  1   
 25  13  28  1   
 26  14  16  1   
 27  14  17  1   
 28  15  29  1   
 29  15  30  1   
 30  15  31  1   
 31  16  18  1   
 32  16  32  1   
 33  16  33  1   
 34  17  19  1   
 35  17  34  1   
 36  17  35  1   
 37  18  19  1   
 38  18  36  1   
 39  18  37  1   
 40  19  38  1   
 41  19  39  1   
@<TRIPOS>SUBSTRUCTURE
  1 ****   9 GROUP 4 **** **** 0

# MOE 2024.06 (io_trps.svl 2023.06)
