@<TRIPOS>MOLECULE
NONAME
54 56 1 0 0 
SMALL
USER_CHARGES


@<TRIPOS>ATOM
  1 O        1.4550    -0.1330    -0.7900 O.2   1 <1>  -0.5700 
  2 C        2.3100    -0.9220    -0.4280 C.2   1 <1>   0.7160 
  3 N        3.4810    -0.4250     0.1130 N.am  1 <1>  -0.6600 
  4 C        2.0830    -2.3430    -0.5710 C.2   1 <1>  -0.0860 
  5 C        4.7630    -1.2000     0.1110 C.3   1 <1>   0.1400 
  6 C        3.5380     0.9650     0.6480 C.3   1 <1>   0.1400 
  7 C        1.4510    -2.9930    -1.6380 C.2   1 <1>   0.1080 
  8 C        2.4030    -3.3730     0.2640 C.2   1 <1>  -0.3020 
  9 C        5.8830    -0.4880    -0.6590 C.3   1 <1>   0.1400 
 10 C        4.1870     1.9050    -0.3740 C.3   1 <1>  -0.1600 
 11 N        1.4010    -4.2770    -1.4880 N.2   1 <1>  -0.7070 
 12 C        0.8740    -2.3110    -2.8600 C.3   1 <1>  -0.0590 
 13 N        1.9860    -4.5130    -0.3040 N.pl3 1 <1>   0.3140 
 14 N        6.3700     0.7090     0.0880 N.am  1 <1>  -0.6600 
 15 C        5.7140     2.0080    -0.2520 C.3   1 <1>   0.1400 
 16 C        2.1110    -5.8760     0.2460 C.3   1 <1>   0.0960 
 17 C        7.3920     0.5720     0.9980 C.2   1 <1>   0.5690 
 18 C        0.9680    -6.1780     1.2250 C.3   1 <1>  -0.1600 
 19 O        7.8380    -0.5190     1.2750 O.2   1 <1>  -0.5700 
 20 C        8.0150     1.7630     1.7030 C.3   1 <1>   0.0440 
 21 C        1.0920    -7.5890     1.8100 C.3   1 <1>  -0.2400 
 22 C        8.7420     2.6640     0.7230 C.ar  1 <1>   0.1670 
 23 N        8.3250     3.9200     0.6480 N.ar  1 <1>  -0.6200 
 24 C        9.7860     2.1480    -0.0310 C.ar  1 <1>  -0.1500 
 25 C        8.9760     4.6900    -0.2100 C.ar  1 <1>   0.1600 
 26 C       10.4520     2.9610    -0.9230 C.ar  1 <1>  -0.1500 
 27 C       10.0270     4.2680    -1.0060 C.ar  1 <1>  -0.1500 
 28 H        4.6150    -2.1550    -0.3570 H     1 <1>   0.0800 
 29 H        5.0810    -1.3770     1.1240 H     1 <1>   0.0800 
 30 H        4.0790     0.9780     1.5780 H     1 <1>   0.0800 
 31 H        2.5360     1.3070     0.8520 H     1 <1>   0.0800 
 32 H        2.8920    -3.3350     1.2190 H     1 <1>   0.1500 
 33 H        5.5390    -0.2080    -1.6390 H     1 <1>   0.0800 
 34 H        6.7000    -1.1760    -0.7910 H     1 <1>   0.0800 
 35 H        3.7870     2.8920    -0.2280 H     1 <1>   0.0800 
 36 H        3.9090     1.6070    -1.3700 H     1 <1>   0.0800 
 37 H        1.5960    -1.6370    -3.2820 H     1 <1>   0.0800 
 38 H       -0.0030    -1.7570    -2.5810 H     1 <1>   0.0800 
 39 H        0.6050    -3.0440    -3.5980 H     1 <1>   0.0800 
 40 H        5.9280     2.7340     0.5100 H     1 <1>   0.0800 
 41 H        6.1270     2.3810    -1.1750 H     1 <1>   0.0800 
 42 H        3.0610    -5.9580     0.7410 H     1 <1>   0.0800 
 43 H        2.0880    -6.5700    -0.5750 H     1 <1>   0.0800 
 44 H        0.0280    -6.0910     0.7060 H     1 <1>   0.0800 
 45 H        0.9820    -5.4600     2.0270 H     1 <1>   0.0800 
 46 H        8.7210     1.4110     2.4320 H     1 <1>   0.0800 
 47 H        7.2550     2.3060     2.2310 H     1 <1>   0.0800 
 48 H        1.0580    -8.3260     1.0260 H     1 <1>   0.0800 
 49 H        0.2770    -7.7770     2.4880 H     1 <1>   0.0800 
 50 H        2.0160    -7.6970     2.3500 H     1 <1>   0.0800 
 51 H       10.0760     1.1170     0.0780 H     1 <1>   0.1500 
 52 H        8.6550     5.7150    -0.2830 H     1 <1>   0.1500 
 53 H       11.2650     2.5900    -1.5230 H     1 <1>   0.1500 
 54 H       10.5040     4.9560    -1.6800 H     1 <1>   0.1500 
@<TRIPOS>BOND
  1   1   2  2   
  2   2   3  am  
  3   2   4  1   
  4   3   5  1   
  5   3   6  1   
  6   4   7  1   
  7   4   8  2   
  8   5   9  1   
  9   5  28  1   
 10   5  29  1   
 11   6  10  1   
 12   6  30  1   
 13   6  31  1   
 14   7  11  2   
 15   7  12  1   
 16   8  13  1   
 17   8  32  1   
 18   9  14  1   
 19   9  33  1   
 20   9  34  1   
 21  10  15  1   
 22  10  35  1   
 23  10  36  1   
 24  11  13  1   
 25  12  37  1   
 26  12  38  1   
 27  12  39  1   
 28  13  16  1   
 29  14  15  1   
 30  14  17  am  
 31  15  40  1   
 32  15  41  1   
 33  16  18  1   
 34  16  42  1   
 35  16  43  1   
 36  17  19  2   
 37  17  20  1   
 38  18  21  1   
 39  18  44  1   
 40  18  45  1   
 41  20  22  1   
 42  20  46  1   
 43  20  47  1   
 44  21  48  1   
 45  21  49  1   
 46  21  50  1   
 47  22  23  ar  
 48  22  24  ar  
 49  23  25  ar  
 50  24  26  ar  
 51  24  51  1   
 52  25  27  ar  
 53  25  52  1   
 54  26  27  ar  
 55  26  53  1   
 56  27  54  1   
@<TRIPOS>SUBSTRUCTURE
  1 ****   5 GROUP 4 **** **** 0

# MOE 2024.06 (io_trps.svl 2023.06)
