@<TRIPOS>MOLECULE
NONAME
45 47 1 0 0 
SMALL
USER_CHARGES


@<TRIPOS>ATOM
  1 S        0.6230    -0.1360     0.4530 S.o2  1 <1>   1.3330 
  2 O        0.8530    -1.5450     0.2180 O.2   1 <1>  -0.6500 
  3 O        0.3720     0.3210     1.8010 O.2   1 <1>  -0.6500 
  4 N       -0.7030     0.3200    -0.5050 N.am  1 <1>  -0.8490 
  5 C        1.9790     0.8100    -0.2360 C.3   1 <1>  -0.0550 
  6 C       -0.7210    -0.3220    -1.8230 C.3   1 <1>   0.1160 
  7 C       -1.9790     0.0960     0.1780 C.3   1 <1>   0.1160 
  8 C        3.2850     0.7100     0.5690 C.3   1 <1>  -0.0800 
  9 C        4.4400     1.3960    -0.1270 C.3   1 <1>   0.2200 
 10 C        3.8290    -0.7070     0.7600 C.3   1 <1>   0.1200 
 11 N        4.4170     2.8520     0.0950 N.am  1 <1>  -0.7300 
 12 C        5.6410     0.7040     0.5010 C.3   1 <1>   0.1200 
 13 O        5.2230    -0.6140     0.7390 O.3   1 <1>  -0.5600 
 14 C        3.9780     3.7630    -0.8260 C.2   1 <1>   0.5440 
 15 O        3.2220     3.3560    -1.6930 O.2   1 <1>  -0.5700 
 16 C        4.3510     5.1720    -0.7940 C.ar  1 <1>   0.0860 
 17 C        5.5630     5.6470    -0.2570 C.ar  1 <1>   0.0410 
 18 C        3.4720     6.1160    -1.3350 C.ar  1 <1>  -0.1500 
 19 C        6.5160     4.7460     0.3200 C.2   1 <1>   0.6960 
 20 C        5.8380     7.0150    -0.2790 C.ar  1 <1>  -0.1500 
 21 C        3.7580     7.4680    -1.3500 C.ar  1 <1>  -0.1500 
 22 N        7.4240     4.1040    -0.3510 N.2   1 <1>  -0.6190 
 23 N        6.4810     4.3890     1.5740 N.2   1 <1>  -0.6190 
 24 C        4.9500     7.9220    -0.8170 C.ar  1 <1>  -0.1500 
 25 N        7.9480     3.3290     0.5250 N.2   1 <1>  -0.2500 
 26 N        7.3920     3.4880     1.6850 N.2   1 <1>  -0.2500 
 27 H        2.1610     0.4910    -1.2430 H     1 <1>   0.0800 
 28 H        1.6900     1.8420    -0.2740 H     1 <1>   0.0800 
 29 H       -1.5380     0.0630    -2.4100 H     1 <1>   0.0800 
 30 H       -0.8350    -1.3900    -1.7210 H     1 <1>   0.0800 
 31 H        0.1960    -0.1200    -2.3480 H     1 <1>   0.0800 
 32 H       -2.7970     0.4130    -0.4440 H     1 <1>   0.0800 
 33 H       -2.0120     0.6650     1.0920 H     1 <1>   0.0800 
 34 H       -2.0970    -0.9490     0.4170 H     1 <1>   0.0800 
 35 H        3.1440     1.1440     1.5450 H     1 <1>   0.0800 
 36 H        4.4370     1.1850    -1.1830 H     1 <1>   0.0800 
 37 H        3.5390    -1.3560    -0.0480 H     1 <1>   0.0800 
 38 H        3.5210    -1.1340     1.6990 H     1 <1>   0.0800 
 39 H        5.1630     3.1560     0.7530 H     1 <1>   0.3700 
 40 H        5.8950     1.1500     1.4470 H     1 <1>   0.0800 
 41 H        6.4980     0.7020    -0.1500 H     1 <1>   0.0800 
 42 H        2.5420     5.7750    -1.7550 H     1 <1>   0.1500 
 43 H        6.7710     7.3540     0.1400 H     1 <1>   0.1500 
 44 H        3.0560     8.1650    -1.7750 H     1 <1>   0.1500 
 45 H        5.1820     8.9730    -0.8240 H     1 <1>   0.1500 
@<TRIPOS>BOND
  1   1   2  2   
  2   1   3  2   
  3   1   4  am  
  4   1   5  1   
  5   4   6  1   
  6   4   7  1   
  7   5   8  1   
  8   5  27  1   
  9   5  28  1   
 10   6  29  1   
 11   6  30  1   
 12   6  31  1   
 13   7  32  1   
 14   7  33  1   
 15   7  34  1   
 16   8   9  1   
 17   8  10  1   
 18   8  35  1   
 19   9  11  1   
 20   9  12  1   
 21   9  36  1   
 22  10  13  1   
 23  10  37  1   
 24  10  38  1   
 25  11  14  am  
 26  11  39  1   
 27  12  13  1   
 28  12  40  1   
 29  12  41  1   
 30  14  15  2   
 31  14  16  1   
 32  16  17  ar  
 33  16  18  ar  
 34  17  19  1   
 35  17  20  ar  
 36  18  21  ar  
 37  18  42  1   
 38  19  22  2   
 39  19  23  1   
 40  20  24  ar  
 41  20  43  1   
 42  21  24  ar  
 43  21  44  1   
 44  22  25  1   
 45  23  26  2   
 46  24  45  1   
 47  25  26  1   
@<TRIPOS>SUBSTRUCTURE
  1 ****  11 GROUP 4 **** **** 0

# MOE 2024.06 (io_trps.svl 2023.06)
