@<TRIPOS>MOLECULE
NONAME
48 49 1 0 0 
SMALL
USER_CHARGES


@<TRIPOS>ATOM
  1 O       -0.5950     0.5610     0.7240 O.3   1 <1>  -0.3630 
  2 C       -1.5710    -0.3200     0.3920 C.ar  1 <1>   0.0830 
  3 C       -0.7240     1.9320     0.4420 C.3   1 <1>   0.1200 
  4 C       -1.3650    -1.6420     0.7530 C.ar  1 <1>  -0.1500 
  5 C       -2.7410     0.0310    -0.2770 C.ar  1 <1>  -0.1500 
  6 C        0.5380     2.6200     0.9680 C.3   1 <1>   0.3430 
  7 C       -2.3120    -2.6050     0.4550 C.ar  1 <1>  -0.1500 
  8 C       -3.6850    -0.9380    -0.5720 C.ar  1 <1>  -0.1500 
  9 N        0.5630     4.0970     0.7100 N.4   1 <1>  -0.9590 
 10 C       -3.4780    -2.2590    -0.2080 C.ar  1 <1>  -0.1430 
 11 C        1.9230     4.6720     0.9610 C.3   1 <1>   0.4860 
 12 C       -0.4950     4.8670     1.4150 C.3   1 <1>   0.3430 
 13 C       -4.5180    -3.3180    -0.5350 C.3   1 <1>  -0.0170 
 14 C        2.1250     5.8910     0.0700 C.ar  1 <1>   0.1670 
 15 C       -1.5590     5.2770     0.4060 C.3   1 <1>  -0.2400 
 16 C       -4.2480    -3.9280    -1.9120 C.3   1 <1>  -0.2400 
 17 N        1.6240     5.8170    -1.1590 N.ar  1 <1>  -0.6200 
 18 C        2.7980     7.0040     0.5640 C.ar  1 <1>   0.1600 
 19 C        1.8530     6.9250    -1.8520 C.ar  1 <1>   0.1600 
 20 N        3.0120     8.1050    -0.1280 N.ar  1 <1>  -0.6200 
 21 C        2.5260     8.0390    -1.3540 C.ar  1 <1>   0.1670 
 22 C        2.7410     9.2650    -2.2190 C.3   1 <1>  -0.0970 
 23 H       -1.6040     2.2890     0.9460 H     1 <1>   0.0800 
 24 H       -0.8110     2.0480    -0.6240 H     1 <1>   0.0800 
 25 H       -0.4620    -1.9160     1.2670 H     1 <1>   0.1500 
 26 H       -2.9410     1.0400    -0.5790 H     1 <1>   0.1500 
 27 H        1.3860     2.1610     0.4840 H     1 <1>   0.0800 
 28 H        0.6130     2.4370     2.0270 H     1 <1>   0.0800 
 29 H       -2.1370    -3.6280     0.7400 H     1 <1>   0.1500 
 30 H       -4.5870    -0.6620    -1.0910 H     1 <1>   0.1500 
 31 H        0.4430     4.2830    -0.3050 H     1 <1>   0.4500 
 32 H        2.6760     3.9460     0.7000 H     1 <1>   0.0800 
 33 H        2.0420     4.9330     1.9990 H     1 <1>   0.0800 
 34 H       -0.0780     5.7580     1.8590 H     1 <1>   0.0800 
 35 H       -0.9350     4.2730     2.2010 H     1 <1>   0.0800 
 36 H       -5.5010    -2.8790    -0.5210 H     1 <1>   0.0800 
 37 H       -4.4970    -4.0920     0.2130 H     1 <1>   0.0800 
 38 H       -1.1370     5.9130    -0.3530 H     1 <1>   0.0800 
 39 H       -2.3280     5.8350     0.9100 H     1 <1>   0.0800 
 40 H       -2.0190     4.4240    -0.0560 H     1 <1>   0.0800 
 41 H       -4.2850    -3.1660    -2.6700 H     1 <1>   0.0800 
 42 H       -4.9860    -4.6770    -2.1370 H     1 <1>   0.0800 
 43 H       -3.2740    -4.3850    -1.9300 H     1 <1>   0.0800 
 44 H        3.1810     6.9950     1.5700 H     1 <1>   0.1500 
 45 H        1.4910     6.9540    -2.8650 H     1 <1>   0.1500 
 46 H        2.3190     9.1340    -3.1980 H     1 <1>   0.0800 
 47 H        3.7950     9.4550    -2.3180 H     1 <1>   0.0800 
 48 H        2.2820    10.1190    -1.7540 H     1 <1>   0.0800 
@<TRIPOS>BOND
  1   1   2  1   
  2   1   3  1   
  3   2   4  ar  
  4   2   5  ar  
  5   3   6  1   
  6   3  23  1   
  7   3  24  1   
  8   4   7  ar  
  9   4  25  1   
 10   5   8  ar  
 11   5  26  1   
 12   6   9  1   
 13   6  27  1   
 14   6  28  1   
 15   7  10  ar  
 16   7  29  1   
 17   8  10  ar  
 18   8  30  1   
 19   9  11  1   
 20   9  12  1   
 21   9  31  1   
 22  10  13  1   
 23  11  14  1   
 24  11  32  1   
 25  11  33  1   
 26  12  15  1   
 27  12  34  1   
 28  12  35  1   
 29  13  16  1   
 30  13  36  1   
 31  13  37  1   
 32  14  17  ar  
 33  14  18  ar  
 34  15  38  1   
 35  15  39  1   
 36  15  40  1   
 37  16  41  1   
 38  16  42  1   
 39  16  43  1   
 40  17  19  ar  
 41  18  20  ar  
 42  18  44  1   
 43  19  21  ar  
 44  19  45  1   
 45  20  21  ar  
 46  21  22  1   
 47  22  46  1   
 48  22  47  1   
 49  22  48  1   
@<TRIPOS>SUBSTRUCTURE
  1 ****   3 GROUP 4 **** **** 0

# MOE 2024.06 (io_trps.svl 2023.06)
