@<TRIPOS>MOLECULE
NONAME
50 52 1 0 0 
SMALL
USER_CHARGES


@<TRIPOS>ATOM
  1 CL       0.0900     0.1250     1.9230 Cl    1 <1>  -0.1770 
  2 C       -1.2810     0.9060     1.1740 C.ar  1 <1>   0.1770 
  3 C       -2.2470     0.1270     0.5690 C.ar  1 <1>  -0.1500 
  4 C       -1.3680     2.2830     1.1920 C.ar  1 <1>  -0.1500 
  5 C       -3.3410     0.7430    -0.0280 C.ar  1 <1>   0.0830 
  6 C       -2.4520     2.9170     0.5970 C.ar  1 <1>  -0.1440 
  7 O       -4.3210     0.0350    -0.6600 O.3   1 <1>  -0.3620 
  8 C       -3.4500     2.1390     0.0120 C.ar  1 <1>   0.0830 
  9 C       -2.5250     4.4420     0.5850 C.3   1 <1>   0.2540 
 10 C       -4.2360    -1.3630    -0.8250 C.3   1 <1>   0.0400 
 11 O       -4.5300     2.7450    -0.5490 O.3   1 <1>  -0.3630 
 12 N       -1.1970     5.0420     0.3710 N.3   1 <1>  -0.8100 
 13 C       -5.5710     3.1460     0.3150 C.3   1 <1>   0.2000 
 14 C       -1.1440     6.4510     0.8230 C.3   1 <1>   0.1100 
 15 C       -0.6880     4.7690    -0.9910 C.3   1 <1>   0.1100 
 16 C       -6.5330     1.9770     0.5270 C.3   1 <1>  -0.2400 
 17 C       -6.2770     4.3290    -0.3440 C.3   1 <1>  -0.2400 
 18 C        0.2540     7.1210     0.8320 C.3   1 <1>   0.2200 
 19 C        0.7870     5.1440    -1.2370 C.3   1 <1>  -0.0190 
 20 N        0.6620     7.5040    -0.5360 N.am  1 <1>  -0.7300 
 21 C        1.3790     6.3150     1.5320 C.3   1 <1>   0.1200 
 22 C        0.9240     6.6220    -1.5120 C.2   1 <1>   0.5690 
 23 C        1.8190     4.6780    -0.1870 C.3   1 <1>   0.1200 
 24 O        1.4920     4.9730     1.1410 O.3   1 <1>  -0.5600 
 25 O        1.2680     7.0070    -2.6010 O.2   1 <1>  -0.5700 
 26 H       -2.1210    -0.9370     0.5800 H     1 <1>   0.1500 
 27 H       -0.5850     2.8590     1.6570 H     1 <1>   0.1500 
 28 H       -2.9160     4.7610     1.5350 H     1 <1>   0.0800 
 29 H       -3.1920     4.7860    -0.1870 H     1 <1>   0.0800 
 30 H       -5.0970    -1.6840    -1.3830 H     1 <1>   0.0800 
 31 H       -4.2340    -1.8300     0.1440 H     1 <1>   0.0800 
 32 H       -3.3390    -1.5960    -1.3710 H     1 <1>   0.0800 
 33 H       -5.1440     3.4510     1.2560 H     1 <1>   0.0800 
 34 H       -1.8120     7.0440     0.2230 H     1 <1>   0.0800 
 35 H       -1.5070     6.4800     1.8360 H     1 <1>   0.0800 
 36 H       -0.7770     3.7140    -1.1830 H     1 <1>   0.0800 
 37 H       -1.3080     5.2760    -1.7110 H     1 <1>   0.0800 
 38 H       -6.8840     1.6080    -0.4200 H     1 <1>   0.0800 
 39 H       -7.3780     2.2940     1.1100 H     1 <1>   0.0800 
 40 H       -6.0400     1.1830     1.0570 H     1 <1>   0.0800 
 41 H       -6.6840     4.0340    -1.2950 H     1 <1>   0.0800 
 42 H       -5.5860     5.1380    -0.4900 H     1 <1>   0.0800 
 43 H       -7.0790     4.6740     0.2820 H     1 <1>   0.0800 
 44 H        0.1510     8.0400     1.3810 H     1 <1>   0.0800 
 45 H        1.0630     4.6610    -2.1560 H     1 <1>   0.0800 
 46 H        0.7650     8.4940    -0.7600 H     1 <1>   0.3700 
 47 H        1.1770     6.2970     2.5880 H     1 <1>   0.0800 
 48 H        2.3300     6.7930     1.3820 H     1 <1>   0.0800 
 49 H        2.7850     5.1020    -0.3970 H     1 <1>   0.0800 
 50 H        1.9050     3.6070    -0.2420 H     1 <1>   0.0800 
@<TRIPOS>BOND
  1   1   2  1   
  2   2   3  ar  
  3   2   4  ar  
  4   3   5  ar  
  5   3  26  1   
  6   4   6  ar  
  7   4  27  1   
  8   5   7  1   
  9   5   8  ar  
 10   6   8  ar  
 11   6   9  1   
 12   7  10  1   
 13   8  11  1   
 14   9  12  1   
 15   9  28  1   
 16   9  29  1   
 17  10  30  1   
 18  10  31  1   
 19  10  32  1   
 20  11  13  1   
 21  12  14  1   
 22  12  15  1   
 23  13  16  1   
 24  13  17  1   
 25  13  33  1   
 26  14  18  1   
 27  14  34  1   
 28  14  35  1   
 29  15  19  1   
 30  15  36  1   
 31  15  37  1   
 32  16  38  1   
 33  16  39  1   
 34  16  40  1   
 35  17  41  1   
 36  17  42  1   
 37  17  43  1   
 38  18  20  1   
 39  18  21  1   
 40  18  44  1   
 41  19  22  1   
 42  19  23  1   
 43  19  45  1   
 44  20  22  am  
 45  20  46  1   
 46  21  24  1   
 47  21  47  1   
 48  21  48  1   
 49  22  25  2   
 50  23  24  1   
 51  23  49  1   
 52  23  50  1   
@<TRIPOS>SUBSTRUCTURE
  1 ****   6 GROUP 4 **** **** 0

# MOE 2024.06 (io_trps.svl 2023.06)
