@<TRIPOS>MOLECULE
NONAME
49 50 1 0 0 
SMALL
USER_CHARGES


@<TRIPOS>ATOM
  1 S        0.9140     1.8850    -0.6170 S.o2  1 <1>   1.3330 
  2 O        2.1470     2.4640    -0.1250 O.2   1 <1>  -0.6500 
  3 O        0.0030     2.7500    -1.3250 O.2   1 <1>  -0.6500 
  4 N        1.2550     0.5150    -1.5470 N.am  1 <1>  -0.8490 
  5 C        0.0490     1.2410     0.8220 C.3   1 <1>  -0.0550 
  6 C        0.1350     0.0870    -2.3950 C.3   1 <1>   0.1160 
  7 C        2.4600     0.6750    -2.3700 C.3   1 <1>   0.1160 
  8 C       -0.3310     2.2740     1.9190 C.3   1 <1>  -0.0800 
  9 C       -1.2130     3.4200     1.4060 C.3   1 <1>   0.2000 
 10 C        0.8760     2.9990     2.5240 C.3   1 <1>   0.3430 
 11 O       -2.0830     3.7890     2.4250 O.3   1 <1>  -0.6800 
 12 C       -0.2610     4.5890     1.1020 C.3   1 <1>   0.3430 
 13 N        1.0690     4.2160     1.6940 N.4   1 <1>  -0.9590 
 14 C        1.7930     5.3290     2.3620 C.3   1 <1>   0.4860 
 15 C        1.9710     6.4710     1.3830 C.ar  1 <1>  -0.1430 
 16 C        2.8950     6.3750     0.3530 C.ar  1 <1>   0.1600 
 17 C        1.2180     7.6250     1.5000 C.ar  1 <1>  -0.1500 
 18 N        3.1180     7.3110    -0.5510 N.ar  1 <1>  -0.6200 
 19 C        1.4420     8.6110     0.5650 C.ar  1 <1>  -0.1500 
 20 C        2.3880     8.4150    -0.4300 C.ar  1 <1>   0.3930 
 21 O        2.5600     9.4190    -1.3130 O.3   1 <1>  -0.3630 
 22 C        3.5160     9.3200    -2.3480 C.3   1 <1>   0.1200 
 23 C        3.4660    10.6070    -3.1670 C.3   1 <1>  -0.2400 
 24 H       -0.8510     0.7600     0.4900 H     1 <1>   0.0800 
 25 H        0.6590     0.4790     1.2690 H     1 <1>   0.0800 
 26 H        0.3820    -0.8320    -2.8990 H     1 <1>   0.0800 
 27 H       -0.0890     0.8400    -3.1340 H     1 <1>   0.0800 
 28 H       -0.7440    -0.0830    -1.7970 H     1 <1>   0.0800 
 29 H        2.6590    -0.2290    -2.9200 H     1 <1>   0.0800 
 30 H        3.3130     0.8790    -1.7450 H     1 <1>   0.0800 
 31 H        2.3360     1.4900    -3.0650 H     1 <1>   0.0800 
 32 H       -0.8430     1.7260     2.6930 H     1 <1>   0.0800 
 33 H       -1.8120     3.1540     0.5500 H     1 <1>   0.0800 
 34 H        1.7580     2.3770     2.5220 H     1 <1>   0.0800 
 35 H        0.6460     3.2840     3.5380 H     1 <1>   0.0800 
 36 H       -1.6370     3.9980     3.2670 H     1 <1>   0.4000 
 37 H       -0.6480     5.5000     1.5270 H     1 <1>   0.0800 
 38 H       -0.1600     4.7160     0.0350 H     1 <1>   0.0800 
 39 H        1.6670     3.9180     0.8930 H     1 <1>   0.4500 
 40 H        1.2360     5.6720     3.2190 H     1 <1>   0.0800 
 41 H        2.7600     4.9920     2.6970 H     1 <1>   0.0800 
 42 H        3.4910     5.4820     0.2570 H     1 <1>   0.1500 
 43 H        0.4880     7.7700     2.2790 H     1 <1>   0.1500 
 44 H        0.8990     9.5380     0.5880 H     1 <1>   0.1500 
 45 H        4.4870     9.1840    -1.9030 H     1 <1>   0.0800 
 46 H        3.2710     8.4660    -2.9570 H     1 <1>   0.0800 
 47 H        3.7000    11.4520    -2.5440 H     1 <1>   0.0800 
 48 H        2.4870    10.7340    -3.5950 H     1 <1>   0.0800 
 49 H        4.1850    10.5580    -3.9640 H     1 <1>   0.0800 
@<TRIPOS>BOND
  1   1   2  2   
  2   1   3  2   
  3   1   4  am  
  4   1   5  1   
  5   4   6  1   
  6   4   7  1   
  7   5   8  1   
  8   5  24  1   
  9   5  25  1   
 10   6  26  1   
 11   6  27  1   
 12   6  28  1   
 13   7  29  1   
 14   7  30  1   
 15   7  31  1   
 16   8   9  1   
 17   8  10  1   
 18   8  32  1   
 19   9  11  1   
 20   9  12  1   
 21   9  33  1   
 22  10  13  1   
 23  10  34  1   
 24  10  35  1   
 25  11  36  1   
 26  12  13  1   
 27  12  37  1   
 28  12  38  1   
 29  13  14  1   
 30  13  39  1   
 31  14  15  1   
 32  14  40  1   
 33  14  41  1   
 34  15  16  ar  
 35  15  17  ar  
 36  16  18  ar  
 37  16  42  1   
 38  17  19  ar  
 39  17  43  1   
 40  18  20  ar  
 41  19  20  ar  
 42  19  44  1   
 43  20  21  1   
 44  21  22  1   
 45  22  23  1   
 46  22  45  1   
 47  22  46  1   
 48  23  47  1   
 49  23  48  1   
 50  23  49  1   
@<TRIPOS>SUBSTRUCTURE
  1 ****  13 GROUP 4 **** **** 0

# MOE 2024.06 (io_trps.svl 2023.06)
