@<TRIPOS>MOLECULE
NONAME
49 50 1 0 0 
SMALL
USER_CHARGES


@<TRIPOS>ATOM
  1 CL      -5.3890    -1.6260     3.1480 Cl    1 <1>  -0.1770 
  2 C       -4.3380    -1.9030     1.7750 C.ar  1 <1>   0.1770 
  3 C       -3.5120    -0.8860     1.3080 C.ar  1 <1>   0.0830 
  4 C       -4.3590    -3.1490     1.1810 C.ar  1 <1>  -0.1500 
  5 O       -3.5450     0.3210     1.9430 O.3   1 <1>  -0.3630 
  6 C       -2.6930    -1.1530     0.2150 C.ar  1 <1>  -0.1500 
  7 C       -3.5450    -3.4170     0.0890 C.ar  1 <1>   0.1170 
  8 C       -2.7430     1.3970     1.5110 C.3   1 <1>   0.0400 
  9 C       -2.7130    -2.4040    -0.3800 C.ar  1 <1>  -0.1500 
 10 N       -3.5950    -4.6970    -0.4840 N.am  1 <1>  -0.5470 
 11 C       -3.1120    -5.2210    -1.6500 C.2   1 <1>   0.5690 
 12 O       -2.4880    -4.5990    -2.4750 O.2   1 <1>  -0.5700 
 13 C       -3.4090    -6.7020    -1.8960 C.3   1 <1>   0.1710 
 14 N       -4.5600    -7.2170    -1.0920 N.3   1 <1>  -0.8100 
 15 C       -4.5130    -8.6810    -0.9770 C.3   1 <1>   0.1100 
 16 C       -5.8450    -6.7650    -1.6550 C.3   1 <1>   0.1100 
 17 C       -5.6120    -9.1610    -0.0250 C.3   1 <1>  -0.1600 
 18 C       -6.9840    -7.1700    -0.7190 C.3   1 <1>  -0.1600 
 19 C       -6.9880    -8.6810    -0.4990 C.3   1 <1>   0.2000 
 20 O       -7.9420    -8.9510     0.4780 O.3   1 <1>  -0.5600 
 21 C       -8.4580   -10.2490     0.4670 C.3   1 <1>   0.1200 
 22 C       -9.4920   -10.3650     1.5810 C.3   1 <1>   0.1200 
 23 O      -10.0070   -11.6600     1.5700 O.3   1 <1>  -0.5600 
 24 C      -10.9650   -11.8890     2.5520 C.3   1 <1>   0.0400 
 25 H       -5.0110    -3.9060     1.5730 H     1 <1>   0.1500 
 26 H       -2.0340    -0.4070    -0.1880 H     1 <1>   0.1500 
 27 H       -2.9400     2.2370     2.1530 H     1 <1>   0.0800 
 28 H       -3.0030     1.6430     0.4970 H     1 <1>   0.0800 
 29 H       -1.7080     1.1150     1.5890 H     1 <1>   0.0800 
 30 H       -2.0680    -2.5870    -1.2210 H     1 <1>   0.1500 
 31 H       -4.1540    -5.4000     0.0140 H     1 <1>   0.3700 
 32 H       -2.5180    -7.2430    -1.6350 H     1 <1>   0.0800 
 33 H       -3.5920    -6.8540    -2.9460 H     1 <1>   0.0800 
 34 H       -3.5570    -8.9830    -0.5830 H     1 <1>   0.0800 
 35 H       -4.6410    -9.1320    -1.9470 H     1 <1>   0.0800 
 36 H       -5.9950    -7.2020    -2.6290 H     1 <1>   0.0800 
 37 H       -5.8470    -5.6930    -1.7630 H     1 <1>   0.0800 
 38 H       -5.4130    -8.7720     0.9580 H     1 <1>   0.0800 
 39 H       -5.5880   -10.2330     0.0180 H     1 <1>   0.0800 
 40 H       -7.9220    -6.8680    -1.1470 H     1 <1>   0.0800 
 41 H       -6.8580    -6.6660     0.2220 H     1 <1>   0.0800 
 42 H       -7.2680    -9.1740    -1.4150 H     1 <1>   0.0800 
 43 H       -7.6590   -10.9480     0.6370 H     1 <1>   0.0800 
 44 H       -8.9230   -10.4280    -0.4870 H     1 <1>   0.0800 
 45 H      -10.2960    -9.6710     1.4140 H     1 <1>   0.0800 
 46 H       -9.0280   -10.1850     2.5360 H     1 <1>   0.0800 
 47 H      -11.2990   -12.9080     2.4630 H     1 <1>   0.0800 
 48 H      -11.7950   -11.2210     2.4030 H     1 <1>   0.0800 
 49 H      -10.5230   -11.7360     3.5220 H     1 <1>   0.0800 
@<TRIPOS>BOND
  1   1   2  1   
  2   2   3  ar  
  3   2   4  ar  
  4   3   5  1   
  5   3   6  ar  
  6   4   7  ar  
  7   4  25  1   
  8   5   8  1   
  9   6   9  ar  
 10   6  26  1   
 11   7   9  ar  
 12   7  10  1   
 13   8  27  1   
 14   8  28  1   
 15   8  29  1   
 16   9  30  1   
 17  10  11  am  
 18  10  31  1   
 19  11  12  2   
 20  11  13  1   
 21  13  14  1   
 22  13  32  1   
 23  13  33  1   
 24  14  15  1   
 25  14  16  1   
 26  15  17  1   
 27  15  34  1   
 28  15  35  1   
 29  16  18  1   
 30  16  36  1   
 31  16  37  1   
 32  17  19  1   
 33  17  38  1   
 34  17  39  1   
 35  18  19  1   
 36  18  40  1   
 37  18  41  1   
 38  19  20  1   
 39  19  42  1   
 40  20  21  1   
 41  21  22  1   
 42  21  43  1   
 43  21  44  1   
 44  22  23  1   
 45  22  45  1   
 46  22  46  1   
 47  23  24  1   
 48  24  47  1   
 49  24  48  1   
 50  24  49  1   
@<TRIPOS>SUBSTRUCTURE
  1 ****  10 GROUP 4 **** **** 0

# MOE 2024.06 (io_trps.svl 2023.06)
