@<TRIPOS>MOLECULE
NONAME
49 51 1 0 0 
SMALL
USER_CHARGES


@<TRIPOS>ATOM
  1 O       -1.0440     0.4460     2.4270 O.2   1 <1>  -0.5700 
  2 C       -1.5980     1.0010     1.4960 C.2   1 <1>   0.5440 
  3 N       -2.4160     0.2560     0.6800 N.am  1 <1>  -0.6600 
  4 C       -1.4320     2.4200     1.3130 C.ar  1 <1>   0.0860 
  5 C       -3.2310     0.7710    -0.4470 C.3   1 <1>   0.1400 
  6 C       -2.7020    -1.1760     0.9070 C.3   1 <1>   0.1400 
  7 C       -0.7890     2.9610     0.1920 C.ar  1 <1>   0.3920 
  8 C       -1.9140     3.3090     2.2650 C.ar  1 <1>  -0.1500 
  9 C       -4.1660    -0.3810    -0.8390 C.3   1 <1>   0.2000 
 10 C       -3.4230    -1.6350    -0.3630 C.3   1 <1>  -0.0800 
 11 O       -0.2860     2.1020    -0.7210 O.3   1 <1>  -0.3630 
 12 N       -0.6330     4.2610    -0.0480 N.ar  1 <1>  -0.6200 
 13 C       -1.7500     4.6540     2.0360 C.ar  1 <1>  -0.1500 
 14 O       -5.3750    -0.2780    -0.1390 O.3   1 <1>  -0.5600 
 15 C       -4.3190    -2.8690    -0.1520 C.3   1 <1>   0.0200 
 16 C        0.4660     2.5450    -1.8340 C.3   1 <1>   0.0400 
 17 C       -1.1150     5.0790     0.8790 C.ar  1 <1>   0.3930 
 18 C       -6.3330     0.5480    -0.7230 C.3   1 <1>   0.0400 
 19 C       -3.5350    -4.1370     0.1410 C.2   1 <1>  -0.0400 
 20 O       -0.9900     6.4080     0.7060 O.3   1 <1>  -0.3630 
 21 O       -4.1920    -5.2360     0.3990 O.3   1 <1>  -0.0190 
 22 C       -2.2240    -4.4250     0.1970 C.2   1 <1>  -0.1500 
 23 C       -0.3390     6.9440    -0.4290 C.3   1 <1>   0.0400 
 24 N       -3.3960    -6.2410     0.6270 N.2   1 <1>  -0.4100 
 25 C       -2.2030    -5.7800     0.5140 C.2   1 <1>   0.1080 
 26 C       -0.9500    -6.6060     0.7010 C.3   1 <1>  -0.0590 
 27 H       -3.7770     1.6530    -0.1610 H     1 <1>   0.0800 
 28 H       -2.5780     0.9990    -1.2700 H     1 <1>   0.0800 
 29 H       -1.7920    -1.7230     1.0810 H     1 <1>   0.0800 
 30 H       -3.3460    -1.2670     1.7650 H     1 <1>   0.0800 
 31 H       -2.3990     2.9400     3.1530 H     1 <1>   0.1500 
 32 H       -4.3690    -0.4120    -1.8960 H     1 <1>   0.0800 
 33 H       -2.6750    -1.8690    -1.0990 H     1 <1>   0.0800 
 34 H       -2.1040     5.3860     2.7380 H     1 <1>   0.1500 
 35 H       -4.9090    -3.0330    -1.0350 H     1 <1>   0.0800 
 36 H       -4.9980    -2.6910     0.6640 H     1 <1>   0.0800 
 37 H        0.7780     1.6830    -2.3960 H     1 <1>   0.0800 
 38 H        1.3260     3.0840    -1.4790 H     1 <1>   0.0800 
 39 H       -0.1520     3.1820    -2.4420 H     1 <1>   0.0800 
 40 H       -7.2010     0.5500    -0.0880 H     1 <1>   0.0800 
 41 H       -6.5950     0.1580    -1.6910 H     1 <1>   0.0800 
 42 H       -5.9470     1.5480    -0.8070 H     1 <1>   0.0800 
 43 H       -1.3650    -3.8000     0.0430 H     1 <1>   0.1500 
 44 H       -0.3550     8.0160    -0.3530 H     1 <1>   0.0800 
 45 H       -0.8640     6.6270    -1.3130 H     1 <1>   0.0800 
 46 H        0.6760     6.5890    -0.4470 H     1 <1>   0.0800 
 47 H       -0.3620    -6.1980     1.5030 H     1 <1>   0.0800 
 48 H       -0.3700    -6.6000    -0.2030 H     1 <1>   0.0800 
 49 H       -1.2120    -7.6200     0.9420 H     1 <1>   0.0800 
@<TRIPOS>BOND
  1   1   2  2   
  2   2   3  am  
  3   2   4  1   
  4   3   5  1   
  5   3   6  1   
  6   4   7  ar  
  7   4   8  ar  
  8   5   9  1   
  9   5  27  1   
 10   5  28  1   
 11   6  10  1   
 12   6  29  1   
 13   6  30  1   
 14   7  11  1   
 15   7  12  ar  
 16   8  13  ar  
 17   8  31  1   
 18   9  10  1   
 19   9  14  1   
 20   9  32  1   
 21  10  15  1   
 22  10  33  1   
 23  11  16  1   
 24  12  17  ar  
 25  13  17  ar  
 26  13  34  1   
 27  14  18  1   
 28  15  19  1   
 29  15  35  1   
 30  15  36  1   
 31  16  37  1   
 32  16  38  1   
 33  16  39  1   
 34  17  20  1   
 35  18  40  1   
 36  18  41  1   
 37  18  42  1   
 38  19  21  1   
 39  19  22  2   
 40  20  23  1   
 41  21  24  1   
 42  22  25  1   
 43  22  43  1   
 44  23  44  1   
 45  23  45  1   
 46  23  46  1   
 47  24  25  2   
 48  25  26  1   
 49  26  47  1   
 50  26  48  1   
 51  26  49  1   
@<TRIPOS>SUBSTRUCTURE
  1 ****   3 GROUP 4 **** **** 0

# MOE 2024.06 (io_trps.svl 2023.06)
