@<TRIPOS>MOLECULE
NONAME
57 60 1 0 0 
SMALL
USER_CHARGES


@<TRIPOS>ATOM
  1 O        0.5580    -0.2810    -0.8860 O.3   1 <1>  -0.5600 
  2 C        1.4970    -0.7320     0.0580 C.3   1 <1>   0.4240 
  3 C       -0.6790    -0.9320    -0.9330 C.3   1 <1>   0.1200 
  4 C        1.4460    -2.2560     0.2660 C.ar  1 <1>  -0.1440 
  5 C        1.2310     0.0270     1.3630 C.3   1 <1>  -0.1600 
  6 C        2.8560    -0.3240    -0.5150 C.3   1 <1>  -0.1600 
  7 C       -0.4660    -2.3860    -1.3470 C.3   1 <1>  -0.0160 
  8 C        0.5210    -3.0430    -0.4030 C.ar  1 <1>  -0.1440 
  9 C        2.3310    -2.8780     1.1370 C.ar  1 <1>  -0.1500 
 10 C        1.3070     1.5350     1.1300 C.3   1 <1>   0.3430 
 11 C        2.9260     1.1870    -0.7220 C.3   1 <1>   0.3430 
 12 C        0.4960    -4.4150    -0.2110 C.ar  1 <1>  -0.1500 
 13 C        2.3200    -4.2460     1.3480 C.ar  1 <1>   0.0830 
 14 N        2.6250     1.9080     0.5490 N.4   1 <1>  -0.9590 
 15 C        1.3870    -5.0400     0.6580 C.ar  1 <1>   0.0830 
 16 O        3.2640    -4.6650     2.2420 O.3   1 <1>  -0.3630 
 17 C        3.7610     1.8840     1.5140 C.3   1 <1>   0.5240 
 18 O        1.3600    -6.3940     0.8370 O.3   1 <1>  -0.3620 
 19 C        3.3890    -6.0020     2.6730 C.3   1 <1>   0.0400 
 20 C        4.7170     2.9990     1.1070 C.2   1 <1>   0.1080 
 21 C        0.5040    -7.2410     0.1030 C.3   1 <1>   0.0400 
 22 N        4.3280     4.0270     0.4060 N.2   1 <1>  -0.7070 
 23 C        6.0700     3.0570     1.4160 C.2   1 <1>  -0.1500 
 24 N        5.4360     4.7840     0.2560 N.pl3 1 <1>   0.3140 
 25 C        6.4960     4.2090     0.8580 C.2   1 <1>  -0.3020 
 26 C        5.4310     6.0690    -0.4750 C.3   1 <1>   0.0960 
 27 C        5.2340     7.2490     0.4850 C.3   1 <1>  -0.2400 
 28 H       -1.2940    -0.4250    -1.6550 H     1 <1>   0.0800 
 29 H       -1.1490    -0.8740     0.0330 H     1 <1>   0.0800 
 30 H        1.9410    -0.2600     2.1150 H     1 <1>   0.0800 
 31 H        0.2580    -0.2330     1.7380 H     1 <1>   0.0800 
 32 H        2.9950    -0.8200    -1.4600 H     1 <1>   0.0800 
 33 H        3.6540    -0.6430     0.1270 H     1 <1>   0.0800 
 34 H       -0.0890    -2.4240    -2.3530 H     1 <1>   0.0800 
 35 H       -1.4090    -2.9030    -1.3190 H     1 <1>   0.0800 
 36 H        3.0610    -2.3090     1.6790 H     1 <1>   0.1500 
 37 H        1.1430     2.0630     2.0560 H     1 <1>   0.0800 
 38 H        0.5250     1.8160     0.4410 H     1 <1>   0.0800 
 39 H        2.1970     1.4650    -1.4670 H     1 <1>   0.0800 
 40 H        3.9000     1.4700    -1.0870 H     1 <1>   0.0800 
 41 H       -0.2340    -4.9840    -0.7530 H     1 <1>   0.1500 
 42 H        2.6220     2.9180     0.2980 H     1 <1>   0.4500 
 43 H        4.2610     0.9310     1.5030 H     1 <1>   0.0800 
 44 H        3.4060     2.0860     2.5100 H     1 <1>   0.0800 
 45 H        4.1720    -6.0460     3.4070 H     1 <1>   0.0800 
 46 H        3.6450    -6.6170     1.8290 H     1 <1>   0.0800 
 47 H        2.4580    -6.3160     3.1100 H     1 <1>   0.0800 
 48 H        0.7050    -8.2550     0.3990 H     1 <1>   0.0800 
 49 H        0.7090    -7.1210    -0.9460 H     1 <1>   0.0800 
 50 H       -0.5170    -6.9910     0.3310 H     1 <1>   0.0800 
 51 H        6.6440     2.3410     1.9800 H     1 <1>   0.1500 
 52 H        7.4780     4.6480     0.8580 H     1 <1>   0.1500 
 53 H        4.6350     6.0460    -1.1960 H     1 <1>   0.0800 
 54 H        6.3650     6.1690    -0.9990 H     1 <1>   0.0800 
 55 H        4.2960     7.1540     1.0030 H     1 <1>   0.0800 
 56 H        5.2260     8.1710    -0.0680 H     1 <1>   0.0800 
 57 H        6.0350     7.2890     1.2020 H     1 <1>   0.0800 
@<TRIPOS>BOND
  1   1   2  1   
  2   1   3  1   
  3   2   4  1   
  4   2   5  1   
  5   2   6  1   
  6   3   7  1   
  7   3  28  1   
  8   3  29  1   
  9   4   8  ar  
 10   4   9  ar  
 11   5  10  1   
 12   5  30  1   
 13   5  31  1   
 14   6  11  1   
 15   6  32  1   
 16   6  33  1   
 17   7   8  1   
 18   7  34  1   
 19   7  35  1   
 20   8  12  ar  
 21   9  13  ar  
 22   9  36  1   
 23  10  14  1   
 24  10  37  1   
 25  10  38  1   
 26  11  14  1   
 27  11  39  1   
 28  11  40  1   
 29  12  15  ar  
 30  12  41  1   
 31  13  15  ar  
 32  13  16  1   
 33  14  17  1   
 34  14  42  1   
 35  15  18  1   
 36  16  19  1   
 37  17  20  1   
 38  17  43  1   
 39  17  44  1   
 40  18  21  1   
 41  19  45  1   
 42  19  46  1   
 43  19  47  1   
 44  20  22  2   
 45  20  23  1   
 46  21  48  1   
 47  21  49  1   
 48  21  50  1   
 49  22  24  1   
 50  23  25  2   
 51  23  51  1   
 52  24  25  1   
 53  24  26  1   
 54  25  52  1   
 55  26  27  1   
 56  26  53  1   
 57  26  54  1   
 58  27  55  1   
 59  27  56  1   
 60  27  57  1   
@<TRIPOS>SUBSTRUCTURE
  1 ****   6 GROUP 4 **** **** 0

# MOE 2024.06 (io_trps.svl 2023.06)
