@<TRIPOS>MOLECULE
NONAME
54 56 1 0 0 
SMALL
USER_CHARGES


@<TRIPOS>ATOM
  1 F       -0.0860    -0.5630     1.1420 F     1 <1>  -0.1900 
  2 C       -0.1730    -1.8550     0.9530 C.ar  1 <1>   0.1900 
  3 C        0.4490    -2.4870    -0.1290 C.ar  1 <1>   0.0820 
  4 C       -0.9220    -2.5610     1.8760 C.ar  1 <1>  -0.1500 
  5 O        1.2110    -1.9070    -1.0960 O.3   1 <1>  -0.3630 
  6 C        0.2820    -3.8570    -0.2580 C.ar  1 <1>  -0.1500 
  7 C       -1.0790    -3.9280     1.7210 C.ar  1 <1>  -0.1500 
  8 C        1.6480    -0.5660    -1.0240 C.3   1 <1>   0.0400 
  9 C       -0.4890    -4.5800     0.6450 C.ar  1 <1>  -0.1430 
 10 C       -0.6830    -6.0730     0.4540 C.3   1 <1>   0.4870 
 11 N       -1.3640    -6.3550    -0.8530 N.4   1 <1>  -0.9590 
 12 C       -2.8080    -5.9840    -1.0050 C.3   1 <1>   0.4230 
 13 C       -1.1740    -7.7950    -1.2080 C.3   1 <1>   0.2630 
 14 C       -3.0220    -4.5400    -1.4520 C.3   1 <1>  -0.1600 
 15 C       -3.6860    -6.1410     0.2380 C.3   1 <1>  -0.1600 
 16 C       -4.4880    -4.2410    -1.1070 C.3   1 <1>  -0.0800 
 17 C       -4.9180    -5.2700    -0.0560 C.3   1 <1>  -0.0800 
 18 C       -4.7470    -2.8640    -0.4770 C.3   1 <1>  -0.1600 
 19 C       -5.4550    -4.4540     1.1330 C.3   1 <1>  -0.1600 
 20 C       -5.8530    -3.0870     0.5620 C.3   1 <1>   0.4230 
 21 N       -7.2020    -3.1440    -0.0900 N.4   1 <1>  -0.9590 
 22 C       -7.5660    -1.8560    -0.7690 C.3   1 <1>   0.2630 
 23 C       -8.2970    -3.4820     0.8770 C.3   1 <1>   0.2630 
 24 H       -1.3690    -2.0400     2.7050 H     1 <1>   0.1500 
 25 H        0.7750    -4.3390    -1.0840 H     1 <1>   0.1500 
 26 H       -1.6580    -4.4680     2.4510 H     1 <1>   0.1500 
 27 H        2.3160    -0.3870    -1.8470 H     1 <1>   0.0800 
 28 H        2.1670    -0.4150    -0.0940 H     1 <1>   0.0800 
 29 H        0.7960     0.0860    -1.1000 H     1 <1>   0.0800 
 30 H       -1.2510    -6.4840     1.2710 H     1 <1>   0.0800 
 31 H        0.2880    -6.5400     0.4620 H     1 <1>   0.0800 
 32 H       -0.8580    -5.7910    -1.5490 H     1 <1>   0.4500 
 33 H       -3.2390    -6.6020    -1.7760 H     1 <1>   0.0800 
 34 H       -1.6890    -8.4270    -0.5020 H     1 <1>   0.0800 
 35 H       -0.1260    -8.0500    -1.1990 H     1 <1>   0.0800 
 36 H       -1.5630    -7.9940    -2.1940 H     1 <1>   0.0800 
 37 H       -2.3810    -3.8660    -0.9210 H     1 <1>   0.0800 
 38 H       -2.8460    -4.4290    -2.5080 H     1 <1>   0.0800 
 39 H       -3.9680    -7.1680     0.3940 H     1 <1>   0.0800 
 40 H       -3.1920    -5.7700     1.1130 H     1 <1>   0.0800 
 41 H       -5.1000    -4.3630    -1.9870 H     1 <1>   0.0800 
 42 H       -5.7050    -5.8810    -0.4700 H     1 <1>   0.0800 
 43 H       -4.9620    -2.1100    -1.2110 H     1 <1>   0.0800 
 44 H       -3.8720    -2.5400     0.0610 H     1 <1>   0.0800 
 45 H       -4.6640    -4.2780     1.8410 H     1 <1>   0.0800 
 46 H       -6.2390    -4.9670     1.6590 H     1 <1>   0.0800 
 47 H       -5.8380    -2.3220     1.3230 H     1 <1>   0.0800 
 48 H       -7.1600    -3.8830    -0.8040 H     1 <1>   0.4500 
 49 H       -7.5410    -1.0400    -0.0650 H     1 <1>   0.0800 
 50 H       -8.5600    -1.9220    -1.1830 H     1 <1>   0.0800 
 51 H       -6.8840    -1.6400    -1.5740 H     1 <1>   0.0800 
 52 H       -8.3200    -2.7670     1.6840 H     1 <1>   0.0800 
 53 H       -8.1540    -4.4660     1.2910 H     1 <1>   0.0800 
 54 H       -9.2530    -3.4660     0.3780 H     1 <1>   0.0800 
@<TRIPOS>BOND
  1   1   2  1   
  2   2   3  ar  
  3   2   4  ar  
  4   3   5  1   
  5   3   6  ar  
  6   4   7  ar  
  7   4  24  1   
  8   5   8  1   
  9   6   9  ar  
 10   6  25  1   
 11   7   9  ar  
 12   7  26  1   
 13   8  27  1   
 14   8  28  1   
 15   8  29  1   
 16   9  10  1   
 17  10  11  1   
 18  10  30  1   
 19  10  31  1   
 20  11  12  1   
 21  11  13  1   
 22  11  32  1   
 23  12  14  1   
 24  12  15  1   
 25  12  33  1   
 26  13  34  1   
 27  13  35  1   
 28  13  36  1   
 29  14  16  1   
 30  14  37  1   
 31  14  38  1   
 32  15  17  1   
 33  15  39  1   
 34  15  40  1   
 35  16  17  1   
 36  16  18  1   
 37  16  41  1   
 38  17  19  1   
 39  17  42  1   
 40  18  20  1   
 41  18  43  1   
 42  18  44  1   
 43  19  20  1   
 44  19  45  1   
 45  19  46  1   
 46  20  21  1   
 47  20  47  1   
 48  21  22  1   
 49  21  23  1   
 50  21  48  1   
 51  22  49  1   
 52  22  50  1   
 53  22  51  1   
 54  23  52  1   
 55  23  53  1   
 56  23  54  1   
@<TRIPOS>SUBSTRUCTURE
  1 ****  14 GROUP 4 **** **** 0

# MOE 2024.06 (io_trps.svl 2023.06)
