@<TRIPOS>MOLECULE
NONAME
47 49 1 0 0 
SMALL
USER_CHARGES


@<TRIPOS>ATOM
  1 O        3.1360    -0.9090    -2.5030 O.2   1 <1>  -0.5700 
  2 C        2.4150    -0.9580    -1.5210 C.2   1 <1>   0.5440 
  3 N        2.4230     0.1720    -0.7410 N.am  1 <1>  -0.6600 
  4 C        1.7420    -2.1940    -1.1450 C.ar  1 <1>   0.0860 
  5 C        3.0400     0.0490     0.6250 C.3   1 <1>   0.2200 
  6 C        2.3590     1.5210    -1.3860 C.3   1 <1>   0.1400 
  7 C        0.6520    -2.2610    -0.2590 C.ar  1 <1>   0.0830 
  8 C        2.2050    -3.4050    -1.6670 C.ar  1 <1>  -0.1500 
  9 C        2.5890     1.1490     1.5970 C.3   1 <1>   0.1200 
 10 C        4.5850     0.0070     0.5030 C.3   1 <1>   0.3430 
 11 C        3.4480     2.5080    -0.9240 C.3   1 <1>  -0.0800 
 12 O        0.1070    -1.1370     0.2520 O.3   1 <1>  -0.3630 
 13 C        0.1030    -3.4830     0.1290 C.ar  1 <1>  -0.1440 
 14 C        1.6510    -4.6160    -1.3060 C.ar  1 <1>  -0.1500 
 15 O        3.4130     2.2730     1.4830 O.3   1 <1>  -0.5600 
 16 N        5.0740     0.5220    -0.8280 N.4   1 <1>  -0.9590 
 17 C        3.1150     3.1360     0.4390 C.3   1 <1>   0.1200 
 18 C        4.9050     1.9990    -0.9990 C.3   1 <1>   0.3430 
 19 C       -0.8840    -0.5070    -0.5300 C.3   1 <1>   0.0400 
 20 C        0.6060    -4.6550    -0.4020 C.ar  1 <1>  -0.1500 
 21 C       -1.0460    -3.5550     1.1270 C.3   1 <1>  -0.0970 
 22 C        6.4640     0.0800    -1.1220 C.3   1 <1>   0.2630 
 23 H        2.7150    -0.8820     1.0560 H     1 <1>   0.0800 
 24 H        2.4280     1.4080    -2.4560 H     1 <1>   0.0800 
 25 H        1.3890     1.9430    -1.1860 H     1 <1>   0.0800 
 26 H        3.0200    -3.4000    -2.3710 H     1 <1>   0.1500 
 27 H        2.6990     0.7930     2.6060 H     1 <1>   0.0800 
 28 H        1.5570     1.4190     1.4470 H     1 <1>   0.0800 
 29 H        4.8940    -1.0180     0.6170 H     1 <1>   0.0800 
 30 H        5.0290     0.5700     1.3080 H     1 <1>   0.0800 
 31 H        3.3940     3.3330    -1.6120 H     1 <1>   0.0800 
 32 H        2.0310    -5.5330    -1.7250 H     1 <1>   0.1500 
 33 H        4.4290     0.0820    -1.5260 H     1 <1>   0.4500 
 34 H        2.0770     3.4210     0.5050 H     1 <1>   0.0800 
 35 H        3.7110     4.0210     0.5890 H     1 <1>   0.0800 
 36 H        5.4940     2.5170    -0.2590 H     1 <1>   0.0800 
 37 H        5.2940     2.2680    -1.9680 H     1 <1>   0.0800 
 38 H       -1.2510     0.3460     0.0120 H     1 <1>   0.0800 
 39 H       -1.6850    -1.2030    -0.7070 H     1 <1>   0.0800 
 40 H       -0.4490    -0.1950    -1.4630 H     1 <1>   0.0800 
 41 H        0.1880    -5.6070    -0.1210 H     1 <1>   0.1500 
 42 H       -1.1640    -4.5540     1.5050 H     1 <1>   0.0800 
 43 H       -1.9630    -3.2580     0.6520 H     1 <1>   0.0800 
 44 H       -0.8580    -2.9020     1.9600 H     1 <1>   0.0800 
 45 H        7.1520     0.5080    -0.4100 H     1 <1>   0.0800 
 46 H        6.7510     0.3920    -2.1140 H     1 <1>   0.0800 
 47 H        6.5320    -0.9940    -1.0700 H     1 <1>   0.0800 
@<TRIPOS>BOND
  1   1   2  2   
  2   2   3  am  
  3   2   4  1   
  4   3   5  1   
  5   3   6  1   
  6   4   7  ar  
  7   4   8  ar  
  8   5   9  1   
  9   5  10  1   
 10   5  23  1   
 11   6  11  1   
 12   6  24  1   
 13   6  25  1   
 14   7  12  1   
 15   7  13  ar  
 16   8  14  ar  
 17   8  26  1   
 18   9  15  1   
 19   9  27  1   
 20   9  28  1   
 21  10  16  1   
 22  10  29  1   
 23  10  30  1   
 24  11  17  1   
 25  11  18  1   
 26  11  31  1   
 27  12  19  1   
 28  13  20  ar  
 29  13  21  1   
 30  14  20  ar  
 31  14  32  1   
 32  15  17  1   
 33  16  18  1   
 34  16  22  1   
 35  16  33  1   
 36  17  34  1   
 37  17  35  1   
 38  18  36  1   
 39  18  37  1   
 40  19  38  1   
 41  19  39  1   
 42  19  40  1   
 43  20  41  1   
 44  21  42  1   
 45  21  43  1   
 46  21  44  1   
 47  22  45  1   
 48  22  46  1   
 49  22  47  1   
@<TRIPOS>SUBSTRUCTURE
  1 ****   3 GROUP 4 **** **** 0

# MOE 2024.06 (io_trps.svl 2023.06)
