@<TRIPOS>MOLECULE
NONAME
46 48 1 0 0 
SMALL
USER_CHARGES


@<TRIPOS>ATOM
  1 F       -1.6790    -1.1660     1.9330 F     1 <1>  -0.1900 
  2 C       -1.8690    -2.2960     1.3000 C.ar  1 <1>   0.1900 
  3 C       -1.0160    -3.3930     1.4680 C.ar  1 <1>   0.0820 
  4 C       -2.9560    -2.3490     0.4500 C.ar  1 <1>  -0.1500 
  5 O        0.0810    -3.4630     2.2770 O.3   1 <1>  -0.3630 
  6 C       -1.2980    -4.5410     0.7460 C.ar  1 <1>  -0.1500 
  7 C       -3.2050    -3.5120    -0.2560 C.ar  1 <1>  -0.1500 
  8 C        0.4470    -2.4310     3.1660 C.3   1 <1>   0.0400 
  9 C       -2.3860    -4.6350    -0.1250 C.ar  1 <1>   0.0530 
 10 C       -2.6320    -5.8490    -0.8690 C.2   1 <1>   0.0870 
 11 O       -1.6200    -6.6310    -1.1720 O.3   1 <1>  -0.0190 
 12 C       -3.7450    -6.4340    -1.3880 C.2   1 <1>  -0.2330 
 13 N       -1.9740    -7.6830    -1.8630 N.2   1 <1>  -0.4100 
 14 C       -3.2440    -7.5730    -2.0160 C.2   1 <1>   0.3720 
 15 C       -5.1370    -6.1050    -1.3200 C.2   1 <1>   1.0330 
 16 N       -4.0250    -8.4890    -2.7030 N.pl3 1 <1>  -0.8520 
 17 O       -5.5860    -5.4080    -0.3980 O.co2 1 <1>  -0.9000 
 18 O       -5.9410    -6.5610    -2.1570 O.co2 1 <1>  -0.9000 
 19 C       -4.2620    -9.7500    -1.9790 C.3   1 <1>   0.2090 
 20 C       -5.5710    -9.6170    -1.2050 C.3   1 <1>  -0.1600 
 21 C       -5.8330   -10.8210    -0.3020 C.3   1 <1>   0.1400 
 22 N       -7.1590   -10.6980     0.3520 N.am  1 <1>  -0.6600 
 23 C       -8.0950   -11.6700     0.4110 C.2   1 <1>   0.5690 
 24 C       -7.6110    -9.4320     0.9660 C.3   1 <1>   0.1400 
 25 O       -7.9820   -12.7950    -0.0130 O.2   1 <1>  -0.5700 
 26 C       -9.3380   -11.1730     1.0960 C.3   1 <1>  -0.0990 
 27 C       -8.9160    -9.8120     1.6780 C.3   1 <1>  -0.1600 
 28 H       -3.6010    -1.4970     0.3410 H     1 <1>   0.1500 
 29 H       -0.6520    -5.3910     0.8680 H     1 <1>   0.1500 
 30 H       -4.0540    -3.5520    -0.9170 H     1 <1>   0.1500 
 31 H        1.3020    -2.7610     3.7270 H     1 <1>   0.0800 
 32 H       -0.3740    -2.2360     3.8330 H     1 <1>   0.0800 
 33 H        0.7010    -1.5530     2.5990 H     1 <1>   0.0800 
 34 H       -4.9450    -8.0130    -2.8350 H     1 <1>   0.4000 
 35 H       -3.4440    -9.9450    -1.3050 H     1 <1>   0.0800 
 36 H       -4.3260   -10.5570    -2.6870 H     1 <1>   0.0800 
 37 H       -6.3820    -9.5060    -1.9030 H     1 <1>   0.0800 
 38 H       -5.5120    -8.7390    -0.5890 H     1 <1>   0.0800 
 39 H       -5.0720   -10.8840     0.4580 H     1 <1>   0.0800 
 40 H       -5.8090   -11.7280    -0.8830 H     1 <1>   0.0800 
 41 H       -7.7950    -8.6990     0.1970 H     1 <1>   0.0800 
 42 H       -6.8760    -9.0540     1.6570 H     1 <1>   0.0800 
 43 H       -9.6510   -11.8590     1.8600 H     1 <1>   0.0800 
 44 H      -10.1130   -11.0560     0.3610 H     1 <1>   0.0800 
 45 H       -9.6700    -9.0580     1.5360 H     1 <1>   0.0800 
 46 H       -8.7190    -9.9120     2.7310 H     1 <1>   0.0800 
@<TRIPOS>BOND
  1   1   2  1   
  2   2   3  ar  
  3   2   4  ar  
  4   3   5  1   
  5   3   6  ar  
  6   4   7  ar  
  7   4  28  1   
  8   5   8  1   
  9   6   9  ar  
 10   6  29  1   
 11   7   9  ar  
 12   7  30  1   
 13   8  31  1   
 14   8  32  1   
 15   8  33  1   
 16   9  10  1   
 17  10  11  1   
 18  10  12  2   
 19  11  13  1   
 20  12  14  1   
 21  12  15  1   
 22  13  14  2   
 23  14  16  1   
 24  15  17  ar  
 25  15  18  ar  
 26  16  19  1   
 27  16  34  1   
 28  19  20  1   
 29  19  35  1   
 30  19  36  1   
 31  20  21  1   
 32  20  37  1   
 33  20  38  1   
 34  21  22  1   
 35  21  39  1   
 36  21  40  1   
 37  22  23  am  
 38  22  24  1   
 39  23  25  2   
 40  23  26  1   
 41  24  27  1   
 42  24  41  1   
 43  24  42  1   
 44  26  27  1   
 45  26  43  1   
 46  26  44  1   
 47  27  45  1   
 48  27  46  1   
@<TRIPOS>SUBSTRUCTURE
  1 ****  12 GROUP 4 **** **** 0

# MOE 2024.06 (io_trps.svl 2023.06)
