@<TRIPOS>MOLECULE
NONAME
33 34 1 0 0 
SMALL
USER_CHARGES


@<TRIPOS>ATOM
  1 CL      -0.2210    -2.3080    -1.4570 Cl    1 <1>  -0.1770 
  2 C       -1.8010    -2.3100    -0.7200 C.ar  1 <1>   0.1770 
  3 C       -2.6320    -1.2210    -0.8910 C.ar  1 <1>  -0.1500 
  4 C       -2.2020    -3.4010     0.0260 C.ar  1 <1>  -0.1500 
  5 C       -3.8860    -1.2290    -0.3020 C.ar  1 <1>  -0.1500 
  6 C       -3.4580    -3.3940     0.6110 C.ar  1 <1>  -0.1500 
  7 C       -4.3200    -2.3100     0.4610 C.ar  1 <1>  -0.0090 
  8 S       -5.9770    -2.3220     1.2080 S.o2  1 <1>   1.4470 
  9 O       -6.0100    -3.2780     2.2930 O.2   1 <1>  -0.6500 
 10 O       -6.3520    -0.9500     1.4840 O.2   1 <1>  -0.6500 
 11 N       -6.9820    -2.8530    -0.0550 N.am  1 <1>  -0.8490 
 12 C       -6.6860    -4.1880    -0.6130 C.3   1 <1>   0.1960 
 13 C       -8.4140    -2.6340     0.1700 C.3   1 <1>   0.1960 
 14 C       -7.2810    -5.3370     0.2090 C.3   1 <1>  -0.1860 
 15 C       -9.0390    -3.7340     1.0330 C.3   1 <1>  -0.1600 
 16 C       -7.0310    -6.6560    -0.4900 C.2   1 <1>   0.9060 
 17 C       -8.7760    -5.0990     0.4070 C.3   1 <1>   0.2000 
 18 O       -6.2270    -6.7000    -1.4260 O.co2 1 <1>  -0.9000 
 19 O       -7.6450    -7.6570    -0.1010 O.co2 1 <1>  -0.9000 
 20 O       -9.2770    -6.0700     1.2420 O.3   1 <1>  -0.6800 
 21 H       -2.3010    -0.3820    -1.4760 H     1 <1>   0.1500 
 22 H       -1.5450    -4.2440     0.1430 H     1 <1>   0.1500 
 23 H       -4.5430    -0.3850    -0.4340 H     1 <1>   0.1500 
 24 H       -3.7780    -4.2470     1.1890 H     1 <1>   0.1500 
 25 H       -7.0990    -4.2370    -1.6080 H     1 <1>   0.0800 
 26 H       -5.6240    -4.3300    -0.7160 H     1 <1>   0.0800 
 27 H       -8.5770    -1.6720     0.6270 H     1 <1>   0.0800 
 28 H       -8.9090    -2.6240    -0.7870 H     1 <1>   0.0800 
 29 H       -6.7910    -5.3890     1.1600 H     1 <1>   0.0800 
 30 H      -10.0990    -3.5730     1.1010 H     1 <1>   0.0800 
 31 H       -8.6260    -3.6970     2.0250 H     1 <1>   0.0800 
 32 H       -9.2870    -5.1870    -0.5370 H     1 <1>   0.0800 
 33 H       -8.8570    -6.9260     0.9330 H     1 <1>   0.4000 
@<TRIPOS>BOND
  1   1   2  1   
  2   2   3  ar  
  3   2   4  ar  
  4   3   5  ar  
  5   3  21  1   
  6   4   6  ar  
  7   4  22  1   
  8   5   7  ar  
  9   5  23  1   
 10   6   7  ar  
 11   6  24  1   
 12   7   8  1   
 13   8   9  2   
 14   8  10  2   
 15   8  11  am  
 16  11  12  1   
 17  11  13  1   
 18  12  14  1   
 19  12  25  1   
 20  12  26  1   
 21  13  15  1   
 22  13  27  1   
 23  13  28  1   
 24  14  16  1   
 25  14  17  1   
 26  14  29  1   
 27  15  17  1   
 28  15  30  1   
 29  15  31  1   
 30  16  18  ar  
 31  16  19  ar  
 32  17  20  1   
 33  17  32  1   
 34  20  33  1   
@<TRIPOS>SUBSTRUCTURE
  1 ****  12 GROUP 4 **** **** 0

# MOE 2024.06 (io_trps.svl 2023.06)
