@<TRIPOS>MOLECULE
NONAME
50 52 1 0 0 
SMALL
USER_CHARGES


@<TRIPOS>ATOM
  1 O        3.0310    -2.1730    -0.9950 O.2   1 <1>  -0.5740 
  2 C        2.5140    -1.5660    -0.0910 C.2   1 <1>   0.5650 
  3 N        1.1920    -1.6510     0.2470 N.am  1 <1>  -0.5510 
  4 C        3.3880    -0.6390     0.7330 C.3   1 <1>  -0.1060 
  5 C        0.1290    -2.3770    -0.3130 C.ar  1 <1>   0.1100 
  6 C        3.3630     0.7960     0.1740 C.3   1 <1>  -0.1670 
  7 C        0.1700    -2.9400    -1.5860 C.ar  1 <1>  -0.1570 
  8 C       -1.0340    -2.5300     0.4350 C.ar  1 <1>  -0.1570 
  9 C        4.2500     1.7860     0.9520 C.3   1 <1>  -0.0880 
 10 C       -0.9130    -3.6360    -2.0910 C.ar  1 <1>  -0.1570 
 11 C       -2.1200    -3.2250    -0.0660 C.ar  1 <1>  -0.1570 
 12 C        4.0170     3.2100     0.4130 C.3   1 <1>  -0.1670 
 13 C        5.7440     1.4190     0.8570 C.3   1 <1>  -0.1670 
 14 C       -2.0610    -3.7800    -1.3320 C.ar  1 <1>  -0.1570 
 15 C        4.9420     4.2430     1.0620 C.3   1 <1>   0.1610 
 16 C        6.6370     2.4810     1.5020 C.3   1 <1>   0.1610 
 17 N        6.3540     3.8090     0.8930 N.pl3 1 <1>  -0.5960 
 18 C        7.2160     4.4230     0.0490 C.cat 1 <1>   1.0690 
 19 N        8.0260     3.7930    -0.7730 N.pl3 1 <1>  -0.7030 
 20 N        7.4240     5.7310    -0.1370 N.pl3 1 <1>  -0.4620 
 21 C        8.7060     4.7470    -1.4650 C.2   1 <1>   0.4800 
 22 N        8.3700     5.9260    -1.1050 N.2   1 <1>  -0.2660 
 23 C        6.8650     6.8920     0.5960 C.3   1 <1>   0.2680 
 24 C        9.7250     4.3950    -2.5250 C.3   1 <1>  -0.0800 
 25 H        0.9300    -1.1100     1.0660 H     1 <1>   0.3640 
 26 H        4.3870    -1.0330     0.7060 H     1 <1>   0.0720 
 27 H        3.0570    -0.6470     1.7550 H     1 <1>   0.0720 
 28 H        2.3440     1.1460     0.1940 H     1 <1>   0.0720 
 29 H        3.6700     0.7690    -0.8580 H     1 <1>   0.0720 
 30 H        1.0490    -2.8360    -2.1940 H     1 <1>   0.1430 
 31 H       -1.0930    -2.1060     1.4200 H     1 <1>   0.1430 
 32 H        3.9570     1.7680     1.9890 H     1 <1>   0.0720 
 33 H       -0.8610    -4.0650    -3.0760 H     1 <1>   0.1430 
 34 H       -3.0110    -3.3350     0.5270 H     1 <1>   0.1430 
 35 H        2.9950     3.4970     0.5960 H     1 <1>   0.0720 
 36 H        4.1670     3.2270    -0.6530 H     1 <1>   0.0720 
 37 H        6.0250     1.2890    -0.1730 H     1 <1>   0.0720 
 38 H        5.9220     0.4850     1.3610 H     1 <1>   0.0720 
 39 H       -2.9030    -4.3220    -1.7250 H     1 <1>   0.1430 
 40 H        4.7160     4.3270     2.1130 H     1 <1>   0.0720 
 41 H        4.7730     5.2000     0.6000 H     1 <1>   0.0720 
 42 H        7.6740     2.2170     1.3800 H     1 <1>   0.0720 
 43 H        6.4330     2.5290     2.5590 H     1 <1>   0.0720 
 44 H        8.0760     2.7870    -0.8930 H     1 <1>   0.4450 
 45 H        6.5180     6.5930     1.5700 H     1 <1>   0.0720 
 46 H        6.0490     7.3160     0.0370 H     1 <1>   0.0720 
 47 H        7.6280     7.6420     0.7190 H     1 <1>   0.0720 
 48 H       10.5230     3.8180    -2.0940 H     1 <1>   0.0720 
 49 H       10.1400     5.2920    -2.9490 H     1 <1>   0.0720 
 50 H        9.2610     3.8270    -3.3100 H     1 <1>   0.0720 
@<TRIPOS>BOND
  1   1   2  2   
  2   2   3  am  
  3   2   4  1   
  4   3   5  1   
  5   3  25  1   
  6   4   6  1   
  7   4  26  1   
  8   4  27  1   
  9   5   7  ar  
 10   5   8  ar  
 11   6   9  1   
 12   6  28  1   
 13   6  29  1   
 14   7  10  ar  
 15   7  30  1   
 16   8  11  ar  
 17   8  31  1   
 18   9  12  1   
 19   9  13  1   
 20   9  32  1   
 21  10  14  ar  
 22  10  33  1   
 23  11  14  ar  
 24  11  34  1   
 25  12  15  1   
 26  12  35  1   
 27  12  36  1   
 28  13  16  1   
 29  13  37  1   
 30  13  38  1   
 31  14  39  1   
 32  15  17  1   
 33  15  40  1   
 34  15  41  1   
 35  16  17  1   
 36  16  42  1   
 37  16  43  1   
 38  17  18  ar  
 39  18  19  ar  
 40  18  20  ar  
 41  19  21  1   
 42  19  44  1   
 43  20  22  1   
 44  20  23  1   
 45  21  22  2   
 46  21  24  1   
 47  23  45  1   
 48  23  46  1   
 49  23  47  1   
 50  24  48  1   
 51  24  49  1   
 52  24  50  1   
@<TRIPOS>SUBSTRUCTURE
  1 ****   6 GROUP 4 **** **** 0

# MOE 2024.06 (io_trps.svl 2023.06)
