@<TRIPOS>MOLECULE
NONAME
51 53 1 0 0 
SMALL
USER_CHARGES


@<TRIPOS>ATOM
  1 F       -0.8240    -0.1770    -0.6710 F     1 <1>  -0.1900 
  2 C       -2.0490     0.2600    -0.5310 C.ar  1 <1>   0.1900 
  3 C       -2.3420     1.6230    -0.4070 C.ar  1 <1>   0.0830 
  4 C       -3.0450    -0.6960    -0.5130 C.ar  1 <1>  -0.1500 
  5 O       -1.4530     2.6570    -0.4100 O.3   1 <1>  -0.3630 
  6 C       -3.6720     1.9840    -0.2660 C.ar  1 <1>  -0.1500 
  7 C       -4.3630    -0.3010    -0.3720 C.ar  1 <1>  -0.1500 
  8 C       -0.0570     2.4730    -0.4970 C.3   1 <1>   0.0400 
  9 C       -4.7090     1.0470    -0.2430 C.ar  1 <1>   0.0530 
 10 C       -6.0820     1.4740    -0.0950 C.2   1 <1>   0.0870 
 11 O       -6.4290     2.6990    -0.4030 O.3   1 <1>  -0.0190 
 12 C       -7.2130     0.8430     0.3160 C.2   1 <1>  -0.0860 
 13 N       -7.7020     2.9320    -0.2260 N.2   1 <1>  -0.4100 
 14 C       -8.1980     1.8310     0.2190 C.2   1 <1>   0.3720 
 15 C       -7.4100    -0.5010     0.7550 C.2   1 <1>   0.7160 
 16 N       -9.5500     1.6630     0.5620 N.pl3 1 <1>  -0.8210 
 17 O       -6.8710    -0.8710     1.7820 O.2   1 <1>  -0.5700 
 18 N       -8.1540    -1.4070     0.0260 N.am  1 <1>  -0.6600 
 19 C       -9.7810     1.4990     2.0240 C.3   1 <1>   0.1290 
 20 C      -10.4900     2.6500    -0.0400 C.3   1 <1>   0.1290 
 21 C       -8.3420    -2.8150     0.5080 C.3   1 <1>   0.1400 
 22 C       -8.8460    -1.0190    -1.2410 C.3   1 <1>   0.1400 
 23 C       -9.7110    -3.3560     0.0800 C.3   1 <1>  -0.0190 
 24 C       -9.0530    -2.2400    -2.1430 C.3   1 <1>  -0.1600 
 25 C       -9.9400    -4.7440     0.6610 C.2   1 <1>   0.5690 
 26 C       -9.8660    -3.3540    -1.4580 C.3   1 <1>  -0.1600 
 27 O       -9.0780    -5.5820     0.5910 O.2   1 <1>  -0.5700 
 28 N      -11.1140    -5.0400     1.2480 N.am  1 <1>  -0.8000 
 29 H       -2.7900    -1.7360    -0.6090 H     1 <1>   0.1500 
 30 H       -3.9030     3.0290    -0.1680 H     1 <1>   0.1500 
 31 H       -5.1250    -1.0580    -0.3660 H     1 <1>   0.1500 
 32 H        0.4110     3.4390    -0.4530 H     1 <1>   0.0800 
 33 H        0.1750     1.9990    -1.4340 H     1 <1>   0.0800 
 34 H        0.2700     1.8710     0.3320 H     1 <1>   0.0800 
 35 H       -9.1340     0.7390     2.4260 H     1 <1>   0.0800 
 36 H      -10.8010     1.2070     2.2030 H     1 <1>   0.0800 
 37 H       -9.5830     2.4270     2.5330 H     1 <1>   0.0800 
 38 H      -10.3040     2.7330    -1.0970 H     1 <1>   0.0800 
 39 H      -10.3530     3.6170     0.4130 H     1 <1>   0.0800 
 40 H      -11.5060     2.3280     0.1070 H     1 <1>   0.0800 
 41 H       -8.2650    -2.8520     1.5820 H     1 <1>   0.0800 
 42 H       -7.5610    -3.4340     0.0990 H     1 <1>   0.0800 
 43 H       -8.2640    -0.2840    -1.7710 H     1 <1>   0.0800 
 44 H       -9.7990    -0.5800    -0.9980 H     1 <1>   0.0800 
 45 H      -10.4490    -2.6980     0.5010 H     1 <1>   0.0800 
 46 H       -8.0830    -2.6210    -2.4150 H     1 <1>   0.0800 
 47 H       -9.5450    -1.9390    -3.0510 H     1 <1>   0.0800 
 48 H      -10.9100    -3.2410    -1.6970 H     1 <1>   0.0800 
 49 H       -9.5440    -4.3000    -1.8590 H     1 <1>   0.0800 
 50 H      -11.2540    -5.9780     1.6270 H     1 <1>   0.3700 
 51 H      -11.8940    -4.3910     1.3390 H     1 <1>   0.3700 
@<TRIPOS>BOND
  1   1   2  1   
  2   2   3  ar  
  3   2   4  ar  
  4   3   5  1   
  5   3   6  ar  
  6   4   7  ar  
  7   4  29  1   
  8   5   8  1   
  9   6   9  ar  
 10   6  30  1   
 11   7   9  ar  
 12   7  31  1   
 13   8  32  1   
 14   8  33  1   
 15   8  34  1   
 16   9  10  1   
 17  10  11  1   
 18  10  12  2   
 19  11  13  1   
 20  12  14  1   
 21  12  15  1   
 22  13  14  2   
 23  14  16  1   
 24  15  17  2   
 25  15  18  am  
 26  16  19  1   
 27  16  20  1   
 28  18  21  1   
 29  18  22  1   
 30  19  35  1   
 31  19  36  1   
 32  19  37  1   
 33  20  38  1   
 34  20  39  1   
 35  20  40  1   
 36  21  23  1   
 37  21  41  1   
 38  21  42  1   
 39  22  24  1   
 40  22  43  1   
 41  22  44  1   
 42  23  25  1   
 43  23  26  1   
 44  23  45  1   
 45  24  26  1   
 46  24  46  1   
 47  24  47  1   
 48  25  27  2   
 49  25  28  am  
 50  26  48  1   
 51  26  49  1   
 52  28  50  1   
 53  28  51  1   
@<TRIPOS>SUBSTRUCTURE
  1 ****  15 GROUP 4 **** **** 0

# MOE 2024.06 (io_trps.svl 2023.06)
