@<TRIPOS>MOLECULE
NONAME
56 59 1 0 0 
SMALL
USER_CHARGES


@<TRIPOS>ATOM
  1 O        0.6710    -0.1430    -0.6280 O.3   1 <1>  -0.6800 
  2 C        1.8360    -0.2360    -1.3860 C.3   1 <1>   0.2000 
  3 C        2.6900    -1.4200    -0.9170 C.3   1 <1>  -0.0800 
  4 C        2.7090     0.9950    -1.1090 C.3   1 <1>   0.2090 
  5 C        3.4740    -0.8460     0.2650 C.3   1 <1>   0.2090 
  6 C        1.9120    -2.7080    -0.5730 C.3   1 <1>  -0.0170 
  7 N        3.7160     0.5780    -0.0890 N.pl3 1 <1>  -0.8380 
  8 C        2.7520    -3.9510    -0.2470 C.ar  1 <1>  -0.1440 
  9 C        4.9200     1.1890     0.0350 C.ar  1 <1>   0.4100 
 10 C        2.1310    -5.0880     0.3300 C.ar  1 <1>   0.0000 
 11 C        4.0930    -4.0410    -0.4970 C.ar  1 <1>  -0.1500 
 12 N        5.9760     0.4570    -0.2560 N.ar  1 <1>  -0.6200 
 13 C        5.0260     2.5460     0.4410 C.ar  1 <1>  -0.1440 
 14 C        2.9430    -6.2110     0.6270 C.ar  1 <1>   0.3100 
 15 C        0.7500    -5.1840     0.6240 C.ar  1 <1>  -0.1500 
 16 C        4.8020    -5.2040    -0.1710 C.ar  1 <1>   0.1600 
 17 C        7.1670     1.0290    -0.2110 C.ar  1 <1>   0.7710 
 18 C        6.2660     3.1110     0.4540 C.ar  1 <1>   0.2180 
 19 C        3.7700     3.3100     0.8790 C.3   1 <1>  -0.0960 
 20 N        4.2740    -6.2520     0.3720 N.ar  1 <1>  -0.6200 
 21 C        2.3560    -7.3460     1.2090 C.ar  1 <1>  -0.1500 
 22 C        0.2070    -6.3060     1.1900 C.ar  1 <1>  -0.1500 
 23 N        7.3130     2.3190     0.1230 N.ar  1 <1>  -0.1790 
 24 N        8.2770     0.2950    -0.5090 N.pl3 1 <1>  -0.8380 
 25 C        6.5940     4.5540     0.8180 C.3   1 <1>  -0.0970 
 26 C        1.0180    -7.4020     1.4890 C.ar  1 <1>  -0.1500 
 27 C        8.1890    -1.1880    -0.7230 C.3   1 <1>   0.1290 
 28 C        9.6670     0.8100    -0.7240 C.3   1 <1>   0.1290 
 29 H        0.0600    -0.8730    -0.8400 H     1 <1>   0.4000 
 30 H        1.5580    -0.3020    -2.4240 H     1 <1>   0.0800 
 31 H        3.3880    -1.6260    -1.7080 H     1 <1>   0.0800 
 32 H        2.1060     1.8120    -0.7560 H     1 <1>   0.0800 
 33 H        3.2230     1.2860    -2.0080 H     1 <1>   0.0800 
 34 H        4.3900    -1.3820     0.4400 H     1 <1>   0.0800 
 35 H        2.8740    -0.8790     1.1590 H     1 <1>   0.0800 
 36 H        1.2700    -2.9550    -1.4000 H     1 <1>   0.0800 
 37 H        1.2900    -2.4940     0.2780 H     1 <1>   0.0800 
 38 H        4.6570    -3.2480    -0.9470 H     1 <1>   0.1500 
 39 H        0.0990    -4.3610     0.4000 H     1 <1>   0.1500 
 40 H        5.8560    -5.2270    -0.3860 H     1 <1>   0.1500 
 41 H        3.9950     4.0780     1.5960 H     1 <1>   0.0800 
 42 H        3.0710     2.6440     1.3550 H     1 <1>   0.0800 
 43 H        3.2900     3.7580     0.0280 H     1 <1>   0.0800 
 44 H        3.0000    -8.1770     1.4280 H     1 <1>   0.1500 
 45 H       -0.8450    -6.3610     1.4090 H     1 <1>   0.1500 
 46 H        8.2660     2.6510     0.1460 H     1 <1>   0.4570 
 47 H        5.7260     5.1850     0.7580 H     1 <1>   0.0800 
 48 H        7.3250     4.9580     0.1410 H     1 <1>   0.0800 
 49 H        6.9820     4.6040     1.8200 H     1 <1>   0.0800 
 50 H        0.5810    -8.2790     1.9350 H     1 <1>   0.1500 
 51 H        9.0670    -1.6740    -0.3330 H     1 <1>   0.0800 
 52 H        8.1110    -1.4000    -1.7760 H     1 <1>   0.0800 
 53 H        7.3330    -1.6090    -0.2220 H     1 <1>   0.0800 
 54 H       10.1120     0.3120    -1.5700 H     1 <1>   0.0800 
 55 H       10.2710     0.6060     0.1450 H     1 <1>   0.0800 
 56 H        9.6780     1.8660    -0.9280 H     1 <1>   0.0800 
@<TRIPOS>BOND
  1   1   2  1   
  2   1  29  1   
  3   2   3  1   
  4   2   4  1   
  5   2  30  1   
  6   3   5  1   
  7   3   6  1   
  8   3  31  1   
  9   4   7  1   
 10   4  32  1   
 11   4  33  1   
 12   5   7  1   
 13   5  34  1   
 14   5  35  1   
 15   6   8  1   
 16   6  36  1   
 17   6  37  1   
 18   7   9  1   
 19   8  10  ar  
 20   8  11  ar  
 21   9  12  ar  
 22   9  13  ar  
 23  10  14  ar  
 24  10  15  ar  
 25  11  16  ar  
 26  11  38  1   
 27  12  17  ar  
 28  13  18  ar  
 29  13  19  1   
 30  14  20  ar  
 31  14  21  ar  
 32  15  22  ar  
 33  15  39  1   
 34  16  20  ar  
 35  16  40  1   
 36  17  23  ar  
 37  17  24  1   
 38  18  23  ar  
 39  18  25  1   
 40  19  41  1   
 41  19  42  1   
 42  19  43  1   
 43  21  26  ar  
 44  21  44  1   
 45  22  26  ar  
 46  22  45  1   
 47  23  46  1   
 48  24  27  1   
 49  24  28  1   
 50  25  47  1   
 51  25  48  1   
 52  25  49  1   
 53  26  50  1   
 54  27  51  1   
 55  27  52  1   
 56  27  53  1   
 57  28  54  1   
 58  28  55  1   
 59  28  56  1   
@<TRIPOS>SUBSTRUCTURE
  1 ****   5 GROUP 4 **** **** 0

# MOE 2024.06 (io_trps.svl 2023.06)
