@<TRIPOS>MOLECULE
NONAME
48 51 1 0 0 
SMALL
USER_CHARGES


@<TRIPOS>ATOM
  1 O        0.9430     1.2440     1.0280 O.2   1 <1>  -0.5700 
  2 C        1.4140     2.2250     0.5160 C.2   1 <1>   0.4230 
  3 C        2.7750     2.4720     0.1540 C.ar  1 <1>   0.0860 
  4 C        0.5780     3.4370     0.1630 C.3   1 <1>  -0.0990 
  5 C        2.9170     3.7340    -0.3880 C.ar  1 <1>  -0.1440 
  6 C        3.8880     1.6490     0.2770 C.ar  1 <1>  -0.1500 
  7 C        1.5770     4.4500    -0.4350 C.3   1 <1>  -0.0160 
  8 C        4.1460     4.2250    -0.8200 C.ar  1 <1>   0.0860 
  9 C        5.1200     2.1010    -0.1590 C.ar  1 <1>  -0.1500 
 10 C        4.2880     5.5690    -1.3520 C.2   1 <1>   0.5440 
 11 C        5.2420     3.3670    -0.7080 C.ar  1 <1>  -0.1500 
 12 O        3.6950     5.8780    -2.3660 O.2   1 <1>  -0.5700 
 13 N        5.0640     6.5280    -0.7300 N.am  1 <1>  -0.6600 
 14 C        5.5630     6.3600     0.6880 C.3   1 <1>   0.2200 
 15 C        5.3640     7.7960    -1.4730 C.3   1 <1>   0.1400 
 16 C        5.1940     7.5520     1.5860 C.3   1 <1>   0.1200 
 17 C        7.0810     6.0860     0.7300 C.3   1 <1>   0.3430 
 18 C        6.4920     8.6670    -0.8870 C.3   1 <1>  -0.0800 
 19 O        6.1500     8.5680     1.5020 O.3   1 <1>  -0.5600 
 20 N        7.7770     6.5070    -0.5360 N.4   1 <1>  -0.9590 
 21 C        6.0570     9.3960     0.3930 C.3   1 <1>   0.1200 
 22 C        7.8640     7.9770    -0.7370 C.3   1 <1>   0.3430 
 23 C        9.1110     5.7860    -0.6480 C.3   1 <1>   0.2370 
 24 C        8.9690     4.2620    -0.6370 C.2   1 <1>   0.9060 
 25 O        8.9740     3.6850     0.4530 O.co2 1 <1>  -0.9000 
 26 O        8.6660     3.7070    -1.6940 O.co2 1 <1>  -0.9000 
 27 H       -0.1720     3.1620    -0.5560 H     1 <1>   0.0800 
 28 H        0.1090     3.8260     1.0480 H     1 <1>   0.0800 
 29 H        3.7780     0.6670     0.7040 H     1 <1>   0.1500 
 30 H        1.6070     5.3530     0.1490 H     1 <1>   0.0800 
 31 H        1.3160     4.6900    -1.4520 H     1 <1>   0.0800 
 32 H        5.9950     1.4740    -0.0820 H     1 <1>   0.1500 
 33 H        6.2100     3.6810    -1.0610 H     1 <1>   0.1500 
 34 H        5.0750     5.5100     1.1290 H     1 <1>   0.0800 
 35 H        5.6240     7.5360    -2.4870 H     1 <1>   0.0800 
 36 H        4.4580     8.3750    -1.5270 H     1 <1>   0.0800 
 37 H        5.1890     7.2270     2.6120 H     1 <1>   0.0800 
 38 H        4.2180     7.9400     1.3510 H     1 <1>   0.0800 
 39 H        7.2100     5.0270     0.8780 H     1 <1>   0.0800 
 40 H        7.5220     6.5800     1.5800 H     1 <1>   0.0800 
 41 H        6.6420     9.4550    -1.6040 H     1 <1>   0.0800 
 42 H        7.1820     6.1140    -1.2870 H     1 <1>   0.4500 
 43 H        5.0510     9.7740     0.3160 H     1 <1>   0.0800 
 44 H        6.7130    10.2300     0.5760 H     1 <1>   0.0800 
 45 H        8.4000     8.4220     0.0850 H     1 <1>   0.0800 
 46 H        8.4310     8.1590    -1.6350 H     1 <1>   0.0800 
 47 H        9.5950     6.0500    -1.5700 H     1 <1>   0.0800 
 48 H        9.7490     6.0580     0.1720 H     1 <1>   0.0800 
@<TRIPOS>BOND
  1   1   2  2   
  2   2   3  1   
  3   2   4  1   
  4   3   5  ar  
  5   3   6  ar  
  6   4   7  1   
  7   4  27  1   
  8   4  28  1   
  9   5   7  1   
 10   5   8  ar  
 11   6   9  ar  
 12   6  29  1   
 13   7  30  1   
 14   7  31  1   
 15   8  10  1   
 16   8  11  ar  
 17   9  11  ar  
 18   9  32  1   
 19  10  12  2   
 20  10  13  am  
 21  11  33  1   
 22  13  14  1   
 23  13  15  1   
 24  14  16  1   
 25  14  17  1   
 26  14  34  1   
 27  15  18  1   
 28  15  35  1   
 29  15  36  1   
 30  16  19  1   
 31  16  37  1   
 32  16  38  1   
 33  17  20  1   
 34  17  39  1   
 35  17  40  1   
 36  18  21  1   
 37  18  22  1   
 38  18  41  1   
 39  19  21  1   
 40  20  22  1   
 41  20  23  1   
 42  20  42  1   
 43  21  43  1   
 44  21  44  1   
 45  22  45  1   
 46  22  46  1   
 47  23  24  1   
 48  23  47  1   
 49  23  48  1   
 50  24  25  ar  
 51  24  26  ar  
@<TRIPOS>SUBSTRUCTURE
  1 ****  13 GROUP 4 **** **** 0

# MOE 2024.06 (io_trps.svl 2023.06)
