@<TRIPOS>MOLECULE
NONAME
45 46 1 0 0 
SMALL
USER_CHARGES


@<TRIPOS>ATOM
  1 S        0.4150     0.2180     0.9210 S.o2  1 <1>   1.3330 
  2 O       -0.7040     0.3560     1.8260 O.2   1 <1>  -0.6500 
  3 O        1.7650     0.2880     1.4320 O.2   1 <1>  -0.6500 
  4 N        0.2510    -1.2510     0.0870 N.am  1 <1>  -0.8490 
  5 C        0.2190     1.4380    -0.3770 C.3   1 <1>  -0.0550 
  6 C        1.4950    -1.7060    -0.5440 C.3   1 <1>   0.1160 
  7 C       -0.2940    -2.3140     0.9370 C.3   1 <1>   0.1160 
  8 C        0.2100     2.8850     0.1440 C.3   1 <1>  -0.0800 
  9 C       -0.0420     3.8970    -0.9710 C.3   1 <1>   0.2000 
 10 C        1.5300     3.3410     0.7700 C.3   1 <1>   0.1400 
 11 O       -1.4020     4.0150    -1.2030 O.3   1 <1>  -0.6800 
 12 C        0.5700     5.2100    -0.4840 C.3   1 <1>   0.1400 
 13 N        1.5770     4.8010     0.5250 N.am  1 <1>  -0.6600 
 14 C        2.4500     5.6480     1.1670 C.2   1 <1>   0.5440 
 15 O        3.2280     5.1810     1.9770 O.2   1 <1>  -0.5700 
 16 C        2.4480     7.0710     0.9220 C.ar  1 <1>   0.0860 
 17 C        2.9110     7.6240    -0.2780 C.ar  1 <1>   0.0820 
 18 C        1.9720     7.9440     1.9050 C.ar  1 <1>  -0.1500 
 19 O        3.3970     6.8390    -1.2670 O.3   1 <1>  -0.3630 
 20 C        2.8510     9.0020    -0.4560 C.ar  1 <1>   0.1900 
 21 C        1.9270     9.3140     1.7110 C.ar  1 <1>  -0.1500 
 22 C        4.7050     6.3350    -1.1030 C.3   1 <1>   0.0400 
 23 F        3.2690     9.5270    -1.5800 F     1 <1>  -0.1900 
 24 C        2.3670     9.8550     0.5150 C.ar  1 <1>  -0.1500 
 25 H        1.0050     1.3230    -1.0970 H     1 <1>   0.0800 
 26 H       -0.7120     1.2530    -0.8770 H     1 <1>   0.0800 
 27 H        1.3100    -2.5900    -1.1300 H     1 <1>   0.0800 
 28 H        2.2370    -1.9300     0.2050 H     1 <1>   0.0800 
 29 H        1.8830    -0.9420    -1.1950 H     1 <1>   0.0800 
 30 H       -0.4000    -3.2260     0.3740 H     1 <1>   0.0800 
 31 H       -1.2680    -2.0310     1.3020 H     1 <1>   0.0800 
 32 H        0.3540    -2.4890     1.7790 H     1 <1>   0.0800 
 33 H       -0.5510     2.9880     0.8990 H     1 <1>   0.0800 
 34 H        0.4350     3.5980    -1.8900 H     1 <1>   0.0800 
 35 H        2.3750     2.8800     0.2860 H     1 <1>   0.0800 
 36 H        1.5670     3.1270     1.8260 H     1 <1>   0.0800 
 37 H       -1.8730     4.2380    -0.3760 H     1 <1>   0.4000 
 38 H       -0.1710     5.8340    -0.0150 H     1 <1>   0.0800 
 39 H        1.0390     5.7330    -1.2990 H     1 <1>   0.0800 
 40 H        1.6330     7.5270     2.8380 H     1 <1>   0.1500 
 41 H        1.5520     9.9600     2.4880 H     1 <1>   0.1500 
 42 H        4.9630     5.7770    -1.9850 H     1 <1>   0.0800 
 43 H        4.7370     5.6910    -0.2420 H     1 <1>   0.0800 
 44 H        5.3830     7.1610    -0.9790 H     1 <1>   0.0800 
 45 H        2.3400    10.9160     0.3390 H     1 <1>   0.1500 
@<TRIPOS>BOND
  1   1   2  2   
  2   1   3  2   
  3   1   4  am  
  4   1   5  1   
  5   4   6  1   
  6   4   7  1   
  7   5   8  1   
  8   5  25  1   
  9   5  26  1   
 10   6  27  1   
 11   6  28  1   
 12   6  29  1   
 13   7  30  1   
 14   7  31  1   
 15   7  32  1   
 16   8   9  1   
 17   8  10  1   
 18   8  33  1   
 19   9  11  1   
 20   9  12  1   
 21   9  34  1   
 22  10  13  1   
 23  10  35  1   
 24  10  36  1   
 25  11  37  1   
 26  12  13  1   
 27  12  38  1   
 28  12  39  1   
 29  13  14  am  
 30  14  15  2   
 31  14  16  1   
 32  16  17  ar  
 33  16  18  ar  
 34  17  19  1   
 35  17  20  ar  
 36  18  21  ar  
 37  18  40  1   
 38  19  22  1   
 39  20  23  1   
 40  20  24  ar  
 41  21  24  ar  
 42  21  41  1   
 43  22  42  1   
 44  22  43  1   
 45  22  44  1   
 46  24  45  1   
@<TRIPOS>SUBSTRUCTURE
  1 ****  13 GROUP 4 **** **** 0

# MOE 2024.06 (io_trps.svl 2023.06)
