@<TRIPOS>MOLECULE
NONAME
47 49 1 0 0 
SMALL
USER_CHARGES


@<TRIPOS>ATOM
  1 S       -0.6790     0.7220     2.2970 S.o2  1 <1>   1.2040 
  2 O       -0.5550    -0.2560     3.3550 O.2   1 <1>  -0.6500 
  3 O       -1.5350     1.8750     2.4820 O.2   1 <1>  -0.6500 
  4 C       -1.1310    -0.1240     0.7620 C.ar  1 <1>  -0.0090 
  5 C        0.9640     1.3100     1.9240 C.3   1 <1>  -0.0550 
  6 C       -1.9300     0.4930    -0.1940 C.ar  1 <1>  -0.1500 
  7 C       -0.6600    -1.4030     0.4880 C.ar  1 <1>  -0.1500 
  8 C        0.9600     2.3460     0.8030 C.3   1 <1>   0.1100 
  9 C       -2.2420    -0.1380    -1.3860 C.ar  1 <1>  -0.1500 
 10 C       -0.9670    -2.0420    -0.7010 C.ar  1 <1>  -0.1500 
 11 N        2.3360     2.7670     0.5180 N.3   1 <1>  -0.8100 
 12 C       -1.7580    -1.4080    -1.6410 C.ar  1 <1>  -0.1500 
 13 C        2.3550     4.1320    -0.0440 C.3   1 <1>   0.1100 
 14 C        3.0240     1.8270    -0.3860 C.3   1 <1>   0.1100 
 15 C        3.7990     4.6360    -0.1960 C.3   1 <1>  -0.0190 
 16 C        4.4890     2.2380    -0.5550 C.3   1 <1>  -0.1600 
 17 C        3.8360     6.0620    -0.7580 C.2   1 <1>   0.4230 
 18 C        4.6110     3.6730    -1.0820 C.3   1 <1>  -0.1600 
 19 O        2.9650     6.3760    -1.5370 O.2   1 <1>  -0.5700 
 20 C        4.8990     6.9730    -0.3550 C.ar  1 <1>   0.3960 
 21 N        5.8900     6.5370     0.4420 N.ar  1 <1>  -0.6200 
 22 C        4.8750     8.2950    -0.8090 C.ar  1 <1>  -0.1500 
 23 C        6.8280     7.4030     0.7760 C.ar  1 <1>   0.1600 
 24 C        5.8580     9.1920    -0.4550 C.ar  1 <1>  -0.1500 
 25 C        6.8610     8.7220     0.3630 C.ar  1 <1>  -0.1500 
 26 H        1.5840     0.4800     1.6520 H     1 <1>   0.0800 
 27 H        1.3820     1.7660     2.8010 H     1 <1>   0.0800 
 28 H       -2.3180     1.4810    -0.0040 H     1 <1>   0.1500 
 29 H       -0.0490    -1.9110     1.2160 H     1 <1>   0.1500 
 30 H        0.3810     3.1930     1.1350 H     1 <1>   0.0800 
 31 H        0.5020     1.9580    -0.0910 H     1 <1>   0.0800 
 32 H       -2.8620     0.3580    -2.1130 H     1 <1>   0.1500 
 33 H       -0.5940    -3.0340    -0.8940 H     1 <1>   0.1500 
 34 H       -2.0000    -1.9020    -2.5670 H     1 <1>   0.1500 
 35 H        1.8260     4.8010     0.6140 H     1 <1>   0.0800 
 36 H        1.8590     4.1390    -1.0010 H     1 <1>   0.0800 
 37 H        2.5350     1.8190    -1.3460 H     1 <1>   0.0800 
 38 H        2.9900     0.8310     0.0200 H     1 <1>   0.0800 
 39 H        4.2250     4.6400     0.7910 H     1 <1>   0.0800 
 40 H        4.9740     1.5610    -1.2360 H     1 <1>   0.0800 
 41 H        4.9830     2.1570     0.3980 H     1 <1>   0.0800 
 42 H        5.6450     3.9700    -1.0940 H     1 <1>   0.0800 
 43 H        4.2360     3.7170    -2.0900 H     1 <1>   0.0800 
 44 H        4.0710     8.6150    -1.4470 H     1 <1>   0.1500 
 45 H        7.6180     7.0450     1.4160 H     1 <1>   0.1500 
 46 H        5.8440    10.2110    -0.8020 H     1 <1>   0.1500 
 47 H        7.6600     9.3690     0.6780 H     1 <1>   0.1500 
@<TRIPOS>BOND
  1   1   2  2   
  2   1   3  2   
  3   1   4  1   
  4   1   5  1   
  5   4   6  ar  
  6   4   7  ar  
  7   5   8  1   
  8   5  26  1   
  9   5  27  1   
 10   6   9  ar  
 11   6  28  1   
 12   7  10  ar  
 13   7  29  1   
 14   8  11  1   
 15   8  30  1   
 16   8  31  1   
 17   9  12  ar  
 18   9  32  1   
 19  10  12  ar  
 20  10  33  1   
 21  11  13  1   
 22  11  14  1   
 23  12  34  1   
 24  13  15  1   
 25  13  35  1   
 26  13  36  1   
 27  14  16  1   
 28  14  37  1   
 29  14  38  1   
 30  15  17  1   
 31  15  18  1   
 32  15  39  1   
 33  16  18  1   
 34  16  40  1   
 35  16  41  1   
 36  17  19  2   
 37  17  20  1   
 38  18  42  1   
 39  18  43  1   
 40  20  21  ar  
 41  20  22  ar  
 42  21  23  ar  
 43  22  24  ar  
 44  22  44  1   
 45  23  25  ar  
 46  23  45  1   
 47  24  25  ar  
 48  24  46  1   
 49  25  47  1   
@<TRIPOS>SUBSTRUCTURE
  1 ****  11 GROUP 4 **** **** 0

# MOE 2024.06 (io_trps.svl 2023.06)
