@<TRIPOS>MOLECULE
NONAME
51 53 1 0 0 
SMALL
USER_CHARGES


@<TRIPOS>ATOM
  1 S       -0.0310     0.0430     0.6120 S.o2  1 <1>   1.3330 
  2 O        1.1820     0.0340     1.3980 O.2   1 <1>  -0.6500 
  3 O       -1.3130     0.1200     1.2750 O.2   1 <1>  -0.6500 
  4 N       -0.0200    -1.3370    -0.3770 N.am  1 <1>  -0.8490 
  5 C        0.0470     1.3830    -0.5730 C.3   1 <1>  -0.0550 
  6 C        1.3270    -1.7580    -0.7760 C.3   1 <1>   0.1160 
  7 C       -0.7340    -2.4630     0.2330 C.3   1 <1>   0.1160 
  8 C       -0.0390     2.7720     0.0810 C.3   1 <1>  -0.0800 
  9 C       -0.1120     3.8960    -0.9470 C.3   1 <1>   0.2000 
 10 C        1.1740     3.1380     0.9410 C.3   1 <1>   0.1400 
 11 O       -1.4130     4.0440    -1.3990 O.3   1 <1>  -0.6800 
 12 C        0.3860     5.1390    -0.2160 C.3   1 <1>   0.1400 
 13 N        1.2970     4.6140     0.8320 N.am  1 <1>  -0.6600 
 14 C        2.4010     5.2910     1.3020 C.2   1 <1>   0.5440 
 15 O        3.3160     4.6460     1.7760 O.2   1 <1>  -0.5700 
 16 C        2.4970     6.7350     1.2170 C.ar  1 <1>   0.0860 
 17 C        3.6450     7.3450     0.7390 C.ar  1 <1>  -0.1500 
 18 C        1.4240     7.5600     1.6180 C.ar  1 <1>  -0.1500 
 19 C        3.7280     8.7340     0.6310 C.ar  1 <1>   0.0000 
 20 C        1.4850     8.9290     1.5220 C.ar  1 <1>  -0.1500 
 21 C        2.6470     9.5170     1.0190 C.ar  1 <1>  -0.1520 
 22 C        4.7290     9.6270     0.1850 C.2   1 <1>  -0.1810 
 23 N        2.9740    10.8290     0.8160 N.pl3 1 <1>   0.0330 
 24 C        4.2430    10.8870     0.3080 C.2   1 <1>  -0.3320 
 25 C        6.0790     9.1560    -0.3220 C.3   1 <1>  -0.0590 
 26 C        4.8870    12.2230    -0.0200 C.3   1 <1>  -0.0600 
 27 H        0.9540     1.3100    -1.1410 H     1 <1>   0.0800 
 28 H       -0.7750     1.2790    -1.2560 H     1 <1>   0.0800 
 29 H        1.2680    -2.5770    -1.4720 H     1 <1>   0.0800 
 30 H        1.8950    -2.0700     0.0860 H     1 <1>   0.0800 
 31 H        1.8450    -0.9440    -1.2540 H     1 <1>   0.0800 
 32 H       -0.7220    -3.3140    -0.4250 H     1 <1>   0.0800 
 33 H       -1.7610    -2.1940     0.4150 H     1 <1>   0.0800 
 34 H       -0.2760    -2.7320     1.1710 H     1 <1>   0.0800 
 35 H       -0.9070     2.8160     0.7170 H     1 <1>   0.0800 
 36 H        0.5220     3.6960    -1.7950 H     1 <1>   0.0800 
 37 H        2.0740     2.6820     0.5620 H     1 <1>   0.0800 
 38 H        1.0390     2.8450     1.9690 H     1 <1>   0.0800 
 39 H       -2.0280     4.1510    -0.6470 H     1 <1>   0.4000 
 40 H       -0.4310     5.6580     0.2530 H     1 <1>   0.0800 
 41 H        0.9110     5.7960    -0.8880 H     1 <1>   0.0800 
 42 H        4.4880     6.7470     0.4450 H     1 <1>   0.1500 
 43 H        0.5430     7.0880     2.0150 H     1 <1>   0.1500 
 44 H        0.6610     9.5480     1.8300 H     1 <1>   0.1500 
 45 H        2.3680    11.6280     1.0200 H     1 <1>   0.2700 
 46 H        5.9420     8.5150    -1.1740 H     1 <1>   0.0800 
 47 H        6.5830     8.6050     0.4510 H     1 <1>   0.0800 
 48 H        6.6960     9.9850    -0.6110 H     1 <1>   0.0800 
 49 H        5.8790    12.0890    -0.4090 H     1 <1>   0.0800 
 50 H        4.9490    12.8290     0.8660 H     1 <1>   0.0800 
 51 H        4.3020    12.7420    -0.7580 H     1 <1>   0.0800 
@<TRIPOS>BOND
  1   1   2  2   
  2   1   3  2   
  3   1   4  am  
  4   1   5  1   
  5   4   6  1   
  6   4   7  1   
  7   5   8  1   
  8   5  27  1   
  9   5  28  1   
 10   6  29  1   
 11   6  30  1   
 12   6  31  1   
 13   7  32  1   
 14   7  33  1   
 15   7  34  1   
 16   8   9  1   
 17   8  10  1   
 18   8  35  1   
 19   9  11  1   
 20   9  12  1   
 21   9  36  1   
 22  10  13  1   
 23  10  37  1   
 24  10  38  1   
 25  11  39  1   
 26  12  13  1   
 27  12  40  1   
 28  12  41  1   
 29  13  14  am  
 30  14  15  2   
 31  14  16  1   
 32  16  17  ar  
 33  16  18  ar  
 34  17  19  ar  
 35  17  42  1   
 36  18  20  ar  
 37  18  43  1   
 38  19  21  ar  
 39  19  22  1   
 40  20  21  ar  
 41  20  44  1   
 42  21  23  1   
 43  22  24  2   
 44  22  25  1   
 45  23  24  1   
 46  23  45  1   
 47  24  26  1   
 48  25  46  1   
 49  25  47  1   
 50  25  48  1   
 51  26  49  1   
 52  26  50  1   
 53  26  51  1   
@<TRIPOS>SUBSTRUCTURE
  1 ****  13 GROUP 4 **** **** 0

# MOE 2024.06 (io_trps.svl 2023.06)
