@<TRIPOS>MOLECULE
NONAME
51 53 1 0 0 
SMALL
USER_CHARGES


@<TRIPOS>ATOM
  1 O       -1.7460     0.9380    -1.8050 O.2   1 <1>  -0.5700 
  2 C       -1.8830     1.0560    -0.6120 C.2   1 <1>   0.5690 
  3 N       -2.2030    -0.0040     0.1770 N.am  1 <1>  -0.7300 
  4 C       -1.6360     2.4430     0.0070 C.3   1 <1>   0.4040 
  5 C       -2.3870    -1.3980    -0.2980 C.3   1 <1>   0.2200 
  6 N       -0.1730     2.8040     0.1800 N.4   1 <1>  -0.9590 
  7 C       -3.8060    -1.8520     0.0240 C.3   1 <1>  -0.0800 
  8 C       -1.5720    -2.3190     0.5980 C.3   1 <1>   0.1200 
  9 C       -0.0130     4.0990     0.9010 C.3   1 <1>   0.3430 
 10 C        0.5310     2.8180    -1.1410 C.3   1 <1>   0.3430 
 11 C       -3.6800    -2.3840     1.4620 C.3   1 <1>   0.1200 
 12 C       -4.2870    -2.9370    -0.9590 C.3   1 <1>  -0.0170 
 13 O       -2.3160    -2.3960     1.7700 O.3   1 <1>  -0.5600 
 14 C        1.4710     4.3640     1.1570 C.3   1 <1>  -0.1600 
 15 C        2.0240     3.0650    -0.9260 C.3   1 <1>  -0.1600 
 16 C       -5.6930    -3.4140    -0.6270 C.ar  1 <1>  -0.1430 
 17 C        2.2800     4.3630    -0.1480 C.3   1 <1>  -0.0800 
 18 C       -6.8070    -2.6490    -0.9130 C.ar  1 <1>  -0.1500 
 19 C       -5.9320    -4.6350    -0.0280 C.ar  1 <1>  -0.1500 
 20 C        3.7740     4.5320     0.1430 C.3   1 <1>  -0.2400 
 21 C       -8.0670    -3.1250    -0.5880 C.ar  1 <1>   0.1600 
 22 C       -7.2330    -5.0170     0.2550 C.ar  1 <1>   0.1600 
 23 N       -8.3060    -4.2900    -0.0080 N.ar  1 <1>  -0.6200 
 24 H       -2.3010     0.0600     1.1960 H     1 <1>   0.3700 
 25 H       -2.1280     2.4730     0.9630 H     1 <1>   0.0800 
 26 H       -2.1090     3.1710    -0.6290 H     1 <1>   0.0800 
 27 H       -2.1270    -1.4940    -1.3400 H     1 <1>   0.0800 
 28 H        0.2780     2.0710     0.7430 H     1 <1>   0.4500 
 29 H       -4.4960    -1.0280    -0.0170 H     1 <1>   0.0800 
 30 H       -0.5890    -1.9390     0.8130 H     1 <1>   0.0800 
 31 H       -1.5000    -3.3090     0.1800 H     1 <1>   0.0800 
 32 H       -0.4220     4.9020     0.3080 H     1 <1>   0.0800 
 33 H       -0.5380     4.0700     1.8430 H     1 <1>   0.0800 
 34 H        0.3980     1.8750    -1.6490 H     1 <1>   0.0800 
 35 H        0.1230     3.5950    -1.7670 H     1 <1>   0.0800 
 36 H       -4.0570    -3.3870     1.5670 H     1 <1>   0.0800 
 37 H       -4.1770    -1.7420     2.1670 H     1 <1>   0.0800 
 38 H       -3.6130    -3.7760    -0.9480 H     1 <1>   0.0800 
 39 H       -4.2880    -2.5390    -1.9600 H     1 <1>   0.0800 
 40 H        1.5740     5.3210     1.6390 H     1 <1>   0.0800 
 41 H        1.8540     3.6210     1.8350 H     1 <1>   0.0800 
 42 H        2.4500     2.2250    -0.4050 H     1 <1>   0.0800 
 43 H        2.5060     3.1230    -1.8870 H     1 <1>   0.0800 
 44 H        1.9600     5.1960    -0.7540 H     1 <1>   0.0800 
 45 H       -6.7100    -1.6900    -1.3850 H     1 <1>   0.1500 
 46 H       -5.1220    -5.2960     0.2220 H     1 <1>   0.1500 
 47 H        4.1460     3.7220     0.7460 H     1 <1>   0.0800 
 48 H        3.9530     5.4560     0.6660 H     1 <1>   0.0800 
 49 H        4.3350     4.5570    -0.7760 H     1 <1>   0.0800 
 50 H       -8.9240    -2.5150    -0.8190 H     1 <1>   0.1500 
 51 H       -7.3990    -5.9720     0.7240 H     1 <1>   0.1500 
@<TRIPOS>BOND
  1   1   2  2   
  2   2   3  am  
  3   2   4  1   
  4   3   5  1   
  5   3  24  1   
  6   4   6  1   
  7   4  25  1   
  8   4  26  1   
  9   5   7  1   
 10   5   8  1   
 11   5  27  1   
 12   6   9  1   
 13   6  10  1   
 14   6  28  1   
 15   7  11  1   
 16   7  12  1   
 17   7  29  1   
 18   8  13  1   
 19   8  30  1   
 20   8  31  1   
 21   9  14  1   
 22   9  32  1   
 23   9  33  1   
 24  10  15  1   
 25  10  34  1   
 26  10  35  1   
 27  11  13  1   
 28  11  36  1   
 29  11  37  1   
 30  12  16  1   
 31  12  38  1   
 32  12  39  1   
 33  14  17  1   
 34  14  40  1   
 35  14  41  1   
 36  15  17  1   
 37  15  42  1   
 38  15  43  1   
 39  16  18  ar  
 40  16  19  ar  
 41  17  20  1   
 42  17  44  1   
 43  18  21  ar  
 44  18  45  1   
 45  19  22  ar  
 46  19  46  1   
 47  20  47  1   
 48  20  48  1   
 49  20  49  1   
 50  21  23  ar  
 51  21  50  1   
 52  22  23  ar  
 53  22  51  1   
@<TRIPOS>SUBSTRUCTURE
  1 ****   3 GROUP 4 **** **** 0

# MOE 2024.06 (io_trps.svl 2023.06)
