@<TRIPOS>MOLECULE
NONAME
57 61 1 0 0 
SMALL
USER_CHARGES


@<TRIPOS>ATOM
  1 O       -0.6140    -0.5590     0.3480 O.3   1 <1>  -0.5600 
  2 C        0.3730    -1.5650     0.4470 C.3   1 <1>   0.2800 
  3 C       -1.9210    -0.8900    -0.0430 C.3   1 <1>   0.1200 
  4 C       -0.2710    -2.9860     0.3840 C.3   1 <1>   0.2000 
  5 C        1.0290    -1.3260     1.8250 C.3   1 <1>  -0.1600 
  6 C        1.3600    -1.2930    -0.7170 C.3   1 <1>  -0.1600 
  7 C       -1.8920    -1.8590    -1.2270 C.3   1 <1>  -0.1600 
  8 O        0.6580    -4.0280     0.4990 O.3   1 <1>  -0.6800 
  9 C       -1.2260    -3.1860    -0.8310 C.3   1 <1>   0.2800 
 10 C        2.4170    -1.9640     1.9600 C.3   1 <1>   0.2090 
 11 C        2.7130    -0.7700    -0.2470 C.3   1 <1>   0.2090 
 12 O       -2.2290    -4.0320    -0.4040 O.3   1 <1>  -0.6800 
 13 C       -0.6290    -3.8790    -2.0660 C.3   1 <1>  -0.2400 
 14 N        3.2460    -1.7380     0.7410 N.pl3 1 <1>  -0.8380 
 15 C        4.0630    -2.7380     0.2760 C.ar  1 <1>   0.4100 
 16 N        3.4870    -3.8350    -0.1090 N.ar  1 <1>  -0.6200 
 17 C        5.4580    -2.5420     0.1870 C.ar  1 <1>   0.0000 
 18 C        4.2690    -4.8010    -0.6370 C.ar  1 <1>   0.6200 
 19 C        6.1810    -3.5970    -0.3690 C.ar  1 <1>   0.3100 
 20 C        6.1500    -1.3900     0.6100 C.ar  1 <1>  -0.1500 
 21 N        5.5660    -4.7180    -0.7850 N.ar  1 <1>  -0.6200 
 22 C        3.5990    -6.0090    -1.0880 C.ar  1 <1>   0.0000 
 23 C        7.5720    -3.4790    -0.4970 C.ar  1 <1>  -0.1500 
 24 C        7.5120    -1.2930     0.4760 C.ar  1 <1>  -0.1500 
 25 C        3.9840    -6.6530    -2.2660 C.ar  1 <1>  -0.1500 
 26 C        2.5450    -6.5790    -0.3700 C.ar  1 <1>  -0.1500 
 27 C        8.2320    -2.3500    -0.0840 C.ar  1 <1>  -0.1500 
 28 C        3.3470    -7.7980    -2.7100 C.ar  1 <1>  -0.1500 
 29 C        1.9010    -7.7220    -0.8090 C.ar  1 <1>  -0.1500 
 30 C        2.3010    -8.3350    -1.9820 C.ar  1 <1>  -0.1500 
 31 H       -2.4320    -1.3260     0.7990 H     1 <1>   0.0800 
 32 H       -2.4210     0.0240    -0.3140 H     1 <1>   0.0800 
 33 H       -0.8790    -3.0640     1.2680 H     1 <1>   0.0800 
 34 H        1.1380    -0.2680     1.9850 H     1 <1>   0.0800 
 35 H        0.3950    -1.7000     2.6070 H     1 <1>   0.0800 
 36 H        1.5600    -2.1970    -1.2560 H     1 <1>   0.0800 
 37 H        0.9390    -0.5930    -1.4150 H     1 <1>   0.0800 
 38 H       -1.3440    -1.3870    -2.0220 H     1 <1>   0.0800 
 39 H       -2.8890    -2.0370    -1.5880 H     1 <1>   0.0800 
 40 H        1.5520    -3.7470     0.1710 H     1 <1>   0.4000 
 41 H        2.3190    -3.0220     2.1400 H     1 <1>   0.0800 
 42 H        2.9240    -1.5400     2.8100 H     1 <1>   0.0800 
 43 H        2.6140     0.2020     0.2060 H     1 <1>   0.0800 
 44 H        3.3880    -0.6890    -1.0830 H     1 <1>   0.0800 
 45 H       -1.8070    -4.8620    -0.1050 H     1 <1>   0.4000 
 46 H        0.1270    -3.2710    -2.5220 H     1 <1>   0.0800 
 47 H       -1.3980    -4.0480    -2.8000 H     1 <1>   0.0800 
 48 H       -0.1870    -4.8240    -1.8050 H     1 <1>   0.0800 
 49 H        5.5860    -0.5830     1.0440 H     1 <1>   0.1500 
 50 H        8.1070    -4.3050    -0.9290 H     1 <1>   0.1500 
 51 H        8.0350    -0.4100     0.8010 H     1 <1>   0.1500 
 52 H        4.7970    -6.2460    -2.8420 H     1 <1>   0.1500 
 53 H        2.2240    -6.1180     0.5480 H     1 <1>   0.1500 
 54 H        9.3010    -2.2670    -0.1850 H     1 <1>   0.1500 
 55 H        3.6660    -8.2720    -3.6220 H     1 <1>   0.1500 
 56 H        1.0890    -8.1330    -0.2350 H     1 <1>   0.1500 
 57 H        1.8030    -9.2250    -2.3250 H     1 <1>   0.1500 
@<TRIPOS>BOND
  1   1   2  1   
  2   1   3  1   
  3   2   4  1   
  4   2   5  1   
  5   2   6  1   
  6   3   7  1   
  7   3  31  1   
  8   3  32  1   
  9   4   8  1   
 10   4   9  1   
 11   4  33  1   
 12   5  10  1   
 13   5  34  1   
 14   5  35  1   
 15   6  11  1   
 16   6  36  1   
 17   6  37  1   
 18   7   9  1   
 19   7  38  1   
 20   7  39  1   
 21   8  40  1   
 22   9  12  1   
 23   9  13  1   
 24  10  14  1   
 25  10  41  1   
 26  10  42  1   
 27  11  14  1   
 28  11  43  1   
 29  11  44  1   
 30  12  45  1   
 31  13  46  1   
 32  13  47  1   
 33  13  48  1   
 34  14  15  1   
 35  15  16  ar  
 36  15  17  ar  
 37  16  18  ar  
 38  17  19  ar  
 39  17  20  ar  
 40  18  21  ar  
 41  18  22  1   
 42  19  21  ar  
 43  19  23  ar  
 44  20  24  ar  
 45  20  49  1   
 46  22  25  ar  
 47  22  26  ar  
 48  23  27  ar  
 49  23  50  1   
 50  24  27  ar  
 51  24  51  1   
 52  25  28  ar  
 53  25  52  1   
 54  26  29  ar  
 55  26  53  1   
 56  27  54  1   
 57  28  30  ar  
 58  28  55  1   
 59  29  30  ar  
 60  29  56  1   
 61  30  57  1   
@<TRIPOS>SUBSTRUCTURE
  1 ****  16 GROUP 4 **** **** 0

# MOE 2024.06 (io_trps.svl 2023.06)
