@<TRIPOS>MOLECULE
NONAME
42 45 1 0 0 
SMALL
USER_CHARGES


@<TRIPOS>ATOM
  1 S       -0.2770     1.0200     2.3580 S.3   1 <1>  -0.0800 
  2 C       -0.0970     1.9780     0.9040 C.2   1 <1>  -0.1400 
  3 C        1.1900     1.7230     3.0250 C.2   1 <1>  -0.1100 
  4 C        0.9980     2.7480     0.9440 C.2   1 <1>  -0.1810 
  5 C       -1.0800     1.9200    -0.2330 C.3   1 <1>   0.0200 
  6 C        1.7360     2.6060     2.1660 C.2   1 <1>  -0.1500 
  7 C        1.3640     3.6580    -0.2310 C.3   1 <1>   0.4610 
  8 C       -0.8610     3.1780    -1.0870 C.3   1 <1>   0.1200 
  9 O        0.5090     3.4010    -1.3310 O.3   1 <1>  -0.5600 
 10 C        1.2380     5.1400     0.1570 C.3   1 <1>  -0.1600 
 11 C        2.7830     3.3520    -0.7220 C.3   1 <1>  -0.1600 
 12 C        1.6790     6.0540    -0.9880 C.3   1 <1>   0.1400 
 13 C        3.2150     4.3010    -1.8420 C.3   1 <1>   0.1400 
 14 N        3.0780     5.7070    -1.3630 N.am  1 <1>  -0.6600 
 15 C        4.1710     6.5400    -1.2710 C.2   1 <1>   0.5690 
 16 O        5.2660     6.1740    -1.6390 O.2   1 <1>  -0.5700 
 17 C        4.0430     7.9690    -0.6910 C.3   1 <1>   0.2810 
 18 N        5.2510     8.8100    -0.8470 N.am  1 <1>  -0.7300 
 19 C        3.8130     7.9980     0.8360 C.3   1 <1>  -0.1600 
 20 C        5.6380     9.4200     0.2780 C.2   1 <1>   0.5690 
 21 C        4.6430     9.1780     1.3750 C.3   1 <1>  -0.0990 
 22 O        6.6600    10.0390     0.4160 O.2   1 <1>  -0.5700 
 23 H        1.4910     1.3940     4.0030 H     1 <1>   0.1500 
 24 H       -0.9110     1.0350    -0.8200 H     1 <1>   0.0800 
 25 H       -2.0880     1.9020     0.1410 H     1 <1>   0.0800 
 26 H        2.6370     3.1660     2.3460 H     1 <1>   0.1500 
 27 H       -1.2640     4.0420    -0.5900 H     1 <1>   0.0800 
 28 H       -1.3500     3.0700    -2.0390 H     1 <1>   0.0800 
 29 H        0.2270     5.3610     0.4410 H     1 <1>   0.0800 
 30 H        1.8570     5.3330     1.0130 H     1 <1>   0.0800 
 31 H        3.4810     3.4470     0.0880 H     1 <1>   0.0800 
 32 H        2.8250     2.3350    -1.0680 H     1 <1>   0.0800 
 33 H        1.5900     7.0810    -0.6900 H     1 <1>   0.0800 
 34 H        1.0400     5.9020    -1.8420 H     1 <1>   0.0800 
 35 H        2.5910     4.1580    -2.7080 H     1 <1>   0.0800 
 36 H        4.2300     4.0850    -2.1260 H     1 <1>   0.0800 
 37 H        3.2370     8.4720    -1.1940 H     1 <1>   0.0800 
 38 H        5.9300     8.5720    -1.5760 H     1 <1>   0.3700 
 39 H        2.7710     8.0950     1.0840 H     1 <1>   0.0800 
 40 H        4.1840     7.0810     1.2620 H     1 <1>   0.0800 
 41 H        5.1410     8.9350     2.2960 H     1 <1>   0.0800 
 42 H        4.0410    10.0600     1.4990 H     1 <1>   0.0800 
@<TRIPOS>BOND
  1   1   2  1   
  2   1   3  1   
  3   2   4  2   
  4   2   5  1   
  5   3   6  2   
  6   3  23  1   
  7   4   6  1   
  8   4   7  1   
  9   5   8  1   
 10   5  24  1   
 11   5  25  1   
 12   6  26  1   
 13   7   9  1   
 14   7  10  1   
 15   7  11  1   
 16   8   9  1   
 17   8  27  1   
 18   8  28  1   
 19  10  12  1   
 20  10  29  1   
 21  10  30  1   
 22  11  13  1   
 23  11  31  1   
 24  11  32  1   
 25  12  14  1   
 26  12  33  1   
 27  12  34  1   
 28  13  14  1   
 29  13  35  1   
 30  13  36  1   
 31  14  15  am  
 32  15  16  2   
 33  15  17  1   
 34  17  18  1   
 35  17  19  1   
 36  17  37  1   
 37  18  20  am  
 38  18  38  1   
 39  19  21  1   
 40  19  39  1   
 41  19  40  1   
 42  20  21  1   
 43  20  22  2   
 44  21  41  1   
 45  21  42  1   
@<TRIPOS>SUBSTRUCTURE
  1 ****  10 GROUP 4 **** **** 0

# MOE 2024.06 (io_trps.svl 2023.06)
