@<TRIPOS>MOLECULE
NONAME
52 55 1 0 0 
SMALL
USER_CHARGES


@<TRIPOS>ATOM
  1 O        0.5320    -0.6640     1.7690 O.2   1 <1>  -0.5700 
  2 C        1.4090    -0.9680     0.9890 C.2   1 <1>   0.5690 
  3 N        2.1320     0.0020     0.3280 N.am  1 <1>  -0.6600 
  4 C        1.6990    -2.4570     0.7900 C.3   1 <1>   0.2370 
  5 C        3.0840    -0.2750    -0.7950 C.3   1 <1>   0.1400 
  6 C        1.9100     1.4440     0.6360 C.3   1 <1>   0.1400 
  7 N        0.9760    -2.9250    -0.4120 N.pl3 1 <1>   0.3140 
  8 C        1.3680    -3.3290     2.0260 C.3   1 <1>  -0.1600 
  9 C        4.5290    -0.4130    -0.2900 C.3   1 <1>   0.1100 
 10 C        3.1960     2.2810     0.6060 C.3   1 <1>  -0.1600 
 11 N        1.6260    -3.4910    -1.4530 N.2   1 <1>  -0.7070 
 12 C       -0.3520    -2.8670    -0.6480 C.2   1 <1>  -0.3020 
 13 C        1.7860    -4.7980     1.8620 C.3   1 <1>  -0.2400 
 14 N        5.1540     0.8680     0.1040 N.3   1 <1>  -0.8100 
 15 C        4.4290     1.5730     1.1770 C.3   1 <1>   0.1100 
 16 C        0.6950    -3.7780    -2.3120 C.2   1 <1>   0.1390 
 17 C       -0.5660    -3.4090    -1.8640 C.2   1 <1>  -0.1500 
 18 C        6.5910     0.6660     0.4350 C.3   1 <1>   0.2900 
 19 C        7.4600     1.9100     0.2510 C.2   1 <1>   0.2980 
 20 O        7.3780     2.8790     1.1290 O.3   1 <1>  -0.0190 
 21 N        8.3080     2.0920    -0.6830 N.2   1 <1>  -0.5650 
 22 N        8.2360     3.7580     0.7120 N.2   1 <1>  -0.4100 
 23 C        8.7680     3.2880    -0.3450 C.2   1 <1>   0.4300 
 24 C        9.8310     3.9800    -1.1850 C.3   1 <1>  -0.0140 
 25 C       11.2720     3.5870    -1.0550 C.3   1 <1>  -0.2000 
 26 C       10.8180     4.9340    -0.5800 C.3   1 <1>  -0.2000 
 27 H        2.7470    -2.5660     0.5940 H     1 <1>   0.0800 
 28 H        3.0330     0.5120    -1.5270 H     1 <1>   0.0800 
 29 H        2.8040    -1.1800    -1.2980 H     1 <1>   0.0800 
 30 H        1.4790     1.5320     1.6190 H     1 <1>   0.0800 
 31 H        1.2000     1.8480    -0.0650 H     1 <1>   0.0800 
 32 H        0.3120    -3.2750     2.2320 H     1 <1>   0.0800 
 33 H        1.8790    -2.9180     2.8790 H     1 <1>   0.0800 
 34 H        5.1050    -0.8340    -1.0970 H     1 <1>   0.0800 
 35 H        4.5600    -1.1060     0.5320 H     1 <1>   0.0800 
 36 H        3.0130     3.1650     1.1890 H     1 <1>   0.0800 
 37 H        3.4020     2.6130    -0.3960 H     1 <1>   0.0800 
 38 H       -1.0520    -2.4470     0.0530 H     1 <1>   0.1500 
 39 H        1.2490    -5.2600     1.0510 H     1 <1>   0.0800 
 40 H        1.5700    -5.3450     2.7630 H     1 <1>   0.0800 
 41 H        2.8400    -4.8730     1.6610 H     1 <1>   0.0800 
 42 H        4.1540     0.8940     1.9680 H     1 <1>   0.0800 
 43 H        5.0600     2.3320     1.6030 H     1 <1>   0.0800 
 44 H        0.8890    -4.2490    -3.2620 H     1 <1>   0.1500 
 45 H       -1.4930    -3.5390    -2.3930 H     1 <1>   0.1500 
 46 H        6.9980    -0.0870    -0.2170 H     1 <1>   0.0800 
 47 H        6.6880     0.3080     1.4450 H     1 <1>   0.0800 
 48 H        9.4680     4.2020    -2.1720 H     1 <1>   0.1000 
 49 H       11.8650     3.5170    -1.9500 H     1 <1>   0.1000 
 50 H       11.5340     2.8400    -0.3250 H     1 <1>   0.1000 
 51 H       10.7700     5.1220     0.4790 H     1 <1>   0.1000 
 52 H       11.0960     5.8080    -1.1420 H     1 <1>   0.1000 
@<TRIPOS>BOND
  1   1   2  2   
  2   2   3  am  
  3   2   4  1   
  4   3   5  1   
  5   3   6  1   
  6   4   7  1   
  7   4   8  1   
  8   4  27  1   
  9   5   9  1   
 10   5  28  1   
 11   5  29  1   
 12   6  10  1   
 13   6  30  1   
 14   6  31  1   
 15   7  11  1   
 16   7  12  1   
 17   8  13  1   
 18   8  32  1   
 19   8  33  1   
 20   9  14  1   
 21   9  34  1   
 22   9  35  1   
 23  10  15  1   
 24  10  36  1   
 25  10  37  1   
 26  11  16  2   
 27  12  17  2   
 28  12  38  1   
 29  13  39  1   
 30  13  40  1   
 31  13  41  1   
 32  14  15  1   
 33  14  18  1   
 34  15  42  1   
 35  15  43  1   
 36  16  17  1   
 37  16  44  1   
 38  17  45  1   
 39  18  19  1   
 40  18  46  1   
 41  18  47  1   
 42  19  20  1   
 43  19  21  2   
 44  20  22  1   
 45  21  23  1   
 46  22  23  2   
 47  23  24  1   
 48  24  25  1   
 49  24  26  1   
 50  24  48  1   
 51  25  26  1   
 52  25  49  1   
 53  25  50  1   
 54  26  51  1   
 55  26  52  1   
@<TRIPOS>SUBSTRUCTURE
  1 ****   9 GROUP 4 **** **** 0

# MOE 2024.06 (io_trps.svl 2023.06)
