@<TRIPOS>MOLECULE
NONAME
21 21 1 0 0 
SMALL
USER_CHARGES


@<TRIPOS>ATOM
  1 N       -0.5400     0.4400    -1.2710 N.2   1 <1>  -0.7070 
  2 N       -1.1490     0.0320    -0.1420 N.pl3 1 <1>   0.3000 
  3 C       -0.4270     1.7260    -1.1350 C.2   1 <1>   0.1390 
  4 C       -1.4080     1.0640     0.6840 C.2   1 <1>  -0.3020 
  5 C       -0.9540     2.1780     0.0720 C.2   1 <1>  -0.1810 
  6 C       -0.9940     3.6140     0.5650 C.3   1 <1>   0.0210 
  7 C       -1.8990     4.5080    -0.3050 C.3   1 <1>  -0.0800 
  8 C       -1.8320     5.9630     0.1750 C.3   1 <1>  -0.2400 
  9 C       -3.3570     4.0250    -0.2910 C.3   1 <1>  -0.2400 
 10 H       -1.3730    -0.9550     0.0320 H     1 <1>   0.2700 
 11 H        0.0240     2.3610    -1.8780 H     1 <1>   0.1500 
 12 H       -1.8900     0.9510     1.6370 H     1 <1>   0.1500 
 13 H        0.0080     4.0030     0.5590 H     1 <1>   0.0800 
 14 H       -1.3450     3.6280     1.5820 H     1 <1>   0.0800 
 15 H       -1.5400     4.4710    -1.3200 H     1 <1>   0.0800 
 16 H       -2.1890     6.0470     1.1870 H     1 <1>   0.0800 
 17 H       -2.4380     6.5910    -0.4550 H     1 <1>   0.0800 
 18 H       -0.8200     6.3250     0.1350 H     1 <1>   0.0800 
 19 H       -3.7470     4.0240     0.7120 H     1 <1>   0.0800 
 20 H       -3.4270     3.0270    -0.6870 H     1 <1>   0.0800 
 21 H       -3.9690     4.6680    -0.8980 H     1 <1>   0.0800 
@<TRIPOS>BOND
  1   1   2  1   
  2   1   3  2   
  3   2   4  1   
  4   2  10  1   
  5   3   5  1   
  6   3  11  1   
  7   4   5  2   
  8   4  12  1   
  9   5   6  1   
 10   6   7  1   
 11   6  13  1   
 12   6  14  1   
 13   7   8  1   
 14   7   9  1   
 15   7  15  1   
 16   8  16  1   
 17   8  17  1   
 18   8  18  1   
 19   9  19  1   
 20   9  20  1   
 21   9  21  1   
@<TRIPOS>SUBSTRUCTURE
  1 ****   5 GROUP 4 **** **** 0

# MOE 2024.06 (io_trps.svl 2023.06)
