@<TRIPOS>MOLECULE
NONAME
49 51 1 0 0 
SMALL
USER_CHARGES


@<TRIPOS>ATOM
  1 S       -0.2920     0.1390     1.4980 S.3   1 <1>  -0.0800 
  2 C        0.6380    -1.0490     0.6190 C.2   1 <1>  -0.0450 
  3 C        0.5910     1.4170     0.6980 C.2   1 <1>   0.1980 
  4 C        1.5160    -0.3760    -0.1590 C.2   1 <1>   0.0460 
  5 C        0.3580    -2.4440     0.8110 C.2   1 <1>   0.7150 
  6 N        1.4750     1.0000    -0.1210 N.2   1 <1>  -0.5650 
  7 C        0.2100     2.8500     1.0620 C.3   1 <1>   0.1000 
  8 C        2.5590    -0.9930    -1.0670 C.3   1 <1>  -0.0590 
  9 O        0.5070    -2.9510     1.9070 O.2   1 <1>  -0.5700 
 10 N       -0.0820    -3.2110    -0.2430 N.am  1 <1>  -0.6600 
 11 C       -1.0700     3.2700     0.3270 C.3   1 <1>  -0.2400 
 12 C        1.3420     3.8380     0.7450 C.3   1 <1>  -0.2400 
 13 C       -0.0550    -4.7080    -0.1320 C.3   1 <1>   0.3640 
 14 C       -0.7940    -2.5770    -1.3950 C.3   1 <1>   0.1400 
 15 C        1.3560    -5.1960    -0.4690 C.ar  1 <1>  -0.1440 
 16 C       -1.1050    -5.4640    -1.0020 C.3   1 <1>   0.2000 
 17 C       -1.4390    -3.5850    -2.3540 C.3   1 <1>   0.1200 
 18 C        1.9760    -4.8710    -1.6690 C.ar  1 <1>  -0.1500 
 19 C        2.0400    -5.9850     0.4450 C.ar  1 <1>  -0.1500 
 20 O       -2.0290    -4.6150    -1.6300 O.3   1 <1>  -0.5600 
 21 C       -1.9140    -6.4770    -0.1800 C.3   1 <1>   0.1200 
 22 C        3.2500    -5.3310    -1.9520 C.ar  1 <1>  -0.1500 
 23 C        3.3140    -6.4450     0.1650 C.ar  1 <1>  -0.1500 
 24 O       -1.0770    -7.4230     0.4050 O.3   1 <1>  -0.6800 
 25 C        3.9210    -6.1190    -1.0340 C.ar  1 <1>  -0.1500 
 26 H        0.0270     2.8840     2.1220 H     1 <1>   0.0800 
 27 H        2.5500    -2.0650    -0.9910 H     1 <1>   0.0800 
 28 H        3.5340    -0.6380    -0.7840 H     1 <1>   0.0800 
 29 H        2.3700    -0.7080    -2.0850 H     1 <1>   0.0800 
 30 H       -0.9160     3.2270    -0.7370 H     1 <1>   0.0800 
 31 H       -1.3470     4.2730     0.5990 H     1 <1>   0.0800 
 32 H       -1.8800     2.6100     0.5840 H     1 <1>   0.0800 
 33 H        1.5500     3.8420    -0.3100 H     1 <1>   0.0800 
 34 H        2.2380     3.5460     1.2650 H     1 <1>   0.0800 
 35 H        1.0740     4.8320     1.0530 H     1 <1>   0.0800 
 36 H       -0.2530    -4.9680     0.8940 H     1 <1>   0.0800 
 37 H       -1.5690    -1.9380    -1.0080 H     1 <1>   0.0800 
 38 H       -0.1090    -1.9580    -1.9470 H     1 <1>   0.0800 
 39 H       -0.5990    -6.0010    -1.7840 H     1 <1>   0.0800 
 40 H       -0.7150    -4.0020    -3.0320 H     1 <1>   0.0800 
 41 H       -2.2080    -3.1030    -2.9310 H     1 <1>   0.0800 
 42 H        1.4730    -4.2550    -2.3900 H     1 <1>   0.1500 
 43 H        1.5800    -6.2430     1.3850 H     1 <1>   0.1500 
 44 H       -2.6190    -6.9940    -0.8070 H     1 <1>   0.0800 
 45 H       -2.4420    -5.9730     0.6120 H     1 <1>   0.0800 
 46 H        3.7230    -5.0750    -2.8840 H     1 <1>   0.1500 
 47 H        3.8330    -7.0550     0.8840 H     1 <1>   0.1500 
 48 H       -0.6490    -7.9840    -0.2730 H     1 <1>   0.4000 
 49 H        4.9120    -6.4770    -1.2510 H     1 <1>   0.1500 
@<TRIPOS>BOND
  1   1   2  1   
  2   1   3  1   
  3   2   4  2   
  4   2   5  1   
  5   3   6  2   
  6   3   7  1   
  7   4   6  1   
  8   4   8  1   
  9   5   9  2   
 10   5  10  am  
 11   7  11  1   
 12   7  12  1   
 13   7  26  1   
 14   8  27  1   
 15   8  28  1   
 16   8  29  1   
 17  10  13  1   
 18  10  14  1   
 19  11  30  1   
 20  11  31  1   
 21  11  32  1   
 22  12  33  1   
 23  12  34  1   
 24  12  35  1   
 25  13  15  1   
 26  13  16  1   
 27  13  36  1   
 28  14  17  1   
 29  14  37  1   
 30  14  38  1   
 31  15  18  ar  
 32  15  19  ar  
 33  16  20  1   
 34  16  21  1   
 35  16  39  1   
 36  17  20  1   
 37  17  40  1   
 38  17  41  1   
 39  18  22  ar  
 40  18  42  1   
 41  19  23  ar  
 42  19  43  1   
 43  21  24  1   
 44  21  44  1   
 45  21  45  1   
 46  22  25  ar  
 47  22  46  1   
 48  23  25  ar  
 49  23  47  1   
 50  24  48  1   
 51  25  49  1   
@<TRIPOS>SUBSTRUCTURE
  1 ****  10 GROUP 4 **** **** 0

# MOE 2024.06 (io_trps.svl 2023.06)
