@<TRIPOS>MOLECULE
NONAME
43 45 1 0 0 
SMALL
USER_CHARGES


@<TRIPOS>ATOM
  1 F       -1.7580    -1.0510     2.4080 F     1 <1>  -0.1900 
  2 C       -2.3920    -1.3460     1.3050 C.ar  1 <1>   0.1900 
  3 C       -2.3990    -2.6570     0.8690 C.ar  1 <1>  -0.1500 
  4 C       -3.0370    -0.3350     0.6200 C.ar  1 <1>  -0.1500 
  5 C       -3.0820    -2.9730    -0.3000 C.ar  1 <1>  -0.1430 
  6 C       -3.7170    -0.6500    -0.5430 C.ar  1 <1>  -0.1500 
  7 C       -3.7450    -1.9680    -1.0020 C.ar  1 <1>   0.0830 
  8 C       -3.1270    -4.4090    -0.8320 C.3   1 <1>   0.4610 
  9 O       -4.4200    -2.3370    -2.1210 O.3   1 <1>  -0.3620 
 10 N       -4.2230    -5.1830    -0.1130 N.4   1 <1>  -0.9590 
 11 C       -1.7670    -5.1340    -0.6720 C.2   1 <1>   0.9060 
 12 C       -4.8190    -1.3820    -3.0830 C.3   1 <1>   0.0400 
 13 C       -4.4370    -6.4810    -0.8060 C.3   1 <1>   0.3430 
 14 C       -5.4780    -4.4220     0.1140 C.3   1 <1>   0.3430 
 15 O       -0.9300    -5.1180    -1.5770 O.co2 1 <1>  -0.9000 
 16 O       -1.6370    -5.8200     0.3580 O.co2 1 <1>  -0.9000 
 17 C       -5.3780    -7.3510     0.0230 C.3   1 <1>  -0.1600 
 18 C       -6.4350    -5.2590     0.9590 C.3   1 <1>  -0.1600 
 19 C       -6.6950    -6.6200     0.3040 C.3   1 <1>   0.2800 
 20 O       -7.3160    -6.3690    -0.9430 O.3   1 <1>  -0.4300 
 21 C       -7.7170    -7.4820     1.0850 C.3   1 <1>   0.1400 
 22 C       -8.5250    -6.9070    -0.9940 C.2   1 <1>   0.7800 
 23 N       -8.8280    -7.5460     0.1410 N.am  1 <1>  -0.7300 
 24 O       -9.2350    -6.8130    -1.9640 O.2   1 <1>  -0.5700 
 25 H       -1.8700    -3.4030     1.4390 H     1 <1>   0.1500 
 26 H       -3.0020     0.6730     0.9930 H     1 <1>   0.1500 
 27 H       -4.2210     0.1380    -1.0710 H     1 <1>   0.1500 
 28 H       -3.3380    -4.3770    -1.8850 H     1 <1>   0.0800 
 29 H       -3.7330    -5.4110     0.7710 H     1 <1>   0.4500 
 30 H       -5.2010    -1.9080    -3.9390 H     1 <1>   0.0800 
 31 H       -3.9630    -0.7950    -3.3680 H     1 <1>   0.0800 
 32 H       -5.5900    -0.7600    -2.6640 H     1 <1>   0.0800 
 33 H       -3.4940    -6.9910    -0.9340 H     1 <1>   0.0800 
 34 H       -4.8680    -6.3060    -1.7800 H     1 <1>   0.0800 
 35 H       -5.9350    -4.1900    -0.8360 H     1 <1>   0.0800 
 36 H       -5.2660    -3.4950     0.6220 H     1 <1>   0.0800 
 37 H       -4.8910    -7.6110     0.9450 H     1 <1>   0.0800 
 38 H       -5.5750    -8.2650    -0.5090 H     1 <1>   0.0800 
 39 H       -7.3630    -4.7280     1.0750 H     1 <1>   0.0800 
 40 H       -6.0120    -5.3940     1.9380 H     1 <1>   0.0800 
 41 H       -8.0230    -7.0110     2.0040 H     1 <1>   0.0800 
 42 H       -7.3360    -8.4680     1.2900 H     1 <1>   0.0800 
 43 H       -9.7010    -8.0610     0.2700 H     1 <1>   0.3700 
@<TRIPOS>BOND
  1   1   2  1   
  2   2   3  ar  
  3   2   4  ar  
  4   3   5  ar  
  5   3  25  1   
  6   4   6  ar  
  7   4  26  1   
  8   5   7  ar  
  9   5   8  1   
 10   6   7  ar  
 11   6  27  1   
 12   7   9  1   
 13   8  10  1   
 14   8  11  1   
 15   8  28  1   
 16   9  12  1   
 17  10  13  1   
 18  10  14  1   
 19  10  29  1   
 20  11  15  ar  
 21  11  16  ar  
 22  12  30  1   
 23  12  31  1   
 24  12  32  1   
 25  13  17  1   
 26  13  33  1   
 27  13  34  1   
 28  14  18  1   
 29  14  35  1   
 30  14  36  1   
 31  17  19  1   
 32  17  37  1   
 33  17  38  1   
 34  18  19  1   
 35  18  39  1   
 36  18  40  1   
 37  19  20  1   
 38  19  21  1   
 39  20  22  1   
 40  21  23  1   
 41  21  41  1   
 42  21  42  1   
 43  22  23  am  
 44  22  24  2   
 45  23  43  1   
@<TRIPOS>SUBSTRUCTURE
  1 ****  10 GROUP 4 **** **** 0

# MOE 2024.06 (io_trps.svl 2023.06)
