@<TRIPOS>MOLECULE
NONAME
47 49 1 0 0 
SMALL
USER_CHARGES


@<TRIPOS>ATOM
  1 S        0.7490    -0.0550     0.3190 S.o2  1 <1>   1.3330 
  2 O        1.1990    -1.4090     0.0810 O.2   1 <1>  -0.6500 
  3 O        0.5160     0.3910     1.6740 O.2   1 <1>  -0.6500 
  4 N       -0.6810     0.1710    -0.5670 N.am  1 <1>  -0.8490 
  5 C        1.8960     1.0860    -0.4510 C.3   1 <1>  -0.0550 
  6 C       -0.7070    -0.5650    -1.8360 C.3   1 <1>   0.1160 
  7 C       -1.8770    -0.1470     0.2190 C.3   1 <1>   0.1160 
  8 C        3.2600     1.1590     0.2580 C.3   1 <1>  -0.0800 
  9 C        4.2280     2.0950    -0.4470 C.3   1 <1>   0.2200 
 10 C        4.0380    -0.1510     0.2860 C.3   1 <1>   0.1200 
 11 N        4.1550     3.4490     0.1370 N.am  1 <1>  -0.7300 
 12 C        5.5950     1.4370    -0.2520 C.3   1 <1>   0.1200 
 13 O        5.3710     0.2250     0.4050 O.3   1 <1>  -0.5600 
 14 C        3.4510     4.4860    -0.3780 C.2   1 <1>   0.5690 
 15 O        2.7590     4.3570    -1.3600 O.2   1 <1>  -0.5700 
 16 C        3.5190     5.8310     0.3140 C.3   1 <1>   0.0820 
 17 C        4.9450     6.1660     0.7080 C.2   1 <1>   0.1080 
 18 N        5.5070     5.7100     1.7800 N.2   1 <1>  -0.7070 
 19 C        5.7980     6.9940    -0.0470 C.ar  1 <1>   0.0000 
 20 N        6.7520     6.2430     1.7730 N.pl3 1 <1>   0.3000 
 21 C        6.9690     7.0260     0.6800 C.ar  1 <1>  -0.1520 
 22 C        5.7130     7.7080    -1.2510 C.ar  1 <1>  -0.1500 
 23 C        8.0770     7.7640     0.2470 C.ar  1 <1>  -0.1500 
 24 C        6.7980     8.4350    -1.6820 C.ar  1 <1>  -0.1500 
 25 C        7.9820     8.4650    -0.9310 C.ar  1 <1>  -0.1500 
 26 H        2.0430     0.8040    -1.4750 H     1 <1>   0.0800 
 27 H        1.4610     2.0670    -0.4460 H     1 <1>   0.0800 
 28 H       -1.5950    -0.3140    -2.3900 H     1 <1>   0.0800 
 29 H       -0.6950    -1.6280    -1.6550 H     1 <1>   0.0800 
 30 H        0.1490    -0.3060    -2.4340 H     1 <1>   0.0800 
 31 H       -2.7650     0.0240    -0.3650 H     1 <1>   0.0800 
 32 H       -1.9220     0.4840     1.0910 H     1 <1>   0.0800 
 33 H       -1.8530    -1.1760     0.5370 H     1 <1>   0.0800 
 34 H        3.1200     1.4750     1.2790 H     1 <1>   0.0800 
 35 H        4.0170     2.1440    -1.5020 H     1 <1>   0.0800 
 36 H        3.9270    -0.7020    -0.6330 H     1 <1>   0.0800 
 37 H        3.7700    -0.7750     1.1230 H     1 <1>   0.0800 
 38 H        4.7390     3.6370     0.9640 H     1 <1>   0.3700 
 39 H        6.2530     2.0330     0.3550 H     1 <1>   0.0800 
 40 H        6.0550     1.2220    -1.2000 H     1 <1>   0.0800 
 41 H        3.1300     6.5890    -0.3380 H     1 <1>   0.0800 
 42 H        2.9060     5.7970     1.1940 H     1 <1>   0.0800 
 43 H        7.4350     6.0700     2.5190 H     1 <1>   0.2700 
 44 H        4.8040     7.6780    -1.8230 H     1 <1>   0.1500 
 45 H        8.9810     7.7780     0.8300 H     1 <1>   0.1500 
 46 H        6.7500     8.9910    -2.6030 H     1 <1>   0.1500 
 47 H        8.8140     9.0430    -1.2920 H     1 <1>   0.1500 
@<TRIPOS>BOND
  1   1   2  2   
  2   1   3  2   
  3   1   4  am  
  4   1   5  1   
  5   4   6  1   
  6   4   7  1   
  7   5   8  1   
  8   5  26  1   
  9   5  27  1   
 10   6  28  1   
 11   6  29  1   
 12   6  30  1   
 13   7  31  1   
 14   7  32  1   
 15   7  33  1   
 16   8   9  1   
 17   8  10  1   
 18   8  34  1   
 19   9  11  1   
 20   9  12  1   
 21   9  35  1   
 22  10  13  1   
 23  10  36  1   
 24  10  37  1   
 25  11  14  am  
 26  11  38  1   
 27  12  13  1   
 28  12  39  1   
 29  12  40  1   
 30  14  15  2   
 31  14  16  1   
 32  16  17  1   
 33  16  41  1   
 34  16  42  1   
 35  17  18  2   
 36  17  19  1   
 37  18  20  1   
 38  19  21  ar  
 39  19  22  ar  
 40  20  21  1   
 41  20  43  1   
 42  21  23  ar  
 43  22  24  ar  
 44  22  44  1   
 45  23  25  ar  
 46  23  45  1   
 47  24  25  ar  
 48  24  46  1   
 49  25  47  1   
@<TRIPOS>SUBSTRUCTURE
  1 ****  11 GROUP 4 **** **** 0

# MOE 2024.06 (io_trps.svl 2023.06)
