@<TRIPOS>MOLECULE
NONAME
47 49 1 0 0 
SMALL
USER_CHARGES


@<TRIPOS>ATOM
  1 CL       1.3960     4.2680     2.7510 Cl    1 <1>  -0.1770 
  2 C        1.4080     4.5360     1.0240 C.ar  1 <1>   0.1770 
  3 C        2.1080     3.6940     0.1670 C.ar  1 <1>  -0.1440 
  4 C        0.6880     5.6170     0.5500 C.ar  1 <1>  -0.1500 
  5 C        2.0500     3.9590    -1.1980 C.ar  1 <1>  -0.1500 
  6 C        2.9210     2.5080     0.6910 C.3   1 <1>   0.3640 
  7 C        0.6510     5.8730    -0.8090 C.ar  1 <1>  -0.1500 
  8 C        1.3330     5.0420    -1.6800 C.ar  1 <1>  -0.1500 
  9 N        2.3300     1.2670     0.1410 N.am  1 <1>  -0.7300 
 10 C        4.4170     2.6120     0.2980 C.3   1 <1>   0.2610 
 11 C        3.0700     0.2030    -0.2450 C.2   1 <1>   0.5690 
 12 O        5.0870     1.3870     0.5430 O.3   1 <1>  -0.5600 
 13 C        5.1050     3.7890     1.0060 C.2   1 <1>   0.5690 
 14 O        2.5360    -0.7990    -0.6460 O.2   1 <1>  -0.5700 
 15 C        4.6010     0.2920    -0.2060 C.3   1 <1>   0.1810 
 16 O        4.6600     4.1780     2.0630 O.2   1 <1>  -0.5700 
 17 N        6.1630     4.4310     0.4130 N.am  1 <1>  -0.6600 
 18 C        6.6570     5.7410     0.9320 C.3   1 <1>   0.3200 
 19 C        6.8970     3.9390    -0.7890 C.3   1 <1>   0.0600 
 20 C        6.4040     6.8390    -0.0920 C.2   1 <1>   0.0060 
 21 N        7.3330     7.3140    -0.8630 N.2   1 <1>  -0.5650 
 22 N        5.1870     7.4090    -0.2930 N.pl3 1 <1>   0.0480 
 23 C        6.6990     8.2420    -1.6000 C.2   1 <1>   0.0770 
 24 C        5.3930     8.3130    -1.2680 C.2   1 <1>  -0.3020 
 25 C        3.8890     7.1310     0.3610 C.3   1 <1>   0.0960 
 26 C        3.7530     7.9100     1.6720 C.3   1 <1>  -0.2400 
 27 H        0.1580     6.2470     1.2420 H     1 <1>   0.1500 
 28 H        2.5570     3.3210    -1.9010 H     1 <1>   0.1500 
 29 H        2.8620     2.4520     1.7630 H     1 <1>   0.0800 
 30 H        0.0910     6.7120    -1.1870 H     1 <1>   0.1500 
 31 H        1.2990     5.2340    -2.7390 H     1 <1>   0.1500 
 32 H        1.3120     1.1830     0.1510 H     1 <1>   0.3700 
 33 H        4.4750     2.7960    -0.7570 H     1 <1>   0.0800 
 34 H        4.9760     0.3770    -1.2090 H     1 <1>   0.0800 
 35 H        4.9960    -0.6050     0.2340 H     1 <1>   0.0800 
 36 H        6.1830     5.9960     1.8620 H     1 <1>   0.0800 
 37 H        7.7140     5.6690     1.1170 H     1 <1>   0.0800 
 38 H        7.9460     4.1650    -0.6940 H     1 <1>   0.0800 
 39 H        6.5210     4.4300    -1.6700 H     1 <1>   0.0800 
 40 H        6.7930     2.8740    -0.8970 H     1 <1>   0.0800 
 41 H        7.2240     8.8190    -2.3430 H     1 <1>   0.1500 
 42 H        4.6190     8.9440    -1.6640 H     1 <1>   0.1500 
 43 H        3.1000     7.4110    -0.3130 H     1 <1>   0.0800 
 44 H        3.8070     6.0790     0.5470 H     1 <1>   0.0800 
 45 H        3.8240     8.9680     1.4880 H     1 <1>   0.0800 
 46 H        4.5190     7.6150     2.3670 H     1 <1>   0.0800 
 47 H        2.7970     7.7010     2.1170 H     1 <1>   0.0800 
@<TRIPOS>BOND
  1   1   2  1   
  2   2   3  ar  
  3   2   4  ar  
  4   3   5  ar  
  5   3   6  1   
  6   4   7  ar  
  7   4  27  1   
  8   5   8  ar  
  9   5  28  1   
 10   6   9  1   
 11   6  10  1   
 12   6  29  1   
 13   7   8  ar  
 14   7  30  1   
 15   8  31  1   
 16   9  11  am  
 17   9  32  1   
 18  10  12  1   
 19  10  13  1   
 20  10  33  1   
 21  11  14  2   
 22  11  15  1   
 23  12  15  1   
 24  13  16  2   
 25  13  17  am  
 26  15  34  1   
 27  15  35  1   
 28  17  18  1   
 29  17  19  1   
 30  18  20  1   
 31  18  36  1   
 32  18  37  1   
 33  19  38  1   
 34  19  39  1   
 35  19  40  1   
 36  20  21  2   
 37  20  22  1   
 38  21  23  1   
 39  22  24  1   
 40  22  25  1   
 41  23  24  2   
 42  23  41  1   
 43  24  42  1   
 44  25  26  1   
 45  25  43  1   
 46  25  44  1   
 47  26  45  1   
 48  26  46  1   
 49  26  47  1   
@<TRIPOS>SUBSTRUCTURE
  1 ****  13 GROUP 4 **** **** 0

# MOE 2024.06 (io_trps.svl 2023.06)
