@<TRIPOS>MOLECULE
NONAME
31 31 1 0 0 
SMALL
USER_CHARGES


@<TRIPOS>ATOM
  1 CL       1.5620    -0.9750     2.9950 Cl    1 <1>  -0.1770 
  2 C        2.1370    -1.3630     1.3830 C.ar  1 <1>   0.1770 
  3 C        1.7340    -2.5260     0.7380 C.ar  1 <1>   0.4100 
  4 C        2.9980    -0.5240     0.7310 C.ar  1 <1>   0.1600 
  5 N        2.1780    -2.8030    -0.4740 N.ar  1 <1>  -0.6200 
  6 N        0.8640    -3.4190     1.3230 N.pl3 1 <1>  -0.8690 
  7 N        3.4480    -0.7940    -0.4840 N.ar  1 <1>  -0.6200 
  8 C        3.0070    -1.9250    -1.0110 C.ar  1 <1>   0.4770 
  9 C        0.6860    -4.8250     0.8850 C.3   1 <1>   0.2890 
 10 C        3.5100    -2.2460    -2.3980 C.3   1 <1>  -0.0970 
 11 C       -0.4380    -4.8660    -0.1690 C.3   1 <1>   0.1200 
 12 C        0.4160    -5.6510     2.1560 C.3   1 <1>  -0.1600 
 13 O       -0.5470    -6.1330    -0.7500 O.3   1 <1>  -0.5600 
 14 C        0.5030    -7.1710     1.9540 C.3   1 <1>  -0.2400 
 15 C       -1.5100    -6.2090    -1.7500 C.3   1 <1>   0.0400 
 16 H        3.3260     0.3840     1.2050 H     1 <1>   0.1500 
 17 H        0.5950    -3.2400     2.2940 H     1 <1>   0.4000 
 18 H        1.6000    -5.1620     0.4240 H     1 <1>   0.0800 
 19 H        3.3460    -3.2830    -2.6260 H     1 <1>   0.0800 
 20 H        4.5620    -2.0380    -2.4600 H     1 <1>   0.0800 
 21 H        2.9880    -1.6410    -3.1140 H     1 <1>   0.0800 
 22 H       -0.2120    -4.1610    -0.9490 H     1 <1>   0.0800 
 23 H       -1.3780    -4.6160     0.2880 H     1 <1>   0.0800 
 24 H       -0.5570    -5.4040     2.5440 H     1 <1>   0.0800 
 25 H        1.1520    -5.3850     2.8940 H     1 <1>   0.0800 
 26 H       -0.2990    -7.5230     1.3310 H     1 <1>   0.0800 
 27 H        0.4330    -7.6730     2.9030 H     1 <1>   0.0800 
 28 H        1.4390    -7.4370     1.4940 H     1 <1>   0.0800 
 29 H       -1.5190    -7.2160    -2.1290 H     1 <1>   0.0800 
 30 H       -1.2540    -5.5260    -2.5410 H     1 <1>   0.0800 
 31 H       -2.4730    -5.9680    -1.3350 H     1 <1>   0.0800 
@<TRIPOS>BOND
  1   1   2  1   
  2   2   3  ar  
  3   2   4  ar  
  4   3   5  ar  
  5   3   6  1   
  6   4   7  ar  
  7   4  16  1   
  8   5   8  ar  
  9   6   9  1   
 10   6  17  1   
 11   7   8  ar  
 12   8  10  1   
 13   9  11  1   
 14   9  12  1   
 15   9  18  1   
 16  10  19  1   
 17  10  20  1   
 18  10  21  1   
 19  11  13  1   
 20  11  22  1   
 21  11  23  1   
 22  12  14  1   
 23  12  24  1   
 24  12  25  1   
 25  13  15  1   
 26  14  26  1   
 27  14  27  1   
 28  14  28  1   
 29  15  29  1   
 30  15  30  1   
 31  15  31  1   
@<TRIPOS>SUBSTRUCTURE
  1 ****   3 GROUP 4 **** **** 0

# MOE 2024.06 (io_trps.svl 2023.06)
