@<TRIPOS>MOLECULE
NONAME
51 53 1 0 0 
SMALL
USER_CHARGES


@<TRIPOS>ATOM
  1 O        0.0550     1.7600     0.8070 O.2   1 <1>  -0.5700 
  2 C        0.2780     0.6320     0.4390 C.2   1 <1>   0.5690 
  3 N        1.0080     0.3190    -0.6640 N.am  1 <1>  -0.7300 
  4 C       -0.2660    -0.5330     1.2730 C.3   1 <1>   0.1710 
  5 C        1.7960     1.1460    -1.5980 C.3   1 <1>   0.3640 
  6 N       -0.4020    -1.8220     0.5260 N.3   1 <1>  -0.8100 
  7 C        3.2570     1.1810    -1.1410 C.ar  1 <1>  -0.1430 
  8 C        1.2210     2.5500    -1.7900 C.3   1 <1>  -0.2400 
  9 C       -0.5130    -2.9670     1.4700 C.3   1 <1>   0.2910 
 10 C       -1.5480    -1.7710    -0.3980 C.3   1 <1>   0.0300 
 11 C        4.3030     0.7000    -1.9280 C.ar  1 <1>  -0.1430 
 12 C        3.5480     1.7140     0.1100 C.ar  1 <1>  -0.1500 
 13 C       -0.5280    -4.3460     0.8020 C.2   1 <1>   0.3350 
 14 C        5.6030     0.7630    -1.4490 C.ar  1 <1>  -0.1500 
 15 C        4.0760     0.1000    -3.3090 C.3   1 <1>  -0.0970 
 16 C        4.8460     1.7750     0.5860 C.ar  1 <1>  -0.1430 
 17 N        0.5050    -5.0520     0.5600 N.2   1 <1>  -0.4100 
 18 N       -1.6640    -4.9340     0.4380 N.2   1 <1>  -0.5650 
 19 C        5.8750     1.2970    -0.2030 C.ar  1 <1>  -0.1500 
 20 C        5.1320     2.3640     1.9540 C.3   1 <1>  -0.0970 
 21 O        0.0970    -6.1510     0.0030 O.3   1 <1>  -0.0190 
 22 C       -1.2060    -6.0210    -0.0410 C.2   1 <1>   0.3930 
 23 C       -2.0250    -7.1510    -0.6440 C.3   1 <1>  -0.0150 
 24 C       -3.4400    -7.4120    -0.2210 C.3   1 <1>  -0.2000 
 25 C       -2.3510    -8.3670     0.1680 C.3   1 <1>  -0.2000 
 26 H        1.1360    -0.6890    -0.7970 H     1 <1>   0.3700 
 27 H       -1.2160    -0.2460     1.6860 H     1 <1>   0.0800 
 28 H        0.4210    -0.6660     2.0890 H     1 <1>   0.0800 
 29 H        1.7300     0.6620    -2.5540 H     1 <1>   0.0800 
 30 H        1.3210     3.1360    -0.8960 H     1 <1>   0.0800 
 31 H        0.1840     2.4920    -2.0640 H     1 <1>   0.0800 
 32 H        1.7590     3.0500    -2.5740 H     1 <1>   0.0800 
 33 H       -1.4050    -2.8640     2.0620 H     1 <1>   0.0800 
 34 H        0.3300    -2.9470     2.1380 H     1 <1>   0.0800 
 35 H       -1.4750    -0.9110    -1.0420 H     1 <1>   0.0800 
 36 H       -2.4750    -1.7180     0.1480 H     1 <1>   0.0800 
 37 H       -1.5620    -2.6490    -1.0210 H     1 <1>   0.0800 
 38 H        2.7470     2.0880     0.7230 H     1 <1>   0.1500 
 39 H        6.4200     0.3960    -2.0440 H     1 <1>   0.1500 
 40 H        3.4530    -0.7730    -3.2330 H     1 <1>   0.0800 
 41 H        5.0070    -0.1930    -3.7610 H     1 <1>   0.0800 
 42 H        3.6050     0.8200    -3.9530 H     1 <1>   0.0800 
 43 H        6.8900     1.3370     0.1490 H     1 <1>   0.1500 
 44 H        4.2920     2.2180     2.6090 H     1 <1>   0.0800 
 45 H        5.3210     3.4190     1.8620 H     1 <1>   0.0800 
 46 H        5.9920     1.8920     2.3940 H     1 <1>   0.0800 
 47 H       -1.7900    -7.2990    -1.6830 H     1 <1>   0.1000 
 48 H       -4.1540    -7.7100    -0.9680 H     1 <1>   0.1000 
 49 H       -3.8740    -6.7820     0.5370 H     1 <1>   0.1000 
 50 H       -2.0420    -8.4010     1.1990 H     1 <1>   0.1000 
 51 H       -2.3090    -9.3310    -0.3080 H     1 <1>   0.1000 
@<TRIPOS>BOND
  1   1   2  2   
  2   2   3  am  
  3   2   4  1   
  4   3   5  1   
  5   3  26  1   
  6   4   6  1   
  7   4  27  1   
  8   4  28  1   
  9   5   7  1   
 10   5   8  1   
 11   5  29  1   
 12   6   9  1   
 13   6  10  1   
 14   7  11  ar  
 15   7  12  ar  
 16   8  30  1   
 17   8  31  1   
 18   8  32  1   
 19   9  13  1   
 20   9  33  1   
 21   9  34  1   
 22  10  35  1   
 23  10  36  1   
 24  10  37  1   
 25  11  14  ar  
 26  11  15  1   
 27  12  16  ar  
 28  12  38  1   
 29  13  17  2   
 30  13  18  1   
 31  14  19  ar  
 32  14  39  1   
 33  15  40  1   
 34  15  41  1   
 35  15  42  1   
 36  16  19  ar  
 37  16  20  1   
 38  17  21  1   
 39  18  22  2   
 40  19  43  1   
 41  20  44  1   
 42  20  45  1   
 43  20  46  1   
 44  21  22  1   
 45  22  23  1   
 46  23  24  1   
 47  23  25  1   
 48  23  47  1   
 49  24  25  1   
 50  24  48  1   
 51  24  49  1   
 52  25  50  1   
 53  25  51  1   
@<TRIPOS>SUBSTRUCTURE
  1 ****   6 GROUP 4 **** **** 0

# MOE 2024.06 (io_trps.svl 2023.06)
