@<TRIPOS>MOLECULE
NONAME
50 52 1 0 0 
SMALL
USER_CHARGES


@<TRIPOS>ATOM
  1 S        0.5990     0.4590    -1.4450 S.o2  1 <1>   1.3330 
  2 O       -0.1510     1.2840    -2.3640 O.2   1 <1>  -0.6500 
  3 O        0.8710    -0.9220    -1.7770 O.2   1 <1>  -0.6500 
  4 N       -0.2280     0.4840     0.0410 N.am  1 <1>  -0.8490 
  5 C        2.1620     1.2570    -1.0740 C.3   1 <1>  -0.0550 
  6 C       -1.1860    -0.6200     0.1580 C.3   1 <1>   0.1160 
  7 C       -0.9070     1.7570     0.3060 C.3   1 <1>   0.1160 
  8 C        3.0860     0.4420    -0.1440 C.3   1 <1>  -0.0800 
  9 C        4.4850     1.0140     0.0290 C.3   1 <1>   0.2200 
 10 C        2.5980     0.2950     1.3040 C.3   1 <1>   0.1200 
 11 N        4.4360     2.4830     0.2180 N.am  1 <1>  -0.7300 
 12 C        4.8860     0.3670     1.3470 C.3   1 <1>   0.1200 
 13 O        3.7280     0.4000     2.1230 O.3   1 <1>  -0.5600 
 14 C        4.7240     3.3980    -0.7370 C.2   1 <1>   0.5690 
 15 O        4.9960     3.0730    -1.8650 O.2   1 <1>  -0.5700 
 16 C        4.6920     4.8660    -0.3770 C.3   1 <1>  -0.0990 
 17 C        6.1070     5.4070    -0.1450 C.3   1 <1>  -0.0170 
 18 C        6.0540     6.8710     0.2580 C.ar  1 <1>  -0.1440 
 19 C        6.0150     7.8580    -0.7220 C.ar  1 <1>  -0.1500 
 20 C        6.0420     7.2280     1.6070 C.ar  1 <1>  -0.1500 
 21 C        5.9640     9.1780    -0.3190 C.ar  1 <1>   0.0820 
 22 C        5.9910     8.5620     1.9930 C.ar  1 <1>  -0.1500 
 23 O        5.9210    10.2770    -1.0800 O.3   1 <1>  -0.3630 
 24 C        5.9530     9.5210     1.0010 C.ar  1 <1>   0.0820 
 25 C        5.8820    11.3890    -0.1880 C.3   1 <1>   0.4000 
 26 O        5.9020    10.8510     1.1320 O.3   1 <1>  -0.3620 
 27 H        2.6830     1.4160    -1.9990 H     1 <1>   0.0800 
 28 H        1.9740     2.2220    -0.6470 H     1 <1>   0.0800 
 29 H       -1.6840    -0.5830     1.1120 H     1 <1>   0.0800 
 30 H       -0.6720    -1.5640     0.0860 H     1 <1>   0.0800 
 31 H       -1.9190    -0.5650    -0.6290 H     1 <1>   0.0800 
 32 H       -1.3340     1.7490     1.2940 H     1 <1>   0.0800 
 33 H       -1.6920     1.9230    -0.4140 H     1 <1>   0.0800 
 34 H       -0.2070     2.5720     0.2450 H     1 <1>   0.0800 
 35 H        3.1870    -0.5490    -0.5530 H     1 <1>   0.0800 
 36 H        5.1490     0.7520    -0.7790 H     1 <1>   0.0800 
 37 H        2.1280    -0.6590     1.4720 H     1 <1>   0.0800 
 38 H        1.9230     1.0860     1.5820 H     1 <1>   0.0800 
 39 H        4.1790     2.7680     1.1660 H     1 <1>   0.3700 
 40 H        5.6790     0.8920     1.8500 H     1 <1>   0.0800 
 41 H        5.1600    -0.6640     1.2020 H     1 <1>   0.0800 
 42 H        4.2290     5.4070    -1.1820 H     1 <1>   0.0800 
 43 H        4.0980     5.0110     0.5060 H     1 <1>   0.0800 
 44 H        6.6850     5.3000    -1.0480 H     1 <1>   0.0800 
 45 H        6.5950     4.8340     0.6230 H     1 <1>   0.0800 
 46 H        6.0230     7.6190    -1.7700 H     1 <1>   0.1500 
 47 H        6.0740     6.4670     2.3660 H     1 <1>   0.1500 
 48 H        5.9820     8.8520     3.0280 H     1 <1>   0.1500 
 49 H        6.7520    12.0030    -0.3400 H     1 <1>   0.0800 
 50 H        4.9720    11.9420    -0.3390 H     1 <1>   0.0800 
@<TRIPOS>BOND
  1   1   2  2   
  2   1   3  2   
  3   1   4  am  
  4   1   5  1   
  5   4   6  1   
  6   4   7  1   
  7   5   8  1   
  8   5  27  1   
  9   5  28  1   
 10   6  29  1   
 11   6  30  1   
 12   6  31  1   
 13   7  32  1   
 14   7  33  1   
 15   7  34  1   
 16   8   9  1   
 17   8  10  1   
 18   8  35  1   
 19   9  11  1   
 20   9  12  1   
 21   9  36  1   
 22  10  13  1   
 23  10  37  1   
 24  10  38  1   
 25  11  14  am  
 26  11  39  1   
 27  12  13  1   
 28  12  40  1   
 29  12  41  1   
 30  14  15  2   
 31  14  16  1   
 32  16  17  1   
 33  16  42  1   
 34  16  43  1   
 35  17  18  1   
 36  17  44  1   
 37  17  45  1   
 38  18  19  ar  
 39  18  20  ar  
 40  19  21  ar  
 41  19  46  1   
 42  20  22  ar  
 43  20  47  1   
 44  21  23  1   
 45  21  24  ar  
 46  22  24  ar  
 47  22  48  1   
 48  23  25  1   
 49  24  26  1   
 50  25  26  1   
 51  25  49  1   
 52  25  50  1   
@<TRIPOS>SUBSTRUCTURE
  1 ****  16 GROUP 4 **** **** 0

# MOE 2024.06 (io_trps.svl 2023.06)
