@<TRIPOS>MOLECULE
NONAME
44 45 1 0 0 
SMALL
USER_CHARGES


@<TRIPOS>ATOM
  1 O       -0.1180    -0.0790     0.2900 O.2   1 <1>  -0.5700 
  2 C        0.8890    -0.7030     0.0110 C.2   1 <1>   0.7150 
  3 N        2.0950    -0.0650    -0.0310 N.am  1 <1>  -0.4930 
  4 C        0.8470    -2.1100    -0.2770 C.2   1 <1>  -0.2370 
  5 C        2.4160     1.2940     0.2130 C.2   1 <1>   0.0630 
  6 N       -0.2690    -2.8880    -0.2360 N.pl3 1 <1>   0.3140 
  7 C        1.8540    -2.9580    -0.6360 C.2   1 <1>  -0.1500 
  8 C        1.5850     2.3570     0.5700 C.2   1 <1>   0.1390 
  9 C        3.6480     1.8400     0.1420 C.2   1 <1>  -0.3020 
 10 N       -0.0070    -4.1650    -0.5470 N.2   1 <1>  -0.7070 
 11 C       -1.6490    -2.4940     0.0970 C.3   1 <1>   0.0160 
 12 C        1.2670    -4.2010    -0.7830 C.2   1 <1>   0.1080 
 13 N        2.2390     3.4710     0.7100 N.2   1 <1>  -0.7070 
 14 N        3.5240     3.1530     0.4450 N.pl3 1 <1>   0.3140 
 15 C        1.9940    -5.4760    -1.1740 C.3   1 <1>   0.0210 
 16 C        4.6360     4.1470     0.4890 C.3   1 <1>   0.1760 
 17 C        3.0420    -5.9110    -0.1300 C.3   1 <1>  -0.0800 
 18 C        4.7850     4.7330     1.9000 C.3   1 <1>  -0.2400 
 19 C        4.4100     5.2610    -0.5430 C.3   1 <1>  -0.2400 
 20 C        3.8060    -7.1470    -0.6220 C.3   1 <1>  -0.2400 
 21 C        2.3950    -6.2120     1.2290 C.3   1 <1>  -0.2400 
 22 H        2.8830    -0.6610    -0.2680 H     1 <1>   0.3700 
 23 H        2.8970    -2.7510    -0.7840 H     1 <1>   0.1500 
 24 H        0.5210     2.2730     0.7140 H     1 <1>   0.1500 
 25 H        4.5870     1.3830    -0.1000 H     1 <1>   0.1500 
 26 H       -1.6710    -2.0900     1.0920 H     1 <1>   0.0800 
 27 H       -2.2880    -3.3550     0.0430 H     1 <1>   0.0800 
 28 H       -1.9840    -1.7520    -0.6040 H     1 <1>   0.0800 
 29 H        2.4720    -5.3120    -2.1220 H     1 <1>   0.0800 
 30 H        1.2690    -6.2600    -1.3060 H     1 <1>   0.0800 
 31 H        5.5440     3.6290     0.2370 H     1 <1>   0.0800 
 32 H        3.7490    -5.1090     0.0010 H     1 <1>   0.0800 
 33 H        3.8910     5.2640     2.1790 H     1 <1>   0.0800 
 34 H        5.6150     5.4150     1.9350 H     1 <1>   0.0800 
 35 H        4.9590     3.9450     2.6110 H     1 <1>   0.0800 
 36 H        3.5090     5.8030    -0.3140 H     1 <1>   0.0800 
 37 H        4.3230     4.8400    -1.5290 H     1 <1>   0.0800 
 38 H        5.2350     5.9490    -0.5360 H     1 <1>   0.0800 
 39 H        3.1340    -7.9760    -0.7610 H     1 <1>   0.0800 
 40 H        4.5570    -7.4310     0.0940 H     1 <1>   0.0800 
 41 H        4.2940    -6.9390    -1.5580 H     1 <1>   0.0800 
 42 H        1.6650    -6.9970     1.1350 H     1 <1>   0.0800 
 43 H        1.9000    -5.3370     1.6150 H     1 <1>   0.0800 
 44 H        3.1400    -6.5170     1.9420 H     1 <1>   0.0800 
@<TRIPOS>BOND
  1   1   2  2   
  2   2   3  am  
  3   2   4  1   
  4   3   5  1   
  5   3  22  1   
  6   4   6  1   
  7   4   7  2   
  8   5   8  1   
  9   5   9  2   
 10   6  10  1   
 11   6  11  1   
 12   7  12  1   
 13   7  23  1   
 14   8  13  2   
 15   8  24  1   
 16   9  14  1   
 17   9  25  1   
 18  10  12  2   
 19  11  26  1   
 20  11  27  1   
 21  11  28  1   
 22  12  15  1   
 23  13  14  1   
 24  14  16  1   
 25  15  17  1   
 26  15  29  1   
 27  15  30  1   
 28  16  18  1   
 29  16  19  1   
 30  16  31  1   
 31  17  20  1   
 32  17  21  1   
 33  17  32  1   
 34  18  33  1   
 35  18  34  1   
 36  18  35  1   
 37  19  36  1   
 38  19  37  1   
 39  19  38  1   
 40  20  39  1   
 41  20  40  1   
 42  20  41  1   
 43  21  42  1   
 44  21  43  1   
 45  21  44  1   
@<TRIPOS>SUBSTRUCTURE
  1 ****   3 GROUP 4 **** **** 0

# MOE 2024.06 (io_trps.svl 2023.06)
