@<TRIPOS>MOLECULE
NONAME
53 55 1 0 0 
SMALL
USER_CHARGES


@<TRIPOS>ATOM
  1 O        2.9850    -0.2410    -1.2260 O.2   1 <1>  -0.5700 
  2 C        2.8990    -0.4930    -0.0270 C.2   1 <1>   0.6160 
  3 N        1.9990    -1.4670     0.3920 N.am  1 <1>  -0.4690 
  4 C        3.7160     0.1590     0.9530 C.2   1 <1>   0.0290 
  5 C        1.9330    -1.8400     1.7130 C.2   1 <1>  -0.0410 
  6 C        1.1240    -2.1360    -0.6090 C.3   1 <1>   0.0600 
  7 C        4.6030     1.2050     0.5320 C.2   1 <1>   0.6160 
  8 C        3.6350    -0.2440     2.2630 C.2   1 <1>  -0.1500 
  9 C        2.7320    -1.2550     2.6450 C.2   1 <1>  -0.1500 
 10 O        5.7630     1.2410     0.9100 O.2   1 <1>  -0.5700 
 11 N        4.1890     2.2610    -0.2410 N.am  1 <1>  -0.6600 
 12 C        4.6560     2.3970    -1.6580 C.3   1 <1>   0.1400 
 13 C        3.6270     3.4820     0.3820 C.3   1 <1>   0.1400 
 14 C        6.1090     2.9090    -1.7680 C.3   1 <1>   0.3430 
 15 C        4.7450     4.3950     0.9070 C.3   1 <1>  -0.1600 
 16 N        6.5900     3.5280    -0.4940 N.4   1 <1>  -0.9590 
 17 C        5.8290     4.7500    -0.1170 C.3   1 <1>   0.3430 
 18 C        8.0670     3.7220    -0.4930 C.3   1 <1>   0.3430 
 19 C        8.6190     3.7750     0.9320 C.3   1 <1>  -0.0170 
 20 C       10.0930     4.1090     0.8680 C.ar  1 <1>   0.1670 
 21 N       10.3990     5.1780     0.1500 N.ar  1 <1>  -0.6200 
 22 C       11.0210     3.3210     1.5300 C.ar  1 <1>  -0.1500 
 23 C       11.6850     5.4850     0.0890 C.ar  1 <1>   0.1670 
 24 C       12.3580     3.6460     1.4560 C.ar  1 <1>  -0.1500 
 25 C       12.6870     4.7590     0.7140 C.ar  1 <1>  -0.1500 
 26 C       12.0350     6.7130    -0.7250 C.3   1 <1>  -0.0970 
 27 H        1.2330    -2.6130     1.9860 H     1 <1>   0.1500 
 28 H        0.5600    -1.3940    -1.1470 H     1 <1>   0.0800 
 29 H        0.4430    -2.8130    -0.1270 H     1 <1>   0.0800 
 30 H        1.7330    -2.6840    -1.3070 H     1 <1>   0.0800 
 31 H        4.2570     0.2040     3.0200 H     1 <1>   0.1500 
 32 H        2.6880    -1.5490     3.6800 H     1 <1>   0.1500 
 33 H        4.0000     3.0640    -2.1880 H     1 <1>   0.0800 
 34 H        4.5920     1.4420    -2.1510 H     1 <1>   0.0800 
 35 H        2.9830     3.1980     1.1990 H     1 <1>   0.0800 
 36 H        3.0220     4.0060    -0.3390 H     1 <1>   0.0800 
 37 H        6.1890     3.6080    -2.5830 H     1 <1>   0.0800 
 38 H        6.7350     2.0640    -2.0010 H     1 <1>   0.0800 
 39 H        5.2010     3.9460     1.7710 H     1 <1>   0.0800 
 40 H        4.2900     5.3110     1.2410 H     1 <1>   0.0800 
 41 H        6.3590     2.8000     0.2190 H     1 <1>   0.4500 
 42 H        6.4980     5.4710     0.3250 H     1 <1>   0.0800 
 43 H        5.3850     5.1990    -0.9900 H     1 <1>   0.0800 
 44 H        8.3170     4.6340    -1.0100 H     1 <1>   0.0800 
 45 H        8.5460     2.9060    -1.0090 H     1 <1>   0.0800 
 46 H        8.4690     2.8280     1.4180 H     1 <1>   0.0800 
 47 H        8.1310     4.5450     1.5010 H     1 <1>   0.0800 
 48 H       10.7130     2.4630     2.1010 H     1 <1>   0.1500 
 49 H       13.1100     3.0600     1.9560 H     1 <1>   0.1500 
 50 H       13.7150     5.0590     0.6260 H     1 <1>   0.1500 
 51 H       11.5320     7.5700    -0.3160 H     1 <1>   0.0800 
 52 H       11.7150     6.5750    -1.7410 H     1 <1>   0.0800 
 53 H       13.0930     6.8960    -0.7170 H     1 <1>   0.0800 
@<TRIPOS>BOND
  1   1   2  2   
  2   2   3  am  
  3   2   4  1   
  4   3   5  1   
  5   3   6  1   
  6   4   7  1   
  7   4   8  2   
  8   5   9  2   
  9   5  27  1   
 10   6  28  1   
 11   6  29  1   
 12   6  30  1   
 13   7  10  2   
 14   7  11  am  
 15   8   9  1   
 16   8  31  1   
 17   9  32  1   
 18  11  12  1   
 19  11  13  1   
 20  12  14  1   
 21  12  33  1   
 22  12  34  1   
 23  13  15  1   
 24  13  35  1   
 25  13  36  1   
 26  14  16  1   
 27  14  37  1   
 28  14  38  1   
 29  15  17  1   
 30  15  39  1   
 31  15  40  1   
 32  16  17  1   
 33  16  18  1   
 34  16  41  1   
 35  17  42  1   
 36  17  43  1   
 37  18  19  1   
 38  18  44  1   
 39  18  45  1   
 40  19  20  1   
 41  19  46  1   
 42  19  47  1   
 43  20  21  ar  
 44  20  22  ar  
 45  21  23  ar  
 46  22  24  ar  
 47  22  48  1   
 48  23  25  ar  
 49  23  26  1   
 50  24  25  ar  
 51  24  49  1   
 52  25  50  1   
 53  26  51  1   
 54  26  52  1   
 55  26  53  1   
@<TRIPOS>SUBSTRUCTURE
  1 ****  10 GROUP 4 **** **** 0

# MOE 2024.06 (io_trps.svl 2023.06)
