@<TRIPOS>MOLECULE
NONAME
45 47 1 0 0 
SMALL
USER_CHARGES


@<TRIPOS>ATOM
  1 CL       0.1120     1.9980    -1.9000 Cl    1 <1>  -0.1770 
  2 C        1.3850     2.1060    -0.7060 C.ar  1 <1>   0.1770 
  3 C        1.9860     3.3230    -0.4040 C.ar  1 <1>  -0.1440 
  4 C        1.7570     0.9310    -0.0820 C.ar  1 <1>  -0.1500 
  5 C        2.9900     3.3590     0.5770 C.ar  1 <1>   0.0860 
  6 C        1.5520     4.6000    -1.1270 C.3   1 <1>  -0.0960 
  7 C        2.7510     0.9580     0.8760 C.ar  1 <1>  -0.1500 
  8 C        3.6770     4.5760     0.9780 C.2   1 <1>   0.5440 
  9 C        3.3520     2.1600     1.1950 C.ar  1 <1>  -0.1500 
 10 O        3.0670     5.5870     1.2750 O.2   1 <1>  -0.5700 
 11 N        5.0490     4.6540     0.9850 N.am  1 <1>  -0.6600 
 12 C        5.7560     5.6080     1.9200 C.3   1 <1>   0.1400 
 13 C        5.8460     4.1350    -0.1670 C.3   1 <1>   0.1400 
 14 C        6.1150     6.9610     1.2510 C.3   1 <1>   0.4230 
 15 C        6.3990     5.2410    -1.1050 C.3   1 <1>  -0.0800 
 16 N        5.1740     7.1670     0.0900 N.4   1 <1>  -0.9590 
 17 C        7.6290     7.0400     0.9250 C.3   1 <1>   0.1200 
 18 C        7.8880     5.5330    -0.8660 C.3   1 <1>   0.1200 
 19 C        5.6030     6.5590    -1.2070 C.3   1 <1>   0.3430 
 20 C        4.8540     8.6430    -0.0990 C.3   1 <1>   0.2370 
 21 O        8.1360     5.8170     0.4680 O.3   1 <1>  -0.5600 
 22 C        6.0640     9.5230    -0.4190 C.2   1 <1>   0.9060 
 23 O        6.4820     9.5310    -1.5800 O.co2 1 <1>  -0.9000 
 24 O        6.6620    10.0400     0.5280 O.co2 1 <1>  -0.9000 
 25 H        1.2690     0.0090    -0.3440 H     1 <1>   0.1500 
 26 H        2.3880     5.2540    -1.2920 H     1 <1>   0.0800 
 27 H        0.8220     5.1200    -0.5330 H     1 <1>   0.0800 
 28 H        1.1220     4.3910    -2.0890 H     1 <1>   0.0800 
 29 H        3.0500     0.0490     1.3710 H     1 <1>   0.1500 
 30 H        4.1220     2.1750     1.9480 H     1 <1>   0.1500 
 31 H        5.1130     5.8140     2.7570 H     1 <1>   0.0800 
 32 H        6.6380     5.1380     2.3200 H     1 <1>   0.0800 
 33 H        6.6600     3.5400     0.2140 H     1 <1>   0.0800 
 34 H        5.2260     3.4780    -0.7530 H     1 <1>   0.0800 
 35 H        5.9250     7.7410     1.9700 H     1 <1>   0.0800 
 36 H        6.3750     4.8250    -2.0960 H     1 <1>   0.0800 
 37 H        4.3140     6.6700     0.3960 H     1 <1>   0.4500 
 38 H        8.1570     7.2650     1.8340 H     1 <1>   0.0800 
 39 H        7.8650     7.8170     0.2190 H     1 <1>   0.0800 
 40 H        8.2370     6.3570    -1.4690 H     1 <1>   0.0800 
 41 H        8.4750     4.6650    -1.1120 H     1 <1>   0.0800 
 42 H        4.7240     6.3860    -1.8040 H     1 <1>   0.0800 
 43 H        6.2120     7.2700    -1.7430 H     1 <1>   0.0800 
 44 H        4.1510     8.7640    -0.9020 H     1 <1>   0.0800 
 45 H        4.4110     9.0340     0.7990 H     1 <1>   0.0800 
@<TRIPOS>BOND
  1   1   2  1   
  2   2   3  ar  
  3   2   4  ar  
  4   3   5  ar  
  5   3   6  1   
  6   4   7  ar  
  7   4  25  1   
  8   5   8  1   
  9   5   9  ar  
 10   6  26  1   
 11   6  27  1   
 12   6  28  1   
 13   7   9  ar  
 14   7  29  1   
 15   8  10  2   
 16   8  11  am  
 17   9  30  1   
 18  11  12  1   
 19  11  13  1   
 20  12  14  1   
 21  12  31  1   
 22  12  32  1   
 23  13  15  1   
 24  13  33  1   
 25  13  34  1   
 26  14  16  1   
 27  14  17  1   
 28  14  35  1   
 29  15  18  1   
 30  15  19  1   
 31  15  36  1   
 32  16  19  1   
 33  16  20  1   
 34  16  37  1   
 35  17  21  1   
 36  17  38  1   
 37  17  39  1   
 38  18  21  1   
 39  18  40  1   
 40  18  41  1   
 41  19  42  1   
 42  19  43  1   
 43  20  22  1   
 44  20  44  1   
 45  20  45  1   
 46  22  23  ar  
 47  22  24  ar  
@<TRIPOS>SUBSTRUCTURE
  1 ****  11 GROUP 4 **** **** 0

# MOE 2024.06 (io_trps.svl 2023.06)
