@<TRIPOS>MOLECULE
NONAME
43 46 1 0 0 
SMALL
USER_CHARGES


@<TRIPOS>ATOM
  1 S       -0.1590    -0.1750     0.1700 S.3   1 <1>  -0.0800 
  2 C       -1.5630    -0.8200     1.0160 C.2   1 <1>  -0.0450 
  3 C       -0.6940     1.4980     0.3210 C.2   1 <1>  -0.0450 
  4 C       -1.6620    -2.2470     1.2100 C.2   1 <1>   0.7150 
  5 C       -2.3550     0.2250     1.3750 C.2   1 <1>  -0.1500 
  6 C        0.0960     2.5690    -0.2170 C.2   1 <1>   0.5940 
  7 C       -1.8780     1.5020     0.9870 C.2   1 <1>  -0.1500 
  8 O       -0.6480    -2.9160     1.3050 O.2   1 <1>  -0.5700 
  9 N       -2.8820    -2.8880     1.3080 N.am  1 <1>  -0.6600 
 10 O       -0.2460     3.7230    -0.1500 O.2   1 <1>  -0.5700 
 11 C        1.4140     2.2770    -0.9030 C.3   1 <1>  -0.1790 
 12 C       -4.1250    -2.4050     0.6460 C.3   1 <1>   0.1400 
 13 C       -3.0080    -4.2290     1.9450 C.3   1 <1>   0.1400 
 14 C       -4.5740    -3.4260    -0.4020 C.3   1 <1>  -0.1600 
 15 C       -3.4500    -5.2560     0.9020 C.3   1 <1>  -0.1600 
 16 C       -4.7430    -4.8270     0.2020 C.3   1 <1>   0.4600 
 17 O       -5.7420    -4.7780     1.2030 O.3   1 <1>  -0.5600 
 18 C       -5.1580    -5.8470    -0.8510 C.2   1 <1>  -0.1400 
 19 C       -7.0900    -4.8630     0.8000 C.3   1 <1>   0.1200 
 20 S       -4.1080    -6.3300    -2.1750 S.3   1 <1>  -0.0800 
 21 C       -6.3300    -6.4920    -0.9170 C.2   1 <1>  -0.1810 
 22 C       -7.3930    -6.2130     0.1210 C.3   1 <1>   0.0210 
 23 C       -5.3310    -7.4400    -2.7810 C.2   1 <1>  -0.1100 
 24 C       -6.4350    -7.4080    -2.0110 C.2   1 <1>  -0.1500 
 25 H       -3.2760     0.1260     1.9220 H     1 <1>   0.1500 
 26 H       -2.4270     2.4000     1.2170 H     1 <1>   0.1500 
 27 H        1.2490     1.6580    -1.7640 H     1 <1>   0.0800 
 28 H        2.0770     1.7770    -0.2220 H     1 <1>   0.0800 
 29 H        1.8730     3.1960    -1.2190 H     1 <1>   0.0800 
 30 H       -3.9600    -1.4610     0.1590 H     1 <1>   0.0800 
 31 H       -4.8940    -2.2780     1.3900 H     1 <1>   0.0800 
 32 H       -3.7380    -4.1750     2.7360 H     1 <1>   0.0800 
 33 H       -2.0720    -4.5350     2.3820 H     1 <1>   0.0800 
 34 H       -3.8310    -3.4670    -1.1780 H     1 <1>   0.0800 
 35 H       -5.4910    -3.1090    -0.8600 H     1 <1>   0.0800 
 36 H       -3.6000    -6.2120     1.3690 H     1 <1>   0.0800 
 37 H       -2.6620    -5.3670     0.1800 H     1 <1>   0.0800 
 38 H       -7.2960    -4.0520     0.1250 H     1 <1>   0.0800 
 39 H       -7.7020    -4.7440     1.6770 H     1 <1>   0.0800 
 40 H       -8.3610    -6.1700    -0.3430 H     1 <1>   0.0800 
 41 H       -7.4010    -6.9990     0.8550 H     1 <1>   0.0800 
 42 H       -5.0880    -8.0070    -3.6620 H     1 <1>   0.1500 
 43 H       -7.3250    -7.9930    -2.1660 H     1 <1>   0.1500 
@<TRIPOS>BOND
  1   1   2  1   
  2   1   3  1   
  3   2   4  1   
  4   2   5  2   
  5   3   6  1   
  6   3   7  2   
  7   4   8  2   
  8   4   9  am  
  9   5   7  1   
 10   5  25  1   
 11   6  10  2   
 12   6  11  1   
 13   7  26  1   
 14   9  12  1   
 15   9  13  1   
 16  11  27  1   
 17  11  28  1   
 18  11  29  1   
 19  12  14  1   
 20  12  30  1   
 21  12  31  1   
 22  13  15  1   
 23  13  32  1   
 24  13  33  1   
 25  14  16  1   
 26  14  34  1   
 27  14  35  1   
 28  15  16  1   
 29  15  36  1   
 30  15  37  1   
 31  16  17  1   
 32  16  18  1   
 33  17  19  1   
 34  18  20  1   
 35  18  21  2   
 36  19  22  1   
 37  19  38  1   
 38  19  39  1   
 39  20  23  1   
 40  21  22  1   
 41  21  24  1   
 42  22  40  1   
 43  22  41  1   
 44  23  24  2   
 45  23  42  1   
 46  24  43  1   
@<TRIPOS>SUBSTRUCTURE
  1 ****  12 GROUP 4 **** **** 0

# MOE 2024.06 (io_trps.svl 2023.06)
