@<TRIPOS>MOLECULE
NONAME
48 49 1 0 0 
SMALL
USER_CHARGES


@<TRIPOS>ATOM
  1 CL      -1.6940    -0.0010    -2.2140 Cl    1 <1>  -0.1770 
  2 C       -2.3920    -1.0670    -1.0080 C.ar  1 <1>   0.1770 
  3 C       -2.8820    -0.6340     0.2320 C.ar  1 <1>   0.0830 
  4 C       -2.4330    -2.4030    -1.3570 C.ar  1 <1>  -0.1500 
  5 O       -2.9150     0.6310     0.7250 O.3   1 <1>  -0.3630 
  6 C       -3.4070    -1.5930     1.0840 C.ar  1 <1>  -0.1500 
  7 C       -2.9570    -3.3740    -0.5030 C.ar  1 <1>   0.0860 
  8 C       -2.4380     1.7720     0.0560 C.3   1 <1>   0.1200 
  9 C       -3.4460    -2.9290     0.7280 C.ar  1 <1>  -0.1500 
 10 C       -2.9870    -4.7730    -0.8960 C.2   1 <1>   0.5440 
 11 C       -2.6610     2.9770     0.9640 C.3   1 <1>  -0.2400 
 12 O       -2.8130    -5.1000    -2.0530 O.2   1 <1>  -0.5700 
 13 N       -3.2210    -5.7650     0.0120 N.am  1 <1>  -0.7300 
 14 C       -3.1900    -7.2200    -0.2720 C.3   1 <1>   0.2200 
 15 C       -4.6000    -7.7760    -0.4050 C.3   1 <1>  -0.0800 
 16 C       -2.7270    -7.9480     0.9810 C.3   1 <1>   0.1200 
 17 C       -5.0150    -7.9920     1.0560 C.3   1 <1>   0.1200 
 18 C       -5.5620    -6.9110    -1.2490 C.3   1 <1>  -0.0550 
 19 O       -3.8420    -7.9560     1.8190 O.3   1 <1>  -0.5600 
 20 S       -7.1630    -7.6640    -1.5450 S.o2  1 <1>   1.3330 
 21 O       -6.9490    -9.0490    -1.9030 O.2   1 <1>  -0.6500 
 22 O       -7.9370    -6.8090    -2.4160 O.2   1 <1>  -0.6500 
 23 N       -7.9080    -7.6300    -0.0180 N.am  1 <1>  -0.8490 
 24 C       -8.5370    -6.3410     0.2920 C.3   1 <1>   0.1160 
 25 C       -8.8890    -8.7090     0.1430 C.3   1 <1>   0.1160 
 26 H       -2.0500    -2.7010    -2.3170 H     1 <1>   0.1500 
 27 H       -3.7900    -1.2770     2.0400 H     1 <1>   0.1500 
 28 H       -1.3880     1.6400    -0.1430 H     1 <1>   0.0800 
 29 H       -2.9880     1.8860    -0.8620 H     1 <1>   0.0800 
 30 H       -3.8700    -3.6300     1.4240 H     1 <1>   0.1500 
 31 H       -2.1220     2.8500     1.8860 H     1 <1>   0.0800 
 32 H       -3.7090     3.0940     1.1730 H     1 <1>   0.0800 
 33 H       -2.3050     3.8680     0.4800 H     1 <1>   0.0800 
 34 H       -3.3630    -5.5510     1.0010 H     1 <1>   0.3700 
 35 H       -2.5700    -7.4340    -1.1280 H     1 <1>   0.0800 
 36 H       -4.5270    -8.7460    -0.8670 H     1 <1>   0.0800 
 37 H       -1.9040    -7.4590     1.4710 H     1 <1>   0.0800 
 38 H       -2.4700    -8.9700     0.7590 H     1 <1>   0.0800 
 39 H       -5.5000    -8.9430     1.1980 H     1 <1>   0.0800 
 40 H       -5.6550    -7.2030     1.4110 H     1 <1>   0.0800 
 41 H       -5.0950    -6.7310    -2.1980 H     1 <1>   0.0800 
 42 H       -5.7020    -5.9580    -0.7800 H     1 <1>   0.0800 
 43 H       -8.9110    -6.3450     1.3020 H     1 <1>   0.0800 
 44 H       -9.3560    -6.1490    -0.3830 H     1 <1>   0.0800 
 45 H       -7.8200    -5.5440     0.1980 H     1 <1>   0.0800 
 46 H       -9.3350    -8.6660     1.1210 H     1 <1>   0.0800 
 47 H       -8.4060    -9.6660     0.0360 H     1 <1>   0.0800 
 48 H       -9.6610    -8.6270    -0.6050 H     1 <1>   0.0800 
@<TRIPOS>BOND
  1   1   2  1   
  2   2   3  ar  
  3   2   4  ar  
  4   3   5  1   
  5   3   6  ar  
  6   4   7  ar  
  7   4  26  1   
  8   5   8  1   
  9   6   9  ar  
 10   6  27  1   
 11   7   9  ar  
 12   7  10  1   
 13   8  11  1   
 14   8  28  1   
 15   8  29  1   
 16   9  30  1   
 17  10  12  2   
 18  10  13  am  
 19  11  31  1   
 20  11  32  1   
 21  11  33  1   
 22  13  14  1   
 23  13  34  1   
 24  14  15  1   
 25  14  16  1   
 26  14  35  1   
 27  15  17  1   
 28  15  18  1   
 29  15  36  1   
 30  16  19  1   
 31  16  37  1   
 32  16  38  1   
 33  17  19  1   
 34  17  39  1   
 35  17  40  1   
 36  18  20  1   
 37  18  41  1   
 38  18  42  1   
 39  20  21  2   
 40  20  22  2   
 41  20  23  am  
 42  23  24  1   
 43  23  25  1   
 44  24  43  1   
 45  24  44  1   
 46  24  45  1   
 47  25  46  1   
 48  25  47  1   
 49  25  48  1   
@<TRIPOS>SUBSTRUCTURE
  1 ****  10 GROUP 4 **** **** 0

# MOE 2024.06 (io_trps.svl 2023.06)
