@<TRIPOS>MOLECULE
NONAME
40 42 1 0 0 
SMALL
USER_CHARGES


@<TRIPOS>ATOM
  1 S        0.3190    -0.9530    -0.4540 S.3   1 <1>  -0.4600 
  2 C       -1.0300     0.2670    -0.3550 C.3   1 <1>   0.2510 
  3 C       -0.6600    -2.4720    -0.2640 C.3   1 <1>   0.2510 
  4 C       -2.2530    -0.5920    -0.1370 C.2   1 <1>   0.1080 
  5 C       -2.0690    -1.9580    -0.0890 C.2   1 <1>  -0.1810 
  6 N       -3.4890    -0.2400     0.0190 N.2   1 <1>  -0.7070 
  7 C       -3.3000    -2.4840     0.1080 C.2   1 <1>  -0.0880 
  8 N       -4.1530    -1.4150     0.1670 N.pl3 1 <1>   0.3140 
  9 N       -3.6060    -3.8600     0.2470 N.am  1 <1>  -0.4940 
 10 C       -5.5940    -1.4010     0.4500 C.3   1 <1>   0.0160 
 11 C       -4.6850    -4.6000    -0.1800 C.2   1 <1>   0.5440 
 12 O       -5.6280    -4.0510    -0.7150 O.2   1 <1>  -0.5700 
 13 C       -4.6910    -6.0360     0.0260 C.ar  1 <1>   0.0860 
 14 C       -3.5240    -6.8000    -0.0490 C.ar  1 <1>  -0.1500 
 15 C       -5.8760    -6.7120     0.3140 C.ar  1 <1>  -0.1500 
 16 C       -3.5390    -8.1640     0.1740 C.ar  1 <1>  -0.1500 
 17 C       -5.8960    -8.0770     0.5360 C.ar  1 <1>  -0.1500 
 18 C       -4.7250    -8.8130     0.4720 C.ar  1 <1>  -0.1430 
 19 C       -4.7450   -10.3140     0.7180 C.3   1 <1>  -0.0170 
 20 C       -4.9700   -11.0720    -0.5950 C.3   1 <1>  -0.1600 
 21 C       -4.9940   -12.5890    -0.3730 C.3   1 <1>  -0.2400 
 22 H       -1.0760     0.8050    -1.2840 H     1 <1>   0.0800 
 23 H       -0.8420     0.9210     0.4770 H     1 <1>   0.0800 
 24 H       -0.3010    -2.9950     0.6040 H     1 <1>   0.0800 
 25 H       -0.5470    -3.0570    -1.1590 H     1 <1>   0.0800 
 26 H       -2.8750    -4.4120     0.6930 H     1 <1>   0.3700 
 27 H       -5.8610    -0.4530     0.8790 H     1 <1>   0.0800 
 28 H       -5.8320    -2.1890     1.1370 H     1 <1>   0.0800 
 29 H       -6.1310    -1.5430    -0.4690 H     1 <1>   0.0800 
 30 H       -2.5900    -6.3280    -0.2970 H     1 <1>   0.1500 
 31 H       -6.7960    -6.1530     0.3620 H     1 <1>   0.1500 
 32 H       -2.6230    -8.7270     0.1090 H     1 <1>   0.1500 
 33 H       -6.8300    -8.5660     0.7560 H     1 <1>   0.1500 
 34 H       -5.5280   -10.5540     1.4150 H     1 <1>   0.0800 
 35 H       -3.8120   -10.6190     1.1590 H     1 <1>   0.0800 
 36 H       -4.1850   -10.8260    -1.2890 H     1 <1>   0.0800 
 37 H       -5.9040   -10.7600    -1.0300 H     1 <1>   0.0800 
 38 H       -4.0600   -12.9250     0.0400 H     1 <1>   0.0800 
 39 H       -5.1540   -13.0940    -1.3100 H     1 <1>   0.0800 
 40 H       -5.7890   -12.8590     0.3000 H     1 <1>   0.0800 
@<TRIPOS>BOND
  1   1   2  1   
  2   1   3  1   
  3   2   4  1   
  4   2  22  1   
  5   2  23  1   
  6   3   5  1   
  7   3  24  1   
  8   3  25  1   
  9   4   5  1   
 10   4   6  2   
 11   5   7  2   
 12   6   8  1   
 13   7   8  1   
 14   7   9  1   
 15   8  10  1   
 16   9  11  am  
 17   9  26  1   
 18  10  27  1   
 19  10  28  1   
 20  10  29  1   
 21  11  12  2   
 22  11  13  1   
 23  13  14  ar  
 24  13  15  ar  
 25  14  16  ar  
 26  14  30  1   
 27  15  17  ar  
 28  15  31  1   
 29  16  18  ar  
 30  16  32  1   
 31  17  18  ar  
 32  17  33  1   
 33  18  19  1   
 34  19  20  1   
 35  19  34  1   
 36  19  35  1   
 37  20  21  1   
 38  20  36  1   
 39  20  37  1   
 40  21  38  1   
 41  21  39  1   
 42  21  40  1   
@<TRIPOS>SUBSTRUCTURE
  1 ****  11 GROUP 4 **** **** 0

# MOE 2024.06 (io_trps.svl 2023.06)
