@<TRIPOS>MOLECULE
NONAME
40 41 1 0 0 
SMALL
USER_CHARGES


@<TRIPOS>ATOM
  1 S       -1.1880    -0.1470    -1.1260 S.3   1 <1>  -0.0800 
  2 C       -1.4980    -0.9870     0.3600 C.2   1 <1>   0.4420 
  3 C       -0.7460     1.2250    -0.1710 C.2   1 <1>   0.1980 
  4 N       -1.2640    -0.2500     1.3860 N.2   1 <1>  -0.3380 
  5 N       -1.9250    -2.2910     0.2530 N.am  1 <1>  -0.4940 
  6 N       -0.8370     1.0100     1.0760 N.2   1 <1>  -0.3380 
  7 C       -0.3150     2.4930    -0.8720 C.3   1 <1>   0.0200 
  8 C       -2.4410    -3.1390     1.2000 C.2   1 <1>   0.5440 
  9 C        0.0230     3.5480     0.1880 C.3   1 <1>   0.3430 
 10 O       -2.8040    -2.6880     2.2660 O.2   1 <1>  -0.5700 
 11 C       -2.5820    -4.5470     0.8950 C.ar  1 <1>   0.0860 
 12 N        0.5240     4.8360    -0.4000 N.4   1 <1>  -0.9590 
 13 C       -2.2620    -5.5310     1.8330 C.ar  1 <1>   0.1900 
 14 C       -3.0440    -5.0070    -0.3510 C.ar  1 <1>   0.0820 
 15 C        1.0850     5.6960     0.6890 C.3   1 <1>   0.2630 
 16 C       -0.5440     5.5830    -1.1400 C.3   1 <1>   0.2630 
 17 F       -1.7780    -5.1890     2.9960 F     1 <1>  -0.1900 
 18 C       -2.4030    -6.8840     1.6020 C.ar  1 <1>  -0.1500 
 19 O       -3.3420    -4.0870    -1.3050 O.3   1 <1>  -0.3620 
 20 C       -3.1880    -6.3740    -0.5960 C.ar  1 <1>  -0.1500 
 21 C       -2.8740    -7.3090     0.3740 C.ar  1 <1>  -0.1500 
 22 C       -4.0240    -4.4160    -2.4990 C.3   1 <1>   0.0400 
 23 H       -1.9670    -2.6720    -0.6920 H     1 <1>   0.3700 
 24 H       -1.1210     2.8260    -1.4980 H     1 <1>   0.0800 
 25 H        0.5490     2.2790    -1.4730 H     1 <1>   0.0800 
 26 H        0.7770     3.1360     0.8410 H     1 <1>   0.0800 
 27 H       -0.8530     3.7360     0.7900 H     1 <1>   0.0800 
 28 H        1.2930     4.6210    -1.0540 H     1 <1>   0.4500 
 29 H        0.3180     5.9440     1.4050 H     1 <1>   0.0800 
 30 H        1.4820     6.6110     0.2780 H     1 <1>   0.0800 
 31 H        1.8800     5.1790     1.2030 H     1 <1>   0.0800 
 32 H       -1.3680     5.8090    -0.4820 H     1 <1>   0.0800 
 33 H       -0.9130     4.9980    -1.9670 H     1 <1>   0.0800 
 34 H       -0.1520     6.5100    -1.5280 H     1 <1>   0.0800 
 35 H       -2.1440    -7.5910     2.3700 H     1 <1>   0.1500 
 36 H       -3.5430    -6.7380    -1.5420 H     1 <1>   0.1500 
 37 H       -2.9910    -8.3610     0.1760 H     1 <1>   0.1500 
 38 H       -4.2290    -3.5040    -3.0310 H     1 <1>   0.0800 
 39 H       -4.9490    -4.9060    -2.2500 H     1 <1>   0.0800 
 40 H       -3.3990    -5.0540    -3.0980 H     1 <1>   0.0800 
@<TRIPOS>BOND
  1   1   2  1   
  2   1   3  1   
  3   2   4  2   
  4   2   5  1   
  5   3   6  2   
  6   3   7  1   
  7   4   6  1   
  8   5   8  am  
  9   5  23  1   
 10   7   9  1   
 11   7  24  1   
 12   7  25  1   
 13   8  10  2   
 14   8  11  1   
 15   9  12  1   
 16   9  26  1   
 17   9  27  1   
 18  11  13  ar  
 19  11  14  ar  
 20  12  15  1   
 21  12  16  1   
 22  12  28  1   
 23  13  17  1   
 24  13  18  ar  
 25  14  19  1   
 26  14  20  ar  
 27  15  29  1   
 28  15  30  1   
 29  15  31  1   
 30  16  32  1   
 31  16  33  1   
 32  16  34  1   
 33  18  21  ar  
 34  18  35  1   
 35  19  22  1   
 36  20  21  ar  
 37  20  36  1   
 38  21  37  1   
 39  22  38  1   
 40  22  39  1   
 41  22  40  1   
@<TRIPOS>SUBSTRUCTURE
  1 ****   2 GROUP 4 **** **** 0

# MOE 2024.06 (io_trps.svl 2023.06)
