@<TRIPOS>MOLECULE
NONAME
55 57 1 0 0 
SMALL
USER_CHARGES


@<TRIPOS>ATOM
  1 O       -0.1850     0.1420    -0.7180 O.2   1 <1>  -0.5700 
  2 C       -1.1570     0.8690    -0.8010 C.2   1 <1>   0.5440 
  3 N       -2.3930     0.3950    -0.4100 N.am  1 <1>  -0.6600 
  4 C       -0.9760     2.2150    -1.3050 C.ar  1 <1>   0.0860 
  5 C       -2.6100    -1.0430    -0.0800 C.3   1 <1>   0.1400 
  6 C       -3.5560     1.2740    -0.0950 C.3   1 <1>   0.1400 
  7 C       -0.0650     3.0920    -0.7480 C.ar  1 <1>  -0.1500 
  8 C       -1.6920     2.7160    -2.3840 C.ar  1 <1>  -0.1500 
  9 C       -2.9560    -1.1860     1.4060 C.3   1 <1>  -0.1600 
 10 C       -3.9140     1.1450     1.3900 C.3   1 <1>  -0.1600 
 11 C        0.0820     4.3790    -1.2440 C.ar  1 <1>   0.4100 
 12 C       -1.4800     4.0110    -2.8110 C.ar  1 <1>   0.1600 
 13 C       -4.1590    -0.3150     1.7930 C.3   1 <1>  -0.1600 
 14 N       -0.6190     4.8510    -2.2660 N.ar  1 <1>  -0.6200 
 15 N        1.0000     5.2210    -0.6600 N.pl3 1 <1>  -0.8690 
 16 C        1.3680     6.5100    -1.2760 C.3   1 <1>   0.2090 
 17 C        2.3650     7.2260    -0.3690 C.3   1 <1>  -0.1600 
 18 C        2.7200     8.6060    -0.9360 C.3   1 <1>   0.0960 
 19 N        3.6670     9.3100    -0.0430 N.pl3 1 <1>   0.0480 
 20 C        3.4800    10.3910     0.7620 C.2   1 <1>   0.0060 
 21 C        4.9590     8.9720     0.1290 C.2   1 <1>  -0.3020 
 22 N        4.5490    10.7310     1.4140 N.2   1 <1>  -0.5650 
 23 C        2.1420    11.1300     0.8860 C.3   1 <1>   0.1000 
 24 C        5.4760     9.8440     1.0170 C.2   1 <1>   0.0770 
 25 C        2.3240    12.5770     1.3660 C.3   1 <1>  -0.2400 
 26 C        1.2070    10.3830     1.8450 C.3   1 <1>  -0.2400 
 27 H       -1.7320    -1.6240    -0.3050 H     1 <1>   0.0800 
 28 H       -3.4190    -1.4200    -0.6810 H     1 <1>   0.0800 
 29 H       -4.3940     0.9740    -0.7000 H     1 <1>   0.0800 
 30 H       -3.3350     2.3040    -0.3120 H     1 <1>   0.0800 
 31 H        0.5340     2.7710     0.0820 H     1 <1>   0.1500 
 32 H       -2.4070     2.0890    -2.8830 H     1 <1>   0.1500 
 33 H       -2.0950    -0.9010     1.9860 H     1 <1>   0.0800 
 34 H       -3.1690    -2.2180     1.6220 H     1 <1>   0.0800 
 35 H       -4.7940     1.7290     1.5950 H     1 <1>   0.0800 
 36 H       -3.1080     1.5510     1.9760 H     1 <1>   0.0800 
 37 H       -2.0490     4.3780    -3.6490 H     1 <1>   0.1500 
 38 H       -4.3260    -0.3770     2.8540 H     1 <1>   0.0800 
 39 H       -5.0400    -0.6820     1.2940 H     1 <1>   0.0800 
 40 H        1.7630     4.7570    -0.1630 H     1 <1>   0.4000 
 41 H        0.4790     7.1080    -1.3970 H     1 <1>   0.0800 
 42 H        1.7980     6.3320    -2.2480 H     1 <1>   0.0800 
 43 H        3.2580     6.6310    -0.2880 H     1 <1>   0.0800 
 44 H        1.9280     7.3430     0.6070 H     1 <1>   0.0800 
 45 H        1.8300     9.1950    -1.0510 H     1 <1>   0.0800 
 46 H        3.1820     8.5010    -1.9020 H     1 <1>   0.0800 
 47 H        5.4320     8.1500    -0.3750 H     1 <1>   0.1500 
 48 H        1.6820    11.1770    -0.0840 H     1 <1>   0.0800 
 49 H        6.4830     9.8840     1.3990 H     1 <1>   0.1500 
 50 H        2.7510    12.5910     2.3540 H     1 <1>   0.0800 
 51 H        1.3820    13.0920     1.3870 H     1 <1>   0.0800 
 52 H        2.9910    13.0990     0.7030 H     1 <1>   0.0800 
 53 H        1.6640    10.3110     2.8170 H     1 <1>   0.0800 
 54 H        1.0120     9.3910     1.4860 H     1 <1>   0.0800 
 55 H        0.2710    10.9030     1.9400 H     1 <1>   0.0800 
@<TRIPOS>BOND
  1   1   2  2   
  2   2   3  am  
  3   2   4  1   
  4   3   5  1   
  5   3   6  1   
  6   4   7  ar  
  7   4   8  ar  
  8   5   9  1   
  9   5  27  1   
 10   5  28  1   
 11   6  10  1   
 12   6  29  1   
 13   6  30  1   
 14   7  11  ar  
 15   7  31  1   
 16   8  12  ar  
 17   8  32  1   
 18   9  13  1   
 19   9  33  1   
 20   9  34  1   
 21  10  13  1   
 22  10  35  1   
 23  10  36  1   
 24  11  14  ar  
 25  11  15  1   
 26  12  14  ar  
 27  12  37  1   
 28  13  38  1   
 29  13  39  1   
 30  15  16  1   
 31  15  40  1   
 32  16  17  1   
 33  16  41  1   
 34  16  42  1   
 35  17  18  1   
 36  17  43  1   
 37  17  44  1   
 38  18  19  1   
 39  18  45  1   
 40  18  46  1   
 41  19  20  1   
 42  19  21  1   
 43  20  22  2   
 44  20  23  1   
 45  21  24  2   
 46  21  47  1   
 47  22  24  1   
 48  23  25  1   
 49  23  26  1   
 50  23  48  1   
 51  24  49  1   
 52  25  50  1   
 53  25  51  1   
 54  25  52  1   
 55  26  53  1   
 56  26  54  1   
 57  26  55  1   
@<TRIPOS>SUBSTRUCTURE
  1 ****  15 GROUP 4 **** **** 0

# MOE 2024.06 (io_trps.svl 2023.06)
