@<TRIPOS>MOLECULE
NONAME
53 55 1 0 0 
SMALL
USER_CHARGES


@<TRIPOS>ATOM
  1 O       -0.2390     0.6270    -0.0630 O.2   1 <1>  -0.5700 
  2 C       -0.2140     1.8240     0.0730 C.2   1 <1>   0.5690 
  3 N       -1.2690     2.4790     0.6050 N.am  1 <1>  -0.7300 
  4 C        1.0050     2.6250    -0.3970 C.3   1 <1>   0.1810 
  5 C       -1.3030     3.9460     0.8140 C.3   1 <1>   0.3640 
  6 O        1.0520     3.9380     0.1250 O.3   1 <1>  -0.5600 
  7 C       -2.6670     4.4740     0.3750 C.ar  1 <1>  -0.1440 
  8 C       -0.1670     4.6590     0.0360 C.3   1 <1>   0.2610 
  9 C       -3.2480     4.0700    -0.8220 C.ar  1 <1>  -0.1500 
 10 C       -3.3420     5.3840     1.1760 C.ar  1 <1>  -0.1500 
 11 C        0.0210     6.1100     0.5160 C.2   1 <1>   0.5690 
 12 C       -4.4800     4.5690    -1.2080 C.ar  1 <1>  -0.1500 
 13 C       -4.5740     5.8820     0.7910 C.ar  1 <1>  -0.1500 
 14 O       -0.3010     6.3940     1.6510 O.2   1 <1>  -0.5700 
 15 N        0.5420     7.0790    -0.3200 N.am  1 <1>  -0.6600 
 16 C       -5.1440     5.4760    -0.4020 C.ar  1 <1>  -0.1500 
 17 C        0.5690     8.4940     0.1450 C.3   1 <1>   0.2200 
 18 C        1.2060     6.7520    -1.6210 C.3   1 <1>   0.0600 
 19 C        0.2270     9.4930    -0.9630 C.3   1 <1>  -0.1600 
 20 C        1.9250     8.8150     0.7690 C.3   1 <1>  -0.1600 
 21 C        0.2520    10.9110    -0.4000 C.3   1 <1>   0.3430 
 22 C        1.9300    10.2440     1.3000 C.3   1 <1>   0.3430 
 23 N        1.5910    11.2020     0.2000 N.4   1 <1>  -0.9590 
 24 C        1.6530    12.6150     0.6570 C.3   1 <1>   0.3430 
 25 C        3.1060    13.0300     0.8550 C.3   1 <1>  -0.2400 
 26 H       -2.0810     1.9450     0.9180 H     1 <1>   0.3700 
 27 H        0.9970     2.6870    -1.4690 H     1 <1>   0.0800 
 28 H        1.9010     2.1180    -0.0870 H     1 <1>   0.0800 
 29 H       -1.1750     4.1260     1.8680 H     1 <1>   0.0800 
 30 H       -0.4470     4.6900    -1.0010 H     1 <1>   0.0800 
 31 H       -2.7490     3.3620    -1.4610 H     1 <1>   0.1500 
 32 H       -2.9100     5.7130     2.1070 H     1 <1>   0.1500 
 33 H       -4.9240     4.2490    -2.1350 H     1 <1>   0.1500 
 34 H       -5.0890     6.5870     1.4210 H     1 <1>   0.1500 
 35 H       -6.1030     5.8620    -0.7010 H     1 <1>   0.1500 
 36 H       -0.1810     8.6150     0.9110 H     1 <1>   0.0800 
 37 H        2.0760     7.3670    -1.7640 H     1 <1>   0.0800 
 38 H        0.5190     6.9180    -2.4330 H     1 <1>   0.0800 
 39 H        1.5310     5.7270    -1.6430 H     1 <1>   0.0800 
 40 H        0.9220     9.4300    -1.7800 H     1 <1>   0.0800 
 41 H       -0.7590     9.2820    -1.3370 H     1 <1>   0.0800 
 42 H        2.1020     8.1410     1.5890 H     1 <1>   0.0800 
 43 H        2.7190     8.6910     0.0550 H     1 <1>   0.0800 
 44 H       -0.5130    11.0100     0.3540 H     1 <1>   0.0800 
 45 H        0.0410    11.6140    -1.1900 H     1 <1>   0.0800 
 46 H        2.9050    10.4680     1.7030 H     1 <1>   0.0800 
 47 H        1.2080    10.3310     2.0960 H     1 <1>   0.0800 
 48 H        2.2960    11.0880    -0.5410 H     1 <1>   0.4500 
 49 H        1.2090    13.2580    -0.0880 H     1 <1>   0.0800 
 50 H        1.1020    12.7360     1.5770 H     1 <1>   0.0800 
 51 H        3.6710    12.8970    -0.0500 H     1 <1>   0.0800 
 52 H        3.5690    12.4830     1.6570 H     1 <1>   0.0800 
 53 H        3.1400    14.0740     1.1140 H     1 <1>   0.0800 
@<TRIPOS>BOND
  1   1   2  2   
  2   2   3  am  
  3   2   4  1   
  4   3   5  1   
  5   3  26  1   
  6   4   6  1   
  7   4  27  1   
  8   4  28  1   
  9   5   7  1   
 10   5   8  1   
 11   5  29  1   
 12   6   8  1   
 13   7   9  ar  
 14   7  10  ar  
 15   8  11  1   
 16   8  30  1   
 17   9  12  ar  
 18   9  31  1   
 19  10  13  ar  
 20  10  32  1   
 21  11  14  2   
 22  11  15  am  
 23  12  16  ar  
 24  12  33  1   
 25  13  16  ar  
 26  13  34  1   
 27  15  17  1   
 28  15  18  1   
 29  16  35  1   
 30  17  19  1   
 31  17  20  1   
 32  17  36  1   
 33  18  37  1   
 34  18  38  1   
 35  18  39  1   
 36  19  21  1   
 37  19  40  1   
 38  19  41  1   
 39  20  22  1   
 40  20  42  1   
 41  20  43  1   
 42  21  23  1   
 43  21  44  1   
 44  21  45  1   
 45  22  23  1   
 46  22  46  1   
 47  22  47  1   
 48  23  24  1   
 49  23  48  1   
 50  24  25  1   
 51  24  49  1   
 52  24  50  1   
 53  25  51  1   
 54  25  52  1   
 55  25  53  1   
@<TRIPOS>SUBSTRUCTURE
  1 ****  11 GROUP 4 **** **** 0

# MOE 2024.06 (io_trps.svl 2023.06)
