@<TRIPOS>MOLECULE
NONAME
47 49 1 0 0 
SMALL
USER_CHARGES


@<TRIPOS>ATOM
  1 O        0.2470    -0.1830    -1.4410 O.2   1 <1>  -0.5700 
  2 C       -0.6110     0.6510    -1.2790 C.2   1 <1>   0.5690 
  3 N       -1.9150     0.3170    -1.0420 N.am  1 <1>  -0.6600 
  4 C       -0.1910     2.1020    -1.3050 C.3   1 <1>  -0.0990 
  5 C       -3.0260     1.2610    -0.7420 C.3   1 <1>   0.1400 
  6 C       -2.3690    -1.0850    -0.8860 C.3   1 <1>   0.1400 
  7 C        0.1160     2.5670     0.1230 C.3   1 <1>   0.0960 
  8 C       -4.2280     0.3700    -0.4240 C.3   1 <1>   0.2000 
  9 C       -3.6410    -0.9870    -0.0430 C.3   1 <1>  -0.0800 
 10 N       -0.3760     3.9400     0.3340 N.pl3 1 <1>   0.3140 
 11 O       -4.9790     0.8730     0.6260 O.3   1 <1>  -0.6800 
 12 C       -4.6330    -2.1430    -0.2580 C.3   1 <1>  -0.0160 
 13 N       -1.6610     4.1600     0.6700 N.2   1 <1>  -0.7070 
 14 C        0.3050     5.1010     0.2020 C.2   1 <1>  -0.3320 
 15 C       -4.0380    -3.4770     0.1610 C.ar  1 <1>   0.1670 
 16 C       -1.7670     5.4480     0.7510 C.2   1 <1>   0.1080 
 17 C       -0.5700     6.0930     0.4690 C.2   1 <1>  -0.1500 
 18 C        1.7710     5.2170    -0.1790 C.3   1 <1>  -0.0600 
 19 N       -3.3050    -4.1080    -0.7410 N.ar  1 <1>  -0.6200 
 20 C       -4.2750    -3.9710     1.4430 C.ar  1 <1>   0.1600 
 21 C       -3.0640     6.1320     1.1140 C.3   1 <1>  -0.0590 
 22 C       -2.8260    -5.2520    -0.2800 C.ar  1 <1>   0.1600 
 23 N       -3.7970    -5.1140     1.9060 N.ar  1 <1>  -0.6200 
 24 C       -3.0640    -5.7380     1.0000 C.ar  1 <1>   0.1600 
 25 H        0.6870     2.2030    -1.9150 H     1 <1>   0.0800 
 26 H       -0.9730     2.6920    -1.7470 H     1 <1>   0.0800 
 27 H       -2.7660     1.8660     0.1090 H     1 <1>   0.0800 
 28 H       -3.2310     1.8860    -1.5930 H     1 <1>   0.0800 
 29 H       -2.5810    -1.4950    -1.8590 H     1 <1>   0.0800 
 30 H       -1.6170    -1.6880    -0.4040 H     1 <1>   0.0800 
 31 H        1.1710     2.5240     0.3180 H     1 <1>   0.0800 
 32 H       -0.3830     1.9370     0.8370 H     1 <1>   0.0800 
 33 H       -4.8630     0.2900    -1.2900 H     1 <1>   0.0800 
 34 H       -3.3360    -0.9650     0.9890 H     1 <1>   0.0800 
 35 H       -4.3950     1.1380     1.3650 H     1 <1>   0.4000 
 36 H       -4.9190    -2.1950    -1.2940 H     1 <1>   0.0800 
 37 H       -5.5240    -1.9530     0.3130 H     1 <1>   0.0800 
 38 H       -0.4070     7.1550     0.4690 H     1 <1>   0.1500 
 39 H        2.0570     6.2530    -0.2320 H     1 <1>   0.0800 
 40 H        1.9440     4.7660    -1.1390 H     1 <1>   0.0800 
 41 H        2.3870     4.7310     0.5570 H     1 <1>   0.0800 
 42 H       -4.8840    -3.3940     2.1160 H     1 <1>   0.1500 
 43 H       -2.9410     7.1990     1.1040 H     1 <1>   0.0800 
 44 H       -3.3710     5.8210     2.0950 H     1 <1>   0.0800 
 45 H       -3.8240     5.8570     0.4060 H     1 <1>   0.0800 
 46 H       -2.2150    -5.8340    -0.9480 H     1 <1>   0.1500 
 47 H       -2.6300    -6.6810     1.2830 H     1 <1>   0.1500 
@<TRIPOS>BOND
  1   1   2  2   
  2   2   3  am  
  3   2   4  1   
  4   3   5  1   
  5   3   6  1   
  6   4   7  1   
  7   4  25  1   
  8   4  26  1   
  9   5   8  1   
 10   5  27  1   
 11   5  28  1   
 12   6   9  1   
 13   6  29  1   
 14   6  30  1   
 15   7  10  1   
 16   7  31  1   
 17   7  32  1   
 18   8   9  1   
 19   8  11  1   
 20   8  33  1   
 21   9  12  1   
 22   9  34  1   
 23  10  13  1   
 24  10  14  1   
 25  11  35  1   
 26  12  15  1   
 27  12  36  1   
 28  12  37  1   
 29  13  16  2   
 30  14  17  2   
 31  14  18  1   
 32  15  19  ar  
 33  15  20  ar  
 34  16  17  1   
 35  16  21  1   
 36  17  38  1   
 37  18  39  1   
 38  18  40  1   
 39  18  41  1   
 40  19  22  ar  
 41  20  23  ar  
 42  20  42  1   
 43  21  43  1   
 44  21  44  1   
 45  21  45  1   
 46  22  24  ar  
 47  22  46  1   
 48  23  24  ar  
 49  24  47  1   
@<TRIPOS>SUBSTRUCTURE
  1 ****   3 GROUP 4 **** **** 0

# MOE 2024.06 (io_trps.svl 2023.06)
