@<TRIPOS>MOLECULE
NONAME
49 51 1 0 0 
SMALL
USER_CHARGES


@<TRIPOS>ATOM
  1 O        0.5820    -0.2930    -1.7020 O.2   1 <1>  -0.5700 
  2 C        1.2800    -0.6760    -0.7850 C.2   1 <1>   0.5440 
  3 N        1.9860     0.2150    -0.0130 N.am  1 <1>  -0.4940 
  4 C        1.4000    -2.0810    -0.4950 C.ar  1 <1>   0.0860 
  5 C        2.2090     1.6100    -0.1250 C.2   1 <1>  -0.0880 
  6 C        0.3190    -2.8530    -0.0410 C.ar  1 <1>   0.0000 
  7 C        2.5930    -2.7630    -0.6280 C.ar  1 <1>  -0.1500 
  8 N        1.3690     2.5700    -0.6120 N.pl3 1 <1>   0.3140 
  9 C        3.3340     2.2580     0.2650 C.2   1 <1>  -0.1810 
 10 C        0.5300    -4.1860     0.2460 C.ar  1 <1>   0.1050 
 11 C       -1.0450    -2.6560     0.2520 C.2   1 <1>   0.1080 
 12 C        2.6920    -4.1230    -0.3130 C.ar  1 <1>   0.1660 
 13 N        1.9320     3.7960    -0.5440 N.2   1 <1>  -0.7070 
 14 C       -0.0190     2.4450    -1.0730 C.3   1 <1>   0.0160 
 15 C        3.1020     3.6010    -0.0270 C.2   1 <1>   0.1080 
 16 C        4.5900     1.6640     0.8810 C.3   1 <1>   0.0210 
 17 N        1.6950    -4.8470     0.1250 N.ar  1 <1>  -0.5670 
 18 N       -0.6680    -4.6760     0.6720 N.pl3 1 <1>   0.3140 
 19 N       -1.6290    -3.7260     0.6770 N.2   1 <1>  -0.7070 
 20 C       -1.7930    -1.3500     0.1000 C.3   1 <1>  -0.0590 
 21 C        4.0170    -4.8360    -0.4780 C.3   1 <1>  -0.0970 
 22 C        4.0670     4.7500     0.2110 C.3   1 <1>   0.0210 
 23 C        5.5700     1.2400    -0.2140 C.3   1 <1>  -0.2400 
 24 C       -0.9340    -6.0600     1.0810 C.3   1 <1>   0.0160 
 25 C        3.8840     5.3460     1.6110 C.3   1 <1>  -0.2400 
 26 H        2.5530    -0.2260     0.7100 H     1 <1>   0.3700 
 27 H        3.4620    -2.2420    -0.9870 H     1 <1>   0.1500 
 28 H       -0.5270     1.7100    -0.4800 H     1 <1>   0.0800 
 29 H       -0.0180     2.1500    -2.1050 H     1 <1>   0.0800 
 30 H       -0.5110     3.3940    -0.9710 H     1 <1>   0.0800 
 31 H        4.3290     0.8110     1.4810 H     1 <1>   0.0800 
 32 H        5.0560     2.3840     1.5300 H     1 <1>   0.0800 
 33 H       -1.2820    -0.5660     0.6270 H     1 <1>   0.0800 
 34 H       -2.7850    -1.4480     0.5020 H     1 <1>   0.0800 
 35 H       -1.8660    -1.0930    -0.9410 H     1 <1>   0.0800 
 36 H        4.7790    -4.1720    -0.8420 H     1 <1>   0.0800 
 37 H        3.9040    -5.6470    -1.1750 H     1 <1>   0.0800 
 38 H        4.3290    -5.2390     0.4690 H     1 <1>   0.0800 
 39 H        3.8820     5.5100    -0.5270 H     1 <1>   0.0800 
 40 H        5.0770     4.4080     0.0850 H     1 <1>   0.0800 
 41 H        5.1120     0.5110    -0.8590 H     1 <1>   0.0800 
 42 H        6.4560     0.8140     0.2220 H     1 <1>   0.0800 
 43 H        5.8510     2.0910    -0.8080 H     1 <1>   0.0800 
 44 H       -0.3010    -6.3070     1.9120 H     1 <1>   0.0800 
 45 H       -0.7240    -6.7140     0.2560 H     1 <1>   0.0800 
 46 H       -1.9660    -6.1530     1.3670 H     1 <1>   0.0800 
 47 H        2.8750     5.7030     1.7220 H     1 <1>   0.0800 
 48 H        4.5620     6.1670     1.7570 H     1 <1>   0.0800 
 49 H        4.0690     4.6000     2.3630 H     1 <1>   0.0800 
@<TRIPOS>BOND
  1   1   2  2   
  2   2   3  am  
  3   2   4  1   
  4   3   5  1   
  5   3  26  1   
  6   4   6  ar  
  7   4   7  ar  
  8   5   8  1   
  9   5   9  2   
 10   6  10  ar  
 11   6  11  1   
 12   7  12  ar  
 13   7  27  1   
 14   8  13  1   
 15   8  14  1   
 16   9  15  1   
 17   9  16  1   
 18  10  17  ar  
 19  10  18  1   
 20  11  19  2   
 21  11  20  1   
 22  12  17  ar  
 23  12  21  1   
 24  13  15  2   
 25  14  28  1   
 26  14  29  1   
 27  14  30  1   
 28  15  22  1   
 29  16  23  1   
 30  16  31  1   
 31  16  32  1   
 32  18  19  1   
 33  18  24  1   
 34  20  33  1   
 35  20  34  1   
 36  20  35  1   
 37  21  36  1   
 38  21  37  1   
 39  21  38  1   
 40  22  25  1   
 41  22  39  1   
 42  22  40  1   
 43  23  41  1   
 44  23  42  1   
 45  23  43  1   
 46  24  44  1   
 47  24  45  1   
 48  24  46  1   
 49  25  47  1   
 50  25  48  1   
 51  25  49  1   
@<TRIPOS>SUBSTRUCTURE
  1 ****   2 GROUP 4 **** **** 0

# MOE 2024.06 (io_trps.svl 2023.06)
