@<TRIPOS>MOLECULE
Untitled Document
58 61 1 0 0 
SMALL
USER_CHARGES


@<TRIPOS>ATOM
  1 O        0.9480     1.7120     0.0950 O.2   1 <1>  -0.5700 
  2 C        2.1110     2.0260    -0.0680 C.2   1 <1>   0.6160 
  3 N        3.0870     1.1750     0.3530 N.am  1 <1>  -0.5470 
  4 C        2.5130     3.2480    -0.6830 C.2   1 <1>  -0.1360 
  5 C        4.4460     1.4460     0.2100 C.ar  1 <1>   0.1170 
  6 C        3.8230     3.5570    -0.8440 C.2   1 <1>  -0.1780 
  7 C        4.8400     2.6520    -0.3960 C.ar  1 <1>   0.0280 
  8 C        5.4110     0.5470     0.6560 C.ar  1 <1>  -0.1500 
  9 C        6.2020     2.9160    -0.5360 C.ar  1 <1>  -0.1500 
 10 C        6.7530     0.8260     0.5090 C.ar  1 <1>  -0.1500 
 11 C        7.1550     2.0210    -0.0930 C.ar  1 <1>   0.0830 
 12 O        8.4540     2.3720    -0.2770 O.3   1 <1>  -0.3630 
 13 C        9.5020     1.5190     0.1240 C.3   1 <1>   0.1200 
 14 C       10.8230     2.2060    -0.2150 C.3   1 <1>  -0.1600 
 15 C       12.0040     1.3120     0.1540 C.3   1 <1>   0.1400 
 16 N       13.2530     2.0450    -0.1180 N.am  1 <1>  -0.7300 
 17 C       14.2010     2.3570     0.7970 C.2   1 <1>   0.6900 
 18 O       14.1070     1.9810     1.9520 O.2   1 <1>  -0.5700 
 19 N       15.2280     3.1670     0.4150 N.am  1 <1>  -0.5090 
 20 C       15.0060     4.6440     0.3560 C.3   1 <1>   0.2200 
 21 C       16.6000     2.7930     0.8100 C.3   1 <1>   0.0490 
 22 C       13.9360     5.1510     1.3550 C.3   1 <1>   0.2000 
 23 C       14.6430     5.0670    -1.0750 C.3   1 <1>  -0.1600 
 24 C       17.6880     2.8950    -0.2100 C.3   1 <1>  -0.2000 
 25 C       17.1920     1.5520     0.2250 C.3   1 <1>  -0.2000 
 26 O       14.2820     4.8030     2.6500 O.3   1 <1>  -0.6800 
 27 C       13.7870     6.6720     1.2830 C.3   1 <1>  -0.1600 
 28 C       14.4720     6.5920    -1.1680 C.3   1 <1>  -0.1600 
 29 C       13.4450     7.1140    -0.1500 C.3   1 <1>  -0.1600 
 30 H        2.7580     0.3140     0.7860 H     1 <1>   0.3700 
 31 H        1.7190     3.8950    -1.0030 H     1 <1>   0.1500 
 32 H        4.1380     4.4760    -1.3070 H     1 <1>   0.1500 
 33 H        5.1010    -0.3720     1.1180 H     1 <1>   0.1500 
 34 H        6.5220     3.8320    -0.9960 H     1 <1>   0.1500 
 35 H        7.4720     0.1120     0.8640 H     1 <1>   0.1500 
 36 H        9.4200     1.3550     1.1850 H     1 <1>   0.0800 
 37 H        9.4040     0.5900    -0.4100 H     1 <1>   0.0800 
 38 H       10.8500     2.4190    -1.2690 H     1 <1>   0.0800 
 39 H       10.8870     3.1250     0.3400 H     1 <1>   0.0800 
 40 H       11.9890     0.4060    -0.4270 H     1 <1>   0.0800 
 41 H       11.9540     1.0490     1.1990 H     1 <1>   0.0800 
 42 H       13.4410     2.3100    -1.0840 H     1 <1>   0.3700 
 43 H       15.9280     5.1370     0.6120 H     1 <1>   0.0800 
 44 H       16.8160     3.0250     1.8410 H     1 <1>   0.1000 
 45 H       12.9830     4.6980     1.1370 H     1 <1>   0.0800 
 46 H       15.4210     4.7560    -1.7490 H     1 <1>   0.0800 
 47 H       13.7240     4.5930    -1.3690 H     1 <1>   0.0800 
 48 H       17.4470     3.2350    -1.2010 H     1 <1>   0.1000 
 49 H       18.6700     3.2000     0.1080 H     1 <1>   0.1000 
 50 H       17.8280     0.9460     0.8460 H     1 <1>   0.1000 
 51 H       16.5940     0.9680    -0.4510 H     1 <1>   0.1000 
 52 H       14.3240     3.8180     2.7110 H     1 <1>   0.4000 
 53 H       13.0050     6.9860     1.9520 H     1 <1>   0.0800 
 54 H       14.7070     7.1360     1.5910 H     1 <1>   0.0800 
 55 H       15.4210     7.0680    -0.9860 H     1 <1>   0.0800 
 56 H       14.1590     6.8600    -2.1630 H     1 <1>   0.0800 
 57 H       12.4670     6.7450    -0.4100 H     1 <1>   0.0800 
 58 H       13.4090     8.1900    -0.1930 H     1 <1>   0.0800 
@<TRIPOS>BOND
  1   1   2  2   
  2   2   3  am  
  3   2   4  1   
  4   3   5  1   
  5   3  30  1   
  6   4   6  2   
  7   4  31  1   
  8   5   7  ar  
  9   5   8  ar  
 10   6   7  1   
 11   6  32  1   
 12   7   9  ar  
 13   8  10  ar  
 14   8  33  1   
 15   9  11  ar  
 16   9  34  1   
 17  10  11  ar  
 18  10  35  1   
 19  11  12  1   
 20  12  13  1   
 21  13  14  1   
 22  13  36  1   
 23  13  37  1   
 24  14  15  1   
 25  14  38  1   
 26  14  39  1   
 27  15  16  1   
 28  15  40  1   
 29  15  41  1   
 30  16  17  am  
 31  16  42  1   
 32  17  18  2   
 33  17  19  am  
 34  19  20  1   
 35  19  21  1   
 36  20  22  1   
 37  20  23  1   
 38  20  43  1   
 39  21  24  1   
 40  21  25  1   
 41  21  44  1   
 42  22  26  1   
 43  22  27  1   
 44  22  45  1   
 45  23  28  1   
 46  23  46  1   
 47  23  47  1   
 48  24  25  1   
 49  24  48  1   
 50  24  49  1   
 51  25  50  1   
 52  25  51  1   
 53  26  52  1   
 54  27  29  1   
 55  27  53  1   
 56  27  54  1   
 57  28  29  1   
 58  28  55  1   
 59  28  56  1   
 60  29  57  1   
 61  29  58  1   
@<TRIPOS>SUBSTRUCTURE
  1 ****  14 GROUP 4 **** **** 0

# MOE 2024.06 (io_trps.svl 2023.06)
