@<TRIPOS>MOLECULE
NONAME
46 48 1 0 0 
SMALL
USER_CHARGES


@<TRIPOS>ATOM
  1 F        0.7000    -0.0200    -0.4280 F     1 <1>  -0.1900 
  2 C        1.8500    -0.5930    -0.1880 C.ar  1 <1>   0.1900 
  3 C        2.6450    -0.2310     0.9060 C.ar  1 <1>   0.0830 
  4 C        2.2450    -1.5750    -1.0780 C.ar  1 <1>  -0.1500 
  5 O        2.3630     0.7130     1.8470 O.3   1 <1>  -0.3630 
  6 C        3.8540    -0.8880     1.0680 C.ar  1 <1>  -0.1500 
  7 C        3.4580    -2.2100    -0.8870 C.ar  1 <1>  -0.1500 
  8 C        1.1070     1.3500     1.9440 C.3   1 <1>   0.0400 
  9 C        4.2890    -1.8740     0.1830 C.ar  1 <1>   0.0860 
 10 C        5.5680    -2.5280     0.3770 C.2   1 <1>   0.5440 
 11 O        5.7710    -3.1300     1.4140 O.2   1 <1>  -0.5700 
 12 N        6.5650    -2.4840    -0.5780 N.am  1 <1>  -0.6600 
 13 C        7.7980    -3.3190    -0.4030 C.3   1 <1>   0.1400 
 14 C        6.5450    -1.5430    -1.7370 C.3   1 <1>   0.1400 
 15 C        8.8480    -2.6140     0.4690 C.3   1 <1>   0.2090 
 16 C        7.8560    -0.7690    -1.9390 C.3   1 <1>  -0.1600 
 17 N        9.4880    -1.4610    -0.2410 N.pl3 1 <1>  -0.8380 
 18 C        8.5640    -0.3710    -0.6410 C.3   1 <1>   0.2090 
 19 C       10.8030    -1.1330     0.0670 C.ar  1 <1>   0.4100 
 20 N       11.2650    -1.4050     1.2950 N.ar  1 <1>  -0.3100 
 21 C       11.6040    -0.5370    -0.8900 C.ar  1 <1>  -0.1500 
 22 N       12.4990    -1.1030     1.6270 N.ar  1 <1>  -0.3100 
 23 C       12.8950    -0.2200    -0.5460 C.ar  1 <1>  -0.1500 
 24 C       13.2960    -0.5260     0.7360 C.ar  1 <1>   0.1670 
 25 C       14.7040    -0.2110     1.1990 C.3   1 <1>  -0.0970 
 26 H        1.6070    -1.8350    -1.9050 H     1 <1>   0.1500 
 27 H        4.4780    -0.6310     1.9060 H     1 <1>   0.1500 
 28 H        3.7730    -2.9810    -1.5700 H     1 <1>   0.1500 
 29 H        1.1140     1.9700     2.8220 H     1 <1>   0.0800 
 30 H        0.3400     0.6010     2.0330 H     1 <1>   0.0800 
 31 H        0.9540     1.9580     1.0700 H     1 <1>   0.0800 
 32 H        8.2250    -3.5620    -1.3600 H     1 <1>   0.0800 
 33 H        7.5260    -4.2440     0.0750 H     1 <1>   0.0800 
 34 H        5.7610    -0.8200    -1.5930 H     1 <1>   0.0800 
 35 H        6.3160    -2.0950    -2.6320 H     1 <1>   0.0800 
 36 H        9.6080    -3.3320     0.7240 H     1 <1>   0.0800 
 37 H        8.3950    -2.2770     1.3860 H     1 <1>   0.0800 
 38 H        7.6210     0.1260    -2.4850 H     1 <1>   0.0800 
 39 H        8.5290    -1.3400    -2.5540 H     1 <1>   0.0800 
 40 H        7.8520    -0.1800     0.1450 H     1 <1>   0.0800 
 41 H        9.1260     0.5330    -0.8020 H     1 <1>   0.0800 
 42 H       11.2160    -0.3410    -1.8700 H     1 <1>   0.1500 
 43 H       13.5600     0.2450    -1.2510 H     1 <1>   0.1500 
 44 H       14.6640     0.4540     2.0430 H     1 <1>   0.0800 
 45 H       15.2750     0.2530     0.4170 H     1 <1>   0.0800 
 46 H       15.1950    -1.1190     1.4980 H     1 <1>   0.0800 
@<TRIPOS>BOND
  1   1   2  1   
  2   2   3  ar  
  3   2   4  ar  
  4   3   5  1   
  5   3   6  ar  
  6   4   7  ar  
  7   4  26  1   
  8   5   8  1   
  9   6   9  ar  
 10   6  27  1   
 11   7   9  ar  
 12   7  28  1   
 13   8  29  1   
 14   8  30  1   
 15   8  31  1   
 16   9  10  1   
 17  10  11  2   
 18  10  12  am  
 19  12  13  1   
 20  12  14  1   
 21  13  15  1   
 22  13  32  1   
 23  13  33  1   
 24  14  16  1   
 25  14  34  1   
 26  14  35  1   
 27  15  17  1   
 28  15  36  1   
 29  15  37  1   
 30  16  18  1   
 31  16  38  1   
 32  16  39  1   
 33  17  18  1   
 34  17  19  1   
 35  18  40  1   
 36  18  41  1   
 37  19  20  ar  
 38  19  21  ar  
 39  20  22  ar  
 40  21  23  ar  
 41  21  42  1   
 42  22  24  ar  
 43  23  24  ar  
 44  23  43  1   
 45  24  25  1   
 46  25  44  1   
 47  25  45  1   
 48  25  46  1   
@<TRIPOS>SUBSTRUCTURE
  1 ****  12 GROUP 4 **** **** 0

# MOE 2024.06 (io_trps.svl 2023.06)
