@<TRIPOS>MOLECULE
NONAME
43 45 1 0 0 
SMALL
USER_CHARGES


@<TRIPOS>ATOM
  1 S        2.9080    -0.4400     2.1220 S.3   1 <1>  -0.0800 
  2 C        1.5880    -0.3930     0.9810 C.2   1 <1>   0.1980 
  3 C        2.7320    -2.1610     2.2060 C.2   1 <1>  -0.1100 
  4 N        1.0940    -1.5330     0.7090 N.2   1 <1>  -0.5650 
  5 C        1.1750     0.9620     0.4390 C.3   1 <1>   0.0200 
  6 C        1.7310    -2.5830     1.4010 C.2   1 <1>   0.1410 
  7 C        0.4000     1.7760     1.4850 C.3   1 <1>  -0.1600 
  8 C        1.3460    -3.9920     1.2670 C.2   1 <1>   0.7160 
  9 C       -0.0450     3.1330     0.9270 C.3   1 <1>  -0.2400 
 10 O        1.9200    -4.8160     1.9600 O.2   1 <1>  -0.5700 
 11 N        0.3730    -4.4690     0.4050 N.am  1 <1>  -0.6600 
 12 C       -0.4380    -3.6720    -0.5500 C.3   1 <1>   0.1400 
 13 C       -0.0050    -5.9010     0.3340 C.3   1 <1>   0.1400 
 14 C       -1.3280    -4.6880    -1.2680 C.3   1 <1>   0.2000 
 15 C       -1.3670    -5.9150    -0.3600 C.3   1 <1>  -0.0800 
 16 O       -2.6130    -4.2040    -1.4570 O.3   1 <1>  -0.6800 
 17 C       -1.6710    -7.2120    -1.1290 C.3   1 <1>  -0.0170 
 18 C       -1.7270    -8.4130    -0.1990 C.ar  1 <1>   0.1670 
 19 N       -0.5740    -9.0010     0.0770 N.ar  1 <1>  -0.6200 
 20 C       -2.9500    -8.8340     0.3190 C.ar  1 <1>   0.1600 
 21 C       -0.7250   -10.0270     0.8990 C.ar  1 <1>   0.1600 
 22 N       -3.1030    -9.8590     1.1410 N.ar  1 <1>  -0.6200 
 23 C       -1.9480   -10.4410     1.4130 C.ar  1 <1>   0.1600 
 24 H        3.3930    -2.7110     2.8520 H     1 <1>   0.1500 
 25 H        2.0540     1.4970     0.1280 H     1 <1>   0.0800 
 26 H        0.5550     0.8070    -0.4260 H     1 <1>   0.0800 
 27 H       -0.4650     1.2170     1.7970 H     1 <1>   0.0800 
 28 H        1.0210     1.9360     2.3500 H     1 <1>   0.0800 
 29 H       -0.6890     2.9980     0.0750 H     1 <1>   0.0800 
 30 H        0.8080     3.7170     0.6280 H     1 <1>   0.0800 
 31 H       -0.5860     3.6790     1.6790 H     1 <1>   0.0800 
 32 H       -1.0310    -2.9580    -0.0050 H     1 <1>   0.0800 
 33 H        0.2020    -3.1650    -1.2510 H     1 <1>   0.0800 
 34 H        0.7310    -6.4300    -0.2500 H     1 <1>   0.0800 
 35 H       -0.0580    -6.3410     1.3160 H     1 <1>   0.0800 
 36 H       -0.9080    -4.9250    -2.2310 H     1 <1>   0.0800 
 37 H       -2.1110    -5.7700     0.4040 H     1 <1>   0.0800 
 38 H       -2.9940    -3.9120    -0.6060 H     1 <1>   0.4000 
 39 H       -0.9170    -7.3820    -1.8780 H     1 <1>   0.0800 
 40 H       -2.6130    -7.1080    -1.6380 H     1 <1>   0.0800 
 41 H       -3.8410    -8.2990     0.0430 H     1 <1>   0.1500 
 42 H        0.1620   -10.5660     1.1800 H     1 <1>   0.1500 
 43 H       -1.9690   -11.2880     2.0760 H     1 <1>   0.1500 
@<TRIPOS>BOND
  1   1   2  1   
  2   1   3  1   
  3   2   4  2   
  4   2   5  1   
  5   3   6  2   
  6   3  24  1   
  7   4   6  1   
  8   5   7  1   
  9   5  25  1   
 10   5  26  1   
 11   6   8  1   
 12   7   9  1   
 13   7  27  1   
 14   7  28  1   
 15   8  10  2   
 16   8  11  am  
 17   9  29  1   
 18   9  30  1   
 19   9  31  1   
 20  11  12  1   
 21  11  13  1   
 22  12  14  1   
 23  12  32  1   
 24  12  33  1   
 25  13  15  1   
 26  13  34  1   
 27  13  35  1   
 28  14  15  1   
 29  14  16  1   
 30  14  36  1   
 31  15  17  1   
 32  15  37  1   
 33  16  38  1   
 34  17  18  1   
 35  17  39  1   
 36  17  40  1   
 37  18  19  ar  
 38  18  20  ar  
 39  19  21  ar  
 40  20  22  ar  
 41  20  41  1   
 42  21  23  ar  
 43  21  42  1   
 44  22  23  ar  
 45  23  43  1   
@<TRIPOS>SUBSTRUCTURE
  1 ****  11 GROUP 4 **** **** 0

# MOE 2024.06 (io_trps.svl 2023.06)
