@<TRIPOS>MOLECULE
NONAME
56 58 1 0 0 
SMALL
USER_CHARGES


@<TRIPOS>ATOM
  1 O        3.4130    -0.3730    -1.3400 O.2   1 <1>  -0.5700 
  2 C        2.5890    -0.7700    -0.5370 C.2   1 <1>   0.5440 
  3 N        2.5210    -0.1400     0.6730 N.am  1 <1>  -0.7300 
  4 C        1.7000    -1.8710    -0.8740 C.ar  1 <1>   0.0860 
  5 C        3.1170     1.1700     0.9890 C.3   1 <1>   0.1400 
  6 C        0.4500    -2.0790    -0.2670 C.ar  1 <1>   0.0830 
  7 C        2.0810    -2.7770    -1.8680 C.ar  1 <1>  -0.1500 
  8 C        2.0740     2.2490     0.7010 C.3   1 <1>  -0.1600 
  9 O        0.0300    -1.2500     0.7210 O.3   1 <1>  -0.3620 
 10 C       -0.3690    -3.1510    -0.6380 C.ar  1 <1>   0.0830 
 11 C        1.2790    -3.8360    -2.2430 C.ar  1 <1>  -0.1500 
 12 C        2.6550     3.6590     0.8900 C.3   1 <1>  -0.1600 
 13 C       -0.9560    -0.2940     0.4050 C.3   1 <1>   0.1200 
 14 O       -1.5660    -3.3000     0.0000 O.3   1 <1>  -0.3630 
 15 C        0.0530    -4.0260    -1.6310 C.ar  1 <1>  -0.1500 
 16 C        1.6370     4.7560     0.5710 C.3   1 <1>   0.1400 
 17 C       -1.7290    -0.0090     1.6920 C.3   1 <1>  -0.1600 
 18 C       -2.3270    -4.4810    -0.1280 C.3   1 <1>   0.0400 
 19 N        1.2430     4.6750    -0.8520 N.am  1 <1>  -0.7300 
 20 C       -2.9010     0.9580     1.4790 C.3   1 <1>   0.0960 
 21 C        0.1410     5.1660    -1.4620 C.2   1 <1>   0.5690 
 22 N       -2.4530     2.3320     1.1740 N.pl3 1 <1>   0.3140 
 23 O       -0.0850     4.8770    -2.6090 O.2   1 <1>  -0.5700 
 24 C       -0.8210     6.1010    -0.7550 C.3   1 <1>  -0.0990 
 25 N       -1.9310     3.1430     2.1000 N.2   1 <1>  -0.4180 
 26 C       -2.6250     3.0110     0.0380 C.2   1 <1>  -0.3020 
 27 C       -2.2110     5.4720    -0.5920 C.3   1 <1>   0.0210 
 28 N       -1.7800     4.3110     1.5800 N.2   1 <1>  -0.2270 
 29 C       -2.2050     4.2540     0.3140 C.2   1 <1>   0.0460 
 30 H        1.7550    -0.4380     1.2880 H     1 <1>   0.3700 
 31 H        3.9920     1.3260     0.3780 H     1 <1>   0.0800 
 32 H        3.4130     1.1910     2.0240 H     1 <1>   0.0800 
 33 H        3.0320    -2.6410    -2.3560 H     1 <1>   0.1500 
 34 H        1.2300     2.1200     1.3570 H     1 <1>   0.0800 
 35 H        1.7380     2.1310    -0.3140 H     1 <1>   0.0800 
 36 H        1.6070    -4.5140    -3.0130 H     1 <1>   0.1500 
 37 H        3.5230     3.7910     0.2660 H     1 <1>   0.0800 
 38 H        2.9680     3.7750     1.9130 H     1 <1>   0.0800 
 39 H       -1.6080    -0.6980    -0.3510 H     1 <1>   0.0800 
 40 H       -0.4640     0.5870     0.0300 H     1 <1>   0.0800 
 41 H       -0.5500    -4.8560    -1.9470 H     1 <1>   0.1500 
 42 H        2.0710     5.7230     0.7620 H     1 <1>   0.0800 
 43 H        0.7710     4.6380     1.1990 H     1 <1>   0.0800 
 44 H       -1.0650     0.3900     2.4400 H     1 <1>   0.0800 
 45 H       -2.1250    -0.9410     2.0580 H     1 <1>   0.0800 
 46 H       -3.1650    -4.4130     0.5420 H     1 <1>   0.0800 
 47 H       -1.7140    -5.3230     0.1410 H     1 <1>   0.0800 
 48 H       -2.6770    -4.5650    -1.1410 H     1 <1>   0.0800 
 49 H        1.8140     4.0510    -1.4270 H     1 <1>   0.3700 
 50 H       -3.4910     1.0030     2.3760 H     1 <1>   0.0800 
 51 H       -3.5310     0.6110     0.6800 H     1 <1>   0.0800 
 52 H       -0.9090     6.9880    -1.3530 H     1 <1>   0.0800 
 53 H       -0.4390     6.3940     0.2040 H     1 <1>   0.0800 
 54 H       -3.0340     2.5940    -0.8620 H     1 <1>   0.1500 
 55 H       -2.5930     5.1940    -1.5580 H     1 <1>   0.0800 
 56 H       -2.8790     6.2020    -0.1710 H     1 <1>   0.0800 
@<TRIPOS>BOND
  1   1   2  2   
  2   2   3  am  
  3   2   4  1   
  4   3   5  1   
  5   3  30  1   
  6   4   6  ar  
  7   4   7  ar  
  8   5   8  1   
  9   5  31  1   
 10   5  32  1   
 11   6   9  1   
 12   6  10  ar  
 13   7  11  ar  
 14   7  33  1   
 15   8  12  1   
 16   8  34  1   
 17   8  35  1   
 18   9  13  1   
 19  10  14  1   
 20  10  15  ar  
 21  11  15  ar  
 22  11  36  1   
 23  12  16  1   
 24  12  37  1   
 25  12  38  1   
 26  13  17  1   
 27  13  39  1   
 28  13  40  1   
 29  14  18  1   
 30  15  41  1   
 31  16  19  1   
 32  16  42  1   
 33  16  43  1   
 34  17  20  1   
 35  17  44  1   
 36  17  45  1   
 37  18  46  1   
 38  18  47  1   
 39  18  48  1   
 40  19  21  am  
 41  19  49  1   
 42  20  22  1   
 43  20  50  1   
 44  20  51  1   
 45  21  23  2   
 46  21  24  1   
 47  22  25  1   
 48  22  26  1   
 49  24  27  1   
 50  24  52  1   
 51  24  53  1   
 52  25  28  2   
 53  26  29  2   
 54  26  54  1   
 55  27  29  1   
 56  27  55  1   
 57  27  56  1   
 58  28  29  1   
@<TRIPOS>SUBSTRUCTURE
  1 ****  13 GROUP 4 **** **** 0

# MOE 2024.06 (io_trps.svl 2023.06)
