@<TRIPOS>MOLECULE
NONAME
55 57 1 0 0 
SMALL
USER_CHARGES


@<TRIPOS>ATOM
  1 O       -0.8340    -0.4200     2.8020 O.2   1 <1>  -0.5700 
  2 C       -1.2560     0.4650     2.0950 C.2   1 <1>   0.5690 
  3 N       -2.1160     0.1750     1.0590 N.am  1 <1>  -0.6600 
  4 C       -0.8060     1.8880     2.4080 C.3   1 <1>   0.0440 
  5 C       -2.3510    -1.2360     0.6420 C.3   1 <1>   0.1400 
  6 C       -2.8440     1.1870     0.2420 C.3   1 <1>   0.1400 
  7 C       -0.1340     2.5800     1.2250 C.ar  1 <1>  -0.1440 
  8 C       -3.8600    -1.5600     0.6830 C.3   1 <1>   0.4230 
  9 C       -4.3450     0.8770     0.2940 C.3   1 <1>  -0.1600 
 10 C       -0.5320     3.8470     0.8290 C.ar  1 <1>  -0.1500 
 11 C        0.8810     1.9450     0.5300 C.ar  1 <1>  -0.1500 
 12 N       -4.1800    -3.0270     0.4180 N.4   1 <1>  -0.9590 
 13 C       -4.7020    -0.5640    -0.1690 C.3   1 <1>   0.0000 
 14 C        0.0580     4.4740    -0.2590 C.ar  1 <1>  -0.1430 
 15 C        1.4750     2.5630    -0.5540 C.ar  1 <1>  -0.1500 
 16 C       -5.6080    -3.2850     0.0410 C.3   1 <1>   0.3430 
 17 C       -3.2650    -3.7230    -0.5470 C.3   1 <1>   0.2630 
 18 C       -6.2170    -0.8130     0.1000 C.3   1 <1>  -0.1600 
 19 C       -4.3800    -0.7400    -1.6810 C.3   1 <1>   0.1200 
 20 C        1.0690     3.8250    -0.9590 C.ar  1 <1>  -0.1430 
 21 C       -0.4170     5.8630    -0.6590 C.3   1 <1>  -0.0970 
 22 C       -6.5320    -2.2230     0.6350 C.3   1 <1>  -0.1600 
 23 O       -4.9640     0.2550    -2.4480 O.3   1 <1>  -0.6800 
 24 C        1.7470     4.4690    -2.1600 C.3   1 <1>  -0.0970 
 25 H       -1.6570     2.4500     2.7420 H     1 <1>   0.0800 
 26 H       -0.1050     1.8560     3.2230 H     1 <1>   0.0800 
 27 H       -1.9530    -1.3600    -0.3480 H     1 <1>   0.0800 
 28 H       -1.8300    -1.9100     1.2990 H     1 <1>   0.0800 
 29 H       -2.6850     2.1800     0.6220 H     1 <1>   0.0800 
 30 H       -2.4810     1.1650    -0.7720 H     1 <1>   0.0800 
 31 H       -4.1520    -1.3700     1.7030 H     1 <1>   0.0800 
 32 H       -4.6670     1.0280     1.3100 H     1 <1>   0.0800 
 33 H       -4.8660     1.6060    -0.3030 H     1 <1>   0.0800 
 34 H       -1.3090     4.3540     1.3710 H     1 <1>   0.1500 
 35 H        1.2160     0.9660     0.8290 H     1 <1>   0.1500 
 36 H       -4.0440    -3.4850     1.3320 H     1 <1>   0.4500 
 37 H        2.2600     2.0510    -1.0810 H     1 <1>   0.1500 
 38 H       -5.7120    -3.2640    -1.0320 H     1 <1>   0.0800 
 39 H       -5.9070    -4.2630     0.3830 H     1 <1>   0.0800 
 40 H       -3.3200    -3.2630    -1.5200 H     1 <1>   0.0800 
 41 H       -3.5420    -4.7610    -0.6420 H     1 <1>   0.0800 
 42 H       -2.2450    -3.6780    -0.2010 H     1 <1>   0.0800 
 43 H       -6.5950    -0.1060     0.8210 H     1 <1>   0.0800 
 44 H       -6.7840    -0.6480    -0.7990 H     1 <1>   0.0800 
 45 H       -4.7370    -1.6830    -2.0550 H     1 <1>   0.0800 
 46 H       -3.3230    -0.6800    -1.8660 H     1 <1>   0.0800 
 47 H       -1.1940     6.2120    -0.0040 H     1 <1>   0.0800 
 48 H       -0.8040     5.8460    -1.6620 H     1 <1>   0.0800 
 49 H        0.4010     6.5590    -0.6110 H     1 <1>   0.0800 
 50 H       -7.5530    -2.4690     0.3990 H     1 <1>   0.0800 
 51 H       -6.4450    -2.2420     1.7090 H     1 <1>   0.0800 
 52 H       -5.9400     0.2370    -2.4020 H     1 <1>   0.4000 
 53 H        2.4910     3.8170    -2.5790 H     1 <1>   0.0800 
 54 H        2.2280     5.3830    -1.8640 H     1 <1>   0.0800 
 55 H        1.0200     4.6840    -2.9220 H     1 <1>   0.0800 
@<TRIPOS>BOND
  1   1   2  2   
  2   2   3  am  
  3   2   4  1   
  4   3   5  1   
  5   3   6  1   
  6   4   7  1   
  7   4  25  1   
  8   4  26  1   
  9   5   8  1   
 10   5  27  1   
 11   5  28  1   
 12   6   9  1   
 13   6  29  1   
 14   6  30  1   
 15   7  10  ar  
 16   7  11  ar  
 17   8  12  1   
 18   8  13  1   
 19   8  31  1   
 20   9  13  1   
 21   9  32  1   
 22   9  33  1   
 23  10  14  ar  
 24  10  34  1   
 25  11  15  ar  
 26  11  35  1   
 27  12  16  1   
 28  12  17  1   
 29  12  36  1   
 30  13  18  1   
 31  13  19  1   
 32  14  20  ar  
 33  14  21  1   
 34  15  20  ar  
 35  15  37  1   
 36  16  22  1   
 37  16  38  1   
 38  16  39  1   
 39  17  40  1   
 40  17  41  1   
 41  17  42  1   
 42  18  22  1   
 43  18  43  1   
 44  18  44  1   
 45  19  23  1   
 46  19  45  1   
 47  19  46  1   
 48  20  24  1   
 49  21  47  1   
 50  21  48  1   
 51  21  49  1   
 52  22  50  1   
 53  22  51  1   
 54  23  52  1   
 55  24  53  1   
 56  24  54  1   
 57  24  55  1   
@<TRIPOS>SUBSTRUCTURE
  1 ****   6 GROUP 4 **** **** 0

# MOE 2024.06 (io_trps.svl 2023.06)
