@<TRIPOS>MOLECULE
NONAME
41 42 1 0 0 
SMALL
USER_CHARGES


@<TRIPOS>ATOM
  1 S        2.2490     0.1050     1.1510 S.3   1 <1>  -0.0800 
  2 C        1.4160     1.1900     0.0470 C.2   1 <1>  -0.1400 
  3 C        1.5690    -1.3030     0.3550 C.2   1 <1>  -0.1100 
  4 C        0.6910     0.4850    -0.8430 C.2   1 <1>  -0.1500 
  5 C        1.6420     2.6790     0.2560 C.3   1 <1>   0.3800 
  6 C        0.7770    -0.9330    -0.6670 C.2   1 <1>  -0.1500 
  7 O        0.7160     3.4270    -0.4840 O.3   1 <1>  -0.5600 
  8 C        3.0590     3.0660    -0.2150 C.3   1 <1>   0.2090 
  9 C       -0.5640     3.4930     0.0710 C.3   1 <1>   0.0400 
 10 N        3.2250     4.5500    -0.3090 N.pl3 1 <1>  -0.8690 
 11 C        4.2580     5.3860    -0.1750 C.ar  1 <1>   0.7710 
 12 N        3.9910     6.6680    -0.2720 N.ar  1 <1>  -0.6200 
 13 N        5.4920     4.9090     0.0430 N.ar  1 <1>  -0.1790 
 14 C        4.9890     7.5210    -0.1260 C.ar  1 <1>   0.4100 
 15 C        6.5490     5.7460     0.1600 C.ar  1 <1>   0.2110 
 16 N        4.6630     8.8370    -0.1820 N.pl3 1 <1>  -0.8380 
 17 C        6.3250     7.0820     0.0720 C.ar  1 <1>  -0.1430 
 18 C        3.6540     9.3440    -1.1570 C.3   1 <1>   0.1290 
 19 C        4.9580     9.7890     0.9240 C.3   1 <1>   0.1290 
 20 C        7.4940     8.0630     0.1440 C.3   1 <1>  -0.0970 
 21 H        1.8370    -2.2710     0.7420 H     1 <1>   0.1500 
 22 H        0.0900     0.9060    -1.6310 H     1 <1>   0.1500 
 23 H        1.5300     2.9290     1.2980 H     1 <1>   0.0800 
 24 H        0.2400    -1.6040    -1.3160 H     1 <1>   0.1500 
 25 H        3.2140     2.6330    -1.1890 H     1 <1>   0.0800 
 26 H        3.7780     2.6430     0.4630 H     1 <1>   0.0800 
 27 H       -1.1890     4.0610    -0.5950 H     1 <1>   0.0800 
 28 H       -0.5140     3.9860     1.0270 H     1 <1>   0.0800 
 29 H       -0.9650     2.5000     0.1810 H     1 <1>   0.0800 
 30 H        2.3290     5.0090    -0.5390 H     1 <1>   0.4000 
 31 H        5.5800     3.9010     0.0810 H     1 <1>   0.4570 
 32 H        7.5310     5.3280     0.3090 H     1 <1>   0.1500 
 33 H        3.5460     8.6550    -1.9770 H     1 <1>   0.0800 
 34 H        3.9660    10.2960    -1.5490 H     1 <1>   0.0800 
 35 H        2.7000     9.4550    -0.6710 H     1 <1>   0.0800 
 36 H        5.3980     9.2730     1.7590 H     1 <1>   0.0800 
 37 H        4.0480    10.2560     1.2600 H     1 <1>   0.0800 
 38 H        5.6360    10.5510     0.5800 H     1 <1>   0.0800 
 39 H        7.3970     8.8090    -0.6260 H     1 <1>   0.0800 
 40 H        8.4350     7.5620     0.0040 H     1 <1>   0.0800 
 41 H        7.5140     8.5560     1.1000 H     1 <1>   0.0800 
@<TRIPOS>BOND
  1   1   2  1   
  2   1   3  1   
  3   2   4  2   
  4   2   5  1   
  5   3   6  2   
  6   3  21  1   
  7   4   6  1   
  8   4  22  1   
  9   5   7  1   
 10   5   8  1   
 11   5  23  1   
 12   6  24  1   
 13   7   9  1   
 14   8  10  1   
 15   8  25  1   
 16   8  26  1   
 17   9  27  1   
 18   9  28  1   
 19   9  29  1   
 20  10  11  1   
 21  10  30  1   
 22  11  12  ar  
 23  11  13  ar  
 24  12  14  ar  
 25  13  15  ar  
 26  13  31  1   
 27  14  16  1   
 28  14  17  ar  
 29  15  17  ar  
 30  15  32  1   
 31  16  18  1   
 32  16  19  1   
 33  17  20  1   
 34  18  33  1   
 35  18  34  1   
 36  18  35  1   
 37  19  36  1   
 38  19  37  1   
 39  19  38  1   
 40  20  39  1   
 41  20  40  1   
 42  20  41  1   
@<TRIPOS>SUBSTRUCTURE
  1 ****  10 GROUP 4 **** **** 0

# MOE 2024.06 (io_trps.svl 2023.06)
