@<TRIPOS>MOLECULE
NONAME
48 50 1 0 0 
SMALL
USER_CHARGES


@<TRIPOS>ATOM
  1 O        0.4110     1.1040    -1.4410 O.2   1 <1>  -0.5700 
  2 C        1.3350     1.2000    -0.6520 C.2   1 <1>   0.8410 
  3 N        2.0340     2.3760    -0.6140 N.2   1 <1>  -0.6610 
  4 N        1.6770     0.1290     0.1700 N.am  1 <1>  -0.4690 
  5 C        3.0310     2.4590     0.1840 C.2   1 <1>   0.3750 
  6 C        2.7650     0.2300     1.0120 C.2   1 <1>  -0.0290 
  7 C        0.8360    -1.1050     0.0870 C.3   1 <1>   0.1400 
  8 C        3.4450     1.4000     1.0210 C.2   1 <1>  -0.1360 
  9 C        3.8100     3.7550     0.2340 C.3   1 <1>  -0.1790 
 10 C        3.1850    -0.9370     1.8940 C.3   1 <1>  -0.1020 
 11 C        1.2430    -1.9500    -1.1290 C.3   1 <1>   0.1400 
 12 N        0.9070    -3.3860    -0.9390 N.am  1 <1>  -0.7300 
 13 C       -0.3080    -3.9110    -0.6200 C.2   1 <1>   0.5690 
 14 O       -1.2550    -3.2010    -0.3790 O.2   1 <1>  -0.5700 
 15 C       -0.4630    -5.4360    -0.5470 C.3   1 <1>   0.2610 
 16 O        0.8120    -6.0590    -0.6900 O.3   1 <1>  -0.5600 
 17 C       -1.1760    -5.8310     0.7800 C.3   1 <1>   0.3640 
 18 C        0.8010    -7.4660    -0.6090 C.3   1 <1>   0.1810 
 19 N       -0.7630    -7.1630     1.2880 N.am  1 <1>  -0.7300 
 20 C       -2.6930    -5.8410     0.6140 C.ar  1 <1>  -0.1440 
 21 C        0.1420    -7.9580     0.6780 C.2   1 <1>   0.5690 
 22 C       -3.3410    -6.9000    -0.0100 C.ar  1 <1>   0.1600 
 23 C       -3.4570    -4.7860     1.0760 C.ar  1 <1>  -0.1500 
 24 O        0.4110    -9.0420     1.1260 O.2   1 <1>  -0.5700 
 25 N       -4.6460    -6.9860    -0.2080 N.ar  1 <1>  -0.6200 
 26 C       -4.8190    -4.8590     0.8810 C.ar  1 <1>  -0.1500 
 27 C       -5.3540    -5.9640     0.2430 C.ar  1 <1>   0.1600 
 28 H        0.9350    -1.6850     0.9830 H     1 <1>   0.0800 
 29 H       -0.2010    -0.8280    -0.0040 H     1 <1>   0.0800 
 30 H        4.3010     1.5580     1.6500 H     1 <1>   0.1500 
 31 H        3.7750     4.1640     1.2270 H     1 <1>   0.0800 
 32 H        3.3850     4.4700    -0.4480 H     1 <1>   0.0800 
 33 H        4.8320     3.5790    -0.0450 H     1 <1>   0.0800 
 34 H        3.3640    -1.8120     1.2960 H     1 <1>   0.0800 
 35 H        2.4180    -1.1510     2.6160 H     1 <1>   0.0800 
 36 H        4.0890    -0.7040     2.4270 H     1 <1>   0.0800 
 37 H        2.3050    -1.8670    -1.2790 H     1 <1>   0.0800 
 38 H        0.7410    -1.5770    -2.0060 H     1 <1>   0.0800 
 39 H        1.6530    -4.0620    -1.1430 H     1 <1>   0.3700 
 40 H       -1.0660    -5.7430    -1.3830 H     1 <1>   0.0800 
 41 H       -0.9170    -5.1040     1.5310 H     1 <1>   0.0800 
 42 H        0.2740    -7.8570    -1.4600 H     1 <1>   0.0800 
 43 H        1.8200    -7.8070    -0.6410 H     1 <1>   0.0800 
 44 H       -1.2170    -7.5070     2.1370 H     1 <1>   0.3700 
 45 H       -2.7570    -7.7310    -0.3690 H     1 <1>   0.1500 
 46 H       -3.0170    -3.9300     1.5600 H     1 <1>   0.1500 
 47 H       -5.4620    -4.0660     1.2160 H     1 <1>   0.1500 
 48 H       -6.4200    -6.0090     0.0940 H     1 <1>   0.1500 
@<TRIPOS>BOND
  1   1   2  2   
  2   2   3  1   
  3   2   4  am  
  4   3   5  2   
  5   4   6  1   
  6   4   7  1   
  7   5   8  1   
  8   5   9  1   
  9   6   8  2   
 10   6  10  1   
 11   7  11  1   
 12   7  28  1   
 13   7  29  1   
 14   8  30  1   
 15   9  31  1   
 16   9  32  1   
 17   9  33  1   
 18  10  34  1   
 19  10  35  1   
 20  10  36  1   
 21  11  12  1   
 22  11  37  1   
 23  11  38  1   
 24  12  13  am  
 25  12  39  1   
 26  13  14  2   
 27  13  15  1   
 28  15  16  1   
 29  15  17  1   
 30  15  40  1   
 31  16  18  1   
 32  17  19  1   
 33  17  20  1   
 34  17  41  1   
 35  18  21  1   
 36  18  42  1   
 37  18  43  1   
 38  19  21  am  
 39  19  44  1   
 40  20  22  ar  
 41  20  23  ar  
 42  21  24  2   
 43  22  25  ar  
 44  22  45  1   
 45  23  26  ar  
 46  23  46  1   
 47  25  27  ar  
 48  26  27  ar  
 49  26  47  1   
 50  27  48  1   
@<TRIPOS>SUBSTRUCTURE
  1 ****  13 GROUP 4 **** **** 0

# MOE 2024.06 (io_trps.svl 2023.06)
