@<TRIPOS>MOLECULE
NONAME
47 51 1 0 0 
SMALL
USER_CHARGES


@<TRIPOS>ATOM
  1 S        0.6930     1.3780    -2.1090 S.3   1 <1>  -0.0800 
  2 C       -0.5210     1.7240    -0.8870 C.2   1 <1>  -0.1400 
  3 C       -0.4230     0.3200    -2.9630 C.2   1 <1>  -0.1100 
  4 C       -1.6620     1.0770    -1.1560 C.2   1 <1>  -0.1810 
  5 C       -0.2600     2.6450     0.3000 C.3   1 <1>   0.4600 
  6 C       -1.6140     0.2690    -2.3360 C.2   1 <1>  -0.1500 
  7 C       -2.8500     1.2460    -0.2370 C.3   1 <1>   0.0210 
  8 O       -1.3730     2.5800     1.1730 O.3   1 <1>  -0.5600 
  9 C       -0.0580     4.1000    -0.1420 C.3   1 <1>  -0.1600 
 10 C        0.9500     2.1690     1.1100 C.3   1 <1>  -0.1600 
 11 C       -2.6600     2.5250     0.6020 C.3   1 <1>   0.1200 
 12 C        0.2300     5.0120     1.0520 C.3   1 <1>   0.1400 
 13 C        1.2370     3.0930     2.2960 C.3   1 <1>   0.1400 
 14 N        1.4070     4.4920     1.8050 N.am  1 <1>  -0.6600 
 15 C        2.5500     5.2230     2.0740 C.2   1 <1>   0.6160 
 16 O        3.3470     4.7880     2.8880 O.2   1 <1>  -0.5700 
 17 C        2.8080     6.5090     1.5050 C.2   1 <1>   0.0290 
 18 C        2.9910     6.6220     0.0890 C.2   1 <1>   0.5650 
 19 C        2.9050     7.6210     2.3060 C.2   1 <1>  -0.0500 
 20 O        2.9410     5.6480    -0.6520 O.2   1 <1>  -0.5700 
 21 N        3.2250     7.9270    -0.4270 N.pl3 1 <1>   0.5610 
 22 N        3.1370     8.8610     1.7910 N.pl3 1 <1>  -0.5840 
 23 N        3.3900     8.3470    -1.7270 N.2   1 <1>  -0.7070 
 24 C        3.2900     9.0150     0.4080 C.2   1 <1>  -0.0680 
 25 C        3.5560     9.6280    -1.6600 C.2   1 <1>   0.1080 
 26 C        3.5050    10.1080    -0.3570 C.2   1 <1>  -0.1500 
 27 C        3.7790    10.4740    -2.8920 C.3   1 <1>  -0.0590 
 28 H       -0.0630    -0.1570    -3.8560 H     1 <1>   0.1500 
 29 H       -2.4650    -0.3060    -2.6540 H     1 <1>   0.1500 
 30 H       -2.9330     0.3920     0.4110 H     1 <1>   0.0800 
 31 H       -3.7550     1.3270    -0.8110 H     1 <1>   0.0800 
 32 H       -0.9210     4.4480    -0.6770 H     1 <1>   0.0800 
 33 H        0.7730     4.1470    -0.8220 H     1 <1>   0.0800 
 34 H        1.8210     2.1460     0.4810 H     1 <1>   0.0800 
 35 H        0.7730     1.1690     1.4580 H     1 <1>   0.0800 
 36 H       -3.3760     2.5510     1.4040 H     1 <1>   0.0800 
 37 H       -2.7990     3.3970    -0.0110 H     1 <1>   0.0800 
 38 H       -0.6230     5.0270     1.7100 H     1 <1>   0.0800 
 39 H        0.3990     6.0160     0.7080 H     1 <1>   0.0800 
 40 H        2.1220     2.7530     2.8040 H     1 <1>   0.0800 
 41 H        0.4180     3.0610     2.9940 H     1 <1>   0.0800 
 42 H        2.7990     7.5300     3.3770 H     1 <1>   0.1500 
 43 H        3.2190     9.6910     2.3970 H     1 <1>   0.4000 
 44 H        3.6130    11.1320    -0.0510 H     1 <1>   0.1500 
 45 H        4.6580    10.1320    -3.4070 H     1 <1>   0.0800 
 46 H        3.9060    11.5060    -2.6250 H     1 <1>   0.0800 
 47 H        2.9340    10.3800    -3.5490 H     1 <1>   0.0800 
@<TRIPOS>BOND
  1   1   2  1   
  2   1   3  1   
  3   2   4  2   
  4   2   5  1   
  5   3   6  2   
  6   3  28  1   
  7   4   6  1   
  8   4   7  1   
  9   5   8  1   
 10   5   9  1   
 11   5  10  1   
 12   6  29  1   
 13   7  11  1   
 14   7  30  1   
 15   7  31  1   
 16   8  11  1   
 17   9  12  1   
 18   9  32  1   
 19   9  33  1   
 20  10  13  1   
 21  10  34  1   
 22  10  35  1   
 23  11  36  1   
 24  11  37  1   
 25  12  14  1   
 26  12  38  1   
 27  12  39  1   
 28  13  14  1   
 29  13  40  1   
 30  13  41  1   
 31  14  15  am  
 32  15  16  2   
 33  15  17  1   
 34  17  18  1   
 35  17  19  2   
 36  18  20  2   
 37  18  21  1   
 38  19  22  1   
 39  19  42  1   
 40  21  23  1   
 41  21  24  1   
 42  22  24  1   
 43  22  43  1   
 44  23  25  2   
 45  24  26  2   
 46  25  26  1   
 47  25  27  1   
 48  26  44  1   
 49  27  45  1   
 50  27  46  1   
 51  27  47  1   
@<TRIPOS>SUBSTRUCTURE
  1 ****  12 GROUP 4 **** **** 0

# MOE 2024.06 (io_trps.svl 2023.06)
