@<TRIPOS>MOLECULE
NONAME
46 49 1 0 0 
SMALL
USER_CHARGES


@<TRIPOS>ATOM
  1 O       -1.0440     0.3080     1.6670 O.2   1 <1>  -0.5700 
  2 C       -1.7700     0.7620     0.8130 C.2   1 <1>   0.6300 
  3 N       -2.6960    -0.0210     0.1790 N.am  1 <1>  -0.6600 
  4 C       -1.6210     2.2290     0.4550 C.3   1 <1>   0.0000 
  5 C       -3.5250     0.3750    -0.9910 C.3   1 <1>   0.1400 
  6 C       -2.8440    -1.4720     0.4470 C.3   1 <1>   0.1400 
  7 C       -0.7460     2.3540    -0.7740 C.2   1 <1>   0.6300 
  8 C       -1.5030     3.2620     1.5480 C.3   1 <1>  -0.2000 
  9 C       -2.7420     3.2040     0.7140 C.3   1 <1>  -0.2000 
 10 C       -4.5190    -0.7730    -1.1510 C.3   1 <1>   0.2000 
 11 C       -3.7230    -2.0020    -0.6950 C.3   1 <1>  -0.0800 
 12 O       -1.2470     2.4550    -1.8660 O.2   1 <1>  -0.5700 
 13 N        0.5920     2.3490    -0.6390 N.am  1 <1>  -0.8000 
 14 O       -5.5760    -0.5510    -0.2800 O.3   1 <1>  -0.6800 
 15 C       -4.5880    -3.2220    -0.3120 C.3   1 <1>  -0.0170 
 16 C       -3.8400    -4.5210     0.0150 C.ar  1 <1>  -0.1440 
 17 C       -4.5470    -5.6130     0.5780 C.ar  1 <1>   0.0000 
 18 C       -2.5050    -4.7040    -0.2190 C.ar  1 <1>  -0.1500 
 19 C       -3.8200    -6.7910     0.8810 C.ar  1 <1>   0.3100 
 20 C       -5.9350    -5.6100     0.8530 C.ar  1 <1>  -0.1500 
 21 C       -1.8840    -5.9130     0.1140 C.ar  1 <1>   0.1600 
 22 N       -2.4920    -6.9250     0.6450 N.ar  1 <1>  -0.6200 
 23 C       -4.4950    -7.8840     1.4500 C.ar  1 <1>  -0.1500 
 24 C       -6.5640    -6.6930     1.4060 C.ar  1 <1>  -0.1500 
 25 C       -5.8370    -7.8450     1.7110 C.ar  1 <1>  -0.1500 
 26 H       -4.0250     1.3160    -0.8420 H     1 <1>   0.0800 
 27 H       -2.8970     0.4360    -1.8630 H     1 <1>   0.0800 
 28 H       -1.8810    -1.9520     0.4730 H     1 <1>   0.0800 
 29 H       -3.3290    -1.6040     1.4000 H     1 <1>   0.0800 
 30 H       -1.5450     2.9290     2.5710 H     1 <1>   0.1000 
 31 H       -0.8330     4.0930     1.4120 H     1 <1>   0.1000 
 32 H       -2.9210     3.9760    -0.0140 H     1 <1>   0.1000 
 33 H       -3.6490     2.8460     1.1700 H     1 <1>   0.1000 
 34 H       -4.9090    -0.8580    -2.1510 H     1 <1>   0.0800 
 35 H       -3.0820    -2.2750    -1.5140 H     1 <1>   0.0800 
 36 H        1.1870     2.4270    -1.4630 H     1 <1>   0.3700 
 37 H        1.0560     2.1990     0.2580 H     1 <1>   0.3700 
 38 H       -5.2140    -0.3080     0.5960 H     1 <1>   0.4000 
 39 H       -5.2690    -3.4230    -1.1200 H     1 <1>   0.0800 
 40 H       -5.1780    -2.9520     0.5460 H     1 <1>   0.0800 
 41 H       -1.8810    -3.9520    -0.6590 H     1 <1>   0.1500 
 42 H       -6.5210    -4.7410     0.6220 H     1 <1>   0.1500 
 43 H       -0.8300    -6.0070    -0.0850 H     1 <1>   0.1500 
 44 H       -3.9150    -8.7600     1.6740 H     1 <1>   0.1500 
 45 H       -7.6210    -6.6730     1.6100 H     1 <1>   0.1500 
 46 H       -6.3420    -8.6910     2.1470 H     1 <1>   0.1500 
@<TRIPOS>BOND
  1   1   2  2   
  2   2   3  am  
  3   2   4  1   
  4   3   5  1   
  5   3   6  1   
  6   4   7  1   
  7   4   8  1   
  8   4   9  1   
  9   5  10  1   
 10   5  26  1   
 11   5  27  1   
 12   6  11  1   
 13   6  28  1   
 14   6  29  1   
 15   7  12  2   
 16   7  13  am  
 17   8   9  1   
 18   8  30  1   
 19   8  31  1   
 20   9  32  1   
 21   9  33  1   
 22  10  11  1   
 23  10  14  1   
 24  10  34  1   
 25  11  15  1   
 26  11  35  1   
 27  13  36  1   
 28  13  37  1   
 29  14  38  1   
 30  15  16  1   
 31  15  39  1   
 32  15  40  1   
 33  16  17  ar  
 34  16  18  ar  
 35  17  19  ar  
 36  17  20  ar  
 37  18  21  ar  
 38  18  41  1   
 39  19  22  ar  
 40  19  23  ar  
 41  20  24  ar  
 42  20  42  1   
 43  21  22  ar  
 44  21  43  1   
 45  23  25  ar  
 46  23  44  1   
 47  24  25  ar  
 48  24  45  1   
 49  25  46  1   
@<TRIPOS>SUBSTRUCTURE
  1 ****   6 GROUP 4 **** **** 0

# MOE 2024.06 (io_trps.svl 2023.06)
