@<TRIPOS>MOLECULE
NONAME
54 56 1 0 0 
SMALL
USER_CHARGES


@<TRIPOS>ATOM
  1 F       -0.5060     0.4210     0.3920 F     1 <1>  -0.1900 
  2 C       -1.7800     0.7100     0.3160 C.ar  1 <1>   0.1900 
  3 C       -2.2360     2.0230     0.1590 C.ar  1 <1>   0.0830 
  4 C       -2.6570    -0.3530     0.4010 C.ar  1 <1>  -0.1500 
  5 O       -1.4750     3.1510     0.0630 O.3   1 <1>  -0.3630 
  6 C       -3.6050     2.2230     0.0920 C.ar  1 <1>  -0.1500 
  7 C       -4.0180    -0.1170     0.3320 C.ar  1 <1>  -0.1500 
  8 C       -0.0650     3.1310     0.0710 C.3   1 <1>   0.0400 
  9 C       -4.5260     1.1750     0.1740 C.ar  1 <1>   0.0530 
 10 C       -5.9460     1.4370     0.1010 C.2   1 <1>   0.0870 
 11 O       -6.4070     2.6350     0.3590 O.3   1 <1>  -0.0190 
 12 C       -7.0250     0.6620    -0.1910 C.2   1 <1>  -0.0860 
 13 N       -7.7070     2.7200     0.2550 N.2   1 <1>  -0.4100 
 14 C       -8.1050     1.5450    -0.0880 C.2   1 <1>   0.3720 
 15 C       -7.1060    -0.7180    -0.5450 C.2   1 <1>   0.7160 
 16 N       -9.4490     1.2120    -0.3230 N.pl3 1 <1>  -0.8210 
 17 O       -6.5950    -1.0900    -1.5860 O.2   1 <1>  -0.5700 
 18 N       -7.7130    -1.6550     0.2650 N.am  1 <1>  -0.6600 
 19 C       -9.7590     0.9110    -1.7480 C.3   1 <1>   0.1290 
 20 C      -10.4530     2.1380     0.2750 C.3   1 <1>   0.1290 
 21 C       -7.9690    -3.0580    -0.1840 C.3   1 <1>   0.1400 
 22 C       -8.4040    -1.3350     1.5500 C.3   1 <1>   0.1400 
 23 C       -9.4850    -3.3500    -0.1890 C.3   1 <1>   0.2000 
 24 C       -9.8900    -1.7190     1.4620 C.3   1 <1>   0.1200 
 25 O      -10.0320    -3.0560     1.0710 O.3   1 <1>  -0.5600 
 26 C       -9.8270    -4.8090    -0.5720 C.3   1 <1>  -0.0800 
 27 C      -11.3440    -4.9860    -0.7450 C.3   1 <1>  -0.2400 
 28 C       -9.3050    -5.8490     0.4350 C.3   1 <1>  -0.2400 
 29 H       -2.2770    -1.3520     0.5200 H     1 <1>   0.1500 
 30 H       -3.9610     3.2310    -0.0310 H     1 <1>   0.1500 
 31 H       -4.6860    -0.9560     0.4040 H     1 <1>   0.1500 
 32 H        0.2840     4.1420    -0.0400 H     1 <1>   0.0800 
 33 H        0.2820     2.5340    -0.7540 H     1 <1>   0.0800 
 34 H        0.2750     2.7300     1.0090 H     1 <1>   0.0800 
 35 H       -9.0360     0.2270    -2.1580 H     1 <1>   0.0800 
 36 H       -9.7400     1.8190    -2.3270 H     1 <1>   0.0800 
 37 H      -10.7340     0.4620    -1.8250 H     1 <1>   0.0800 
 38 H      -10.2120     2.3200     1.3090 H     1 <1>   0.0800 
 39 H      -11.4350     1.7010     0.2220 H     1 <1>   0.0800 
 40 H      -10.4510     3.0770    -0.2520 H     1 <1>   0.0800 
 41 H       -7.4690    -3.7310     0.4870 H     1 <1>   0.0800 
 42 H       -7.5750    -3.2220    -1.1710 H     1 <1>   0.0800 
 43 H       -8.3210    -0.2920     1.7940 H     1 <1>   0.0800 
 44 H       -7.9450    -1.8950     2.3460 H     1 <1>   0.0800 
 45 H       -9.9510    -2.6950    -0.9060 H     1 <1>   0.0800 
 46 H      -10.4020    -1.0940     0.7510 H     1 <1>   0.0800 
 47 H      -10.3610    -1.6050     2.4220 H     1 <1>   0.0800 
 48 H       -9.3690    -5.0120    -1.5250 H     1 <1>   0.0800 
 49 H      -11.8510    -4.8110     0.1890 H     1 <1>   0.0800 
 50 H      -11.5720    -5.9830    -1.0760 H     1 <1>   0.0800 
 51 H      -11.7230    -4.2910    -1.4740 H     1 <1>   0.0800 
 52 H       -9.7110    -5.6590     1.4140 H     1 <1>   0.0800 
 53 H       -8.2330    -5.8240     0.4980 H     1 <1>   0.0800 
 54 H       -9.5960    -6.8390     0.1340 H     1 <1>   0.0800 
@<TRIPOS>BOND
  1   1   2  1   
  2   2   3  ar  
  3   2   4  ar  
  4   3   5  1   
  5   3   6  ar  
  6   4   7  ar  
  7   4  29  1   
  8   5   8  1   
  9   6   9  ar  
 10   6  30  1   
 11   7   9  ar  
 12   7  31  1   
 13   8  32  1   
 14   8  33  1   
 15   8  34  1   
 16   9  10  1   
 17  10  11  1   
 18  10  12  2   
 19  11  13  1   
 20  12  14  1   
 21  12  15  1   
 22  13  14  2   
 23  14  16  1   
 24  15  17  2   
 25  15  18  am  
 26  16  19  1   
 27  16  20  1   
 28  18  21  1   
 29  18  22  1   
 30  19  35  1   
 31  19  36  1   
 32  19  37  1   
 33  20  38  1   
 34  20  39  1   
 35  20  40  1   
 36  21  23  1   
 37  21  41  1   
 38  21  42  1   
 39  22  24  1   
 40  22  43  1   
 41  22  44  1   
 42  23  25  1   
 43  23  26  1   
 44  23  45  1   
 45  24  25  1   
 46  24  46  1   
 47  24  47  1   
 48  26  27  1   
 49  26  28  1   
 50  26  48  1   
 51  27  49  1   
 52  27  50  1   
 53  27  51  1   
 54  28  52  1   
 55  28  53  1   
 56  28  54  1   
@<TRIPOS>SUBSTRUCTURE
  1 ****  15 GROUP 4 **** **** 0

# MOE 2024.06 (io_trps.svl 2023.06)
