@<TRIPOS>MOLECULE
NONAME
55 56 1 0 0 
SMALL
USER_CHARGES


@<TRIPOS>ATOM
  1 O       -0.8330     0.2170     2.1760 O.2   1 <1>  -0.5700 
  2 C       -1.2950     0.5830     1.1240 C.2   1 <1>   0.5690 
  3 N       -1.7710    -0.2940     0.2000 N.am  1 <1>  -0.7300 
  4 C       -1.3550     2.0790     0.8260 C.3   1 <1>  -0.0190 
  5 C       -1.8150    -1.7600     0.3620 C.3   1 <1>   0.1400 
  6 C       -2.7970     2.5590     0.5630 C.3   1 <1>  -0.1600 
  7 C       -0.4070     2.4790    -0.3300 C.3   1 <1>  -0.1600 
  8 C       -3.2370    -2.2460     0.0880 C.3   1 <1>  -0.1600 
  9 C       -2.8820     4.0930     0.4230 C.3   1 <1>   0.2000 
 10 C       -0.7940     3.8030    -1.0200 C.3   1 <1>  -0.1600 
 11 C       -3.3550    -3.7620     0.2790 C.3   1 <1>  -0.0170 
 12 O       -3.9070     4.3870    -0.4950 O.3   1 <1>  -0.5600 
 13 C       -1.5560     4.7310    -0.0700 C.3   1 <1>   0.2000 
 14 C       -4.7730    -4.2200    -0.0140 C.ar  1 <1>  -0.1440 
 15 C       -5.1970     4.3680     0.0330 C.3   1 <1>   0.0400 
 16 O       -1.8390     5.8980    -0.7500 O.3   1 <1>  -0.6800 
 17 C       -5.7370    -4.1890     0.9810 C.ar  1 <1>  -0.1500 
 18 C       -5.1230    -4.6690    -1.2770 C.ar  1 <1>  -0.1500 
 19 C       -7.0310    -4.6020     0.7160 C.ar  1 <1>  -0.1500 
 20 C       -6.4170    -5.0820    -1.5400 C.ar  1 <1>  -0.1500 
 21 C       -7.3850    -5.0530    -0.5480 C.ar  1 <1>  -0.1440 
 22 C       -8.8090    -5.5110    -0.8570 C.3   1 <1>   0.0630 
 23 C       -9.8060    -4.3640    -0.6660 C.3   1 <1>  -0.2400 
 24 C       -9.1950    -6.7170     0.0060 C.3   1 <1>  -0.2400 
 25 H       -2.1490     0.0670    -0.6770 H     1 <1>   0.3700 
 26 H       -1.0130     2.5800     1.7160 H     1 <1>   0.0800 
 27 H       -1.1230    -2.2140    -0.3270 H     1 <1>   0.0800 
 28 H       -1.5210    -2.0270     1.3650 H     1 <1>   0.0800 
 29 H       -3.4300     2.2420     1.3730 H     1 <1>   0.0800 
 30 H       -3.1520     2.1000    -0.3440 H     1 <1>   0.0800 
 31 H        0.5900     2.5630     0.0690 H     1 <1>   0.0800 
 32 H       -0.3810     1.7070    -1.0790 H     1 <1>   0.0800 
 33 H       -3.9150    -1.7560     0.7640 H     1 <1>   0.0800 
 34 H       -3.5160    -1.9970    -0.9200 H     1 <1>   0.0800 
 35 H       -3.1250     4.5400     1.3720 H     1 <1>   0.0800 
 36 H       -1.4260     3.5870    -1.8640 H     1 <1>   0.0800 
 37 H        0.0930     4.2960    -1.3790 H     1 <1>   0.0800 
 38 H       -3.0960    -4.0250     1.2900 H     1 <1>   0.0800 
 39 H       -2.6700    -4.2700    -0.3780 H     1 <1>   0.0800 
 40 H       -0.9260     4.9800     0.7660 H     1 <1>   0.0800 
 41 H       -5.8850     4.6120    -0.7570 H     1 <1>   0.0800 
 42 H       -5.2720     5.1020     0.8160 H     1 <1>   0.0800 
 43 H       -5.4180     3.3850     0.4120 H     1 <1>   0.0800 
 44 H       -2.7270     5.7630    -1.1530 H     1 <1>   0.4000 
 45 H       -5.4840    -3.8410     1.9670 H     1 <1>   0.1500 
 46 H       -4.3890    -4.6990    -2.0620 H     1 <1>   0.1500 
 47 H       -7.7620    -4.5690     1.5030 H     1 <1>   0.1500 
 48 H       -6.6650    -5.4280    -2.5280 H     1 <1>   0.1500 
 49 H       -8.8560    -5.8180    -1.8880 H     1 <1>   0.0800 
 50 H       -9.8370    -4.0500     0.3610 H     1 <1>   0.0800 
 51 H      -10.7920    -4.6750    -0.9610 H     1 <1>   0.0800 
 52 H       -9.5150    -3.5250    -1.2730 H     1 <1>   0.0800 
 53 H       -9.2120    -6.4530     1.0480 H     1 <1>   0.0800 
 54 H       -8.4800    -7.5090    -0.1350 H     1 <1>   0.0800 
 55 H      -10.1670    -7.0800    -0.2740 H     1 <1>   0.0800 
@<TRIPOS>BOND
  1   1   2  2   
  2   2   3  am  
  3   2   4  1   
  4   3   5  1   
  5   3  25  1   
  6   4   6  1   
  7   4   7  1   
  8   4  26  1   
  9   5   8  1   
 10   5  27  1   
 11   5  28  1   
 12   6   9  1   
 13   6  29  1   
 14   6  30  1   
 15   7  10  1   
 16   7  31  1   
 17   7  32  1   
 18   8  11  1   
 19   8  33  1   
 20   8  34  1   
 21   9  12  1   
 22   9  13  1   
 23   9  35  1   
 24  10  13  1   
 25  10  36  1   
 26  10  37  1   
 27  11  14  1   
 28  11  38  1   
 29  11  39  1   
 30  12  15  1   
 31  13  16  1   
 32  13  40  1   
 33  14  17  ar  
 34  14  18  ar  
 35  15  41  1   
 36  15  42  1   
 37  15  43  1   
 38  16  44  1   
 39  17  19  ar  
 40  17  45  1   
 41  18  20  ar  
 42  18  46  1   
 43  19  21  ar  
 44  19  47  1   
 45  20  21  ar  
 46  20  48  1   
 47  21  22  1   
 48  22  23  1   
 49  22  24  1   
 50  22  49  1   
 51  23  50  1   
 52  23  51  1   
 53  23  52  1   
 54  24  53  1   
 55  24  54  1   
 56  24  55  1   
@<TRIPOS>SUBSTRUCTURE
  1 ****   8 GROUP 4 **** **** 0

# MOE 2024.06 (io_trps.svl 2023.06)
