@<TRIPOS>MOLECULE
NONAME
41 42 1 0 0 
SMALL
USER_CHARGES


@<TRIPOS>ATOM
  1 CL      -2.3490     0.6940    -1.4530 Cl    1 <1>  -0.1400 
  2 C       -2.5610    -0.6940    -0.4080 C.2   1 <1>   0.1540 
  3 C       -2.3630    -0.5280     0.9980 C.2   1 <1>   0.6160 
  4 C       -2.9060    -1.8960    -0.9410 C.2   1 <1>  -0.1500 
  5 O       -2.0520     0.5130     1.5550 O.2   1 <1>  -0.5700 
  6 N       -2.5380    -1.6400     1.7770 N.am  1 <1>  -0.5390 
  7 C       -3.0830    -3.0420    -0.1000 C.2   1 <1>   0.0140 
  8 C       -2.8910    -2.8590     1.2510 C.2   1 <1>  -0.0410 
  9 C       -3.4610    -4.3100    -0.6840 C.2   1 <1>   0.6160 
 10 O       -3.8700    -4.3760    -1.8280 O.2   1 <1>  -0.5700 
 11 N       -3.3800    -5.4710     0.0310 N.am  1 <1>  -0.7300 
 12 C       -3.9030    -6.7810    -0.4110 C.3   1 <1>   0.2200 
 13 C       -5.1770    -7.0800     0.3710 C.3   1 <1>  -0.0800 
 14 C       -2.9670    -7.8860     0.0580 C.3   1 <1>   0.1200 
 15 C       -4.6950    -7.9660     1.5320 C.3   1 <1>   0.1200 
 16 C       -6.2330    -7.7710    -0.5110 C.3   1 <1>  -0.0550 
 17 O       -3.3140    -8.0940     1.3880 O.3   1 <1>  -0.5600 
 18 S       -7.8090    -7.9770     0.3170 S.o2  1 <1>   1.3330 
 19 O       -7.6840    -9.0070     1.3240 O.2   1 <1>  -0.6500 
 20 O       -8.2810    -6.6640     0.6920 O.2   1 <1>  -0.6500 
 21 N       -8.8050    -8.5760    -0.9210 N.am  1 <1>  -0.8490 
 22 C      -10.2020    -8.1620    -0.7620 C.3   1 <1>   0.1160 
 23 C       -8.7290   -10.0320    -1.0800 C.3   1 <1>   0.1160 
 24 H       -3.0550    -2.0070    -2.0020 H     1 <1>   0.1500 
 25 H       -2.3900    -1.4770     2.7770 H     1 <1>   0.3700 
 26 H       -3.0190    -3.6680     1.9520 H     1 <1>   0.1500 
 27 H       -2.9880    -5.4860     0.9730 H     1 <1>   0.3700 
 28 H       -4.0380    -6.7970    -1.4800 H     1 <1>   0.0800 
 29 H       -5.6080    -6.1700     0.7550 H     1 <1>   0.0800 
 30 H       -1.9290    -7.6130    -0.0110 H     1 <1>   0.0800 
 31 H       -3.1470    -8.8000    -0.4800 H     1 <1>   0.0800 
 32 H       -5.1210    -8.9550     1.4990 H     1 <1>   0.0800 
 33 H       -4.8990    -7.5200     2.4900 H     1 <1>   0.0800 
 34 H       -5.8670    -8.7250    -0.8370 H     1 <1>   0.0800 
 35 H       -6.3930    -7.1660    -1.3830 H     1 <1>   0.0800 
 36 H      -10.8000    -8.5450    -1.5720 H     1 <1>   0.0800 
 37 H      -10.2720    -7.0870    -0.7740 H     1 <1>   0.0800 
 38 H      -10.5960    -8.5240     0.1730 H     1 <1>   0.0800 
 39 H       -9.3060   -10.3410    -1.9350 H     1 <1>   0.0800 
 40 H       -9.1110   -10.5270    -0.2020 H     1 <1>   0.0800 
 41 H       -7.7080   -10.3370    -1.2310 H     1 <1>   0.0800 
@<TRIPOS>BOND
  1   1   2  1   
  2   2   3  1   
  3   2   4  2   
  4   3   5  2   
  5   3   6  am  
  6   4   7  1   
  7   4  24  1   
  8   6   8  1   
  9   6  25  1   
 10   7   8  2   
 11   7   9  1   
 12   8  26  1   
 13   9  10  2   
 14   9  11  am  
 15  11  12  1   
 16  11  27  1   
 17  12  13  1   
 18  12  14  1   
 19  12  28  1   
 20  13  15  1   
 21  13  16  1   
 22  13  29  1   
 23  14  17  1   
 24  14  30  1   
 25  14  31  1   
 26  15  17  1   
 27  15  32  1   
 28  15  33  1   
 29  16  18  1   
 30  16  34  1   
 31  16  35  1   
 32  18  19  2   
 33  18  20  2   
 34  18  21  am  
 35  21  22  1   
 36  21  23  1   
 37  22  36  1   
 38  22  37  1   
 39  22  38  1   
 40  23  39  1   
 41  23  40  1   
 42  23  41  1   
@<TRIPOS>SUBSTRUCTURE
  1 ****  11 GROUP 4 **** **** 0

# MOE 2024.06 (io_trps.svl 2023.06)
