@<TRIPOS>MOLECULE
NONAME
52 55 1 0 0 
SMALL
USER_CHARGES


@<TRIPOS>ATOM
  1 O       -1.8300     0.6710    -0.1500 O.2   1 <1>  -0.5700 
  2 C       -2.0770     1.2550    -1.1910 C.2   1 <1>   0.6900 
  3 N       -3.1590     0.8750    -1.9210 N.am  1 <1>  -0.6600 
  4 N       -1.3490     2.3040    -1.6150 N.am  1 <1>  -0.7300 
  5 C       -4.4680     1.4580    -1.4970 C.3   1 <1>   0.1400 
  6 C       -3.2660    -0.5800    -2.2660 C.3   1 <1>   0.1400 
  7 C       -0.1090     2.8000    -0.9690 C.3   1 <1>   0.1400 
  8 C       -5.0410     0.7280    -0.2490 C.3   1 <1>   0.4230 
  9 C       -4.1170    -1.3680    -1.2390 C.3   1 <1>   0.3430 
 10 C       -0.4070     4.0680    -0.1700 C.3   1 <1>  -0.0170 
 11 N       -4.3230    -0.5760     0.0220 N.4   1 <1>  -0.9590 
 12 C       -6.5650     0.5080    -0.3770 C.3   1 <1>   0.1200 
 13 C        0.8620     4.5810     0.4890 C.ar  1 <1>  -0.1440 
 14 C       -4.9450    -1.3070     1.1680 C.3   1 <1>   0.5180 
 15 O       -7.0590    -0.1850     0.7340 O.3   1 <1>  -0.5600 
 16 C        1.6150     5.5780    -0.1120 C.ar  1 <1>  -0.1500 
 17 C        1.2790     4.0500     1.7000 C.ar  1 <1>  -0.1500 
 18 C       -4.2050    -2.6410     1.3890 C.3   1 <1>  -0.1950 
 19 C       -6.4740    -1.4400     0.9650 C.3   1 <1>   0.1200 
 20 C        2.7730     6.0390     0.4910 C.ar  1 <1>  -0.1500 
 21 C        2.4370     4.5100     2.3030 C.ar  1 <1>  -0.1500 
 22 C       -4.5470    -3.9360     0.7090 C.3   1 <1>  -0.2000 
 23 C       -4.7860    -3.7720     2.1830 C.3   1 <1>  -0.2000 
 24 C        3.1850     5.5050     1.6990 C.ar  1 <1>  -0.1500 
 25 H       -1.5700     2.6900    -2.5330 H     1 <1>   0.3700 
 26 H       -4.3430     2.5040    -1.2690 H     1 <1>   0.0800 
 27 H       -5.1590     1.3930    -2.3200 H     1 <1>   0.0800 
 28 H       -3.6890    -0.6890    -3.2500 H     1 <1>   0.0800 
 29 H       -2.2770    -1.0070    -2.2960 H     1 <1>   0.0800 
 30 H        0.2890     2.0460    -0.3100 H     1 <1>   0.0800 
 31 H        0.6310     3.0070    -1.7240 H     1 <1>   0.0800 
 32 H       -4.8880     1.3790     0.5970 H     1 <1>   0.0800 
 33 H       -3.6120    -2.2950    -1.0210 H     1 <1>   0.0800 
 34 H       -5.0700    -1.6110    -1.6770 H     1 <1>   0.0800 
 35 H       -0.8070     4.8240    -0.8220 H     1 <1>   0.0800 
 36 H       -1.1380     3.8510     0.5880 H     1 <1>   0.0800 
 37 H       -3.3610    -0.2880     0.3010 H     1 <1>   0.4500 
 38 H       -6.8080    -0.0500    -1.2650 H     1 <1>   0.0800 
 39 H       -7.0750     1.4550    -0.4190 H     1 <1>   0.0800 
 40 H       -4.8050    -0.7170     2.0600 H     1 <1>   0.0800 
 41 H        1.3060     6.0010    -1.0510 H     1 <1>   0.1500 
 42 H        0.7070     3.2750     2.1790 H     1 <1>   0.1500 
 43 H       -3.1620    -2.4570     1.5870 H     1 <1>   0.1000 
 44 H       -6.9290    -1.8450     1.8510 H     1 <1>   0.0800 
 45 H       -6.7050    -2.0850     0.1360 H     1 <1>   0.0800 
 46 H        3.3530     6.8130     0.0200 H     1 <1>   0.1500 
 47 H        2.7550     4.0930     3.2430 H     1 <1>   0.1500 
 48 H       -5.4160    -4.0360     0.0810 H     1 <1>   0.1000 
 49 H       -3.7520    -4.5950     0.4030 H     1 <1>   0.1000 
 50 H       -4.1460    -4.3070     2.8650 H     1 <1>   0.1000 
 51 H       -5.8060    -3.7510     2.5280 H     1 <1>   0.1000 
 52 H        4.0840     5.8630     2.1680 H     1 <1>   0.1500 
@<TRIPOS>BOND
  1   1   2  2   
  2   2   3  am  
  3   2   4  am  
  4   3   5  1   
  5   3   6  1   
  6   4   7  1   
  7   4  25  1   
  8   5   8  1   
  9   5  26  1   
 10   5  27  1   
 11   6   9  1   
 12   6  28  1   
 13   6  29  1   
 14   7  10  1   
 15   7  30  1   
 16   7  31  1   
 17   8  11  1   
 18   8  12  1   
 19   8  32  1   
 20   9  11  1   
 21   9  33  1   
 22   9  34  1   
 23  10  13  1   
 24  10  35  1   
 25  10  36  1   
 26  11  14  1   
 27  11  37  1   
 28  12  15  1   
 29  12  38  1   
 30  12  39  1   
 31  13  16  ar  
 32  13  17  ar  
 33  14  18  1   
 34  14  19  1   
 35  14  40  1   
 36  15  19  1   
 37  16  20  ar  
 38  16  41  1   
 39  17  21  ar  
 40  17  42  1   
 41  18  22  1   
 42  18  23  1   
 43  18  43  1   
 44  19  44  1   
 45  19  45  1   
 46  20  24  ar  
 47  20  46  1   
 48  21  24  ar  
 49  21  47  1   
 50  22  23  1   
 51  22  48  1   
 52  22  49  1   
 53  23  50  1   
 54  23  51  1   
 55  24  52  1   
@<TRIPOS>SUBSTRUCTURE
  1 ****   1 GROUP 4 **** **** 0

# MOE 2024.06 (io_trps.svl 2023.06)
