@<TRIPOS>MOLECULE
NONAME
52 56 1 0 0 
SMALL
USER_CHARGES


@<TRIPOS>ATOM
  1 O        3.1430     1.5330     0.4450 O.2   1 <1>  -0.5700 
  2 C        2.2350     0.8900    -0.0500 C.2   1 <1>   0.5440 
  3 N        1.0050     1.4800    -0.1300 N.am  1 <1>  -0.7300 
  4 C        2.4710    -0.4480    -0.5550 C.ar  1 <1>   0.0860 
  5 C        0.6390     2.8440     0.3230 C.3   1 <1>   0.0600 
  6 C        1.4580    -1.4250    -0.7020 C.ar  1 <1>   0.4100 
  7 C        3.7590    -0.8070    -0.9360 C.ar  1 <1>  -0.1500 
  8 N        1.6740    -2.6410    -1.2110 N.ar  1 <1>  -0.6200 
  9 N        0.1490    -1.2130    -0.2900 N.pl3 1 <1>  -0.8380 
 10 C        3.9770    -2.0650    -1.4470 C.ar  1 <1>  -0.1500 
 11 C        2.9090    -2.9310    -1.5660 C.ar  1 <1>   0.1600 
 12 C       -0.9970    -1.5710    -1.1850 C.3   1 <1>   0.2090 
 13 C       -0.1200    -1.2280     1.1760 C.3   1 <1>   0.2090 
 14 C       -2.2060    -2.0700    -0.3930 C.3   1 <1>  -0.1600 
 15 C       -0.6490    -2.6010     1.5780 C.3   1 <1>  -0.1600 
 16 C       -1.8140    -3.0840     0.6930 C.3   1 <1>   0.4600 
 17 O       -2.9240    -3.2300     1.5520 O.3   1 <1>  -0.5600 
 18 C       -1.4840    -4.4390     0.0790 C.2   1 <1>  -0.3320 
 19 C       -3.9830    -4.0630     1.1360 C.3   1 <1>   0.1200 
 20 N       -0.3800    -4.7230    -0.6740 N.pl3 1 <1>   0.0330 
 21 C       -2.2400    -5.5470     0.2030 C.2   1 <1>  -0.1810 
 22 C       -3.5250    -5.5260     0.9910 C.3   1 <1>   0.0210 
 23 C       -0.4450    -6.0470    -1.0350 C.ar  1 <1>  -0.1520 
 24 C       -1.6050    -6.5970    -0.4940 C.ar  1 <1>   0.0000 
 25 C        0.4280    -6.8250    -1.8000 C.ar  1 <1>  -0.1500 
 26 C       -1.9000    -7.9450    -0.7170 C.ar  1 <1>  -0.1500 
 27 C        0.1250    -8.1500    -2.0130 C.ar  1 <1>  -0.1500 
 28 C       -1.0390    -8.7100    -1.4710 C.ar  1 <1>  -0.1500 
 29 H        0.2380     0.8470    -0.3980 H     1 <1>   0.3700 
 30 H        1.5220     3.3980     0.5940 H     1 <1>   0.0800 
 31 H       -0.0090     2.7820     1.1790 H     1 <1>   0.0800 
 32 H        0.1330     3.3660    -0.4700 H     1 <1>   0.0800 
 33 H        4.5710    -0.1070    -0.8330 H     1 <1>   0.1500 
 34 H        4.9610    -2.3710    -1.7510 H     1 <1>   0.1500 
 35 H        3.0860    -3.9120    -1.9730 H     1 <1>   0.1500 
 36 H       -0.6980    -2.3290    -1.8890 H     1 <1>   0.0800 
 37 H       -1.2790    -0.7020    -1.7550 H     1 <1>   0.0800 
 38 H       -0.8430    -0.4670     1.4170 H     1 <1>   0.0800 
 39 H        0.7830    -1.0140     1.7240 H     1 <1>   0.0800 
 40 H       -2.8970    -2.5210    -1.0800 H     1 <1>   0.0800 
 41 H       -2.6900    -1.2270     0.0650 H     1 <1>   0.0800 
 42 H       -0.9550    -2.5690     2.6070 H     1 <1>   0.0800 
 43 H        0.1700    -3.2930     1.5200 H     1 <1>   0.0800 
 44 H       -4.3580    -3.6960     0.1980 H     1 <1>   0.0800 
 45 H       -4.7640    -3.9910     1.8710 H     1 <1>   0.0800 
 46 H        0.3760    -4.0590    -0.9030 H     1 <1>   0.2700 
 47 H       -4.2820    -6.0950     0.4840 H     1 <1>   0.0800 
 48 H       -3.3610    -5.9560     1.9620 H     1 <1>   0.0800 
 49 H        1.3170    -6.3820    -2.2100 H     1 <1>   0.1500 
 50 H       -2.7950    -8.3610    -0.2940 H     1 <1>   0.1500 
 51 H        0.7800    -8.7700    -2.5990 H     1 <1>   0.1500 
 52 H       -1.2520    -9.7490    -1.6510 H     1 <1>   0.1500 
@<TRIPOS>BOND
  1   1   2  2   
  2   2   3  am  
  3   2   4  1   
  4   3   5  1   
  5   3  29  1   
  6   4   6  ar  
  7   4   7  ar  
  8   5  30  1   
  9   5  31  1   
 10   5  32  1   
 11   6   8  ar  
 12   6   9  1   
 13   7  10  ar  
 14   7  33  1   
 15   8  11  ar  
 16   9  12  1   
 17   9  13  1   
 18  10  11  ar  
 19  10  34  1   
 20  11  35  1   
 21  12  14  1   
 22  12  36  1   
 23  12  37  1   
 24  13  15  1   
 25  13  38  1   
 26  13  39  1   
 27  14  16  1   
 28  14  40  1   
 29  14  41  1   
 30  15  16  1   
 31  15  42  1   
 32  15  43  1   
 33  16  17  1   
 34  16  18  1   
 35  17  19  1   
 36  18  20  1   
 37  18  21  2   
 38  19  22  1   
 39  19  44  1   
 40  19  45  1   
 41  20  23  1   
 42  20  46  1   
 43  21  22  1   
 44  21  24  1   
 45  22  47  1   
 46  22  48  1   
 47  23  24  ar  
 48  23  25  ar  
 49  24  26  ar  
 50  25  27  ar  
 51  25  49  1   
 52  26  28  ar  
 53  26  50  1   
 54  27  28  ar  
 55  27  51  1   
 56  28  52  1   
@<TRIPOS>SUBSTRUCTURE
  1 ****  20 GROUP 4 **** **** 0

# MOE 2024.06 (io_trps.svl 2023.06)
