@<TRIPOS>MOLECULE
NONAME
42 45 1 0 0 
SMALL
USER_CHARGES


@<TRIPOS>ATOM
  1 S       -0.0780     0.0980    -0.2520 S.3   1 <1>  -0.0800 
  2 C       -0.1640    -1.5820    -0.7810 C.ar  1 <1>   0.2970 
  3 C       -1.5210    -0.0860     0.7480 C.2   1 <1>  -0.1400 
  4 N        0.7110    -2.1280    -1.5970 N.ar  1 <1>  -0.5670 
  5 C       -1.2520    -2.2040    -0.2200 C.ar  1 <1>   0.0000 
  6 C       -2.0010    -1.3380     0.6550 C.2   1 <1>  -0.1500 
  7 C       -1.9730     1.1310     1.5280 C.3   1 <1>  -0.0600 
  8 C        0.4420    -3.3970    -1.8400 C.ar  1 <1>   0.4700 
  9 C       -1.4260    -3.5400    -0.5840 C.ar  1 <1>   0.4100 
 10 N       -0.5640    -4.1370    -1.3910 N.ar  1 <1>  -0.6200 
 11 N       -2.5060    -4.2740    -0.1390 N.pl3 1 <1>  -0.8380 
 12 C       -3.8810    -3.8410    -0.5010 C.3   1 <1>   0.2090 
 13 C       -2.4590    -5.7630    -0.0470 C.3   1 <1>   0.2090 
 14 C       -4.6250    -5.1240    -0.8700 C.3   1 <1>   0.2000 
 15 C       -3.9150    -6.2250    -0.0920 C.3   1 <1>  -0.0800 
 16 O       -5.9650    -5.0710    -0.5140 O.3   1 <1>  -0.6800 
 17 C       -4.0990    -7.6180    -0.7100 C.3   1 <1>   0.0210 
 18 C       -3.2970    -8.6590     0.0470 C.2   1 <1>   0.1080 
 19 N       -3.5130    -8.9430     1.2940 N.2   1 <1>  -0.7070 
 20 C       -2.2550    -9.4070    -0.4900 C.2   1 <1>  -0.1500 
 21 N       -2.6070    -9.8940     1.5880 N.pl3 1 <1>   0.3000 
 22 C       -1.8310   -10.1910     0.5240 C.2   1 <1>  -0.3320 
 23 C       -0.7170   -11.2210     0.5420 C.3   1 <1>  -0.0600 
 24 H       -2.8620    -1.7180     1.1740 H     1 <1>   0.1500 
 25 H       -2.8540     0.9000     2.1000 H     1 <1>   0.0800 
 26 H       -2.1980     1.9370     0.8530 H     1 <1>   0.0800 
 27 H       -1.1950     1.4460     2.2000 H     1 <1>   0.0800 
 28 H        1.1320    -3.9010    -2.4950 H     1 <1>   0.1500 
 29 H       -4.3390    -3.3740     0.3530 H     1 <1>   0.0800 
 30 H       -3.8630    -3.1580    -1.3330 H     1 <1>   0.0800 
 31 H       -1.9160    -6.1700    -0.8830 H     1 <1>   0.0800 
 32 H       -1.9810    -6.0730     0.8670 H     1 <1>   0.0800 
 33 H       -4.5580    -5.2850    -1.9320 H     1 <1>   0.0800 
 34 H       -4.2700    -6.2380     0.9240 H     1 <1>   0.0800 
 35 H       -6.0560    -5.1150     0.4580 H     1 <1>   0.4000 
 36 H       -3.7920    -7.6100    -1.7400 H     1 <1>   0.0800 
 37 H       -5.1380    -7.8920    -0.6730 H     1 <1>   0.0800 
 38 H       -1.8860    -9.3520    -1.4990 H     1 <1>   0.1500 
 39 H       -2.5460   -10.3210     2.5200 H     1 <1>   0.2700 
 40 H       -0.2470   -11.2730    -0.4240 H     1 <1>   0.0800 
 41 H       -1.1120   -12.1920     0.7830 H     1 <1>   0.0800 
 42 H        0.0270   -10.9520     1.2700 H     1 <1>   0.0800 
@<TRIPOS>BOND
  1   1   2  1   
  2   1   3  1   
  3   2   4  ar  
  4   2   5  ar  
  5   3   6  2   
  6   3   7  1   
  7   4   8  ar  
  8   5   6  1   
  9   5   9  ar  
 10   6  24  1   
 11   7  25  1   
 12   7  26  1   
 13   7  27  1   
 14   8  10  ar  
 15   8  28  1   
 16   9  10  ar  
 17   9  11  1   
 18  11  12  1   
 19  11  13  1   
 20  12  14  1   
 21  12  29  1   
 22  12  30  1   
 23  13  15  1   
 24  13  31  1   
 25  13  32  1   
 26  14  15  1   
 27  14  16  1   
 28  14  33  1   
 29  15  17  1   
 30  15  34  1   
 31  16  35  1   
 32  17  18  1   
 33  17  36  1   
 34  17  37  1   
 35  18  19  2   
 36  18  20  1   
 37  19  21  1   
 38  20  22  2   
 39  20  38  1   
 40  21  22  1   
 41  21  39  1   
 42  22  23  1   
 43  23  40  1   
 44  23  41  1   
 45  23  42  1   
@<TRIPOS>SUBSTRUCTURE
  1 ****  11 GROUP 4 **** **** 0

# MOE 2024.06 (io_trps.svl 2023.06)
