@<TRIPOS>MOLECULE
NONAME
48 50 1 0 0 
SMALL
USER_CHARGES


@<TRIPOS>ATOM
  1 F        0.5430    -0.3040    -0.4270 F     1 <1>  -0.3400 
  2 C        1.8030    -0.3650    -0.8400 C.3   1 <1>   0.8800 
  3 F        2.1520    -1.6400    -0.7550 F     1 <1>  -0.3400 
  4 O        2.6080     0.3680     0.0540 O.3   1 <1>  -0.3630 
  5 C        2.6430     1.7200     0.0350 C.ar  1 <1>   0.0830 
  6 C        3.5360     2.3320     0.9000 C.ar  1 <1>  -0.1500 
  7 C        1.8460     2.5140    -0.7860 C.ar  1 <1>  -0.1500 
  8 C        3.6390     3.7100     0.9450 C.ar  1 <1>  -0.1500 
  9 C        1.9600     3.8920    -0.7350 C.ar  1 <1>  -0.1500 
 10 C        2.8610     4.5260     0.1220 C.ar  1 <1>   0.0860 
 11 C        2.9540     5.9750     0.1640 C.2   1 <1>   0.5440 
 12 O        1.9290     6.6320     0.1390 O.2   1 <1>  -0.5700 
 13 N        4.1610     6.6440     0.2230 N.am  1 <1>  -0.6600 
 14 C        5.4420     6.0690    -0.3000 C.3   1 <1>   0.1400 
 15 C        4.2140     8.0510     0.7140 C.3   1 <1>   0.1400 
 16 C        6.0450     6.9060    -1.4390 C.3   1 <1>   0.1400 
 17 C        4.2120     9.0260    -0.4690 C.3   1 <1>  -0.1600 
 18 N        6.5620     8.2150    -0.9340 N.am  1 <1>  -0.6600 
 19 C        5.6030     9.3550    -1.0330 C.3   1 <1>   0.1400 
 20 C        7.8230     8.2690    -0.3850 C.2   1 <1>   0.5690 
 21 O        8.4730     7.2580    -0.2450 O.2   1 <1>  -0.5700 
 22 C        8.4390     9.5960     0.0720 C.3   1 <1>  -0.0190 
 23 C        8.7550    10.5590    -1.0930 C.3   1 <1>  -0.0220 
 24 C        9.7440     9.4910     0.8990 C.3   1 <1>  -0.0220 
 25 C        9.9740    11.2960    -0.5980 C.2   1 <1>  -0.2880 
 26 C       10.5030    10.7240     0.4750 C.2   1 <1>  -0.2880 
 27 H        1.8830    -0.0290    -1.8580 H     1 <1>   0.0800 
 28 H        4.1460     1.7210     1.5420 H     1 <1>   0.1500 
 29 H        1.1240     2.0900    -1.4590 H     1 <1>   0.1500 
 30 H        4.3280     4.1690     1.6330 H     1 <1>   0.1500 
 31 H        1.3350     4.5040    -1.3640 H     1 <1>   0.1500 
 32 H        5.2680     5.0810    -0.6830 H     1 <1>   0.0800 
 33 H        6.1560     5.9890     0.5010 H     1 <1>   0.0800 
 34 H        5.0830     8.1950     1.3320 H     1 <1>   0.0800 
 35 H        3.3470     8.2410     1.3250 H     1 <1>   0.0800 
 36 H        5.3110     7.0620    -2.2090 H     1 <1>   0.0800 
 37 H        6.8600     6.3550    -1.8770 H     1 <1>   0.0800 
 38 H        3.7660     9.9500    -0.1470 H     1 <1>   0.0800 
 39 H        3.5780     8.6400    -1.2480 H     1 <1>   0.0800 
 40 H        5.9790    10.2040    -0.4950 H     1 <1>   0.0800 
 41 H        5.5090     9.6460    -2.0660 H     1 <1>   0.0800 
 42 H        7.7330    10.0840     0.7170 H     1 <1>   0.0800 
 43 H        7.9390    11.2340    -1.2800 H     1 <1>   0.0800 
 44 H        8.9980    10.0190    -1.9920 H     1 <1>   0.0800 
 45 H       10.3250     8.6210     0.6460 H     1 <1>   0.0800 
 46 H        9.5350     9.4930     1.9540 H     1 <1>   0.0800 
 47 H       10.3080    12.1700    -1.1320 H     1 <1>   0.1500 
 48 H       11.3770    11.0150     1.0350 H     1 <1>   0.1500 
@<TRIPOS>BOND
  1   1   2  1   
  2   2   3  1   
  3   2   4  1   
  4   2  27  1   
  5   4   5  1   
  6   5   6  ar  
  7   5   7  ar  
  8   6   8  ar  
  9   6  28  1   
 10   7   9  ar  
 11   7  29  1   
 12   8  10  ar  
 13   8  30  1   
 14   9  10  ar  
 15   9  31  1   
 16  10  11  1   
 17  11  12  2   
 18  11  13  am  
 19  13  14  1   
 20  13  15  1   
 21  14  16  1   
 22  14  32  1   
 23  14  33  1   
 24  15  17  1   
 25  15  34  1   
 26  15  35  1   
 27  16  18  1   
 28  16  36  1   
 29  16  37  1   
 30  17  19  1   
 31  17  38  1   
 32  17  39  1   
 33  18  19  1   
 34  18  20  am  
 35  19  40  1   
 36  19  41  1   
 37  20  21  2   
 38  20  22  1   
 39  22  23  1   
 40  22  24  1   
 41  22  42  1   
 42  23  25  1   
 43  23  43  1   
 44  23  44  1   
 45  24  26  1   
 46  24  45  1   
 47  24  46  1   
 48  25  26  2   
 49  25  47  1   
 50  26  48  1   
@<TRIPOS>SUBSTRUCTURE
  1 ****  14 GROUP 4 **** **** 0

# MOE 2024.06 (io_trps.svl 2023.06)
