@<TRIPOS>MOLECULE
NONAME
46 48 1 0 0 
SMALL
USER_CHARGES


@<TRIPOS>ATOM
  1 O       -0.2740     0.8870    -0.9000 O.2   1 <1>  -0.5700 
  2 C       -0.2280     2.0700    -0.6200 C.2   1 <1>   0.5440 
  3 N       -1.3330     2.8580    -0.8680 N.am  1 <1>  -0.6600 
  4 C        0.9840     2.6050    -0.0260 C.ar  1 <1>   0.0860 
  5 C       -2.4340     2.4070    -1.7620 C.3   1 <1>   0.1400 
  6 C       -1.6430     4.1160    -0.1400 C.3   1 <1>   0.1400 
  7 C        1.5810     3.7740    -0.4950 C.ar  1 <1>  -0.1500 
  8 C        1.6100     1.9520     1.0340 C.ar  1 <1>  -0.1500 
  9 C       -3.7010     2.1880    -0.9330 C.3   1 <1>  -0.1600 
 10 C       -2.9030     3.9090     0.7070 C.3   1 <1>  -0.1600 
 11 C        2.7380     4.2740     0.0760 C.ar  1 <1>  -0.1500 
 12 C        2.7670     2.4480     1.6070 C.ar  1 <1>  -0.1500 
 13 C       -4.1080     3.4390    -0.1370 C.3   1 <1>   0.2800 
 14 C        3.3510     3.6190     1.1390 C.ar  1 <1>   0.0730 
 15 O       -4.3830     4.4190    -1.0960 O.3   1 <1>  -0.5600 
 16 C       -5.3610     3.1170     0.7250 C.3   1 <1>  -0.1600 
 17 C        4.5520     4.1360     1.7310 C.1   1 <1>   0.4840 
 18 C       -5.0020     5.6340    -0.7420 C.3   1 <1>   0.1200 
 19 C       -6.5610     4.0550     0.5180 C.3   1 <1>   0.2800 
 20 N        5.5040     4.5500     2.2030 N.1   1 <1>  -0.5570 
 21 C       -6.0620     5.5100     0.3700 C.3   1 <1>   0.2000 
 22 O       -7.2090     3.6870    -0.6470 O.3   1 <1>  -0.6800 
 23 C       -7.6020     3.8870     1.6300 C.3   1 <1>  -0.2400 
 24 O       -5.5030     5.9580     1.5710 O.3   1 <1>  -0.6800 
 25 H       -2.6130     3.1600    -2.5100 H     1 <1>   0.0800 
 26 H       -2.1650     1.4950    -2.2670 H     1 <1>   0.0800 
 27 H       -0.8290     4.4010     0.5010 H     1 <1>   0.0800 
 28 H       -1.8060     4.9050    -0.8550 H     1 <1>   0.0800 
 29 H        1.1270     4.2900    -1.3250 H     1 <1>   0.1500 
 30 H        1.1760     1.0370     1.4030 H     1 <1>   0.1500 
 31 H       -3.5220     1.3670    -0.2610 H     1 <1>   0.0800 
 32 H       -4.5050     1.9040    -1.5870 H     1 <1>   0.0800 
 33 H       -3.1300     4.8210     1.2210 H     1 <1>   0.0800 
 34 H       -2.6820     3.1660     1.4530 H     1 <1>   0.0800 
 35 H        3.1730     5.1800    -0.3110 H     1 <1>   0.1500 
 36 H        3.2240     1.9160     2.4250 H     1 <1>   0.1500 
 37 H       -5.6780     2.1020     0.5710 H     1 <1>   0.0800 
 38 H       -5.0710     3.1650     1.7590 H     1 <1>   0.0800 
 39 H       -4.2400     6.3430    -0.4720 H     1 <1>   0.0800 
 40 H       -5.4860     5.9860    -1.6350 H     1 <1>   0.0800 
 41 H       -6.8910     6.1630     0.1580 H     1 <1>   0.0800 
 42 H       -7.4780     2.7530    -0.5960 H     1 <1>   0.4000 
 43 H       -7.1790     4.1540     2.5820 H     1 <1>   0.0800 
 44 H       -7.9410     2.8690     1.6880 H     1 <1>   0.0800 
 45 H       -8.4420     4.5330     1.4490 H     1 <1>   0.0800 
 46 H       -4.7650     5.3750     1.8240 H     1 <1>   0.4000 
@<TRIPOS>BOND
  1   1   2  2   
  2   2   3  am  
  3   2   4  1   
  4   3   5  1   
  5   3   6  1   
  6   4   7  ar  
  7   4   8  ar  
  8   5   9  1   
  9   5  25  1   
 10   5  26  1   
 11   6  10  1   
 12   6  27  1   
 13   6  28  1   
 14   7  11  ar  
 15   7  29  1   
 16   8  12  ar  
 17   8  30  1   
 18   9  13  1   
 19   9  31  1   
 20   9  32  1   
 21  10  13  1   
 22  10  33  1   
 23  10  34  1   
 24  11  14  ar  
 25  11  35  1   
 26  12  14  ar  
 27  12  36  1   
 28  13  15  1   
 29  13  16  1   
 30  14  17  1   
 31  15  18  1   
 32  16  19  1   
 33  16  37  1   
 34  16  38  1   
 35  17  20  3   
 36  18  21  1   
 37  18  39  1   
 38  18  40  1   
 39  19  21  1   
 40  19  22  1   
 41  19  23  1   
 42  21  24  1   
 43  21  41  1   
 44  22  42  1   
 45  23  43  1   
 46  23  44  1   
 47  23  45  1   
 48  24  46  1   
@<TRIPOS>SUBSTRUCTURE
  1 ****   6 GROUP 4 **** **** 0

# MOE 2024.06 (io_trps.svl 2023.06)
