@<TRIPOS>MOLECULE
NONAME
55 58 1 0 0 
SMALL
USER_CHARGES


@<TRIPOS>ATOM
  1 O       -0.4710     0.4700     0.7940 O.2   1 <1>  -0.5700 
  2 C       -1.4470     0.9900     0.3080 C.2   1 <1>   0.5690 
  3 N       -2.5860     0.2740     0.0710 N.am  1 <1>  -0.6600 
  4 C       -1.4100     2.4690    -0.0590 C.3   1 <1>  -0.0990 
  5 C       -3.8290     0.7550    -0.5840 C.3   1 <1>   0.1400 
  6 C       -2.7280    -1.1500     0.4440 C.3   1 <1>   0.1400 
  7 C       -0.0880     3.1770     0.2920 C.3   1 <1>  -0.1600 
  8 C       -4.8100    -0.4260    -0.5330 C.3   1 <1>   0.2000 
  9 C       -3.9040    -1.6550    -0.3940 C.3   1 <1>  -0.0800 
 10 C       -0.1140     4.6630    -0.0920 C.3   1 <1>   0.0210 
 11 O       -5.6130    -0.3240     0.6080 O.3   1 <1>  -0.5600 
 12 C       -4.5960    -2.8950     0.2010 C.3   1 <1>   0.0200 
 13 C        1.1840     5.3760     0.2480 C.2   1 <1>  -0.1810 
 14 C       -6.7720     0.4320     0.4560 C.3   1 <1>   0.0400 
 15 C       -3.7300    -4.1440     0.1600 C.2   1 <1>  -0.0400 
 16 C        1.4070     6.7480    -0.0140 C.ar  1 <1>   0.0000 
 17 C        2.3080     4.8870     0.8260 C.2   1 <1>  -0.3020 
 18 O       -4.1860    -5.2420     0.7010 O.3   1 <1>  -0.0190 
 19 C       -2.5140    -4.4140    -0.3430 C.2   1 <1>  -0.1500 
 20 C        2.6940     7.0330     0.4310 C.ar  1 <1>  -0.1520 
 21 C        0.6370     7.7670    -0.5860 C.ar  1 <1>  -0.1500 
 22 N        3.2350     5.8820     0.9440 N.pl3 1 <1>   0.0330 
 23 N       -3.3440    -6.2280     0.5910 N.2   1 <1>  -0.4100 
 24 C       -2.3260    -5.7580    -0.0330 C.2   1 <1>   0.1080 
 25 C        3.2280     8.3190     0.3170 C.ar  1 <1>  -0.1500 
 26 C        1.1630     9.0340    -0.6990 C.ar  1 <1>  -0.1500 
 27 C       -1.0930    -6.5620    -0.3800 C.3   1 <1>  -0.0590 
 28 C        2.4590     9.3100    -0.2470 C.ar  1 <1>  -0.1500 
 29 H       -1.5830     2.5550    -1.1160 H     1 <1>   0.0800 
 30 H       -2.2140     2.9590     0.4580 H     1 <1>   0.0800 
 31 H       -4.2230     1.6180    -0.0770 H     1 <1>   0.0800 
 32 H       -3.6080     1.0000    -1.6070 H     1 <1>   0.0800 
 33 H       -1.8200    -1.6920     0.2430 H     1 <1>   0.0800 
 34 H       -2.9570    -1.2100     1.4950 H     1 <1>   0.0800 
 35 H        0.0920     3.0880     1.3500 H     1 <1>   0.0800 
 36 H        0.7230     2.6920    -0.2240 H     1 <1>   0.0800 
 37 H       -5.4370    -0.4860    -1.4070 H     1 <1>   0.0800 
 38 H       -3.5320    -1.9000    -1.3720 H     1 <1>   0.0800 
 39 H       -0.9180     5.1540     0.4260 H     1 <1>   0.0800 
 40 H       -0.2870     4.7580    -1.1500 H     1 <1>   0.0800 
 41 H       -5.5000    -3.0940    -0.3460 H     1 <1>   0.0800 
 42 H       -4.8720    -2.7040     1.2240 H     1 <1>   0.0800 
 43 H       -7.2870     0.4460     1.4020 H     1 <1>   0.0800 
 44 H       -7.4010    -0.0260    -0.2880 H     1 <1>   0.0800 
 45 H       -6.5150     1.4370     0.1710 H     1 <1>   0.0800 
 46 H        2.5100     3.8850     1.1640 H     1 <1>   0.1500 
 47 H       -1.8180    -3.7850    -0.8660 H     1 <1>   0.1500 
 48 H       -0.3550     7.5440    -0.9290 H     1 <1>   0.1500 
 49 H        4.1730     5.7960     1.3440 H     1 <1>   0.2700 
 50 H        4.2250     8.5210     0.6660 H     1 <1>   0.1500 
 51 H        0.5810     9.8260    -1.1370 H     1 <1>   0.1500 
 52 H       -0.2280    -6.1170     0.0770 H     1 <1>   0.0800 
 53 H       -0.9610    -6.5860    -1.4450 H     1 <1>   0.0800 
 54 H       -1.1990    -7.5690    -0.0180 H     1 <1>   0.0800 
 55 H        2.8470    10.3080    -0.3470 H     1 <1>   0.1500 
@<TRIPOS>BOND
  1   1   2  2   
  2   2   3  am  
  3   2   4  1   
  4   3   5  1   
  5   3   6  1   
  6   4   7  1   
  7   4  29  1   
  8   4  30  1   
  9   5   8  1   
 10   5  31  1   
 11   5  32  1   
 12   6   9  1   
 13   6  33  1   
 14   6  34  1   
 15   7  10  1   
 16   7  35  1   
 17   7  36  1   
 18   8   9  1   
 19   8  11  1   
 20   8  37  1   
 21   9  12  1   
 22   9  38  1   
 23  10  13  1   
 24  10  39  1   
 25  10  40  1   
 26  11  14  1   
 27  12  15  1   
 28  12  41  1   
 29  12  42  1   
 30  13  16  1   
 31  13  17  2   
 32  14  43  1   
 33  14  44  1   
 34  14  45  1   
 35  15  18  1   
 36  15  19  2   
 37  16  20  ar  
 38  16  21  ar  
 39  17  22  1   
 40  17  46  1   
 41  18  23  1   
 42  19  24  1   
 43  19  47  1   
 44  20  22  1   
 45  20  25  ar  
 46  21  26  ar  
 47  21  48  1   
 48  22  49  1   
 49  23  24  2   
 50  24  27  1   
 51  25  28  ar  
 52  25  50  1   
 53  26  28  ar  
 54  26  51  1   
 55  27  52  1   
 56  27  53  1   
 57  27  54  1   
 58  28  55  1   
@<TRIPOS>SUBSTRUCTURE
  1 ****   2 GROUP 4 **** **** 0

# MOE 2024.06 (io_trps.svl 2023.06)
