@<TRIPOS>MOLECULE
NONAME
44 46 1 0 0 
SMALL
USER_CHARGES


@<TRIPOS>ATOM
  1 O        1.1410     0.6700     2.8150 O.2   1 <1>  -0.5700 
  2 C        1.4670     0.5910     1.6430 C.2   1 <1>   0.5440 
  3 N        0.9320     1.4970     0.7560 N.am  1 <1>  -0.6600 
  4 C        2.4300    -0.4010     1.2360 C.ar  1 <1>   0.0860 
  5 C       -0.0600     2.5210     1.1400 C.3   1 <1>   0.1400 
  6 C        1.2240     1.5450    -0.6910 C.3   1 <1>   0.1400 
  7 C        2.1200    -1.4810     0.3780 C.ar  1 <1>   0.4100 
  8 C        3.7360    -0.2800     1.6890 C.ar  1 <1>  -0.1500 
  9 C       -0.5620     3.0870    -0.1840 C.3   1 <1>  -0.1600 
 10 C        0.5790     2.8410    -1.1680 C.3   1 <1>  -0.1600 
 11 N        3.0450    -2.3340    -0.0690 N.ar  1 <1>  -0.6200 
 12 N        0.8300    -1.7480    -0.0690 N.pl3 1 <1>  -0.8380 
 13 C        4.6710    -1.1870     1.2490 C.ar  1 <1>  -0.1500 
 14 C        4.2750    -2.1790     0.3720 C.ar  1 <1>   0.1600 
 15 C        0.5770    -2.2720    -1.4580 C.3   1 <1>   0.2090 
 16 C       -0.3540    -1.6810     0.8360 C.3   1 <1>   0.1290 
 17 C        0.1320    -3.7510    -1.5670 C.3   1 <1>   0.2000 
 18 O       -1.2140    -3.9170    -1.2240 O.3   1 <1>  -0.5600 
 19 C        0.8940    -4.7600    -0.7150 C.3   1 <1>  -0.1600 
 20 C       -1.4470    -5.1730    -0.6600 C.3   1 <1>   0.1200 
 21 C       -0.1040    -5.8930    -0.6010 C.3   1 <1>  -0.1600 
 22 H        0.4320     3.2830     1.7200 H     1 <1>   0.0800 
 23 H       -0.8570     2.0840     1.7180 H     1 <1>   0.0800 
 24 H        0.7610     0.7000    -1.1720 H     1 <1>   0.0800 
 25 H        2.2850     1.5350    -0.8750 H     1 <1>   0.0800 
 26 H        4.0000     0.5130     2.3670 H     1 <1>   0.1500 
 27 H       -0.8180     4.1290    -0.1020 H     1 <1>   0.0800 
 28 H       -1.4340     2.5340    -0.4890 H     1 <1>   0.0800 
 29 H        0.2370     2.7660    -2.1850 H     1 <1>   0.0800 
 30 H        1.3010     3.6360    -1.0980 H     1 <1>   0.0800 
 31 H        5.6930    -1.1270     1.5750 H     1 <1>   0.1500 
 32 H        5.0120    -2.8810     0.0200 H     1 <1>   0.1500 
 33 H        1.4790    -2.1620    -2.0330 H     1 <1>   0.0800 
 34 H       -0.1680    -1.6590    -1.9310 H     1 <1>   0.0800 
 35 H       -0.0430    -1.5580     1.8590 H     1 <1>   0.0800 
 36 H       -0.9260    -2.5870     0.7780 H     1 <1>   0.0800 
 37 H       -0.9790    -0.8510     0.5570 H     1 <1>   0.0800 
 38 H        0.2090    -4.0460    -2.5980 H     1 <1>   0.0800 
 39 H        1.0950    -4.3480     0.2580 H     1 <1>   0.0800 
 40 H        1.8220    -5.0540    -1.1710 H     1 <1>   0.0800 
 41 H       -2.1640    -5.7000    -1.2650 H     1 <1>   0.0800 
 42 H       -1.8440    -5.0160     0.3280 H     1 <1>   0.0800 
 43 H        0.0130    -6.4560     0.3080 H     1 <1>   0.0800 
 44 H       -0.0180    -6.5560    -1.4440 H     1 <1>   0.0800 
@<TRIPOS>BOND
  1   1   2  2   
  2   2   3  am  
  3   2   4  1   
  4   3   5  1   
  5   3   6  1   
  6   4   7  ar  
  7   4   8  ar  
  8   5   9  1   
  9   5  22  1   
 10   5  23  1   
 11   6  10  1   
 12   6  24  1   
 13   6  25  1   
 14   7  11  ar  
 15   7  12  1   
 16   8  13  ar  
 17   8  26  1   
 18   9  10  1   
 19   9  27  1   
 20   9  28  1   
 21  10  29  1   
 22  10  30  1   
 23  11  14  ar  
 24  12  15  1   
 25  12  16  1   
 26  13  14  ar  
 27  13  31  1   
 28  14  32  1   
 29  15  17  1   
 30  15  33  1   
 31  15  34  1   
 32  16  35  1   
 33  16  36  1   
 34  16  37  1   
 35  17  18  1   
 36  17  19  1   
 37  17  38  1   
 38  18  20  1   
 39  19  21  1   
 40  19  39  1   
 41  19  40  1   
 42  20  21  1   
 43  20  41  1   
 44  20  42  1   
 45  21  43  1   
 46  21  44  1   
@<TRIPOS>SUBSTRUCTURE
  1 ****  12 GROUP 4 **** **** 0

# MOE 2024.06 (io_trps.svl 2023.06)
