@<TRIPOS>MOLECULE
NONAME
45 47 1 0 0 
SMALL
USER_CHARGES


@<TRIPOS>ATOM
  1 O       -0.5280     0.2850     0.6160 O.2   1 <1>  -0.5700 
  2 C       -1.5010     0.8300     0.1520 C.2   1 <1>   0.5690 
  3 N       -2.6100     0.1120    -0.1950 N.am  1 <1>  -0.6600 
  4 C       -1.4960     2.3440    -0.0350 C.3   1 <1>  -0.0990 
  5 C       -3.9370     0.6440    -0.5960 C.3   1 <1>   0.1400 
  6 C       -2.6790    -1.3630    -0.0380 C.3   1 <1>   0.1400 
  7 C       -0.0970     2.9820     0.0630 C.3   1 <1>  -0.1600 
  8 C       -4.9180    -0.4430    -0.1630 C.3   1 <1>   0.2000 
  9 C       -4.1290    -1.7410    -0.3670 C.3   1 <1>  -0.0800 
 10 C       -0.1360     4.5000    -0.1580 C.3   1 <1>   0.0210 
 11 O       -5.1810    -0.2670     1.1870 O.3   1 <1>  -0.6800 
 12 C       -4.6490    -2.9600     0.4170 C.3   1 <1>  -0.0170 
 13 C        1.2430     5.1320    -0.0630 C.2   1 <1>  -0.1810 
 14 C       -3.8550    -4.2100     0.0690 C.ar  1 <1>  -0.1440 
 15 C        1.5270     6.4830    -0.2470 C.2   1 <1>   0.1390 
 16 C        2.4410     4.5700     0.2070 C.2   1 <1>  -0.3020 
 17 C       -2.7980    -4.6460     0.8430 C.ar  1 <1>  -0.1500 
 18 C       -4.1500    -4.9710    -1.0430 C.ar  1 <1>  -0.1500 
 19 N        2.7900     6.7480    -0.1060 N.2   1 <1>  -0.7070 
 20 N        3.3550     5.5590     0.1760 N.pl3 1 <1>   0.3000 
 21 C       -2.1060    -5.7880     0.4740 C.ar  1 <1>   0.1600 
 22 C       -3.3950    -6.0980    -1.3220 C.ar  1 <1>   0.1600 
 23 N       -2.3780    -6.5240    -0.5910 N.ar  1 <1>  -0.6200 
 24 H       -1.9100     2.5670    -1.0000 H     1 <1>   0.0800 
 25 H       -2.1330     2.7730     0.7170 H     1 <1>   0.0800 
 26 H       -4.1610     1.5870    -0.1280 H     1 <1>   0.0800 
 27 H       -3.9610     0.7540    -1.6660 H     1 <1>   0.0800 
 28 H       -1.9840    -1.8490    -0.7030 H     1 <1>   0.0800 
 29 H       -2.4320    -1.6190     0.9780 H     1 <1>   0.0800 
 30 H        0.3180     2.7780     1.0360 H     1 <1>   0.0800 
 31 H        0.5490     2.5320    -0.6720 H     1 <1>   0.0800 
 32 H       -5.8500    -0.4150    -0.7010 H     1 <1>   0.0800 
 33 H       -4.1640    -1.9790    -1.4160 H     1 <1>   0.0800 
 34 H       -0.7750     4.9550     0.5790 H     1 <1>   0.0800 
 35 H       -0.5440     4.7110    -1.1320 H     1 <1>   0.0800 
 36 H       -4.3290    -0.1770     1.6620 H     1 <1>   0.4000 
 37 H       -5.6870    -3.1210     0.1810 H     1 <1>   0.0800 
 38 H       -4.5860    -2.7810     1.4760 H     1 <1>   0.0800 
 39 H        0.7910     7.2340    -0.4800 H     1 <1>   0.1500 
 40 H        2.6930     3.5460     0.4160 H     1 <1>   0.1500 
 41 H       -2.5050    -4.1120     1.7280 H     1 <1>   0.1500 
 42 H       -4.9600    -4.7010    -1.6950 H     1 <1>   0.1500 
 43 H        4.3630     5.4560     0.3410 H     1 <1>   0.2700 
 44 H       -1.2830    -6.1120     1.0890 H     1 <1>   0.1500 
 45 H       -3.6400    -6.6800    -2.1940 H     1 <1>   0.1500 
@<TRIPOS>BOND
  1   1   2  2   
  2   2   3  am  
  3   2   4  1   
  4   3   5  1   
  5   3   6  1   
  6   4   7  1   
  7   4  24  1   
  8   4  25  1   
  9   5   8  1   
 10   5  26  1   
 11   5  27  1   
 12   6   9  1   
 13   6  28  1   
 14   6  29  1   
 15   7  10  1   
 16   7  30  1   
 17   7  31  1   
 18   8   9  1   
 19   8  11  1   
 20   8  32  1   
 21   9  12  1   
 22   9  33  1   
 23  10  13  1   
 24  10  34  1   
 25  10  35  1   
 26  11  36  1   
 27  12  14  1   
 28  12  37  1   
 29  12  38  1   
 30  13  15  1   
 31  13  16  2   
 32  14  17  ar  
 33  14  18  ar  
 34  15  19  2   
 35  15  39  1   
 36  16  20  1   
 37  16  40  1   
 38  17  21  ar  
 39  17  41  1   
 40  18  22  ar  
 41  18  42  1   
 42  19  20  1   
 43  20  43  1   
 44  21  23  ar  
 45  21  44  1   
 46  22  23  ar  
 47  22  45  1   
@<TRIPOS>SUBSTRUCTURE
  1 ****   2 GROUP 4 **** **** 0

# MOE 2024.06 (io_trps.svl 2023.06)
