@<TRIPOS>MOLECULE
NONAME
51 53 1 0 0 
SMALL
USER_CHARGES


@<TRIPOS>ATOM
  1 O       -0.1540     0.5830    -1.0390 O.2   1 <1>  -0.5700 
  2 C       -0.1970     1.7480    -0.7200 C.2   1 <1>   0.5690 
  3 N       -1.3410     2.3380    -0.2520 N.am  1 <1>  -0.6600 
  4 C        1.0750     2.5810    -0.8810 C.3   1 <1>   0.1810 
  5 C       -1.3740     3.7890     0.1350 C.3   1 <1>   0.3640 
  6 C       -2.5880     1.5590     0.0020 C.3   1 <1>   0.0600 
  7 O        1.0780     3.7500    -0.0990 O.3   1 <1>  -0.5600 
  8 C       -2.5970     4.4510    -0.5240 C.ar  1 <1>  -0.1430 
  9 C       -0.0780     4.5530    -0.2550 C.3   1 <1>   0.2610 
 10 C       -3.6230     5.0510     0.2080 C.ar  1 <1>  -0.1430 
 11 C       -2.6860     4.4370    -1.9130 C.ar  1 <1>  -0.1500 
 12 C        0.0820     5.8700     0.5250 C.2   1 <1>   0.5690 
 13 C       -4.6850     5.6430    -0.4600 C.ar  1 <1>  -0.1500 
 14 C       -3.6430     5.0850     1.7320 C.3   1 <1>  -0.0960 
 15 C       -3.7490     5.0260    -2.5690 C.ar  1 <1>  -0.1500 
 16 O       -0.4450     5.9750     1.6110 O.2   1 <1>  -0.5700 
 17 N        0.8210     6.9100     0.0070 N.am  1 <1>  -0.6600 
 18 C       -4.7500     5.6350    -1.8410 C.ar  1 <1>  -0.1500 
 19 C        1.7910     6.7870    -1.1280 C.3   1 <1>   0.1400 
 20 C        0.9050     8.2300     0.7070 C.3   1 <1>   0.1400 
 21 C        3.2240     7.0570    -0.6440 C.3   1 <1>   0.1400 
 22 C        2.3390     8.5060     1.1870 C.3   1 <1>   0.1400 
 23 N        3.3080     8.3780     0.0530 N.am  1 <1>  -0.6600 
 24 C        4.1490     9.3610    -0.3950 C.2   1 <1>   0.5690 
 25 O        4.8300     9.2200    -1.3810 O.2   1 <1>  -0.5700 
 26 C        4.2510    10.6800     0.3360 C.3   1 <1>  -0.1790 
 27 H        1.1930     2.8580    -1.9120 H     1 <1>   0.0800 
 28 H        1.9220     1.9900    -0.5830 H     1 <1>   0.0800 
 29 H       -1.4640     3.8210     1.2040 H     1 <1>   0.0800 
 30 H       -2.9340     1.7390     1.0050 H     1 <1>   0.0800 
 31 H       -2.4100     0.5040    -0.1150 H     1 <1>   0.0800 
 32 H       -3.3540     1.8560    -0.6930 H     1 <1>   0.0800 
 33 H       -0.1440     4.8080    -1.2950 H     1 <1>   0.0800 
 34 H       -1.9250     3.9530    -2.5000 H     1 <1>   0.1500 
 35 H       -5.4760     6.1180     0.0930 H     1 <1>   0.1500 
 36 H       -4.6050     5.3980     2.0950 H     1 <1>   0.0800 
 37 H       -2.9100     5.7780     2.0990 H     1 <1>   0.0800 
 38 H       -3.4450     4.1100     2.1370 H     1 <1>   0.0800 
 39 H       -3.8000     5.0080    -3.6440 H     1 <1>   0.1500 
 40 H       -5.5810     6.0990    -2.3440 H     1 <1>   0.1500 
 41 H        1.7600     5.8090    -1.5680 H     1 <1>   0.0800 
 42 H        1.5380     7.5020    -1.8910 H     1 <1>   0.0800 
 43 H        0.6020     9.0070     0.0280 H     1 <1>   0.0800 
 44 H        0.2380     8.2580     1.5510 H     1 <1>   0.0800 
 45 H        3.8930     7.0270    -1.4860 H     1 <1>   0.0800 
 46 H        3.5210     6.2790     0.0380 H     1 <1>   0.0800 
 47 H        2.5950     7.7920     1.9510 H     1 <1>   0.0800 
 48 H        2.3790     9.4850     1.6260 H     1 <1>   0.0800 
 49 H        4.5140    10.5100     1.3620 H     1 <1>   0.0800 
 50 H        3.3160    11.2030     0.2760 H     1 <1>   0.0800 
 51 H        5.0130    11.2850    -0.1180 H     1 <1>   0.0800 
@<TRIPOS>BOND
  1   1   2  2   
  2   2   3  am  
  3   2   4  1   
  4   3   5  1   
  5   3   6  1   
  6   4   7  1   
  7   4  27  1   
  8   4  28  1   
  9   5   8  1   
 10   5   9  1   
 11   5  29  1   
 12   6  30  1   
 13   6  31  1   
 14   6  32  1   
 15   7   9  1   
 16   8  10  ar  
 17   8  11  ar  
 18   9  12  1   
 19   9  33  1   
 20  10  13  ar  
 21  10  14  1   
 22  11  15  ar  
 23  11  34  1   
 24  12  16  2   
 25  12  17  am  
 26  13  18  ar  
 27  13  35  1   
 28  14  36  1   
 29  14  37  1   
 30  14  38  1   
 31  15  18  ar  
 32  15  39  1   
 33  17  19  1   
 34  17  20  1   
 35  18  40  1   
 36  19  21  1   
 37  19  41  1   
 38  19  42  1   
 39  20  22  1   
 40  20  43  1   
 41  20  44  1   
 42  21  23  1   
 43  21  45  1   
 44  21  46  1   
 45  22  23  1   
 46  22  47  1   
 47  22  48  1   
 48  23  24  am  
 49  24  25  2   
 50  24  26  1   
 51  26  49  1   
 52  26  50  1   
 53  26  51  1   
@<TRIPOS>SUBSTRUCTURE
  1 ****  12 GROUP 4 **** **** 0

# MOE 2024.06 (io_trps.svl 2023.06)
