@<TRIPOS>MOLECULE
NONAME
46 49 1 0 0 
SMALL
USER_CHARGES


@<TRIPOS>ATOM
  1 F       -1.0830    -0.5750    -1.5850 F     1 <1>  -0.1900 
  2 C       -1.9080     0.2470    -0.9850 C.ar  1 <1>   0.1900 
  3 C       -2.9610    -0.2900    -0.2400 C.ar  1 <1>   0.1000 
  4 C       -1.6970     1.5990    -1.1190 C.ar  1 <1>  -0.1500 
  5 N       -3.1600    -1.6660    -0.1160 N.pl3 1 <1>  -0.6000 
  6 C       -3.8410     0.5980     0.3990 C.ar  1 <1>   0.0860 
  7 C       -2.5700     2.4740    -0.4850 C.ar  1 <1>  -0.1500 
  8 C       -4.2020    -2.1980     0.6090 C.2   1 <1>  -0.0380 
  9 C       -4.9300     0.0520     1.1690 C.2   1 <1>   0.4690 
 10 C       -3.6210     1.9760     0.2590 C.ar  1 <1>  -0.1500 
 11 C       -5.0620    -1.3580     1.2400 C.2   1 <1>  -0.1360 
 12 C       -4.3210    -3.7200     0.6700 C.3   1 <1>   0.2480 
 13 O       -5.7270     0.7750     1.7520 O.2   1 <1>  -0.5700 
 14 N       -5.7250    -4.1600     0.7160 N.3   1 <1>  -0.8100 
 15 C       -6.4790    -3.8410    -0.5050 C.3   1 <1>   0.1100 
 16 C       -5.8680    -5.6100     0.9290 C.3   1 <1>   0.1100 
 17 C       -7.6810    -4.7750    -0.4510 C.3   1 <1>   0.2000 
 18 C       -7.0870    -6.0680     0.1040 C.3   1 <1>  -0.0800 
 19 O       -8.5570    -4.2720     0.4900 O.3   1 <1>  -0.6800 
 20 C       -6.6920    -7.0270    -1.0340 C.3   1 <1>   0.0200 
 21 C       -6.0040    -8.2750    -0.5120 C.2   1 <1>  -0.0400 
 22 O       -6.6030    -9.0380     0.3620 O.3   1 <1>  -0.0190 
 23 C       -4.8030    -8.8110    -0.7740 C.2   1 <1>  -0.1500 
 24 N       -5.8640   -10.0540     0.7040 N.2   1 <1>  -0.4100 
 25 C       -4.7740    -9.9450     0.0330 C.2   1 <1>   0.1080 
 26 C       -3.6230   -10.9230     0.1170 C.3   1 <1>  -0.0590 
 27 H       -0.8730     1.9690    -1.7040 H     1 <1>   0.1500 
 28 H       -2.4840    -2.2730    -0.5970 H     1 <1>   0.4000 
 29 H       -2.4240     3.5380    -0.5760 H     1 <1>   0.1500 
 30 H       -4.2970     2.6560     0.7510 H     1 <1>   0.1500 
 31 H       -5.8860    -1.7290     1.8210 H     1 <1>   0.1500 
 32 H       -3.8100    -4.0670     1.5510 H     1 <1>   0.0800 
 33 H       -3.8420    -4.1560    -0.1900 H     1 <1>   0.0800 
 34 H       -6.7790    -2.8070    -0.5320 H     1 <1>   0.0800 
 35 H       -5.8870    -4.0630    -1.3760 H     1 <1>   0.0800 
 36 H       -4.9770    -6.1310     0.6220 H     1 <1>   0.0800 
 37 H       -6.0310    -5.8010     1.9760 H     1 <1>   0.0800 
 38 H       -8.2000    -4.8830    -1.3880 H     1 <1>   0.0800 
 39 H       -7.7980    -6.5720     0.7370 H     1 <1>   0.0800 
 40 H       -8.0110    -3.9920     1.2560 H     1 <1>   0.4000 
 41 H       -6.0360    -6.5310    -1.7270 H     1 <1>   0.0800 
 42 H       -7.5770    -7.3250    -1.5690 H     1 <1>   0.0800 
 43 H       -4.0250    -8.4800    -1.4370 H     1 <1>   0.1500 
 44 H       -2.7280   -10.4090     0.4140 H     1 <1>   0.0800 
 45 H       -3.4680   -11.3860    -0.8390 H     1 <1>   0.0800 
 46 H       -3.8430   -11.6860     0.8420 H     1 <1>   0.0800 
@<TRIPOS>BOND
  1   1   2  1   
  2   2   3  ar  
  3   2   4  ar  
  4   3   5  1   
  5   3   6  ar  
  6   4   7  ar  
  7   4  27  1   
  8   5   8  1   
  9   5  28  1   
 10   6   9  1   
 11   6  10  ar  
 12   7  10  ar  
 13   7  29  1   
 14   8  11  2   
 15   8  12  1   
 16   9  11  1   
 17   9  13  2   
 18  10  30  1   
 19  11  31  1   
 20  12  14  1   
 21  12  32  1   
 22  12  33  1   
 23  14  15  1   
 24  14  16  1   
 25  15  17  1   
 26  15  34  1   
 27  15  35  1   
 28  16  18  1   
 29  16  36  1   
 30  16  37  1   
 31  17  18  1   
 32  17  19  1   
 33  17  38  1   
 34  18  20  1   
 35  18  39  1   
 36  19  40  1   
 37  20  21  1   
 38  20  41  1   
 39  20  42  1   
 40  21  22  1   
 41  21  23  2   
 42  22  24  1   
 43  23  25  1   
 44  23  43  1   
 45  24  25  2   
 46  25  26  1   
 47  26  44  1   
 48  26  45  1   
 49  26  46  1   
@<TRIPOS>SUBSTRUCTURE
  1 ****  12 GROUP 4 **** **** 0

# MOE 2024.06 (io_trps.svl 2023.06)
