@<TRIPOS>MOLECULE
NONAME
53 55 1 0 0 
SMALL
USER_CHARGES


@<TRIPOS>ATOM
  1 F       -2.8810    -0.7860    -1.8800 F     1 <1>  -0.1900 
  2 C       -3.3360     0.1270    -1.0580 C.ar  1 <1>   0.1900 
  3 C       -3.8190    -0.2550     0.1930 C.ar  1 <1>   0.0830 
  4 C       -3.3270     1.4410    -1.4830 C.ar  1 <1>  -0.1500 
  5 O       -3.7940    -1.5710     0.5300 O.3   1 <1>  -0.3630 
  6 C       -4.3090     0.7310     1.0500 C.ar  1 <1>  -0.1500 
  7 C       -3.8230     2.3870    -0.6080 C.ar  1 <1>   0.1900 
  8 C       -4.7380    -2.0960     1.4540 C.3   1 <1>   0.1810 
  9 C       -4.3120     2.0590     0.6460 C.ar  1 <1>  -0.1500 
 10 F       -3.8320     3.6400    -0.9770 F     1 <1>  -0.1900 
 11 C       -4.7370    -3.6240     1.4670 C.2   1 <1>   0.5690 
 12 O       -4.6360    -4.1570     2.5470 O.2   1 <1>  -0.5700 
 13 N       -4.8830    -4.3570     0.3150 N.am  1 <1>  -0.6600 
 14 C       -4.9230    -5.8590     0.3630 C.3   1 <1>   0.3640 
 15 C       -5.0440    -3.7430    -1.0440 C.3   1 <1>   0.1400 
 16 C       -3.5630    -6.4880     0.0030 C.ar  1 <1>  -0.1430 
 17 C       -6.0710    -6.4180    -0.5410 C.3   1 <1>   0.2000 
 18 C       -5.3870    -4.7830    -2.1210 C.3   1 <1>   0.1200 
 19 C       -3.4290    -7.8670     0.1160 C.ar  1 <1>  -0.1500 
 20 C       -2.4550    -5.7520    -0.4110 C.ar  1 <1>  -0.1500 
 21 O       -6.4030    -5.6130    -1.6530 O.3   1 <1>  -0.5600 
 22 C       -7.3660    -6.6030     0.2600 C.3   1 <1>   0.1200 
 23 C       -2.2450    -8.5080    -0.2050 C.ar  1 <1>   0.0830 
 24 C       -1.2590    -6.3790    -0.7170 C.ar  1 <1>  -0.1500 
 25 O       -7.2350    -7.6650     1.1510 O.3   1 <1>  -0.6800 
 26 O       -2.2260    -9.8610    -0.1120 O.3   1 <1>  -0.3630 
 27 C       -1.1390    -7.7520    -0.6050 C.ar  1 <1>   0.0830 
 28 C       -1.9810   -10.5760    -1.3040 C.3   1 <1>   0.0400 
 29 O        0.0690    -8.3010    -0.8790 O.3   1 <1>  -0.3630 
 30 C        0.7640    -8.8380     0.2250 C.3   1 <1>   0.0400 
 31 H       -2.9510     1.7160    -2.4510 H     1 <1>   0.1500 
 32 H       -4.6780     0.4860     2.0290 H     1 <1>   0.1500 
 33 H       -4.4810    -1.7380     2.4340 H     1 <1>   0.0800 
 34 H       -5.7160    -1.7450     1.1830 H     1 <1>   0.0800 
 35 H       -4.6840     2.8350     1.2920 H     1 <1>   0.1500 
 36 H       -5.1270    -6.1710     1.3730 H     1 <1>   0.0800 
 37 H       -5.8310    -3.0100    -1.0120 H     1 <1>   0.0800 
 38 H       -4.1350    -3.2430    -1.3260 H     1 <1>   0.0800 
 39 H       -5.7870    -7.3740    -0.9400 H     1 <1>   0.0800 
 40 H       -4.5310    -5.3840    -2.3750 H     1 <1>   0.0800 
 41 H       -5.7400    -4.2940    -3.0120 H     1 <1>   0.0800 
 42 H       -4.2520    -8.4700     0.4580 H     1 <1>   0.1500 
 43 H       -2.4970    -4.6810    -0.4910 H     1 <1>   0.1500 
 44 H       -8.1910    -6.8180    -0.3960 H     1 <1>   0.0800 
 45 H       -7.5790    -5.7160     0.8300 H     1 <1>   0.0800 
 46 H       -0.4090    -5.8020    -1.0320 H     1 <1>   0.1500 
 47 H       -7.3330    -8.5220     0.6890 H     1 <1>   0.4000 
 48 H       -2.1720   -11.6170    -1.1160 H     1 <1>   0.0800 
 49 H       -0.9560   -10.4420    -1.5970 H     1 <1>   0.0800 
 50 H       -2.6400   -10.2110    -2.0710 H     1 <1>   0.0800 
 51 H        1.7250    -9.1780    -0.1140 H     1 <1>   0.0800 
 52 H        0.2050    -9.6610     0.6320 H     1 <1>   0.0800 
 53 H        0.8840    -8.0670     0.9660 H     1 <1>   0.0800 
@<TRIPOS>BOND
  1   1   2  1   
  2   2   3  ar  
  3   2   4  ar  
  4   3   5  1   
  5   3   6  ar  
  6   4   7  ar  
  7   4  31  1   
  8   5   8  1   
  9   6   9  ar  
 10   6  32  1   
 11   7   9  ar  
 12   7  10  1   
 13   8  11  1   
 14   8  33  1   
 15   8  34  1   
 16   9  35  1   
 17  11  12  2   
 18  11  13  am  
 19  13  14  1   
 20  13  15  1   
 21  14  16  1   
 22  14  17  1   
 23  14  36  1   
 24  15  18  1   
 25  15  37  1   
 26  15  38  1   
 27  16  19  ar  
 28  16  20  ar  
 29  17  21  1   
 30  17  22  1   
 31  17  39  1   
 32  18  21  1   
 33  18  40  1   
 34  18  41  1   
 35  19  23  ar  
 36  19  42  1   
 37  20  24  ar  
 38  20  43  1   
 39  22  25  1   
 40  22  44  1   
 41  22  45  1   
 42  23  26  1   
 43  23  27  ar  
 44  24  27  ar  
 45  24  46  1   
 46  25  47  1   
 47  26  28  1   
 48  27  29  1   
 49  28  48  1   
 50  28  49  1   
 51  28  50  1   
 52  29  30  1   
 53  30  51  1   
 54  30  52  1   
 55  30  53  1   
@<TRIPOS>SUBSTRUCTURE
  1 ****  13 GROUP 4 **** **** 0

# MOE 2024.06 (io_trps.svl 2023.06)
