@<TRIPOS>MOLECULE
NONAME
50 54 1 0 0 
SMALL
USER_CHARGES


@<TRIPOS>ATOM
  1 O        1.6300    -0.8910     1.5130 O.3   1 <1>  -0.5600 
  2 C        1.7510    -0.9750     0.1110 C.3   1 <1>   0.4600 
  3 C        0.4810    -1.4420     2.1180 C.3   1 <1>   0.1200 
  4 C        1.2140    -2.3090    -0.3840 C.2   1 <1>  -0.3320 
  5 C        1.0030     0.2070    -0.5040 C.3   1 <1>  -0.1600 
  6 C        3.2430    -0.8580    -0.1840 C.3   1 <1>  -0.1600 
  7 C        0.3930    -2.9580     1.8790 C.3   1 <1>   0.0210 
  8 N        1.2640    -2.7970    -1.6640 N.pl3 1 <1>   0.0330 
  9 C        0.6050    -3.2130     0.4090 C.2   1 <1>  -0.1810 
 10 C        1.5560     1.5180     0.0440 C.3   1 <1>   0.3430 
 11 C        3.7840     0.4560     0.3630 C.3   1 <1>   0.3430 
 12 C        0.6760    -4.0380    -1.6670 C.ar  1 <1>  -0.1520 
 13 C        0.2530    -4.3310    -0.3740 C.ar  1 <1>   0.0000 
 14 N        3.0180     1.5940    -0.2170 N.4   1 <1>  -0.9590 
 15 C        0.4760    -4.9460    -2.7090 C.ar  1 <1>  -0.1500 
 16 C       -0.3790    -5.5500    -0.1120 C.ar  1 <1>  -0.1500 
 17 C        3.6130     2.8950     0.1820 C.3   1 <1>   0.5240 
 18 C       -0.1480    -6.1420    -2.4380 C.ar  1 <1>  -0.1500 
 19 C       -0.5760    -6.4440    -1.1390 C.ar  1 <1>  -0.1500 
 20 C        4.8500     3.0900    -0.6840 C.2   1 <1>   0.0460 
 21 N        4.8140     2.7160    -1.9830 N.2   1 <1>  -0.5650 
 22 C        6.0650     3.5900    -0.3580 C.2   1 <1>  -0.3320 
 23 C        5.9960     3.0070    -2.4200 C.2   1 <1>   0.0360 
 24 N        6.8060     3.5410    -1.4830 N.pl3 1 <1>   0.0330 
 25 C        6.6130     4.1340     0.9520 C.3   1 <1>  -0.0600 
 26 H       -0.3880    -0.9550     1.7130 H     1 <1>   0.0800 
 27 H        0.5320    -1.2380     3.1730 H     1 <1>   0.0800 
 28 H       -0.0450     0.1270    -0.2830 H     1 <1>   0.0800 
 29 H        1.1040     0.1900    -1.5740 H     1 <1>   0.0800 
 30 H        3.4250    -0.9120    -1.2410 H     1 <1>   0.0800 
 31 H        3.7560    -1.6830     0.2780 H     1 <1>   0.0800 
 32 H       -0.5730    -3.3190     2.1820 H     1 <1>   0.0800 
 33 H        1.1460    -3.4690     2.4510 H     1 <1>   0.0800 
 34 H        1.6700    -2.3520    -2.4910 H     1 <1>   0.2700 
 35 H        1.3740     1.5590     1.1060 H     1 <1>   0.0800 
 36 H        1.0500     2.3470    -0.4250 H     1 <1>   0.0800 
 37 H        4.8300     0.5480     0.1140 H     1 <1>   0.0800 
 38 H        3.6850     0.4570     1.4370 H     1 <1>   0.0800 
 39 H        3.2070     1.5930    -1.2370 H     1 <1>   0.4500 
 40 H        0.8070    -4.7090    -3.7040 H     1 <1>   0.1500 
 41 H       -0.7010    -5.7700     0.8890 H     1 <1>   0.1500 
 42 H        3.8660     2.9060     1.2280 H     1 <1>   0.0800 
 43 H        2.9230     3.6950    -0.0260 H     1 <1>   0.0800 
 44 H       -0.3140    -6.8590    -3.2230 H     1 <1>   0.1500 
 45 H       -1.0610    -7.3860    -0.9540 H     1 <1>   0.1500 
 46 H        6.3270     2.8490    -3.4340 H     1 <1>   0.1500 
 47 H        7.7760     3.8480    -1.6120 H     1 <1>   0.2700 
 48 H        5.8700     4.0950     1.7280 H     1 <1>   0.0800 
 49 H        6.9200     5.1580     0.8280 H     1 <1>   0.0800 
 50 H        7.4650     3.5560     1.2680 H     1 <1>   0.0800 
@<TRIPOS>BOND
  1   1   2  1   
  2   1   3  1   
  3   2   4  1   
  4   2   5  1   
  5   2   6  1   
  6   3   7  1   
  7   3  26  1   
  8   3  27  1   
  9   4   8  1   
 10   4   9  2   
 11   5  10  1   
 12   5  28  1   
 13   5  29  1   
 14   6  11  1   
 15   6  30  1   
 16   6  31  1   
 17   7   9  1   
 18   7  32  1   
 19   7  33  1   
 20   8  12  1   
 21   8  34  1   
 22   9  13  1   
 23  10  14  1   
 24  10  35  1   
 25  10  36  1   
 26  11  14  1   
 27  11  37  1   
 28  11  38  1   
 29  12  13  ar  
 30  12  15  ar  
 31  13  16  ar  
 32  14  17  1   
 33  14  39  1   
 34  15  18  ar  
 35  15  40  1   
 36  16  19  ar  
 37  16  41  1   
 38  17  20  1   
 39  17  42  1   
 40  17  43  1   
 41  18  19  ar  
 42  18  44  1   
 43  19  45  1   
 44  20  21  1   
 45  20  22  2   
 46  21  23  2   
 47  22  24  1   
 48  22  25  1   
 49  23  24  1   
 50  23  46  1   
 51  24  47  1   
 52  25  48  1   
 53  25  49  1   
 54  25  50  1   
@<TRIPOS>SUBSTRUCTURE
  1 ****   2 GROUP 4 **** **** 0

# MOE 2024.06 (io_trps.svl 2023.06)
