@<TRIPOS>MOLECULE
NONAME
34 35 1 0 0 
SMALL
USER_CHARGES


@<TRIPOS>ATOM
  1 O        0.2240    -0.2180    -0.2590 O.2   1 <1>  -0.5700 
  2 C        0.8010    -1.2110     0.1380 C.2   1 <1>   0.7800 
  3 O        0.2150    -2.4110     0.1310 O.3   1 <1>  -0.4300 
  4 N        2.0800    -1.1580     0.6140 N.am  1 <1>  -0.6600 
  5 C       -1.0870    -2.7210    -0.3170 C.3   1 <1>   0.2800 
  6 C        2.9030     0.0700     0.6020 C.3   1 <1>   0.1400 
  7 C        2.8690    -2.3390     1.0320 C.3   1 <1>   0.1400 
  8 C       -1.2220    -2.4080    -1.8120 C.3   1 <1>  -0.2400 
  9 C       -2.1300    -1.9870     0.5330 C.3   1 <1>  -0.2400 
 10 C       -1.2320    -4.2280    -0.1030 C.3   1 <1>  -0.2400 
 11 C        4.3420    -0.4240     0.5140 C.3   1 <1>   0.0000 
 12 C        4.3370    -1.8960     0.9960 C.3   1 <1>   0.0000 
 13 C        4.7250    -0.9300    -0.9040 C.3   1 <1>   0.2580 
 14 C        5.1480    -2.2800    -0.2730 C.3   1 <1>   0.0000 
 15 O        5.8030    -0.2350    -1.4220 O.3   1 <1>  -0.6580 
 16 H        2.6490     0.7020    -0.2320 H     1 <1>   0.0800 
 17 H        2.7470     0.6070     1.5220 H     1 <1>   0.0800 
 18 H        2.5870    -2.6150     2.0330 H     1 <1>   0.0800 
 19 H        2.6890    -3.1690     0.3700 H     1 <1>   0.0800 
 20 H       -2.1630    -2.7740    -2.1790 H     1 <1>   0.0800 
 21 H       -0.4320    -2.8800    -2.3660 H     1 <1>   0.0800 
 22 H       -1.1950    -1.3490    -1.9910 H     1 <1>   0.0800 
 23 H       -3.1160    -2.3330     0.2830 H     1 <1>   0.0800 
 24 H       -2.1030    -0.9280     0.3520 H     1 <1>   0.0800 
 25 H       -1.9580    -2.1710     1.5780 H     1 <1>   0.0800 
 26 H       -2.2050    -4.5590    -0.4180 H     1 <1>   0.0800 
 27 H       -1.1130    -4.4700     0.9380 H     1 <1>   0.0800 
 28 H       -0.4920    -4.7590    -0.6740 H     1 <1>   0.0800 
 29 H        5.0900     0.1940     0.9820 H     1 <1>   0.0000 
 30 H        4.8720    -2.0610     1.9150 H     1 <1>   0.0000 
 31 H        3.9130    -0.9950    -1.6080 H     1 <1>   0.0000 
 32 H        4.7550    -3.1400    -0.7860 H     1 <1>   0.0000 
 33 H        6.2040    -2.3430    -0.0700 H     1 <1>   0.0000 
 34 H        6.5380    -0.2390    -0.7810 H     1 <1>   0.4000 
@<TRIPOS>BOND
  1   1   2  2   
  2   2   3  1   
  3   2   4  am  
  4   3   5  1   
  5   4   6  1   
  6   4   7  1   
  7   5   8  1   
  8   5   9  1   
  9   5  10  1   
 10   6  11  1   
 11   6  16  1   
 12   6  17  1   
 13   7  12  1   
 14   7  18  1   
 15   7  19  1   
 16   8  20  1   
 17   8  21  1   
 18   8  22  1   
 19   9  23  1   
 20   9  24  1   
 21   9  25  1   
 22  10  26  1   
 23  10  27  1   
 24  10  28  1   
 25  11  12  1   
 26  11  13  1   
 27  11  29  1   
 28  12  14  1   
 29  12  30  1   
 30  13  14  1   
 31  13  15  1   
 32  13  31  1   
 33  14  32  1   
 34  14  33  1   
 35  15  34  1   
@<TRIPOS>SUBSTRUCTURE
  1 ****   4 GROUP 4 **** **** 0

# MOE 2024.06 (io_trps.svl 2023.06)
