@<TRIPOS>MOLECULE
NONAME
41 43 1 0 0 
SMALL
USER_CHARGES


@<TRIPOS>ATOM
  1 CL      -2.1540    -2.2440     0.3790 Cl    1 <1>  -0.1770 
  2 C       -2.4670    -0.5360     0.1930 C.ar  1 <1>   0.1770 
  3 C       -3.2940    -0.1020    -0.8440 C.ar  1 <1>  -0.1440 
  4 C       -1.8830     0.3430     1.0920 C.ar  1 <1>  -0.1500 
  5 C       -3.5400     1.2610    -0.9940 C.ar  1 <1>  -0.1500 
  6 C       -3.9150    -1.1060    -1.7940 C.3   1 <1>   0.4870 
  7 C       -2.1520     1.6850     0.9200 C.ar  1 <1>   0.0830 
  8 C       -2.9550     2.1290    -0.0920 C.ar  1 <1>   0.0830 
  9 N       -5.0440    -1.7990    -1.1260 N.4   1 <1>  -0.9590 
 10 O       -1.7160     2.7180     1.6460 O.3   1 <1>  -0.3630 
 11 O       -3.0590     3.4590    -0.0460 O.3   1 <1>  -0.3620 
 12 C       -5.5250    -2.9670    -1.9140 C.3   1 <1>   0.5240 
 13 C       -6.1350    -0.8760    -0.6690 C.3   1 <1>   0.3430 
 14 C       -2.2710     3.8960     1.0620 C.3   1 <1>   0.4000 
 15 C       -5.8140    -4.0930    -0.9310 C.2   1 <1>   0.0460 
 16 C       -7.0490    -1.4910     0.4010 C.3   1 <1>   0.1200 
 17 N       -5.1100    -4.1770     0.2190 N.2   1 <1>  -0.5650 
 18 C       -6.7280    -5.0850    -1.0060 C.2   1 <1>  -0.3020 
 19 O       -7.9840    -0.5330     0.7560 O.3   1 <1>  -0.6800 
 20 C       -5.5960    -5.2190     0.8090 C.2   1 <1>   0.0060 
 21 N       -6.5860    -5.8190     0.1140 N.pl3 1 <1>   0.0330 
 22 C       -5.1070    -5.7340     2.1470 C.3   1 <1>  -0.0600 
 23 H       -1.2480     0.0010     1.8880 H     1 <1>   0.1500 
 24 H       -4.1610     1.6610    -1.7770 H     1 <1>   0.1500 
 25 H       -3.1630    -1.8240    -2.0840 H     1 <1>   0.0800 
 26 H       -4.2620    -0.6010    -2.6810 H     1 <1>   0.0800 
 27 H       -4.6550    -2.2670    -0.2810 H     1 <1>   0.4500 
 28 H       -4.7530    -3.3030    -2.5850 H     1 <1>   0.0800 
 29 H       -6.4060    -2.7200    -2.4840 H     1 <1>   0.0800 
 30 H       -6.7350    -0.5750    -1.5110 H     1 <1>   0.0800 
 31 H       -5.6960     0.0080    -0.2370 H     1 <1>   0.0800 
 32 H       -1.4790     4.5350     0.7140 H     1 <1>   0.0800 
 33 H       -2.8990     4.3950     1.7790 H     1 <1>   0.0800 
 34 H       -6.4870    -1.7570     1.2800 H     1 <1>   0.0800 
 35 H       -7.5830    -2.3460     0.0260 H     1 <1>   0.0800 
 36 H       -7.4520    -5.3190    -1.7680 H     1 <1>   0.1500 
 37 H       -8.5610    -0.8500     1.4830 H     1 <1>   0.4000 
 38 H       -7.1060    -6.6610     0.3870 H     1 <1>   0.2700 
 39 H       -4.3160    -5.1050     2.5150 H     1 <1>   0.0800 
 40 H       -4.7270    -6.7340     2.0420 H     1 <1>   0.0800 
 41 H       -5.9090    -5.7320     2.8620 H     1 <1>   0.0800 
@<TRIPOS>BOND
  1   1   2  1   
  2   2   3  ar  
  3   2   4  ar  
  4   3   5  ar  
  5   3   6  1   
  6   4   7  ar  
  7   4  23  1   
  8   5   8  ar  
  9   5  24  1   
 10   6   9  1   
 11   6  25  1   
 12   6  26  1   
 13   7   8  ar  
 14   7  10  1   
 15   8  11  1   
 16   9  12  1   
 17   9  13  1   
 18   9  27  1   
 19  10  14  1   
 20  11  14  1   
 21  12  15  1   
 22  12  28  1   
 23  12  29  1   
 24  13  16  1   
 25  13  30  1   
 26  13  31  1   
 27  14  32  1   
 28  14  33  1   
 29  15  17  1   
 30  15  18  2   
 31  16  19  1   
 32  16  34  1   
 33  16  35  1   
 34  17  20  2   
 35  18  21  1   
 36  18  36  1   
 37  19  37  1   
 38  20  21  1   
 39  20  22  1   
 40  21  38  1   
 41  22  39  1   
 42  22  40  1   
 43  22  41  1   
@<TRIPOS>SUBSTRUCTURE
  1 ****   9 GROUP 4 **** **** 0

# MOE 2024.06 (io_trps.svl 2023.06)
