@<TRIPOS>MOLECULE
NONAME
42 43 1 0 0 
SMALL
USER_CHARGES


@<TRIPOS>ATOM
  1 F       -0.2410    -1.0630    -2.1020 F     1 <1>  -0.1900 
  2 C       -0.8310    -2.0200    -1.4300 C.ar  1 <1>   0.1900 
  3 C       -0.1400    -3.1560    -0.9940 C.ar  1 <1>   0.0830 
  4 C       -2.1760    -1.8460    -1.1660 C.ar  1 <1>  -0.1500 
  5 O        1.1800    -3.4400    -1.1920 O.3   1 <1>  -0.3630 
  6 C       -0.8530    -4.1070    -0.2830 C.ar  1 <1>  -0.1500 
  7 C       -2.8550    -2.8160    -0.4520 C.ar  1 <1>  -0.1500 
  8 C        2.0260    -2.6410    -1.9890 C.3   1 <1>   0.0400 
  9 C       -2.2130    -3.9680     0.0040 C.ar  1 <1>   0.0530 
 10 C       -2.9100    -4.9800     0.7640 C.2   1 <1>   0.0870 
 11 O       -2.2590    -5.6190     1.7100 O.3   1 <1>  -0.0190 
 12 C       -4.1760    -5.4790     0.7520 C.2   1 <1>  -0.2330 
 13 N       -2.9990    -6.4940     2.3370 N.2   1 <1>  -0.4100 
 14 C       -4.1560    -6.4140     1.7850 C.2   1 <1>   0.3720 
 15 C       -5.3080    -5.2300    -0.0940 C.2   1 <1>   1.0330 
 16 N       -5.2480    -7.1790     2.1660 N.pl3 1 <1>  -0.8520 
 17 O       -5.2000    -4.5560    -1.1290 O.co2 1 <1>  -0.9000 
 18 O       -6.4260    -5.7140     0.1740 O.co2 1 <1>  -0.9000 
 19 C       -5.1220    -8.6190     1.8900 C.3   1 <1>   0.2090 
 20 C       -5.7480    -8.9110     0.5240 C.3   1 <1>  -0.1600 
 21 C       -5.5320   -10.3560     0.0390 C.3   1 <1>  -0.0800 
 22 C       -6.0700   -10.4830    -1.3970 C.3   1 <1>   0.1200 
 23 C       -6.2010   -11.3730     0.9830 C.3   1 <1>  -0.2400 
 24 O       -5.7540   -11.7320    -1.9110 O.3   1 <1>  -0.6800 
 25 H       -2.6880    -0.9690    -1.5160 H     1 <1>   0.1500 
 26 H       -0.3360    -4.9860     0.0580 H     1 <1>   0.1500 
 27 H       -3.9030    -2.6830    -0.2470 H     1 <1>   0.1500 
 28 H        2.9900    -3.1150    -2.0330 H     1 <1>   0.0800 
 29 H        2.1190    -1.6700    -1.5360 H     1 <1>   0.0800 
 30 H        1.6100    -2.5680    -2.9780 H     1 <1>   0.0800 
 31 H       -6.0490    -6.8040     1.6110 H     1 <1>   0.4000 
 32 H       -4.0840    -8.9060     1.8960 H     1 <1>   0.0800 
 33 H       -5.6330    -9.1620     2.6650 H     1 <1>   0.0800 
 34 H       -6.8010    -8.6920     0.5660 H     1 <1>   0.0800 
 35 H       -5.3060    -8.2430    -0.1960 H     1 <1>   0.0800 
 36 H       -4.4710   -10.5400     0.0170 H     1 <1>   0.0800 
 37 H       -5.6310    -9.7370    -2.0390 H     1 <1>   0.0800 
 38 H       -7.1410   -10.3740    -1.4160 H     1 <1>   0.0800 
 39 H       -7.2550   -11.1740     1.0610 H     1 <1>   0.0800 
 40 H       -5.7670   -11.3340     1.9650 H     1 <1>   0.0800 
 41 H       -6.0740   -12.3740     0.6080 H     1 <1>   0.0800 
 42 H       -4.7870   -11.8620    -1.9020 H     1 <1>   0.4000 
@<TRIPOS>BOND
  1   1   2  1   
  2   2   3  ar  
  3   2   4  ar  
  4   3   5  1   
  5   3   6  ar  
  6   4   7  ar  
  7   4  25  1   
  8   5   8  1   
  9   6   9  ar  
 10   6  26  1   
 11   7   9  ar  
 12   7  27  1   
 13   8  28  1   
 14   8  29  1   
 15   8  30  1   
 16   9  10  1   
 17  10  11  1   
 18  10  12  2   
 19  11  13  1   
 20  12  14  1   
 21  12  15  1   
 22  13  14  2   
 23  14  16  1   
 24  15  17  ar  
 25  15  18  ar  
 26  16  19  1   
 27  16  31  1   
 28  19  20  1   
 29  19  32  1   
 30  19  33  1   
 31  20  21  1   
 32  20  34  1   
 33  20  35  1   
 34  21  22  1   
 35  21  23  1   
 36  21  36  1   
 37  22  24  1   
 38  22  37  1   
 39  22  38  1   
 40  23  39  1   
 41  23  40  1   
 42  23  41  1   
 43  24  42  1   
@<TRIPOS>SUBSTRUCTURE
  1 ****  10 GROUP 4 **** **** 0

# MOE 2024.06 (io_trps.svl 2023.06)
