@<TRIPOS>MOLECULE
NONAME
52 54 1 0 0 
SMALL
USER_CHARGES


@<TRIPOS>ATOM
  1 S        0.0060    -0.0910    -0.5560 S.o2  1 <1>   1.3330 
  2 O        0.2280     0.7470    -1.7060 O.2   1 <1>  -0.6500 
  3 O        0.0470     0.4570     0.7750 O.2   1 <1>  -0.6500 
  4 N        1.2770    -1.1490    -0.5750 N.am  1 <1>  -0.9780 
  5 C       -1.4490    -1.1180    -0.8010 C.3   1 <1>  -0.0550 
  6 C       -1.6540    -2.1990     0.2770 C.3   1 <1>  -0.1600 
  7 C       -2.9520    -2.9990     0.0460 C.3   1 <1>  -0.0990 
  8 C       -3.2150    -4.0890     1.0830 C.2   1 <1>   0.5690 
  9 O       -2.3670    -4.2940     1.9200 O.2   1 <1>  -0.5700 
 10 N       -4.3870    -4.8040     1.0510 N.am  1 <1>  -0.6600 
 11 C       -5.4830    -4.6390     0.0530 C.3   1 <1>   0.1400 
 12 C       -4.6810    -5.8490     2.0750 C.3   1 <1>   0.1400 
 13 C       -5.7210    -5.9680    -0.6680 C.3   1 <1>  -0.1600 
 14 C       -4.9230    -7.1950     1.3850 C.3   1 <1>  -0.1600 
 15 C       -6.0290    -7.1110     0.3190 C.3   1 <1>   0.4240 
 16 O       -7.1720    -6.7190     1.0490 O.3   1 <1>  -0.5600 
 17 C       -6.2450    -8.4780    -0.3950 C.ar  1 <1>  -0.1430 
 18 C       -8.4200    -6.9710     0.4920 C.3   1 <1>   0.1200 
 19 C       -5.2320    -9.1030    -1.1360 C.ar  1 <1>   0.0830 
 20 C       -7.4820    -9.1180    -0.3090 C.ar  1 <1>  -0.1430 
 21 C       -8.6230    -8.4770     0.4550 C.3   1 <1>  -0.0170 
 22 O       -4.0250    -8.4890    -1.2530 O.3   1 <1>  -0.3620 
 23 C       -5.4670   -10.3340    -1.7470 C.ar  1 <1>  -0.1500 
 24 C       -7.7010   -10.3420    -0.9170 C.ar  1 <1>  -0.1500 
 25 C       -2.8870    -9.1420    -1.7710 C.3   1 <1>   0.0400 
 26 C       -6.6950   -10.9520    -1.6350 C.ar  1 <1>  -0.1500 
 27 H        1.5660    -1.1960     0.4000 H     1 <1>   0.4200 
 28 H        2.0100    -0.6340    -1.0580 H     1 <1>   0.4200 
 29 H       -1.3770    -1.5950    -1.7600 H     1 <1>   0.0800 
 30 H       -2.3130    -0.4820    -0.8200 H     1 <1>   0.0800 
 31 H       -1.6940    -1.7340     1.2480 H     1 <1>   0.0800 
 32 H       -0.8150    -2.8750     0.2710 H     1 <1>   0.0800 
 33 H       -2.9110    -3.4680    -0.9200 H     1 <1>   0.0800 
 34 H       -3.7820    -2.3170     0.0630 H     1 <1>   0.0800 
 35 H       -5.2450    -3.8830    -0.6720 H     1 <1>   0.0800 
 36 H       -6.3790    -4.3350     0.5670 H     1 <1>   0.0800 
 37 H       -5.5550    -5.5590     2.6330 H     1 <1>   0.0800 
 38 H       -3.8640    -5.9460     2.7690 H     1 <1>   0.0800 
 39 H       -4.8390    -6.1930    -1.2340 H     1 <1>   0.0800 
 40 H       -6.5240    -5.8680    -1.3730 H     1 <1>   0.0800 
 41 H       -5.1970    -7.9340     2.1150 H     1 <1>   0.0800 
 42 H       -3.9930    -7.5060     0.9530 H     1 <1>   0.0800 
 43 H       -8.4660    -6.5460    -0.4950 H     1 <1>   0.0800 
 44 H       -9.1610    -6.5050     1.1160 H     1 <1>   0.0800 
 45 H       -9.5610    -8.6950    -0.0220 H     1 <1>   0.0800 
 46 H       -8.6520    -8.8620     1.4580 H     1 <1>   0.0800 
 47 H       -4.7070   -10.8280    -2.3200 H     1 <1>   0.1500 
 48 H       -8.6590   -10.8270    -0.8340 H     1 <1>   0.1500 
 49 H       -2.0440    -8.4860    -1.6510 H     1 <1>   0.0800 
 50 H       -3.0450    -9.3460    -2.8150 H     1 <1>   0.0800 
 51 H       -2.7240   -10.0500    -1.2180 H     1 <1>   0.0800 
 52 H       -6.8680   -11.9030    -2.1080 H     1 <1>   0.1500 
@<TRIPOS>BOND
  1   1   2  2   
  2   1   3  2   
  3   1   4  am  
  4   1   5  1   
  5   4  27  1   
  6   4  28  1   
  7   5   6  1   
  8   5  29  1   
  9   5  30  1   
 10   6   7  1   
 11   6  31  1   
 12   6  32  1   
 13   7   8  1   
 14   7  33  1   
 15   7  34  1   
 16   8   9  2   
 17   8  10  am  
 18  10  11  1   
 19  10  12  1   
 20  11  13  1   
 21  11  35  1   
 22  11  36  1   
 23  12  14  1   
 24  12  37  1   
 25  12  38  1   
 26  13  15  1   
 27  13  39  1   
 28  13  40  1   
 29  14  15  1   
 30  14  41  1   
 31  14  42  1   
 32  15  16  1   
 33  15  17  1   
 34  16  18  1   
 35  17  19  ar  
 36  17  20  ar  
 37  18  21  1   
 38  18  43  1   
 39  18  44  1   
 40  19  22  1   
 41  19  23  ar  
 42  20  21  1   
 43  20  24  ar  
 44  21  45  1   
 45  21  46  1   
 46  22  25  1   
 47  23  26  ar  
 48  23  47  1   
 49  24  26  ar  
 50  24  48  1   
 51  25  49  1   
 52  25  50  1   
 53  25  51  1   
 54  26  52  1   
@<TRIPOS>SUBSTRUCTURE
  1 ****  10 GROUP 4 **** **** 0

# MOE 2024.06 (io_trps.svl 2023.06)
