@<TRIPOS>MOLECULE
NONAME
47 49 1 0 0 
SMALL
USER_CHARGES


@<TRIPOS>ATOM
  1 F        0.8450     0.6260    -0.2120 F     1 <1>  -0.1900 
  2 C        0.5980     1.8990    -0.3560 C.ar  1 <1>   0.1900 
  3 C        0.3080     2.6750     0.7540 C.ar  1 <1>  -0.1440 
  4 C        0.6410     2.4160    -1.6360 C.ar  1 <1>  -0.1500 
  5 C        0.0580     4.0310     0.5410 C.ar  1 <1>  -0.1500 
  6 C        0.2760     2.0310     2.1440 C.3   1 <1>   1.1640 
  7 C        0.3920     3.7630    -1.8260 C.ar  1 <1>  -0.1500 
  8 C        0.1080     4.5770    -0.7370 C.ar  1 <1>  -0.1440 
  9 F        1.4460     1.5100     2.4860 F     1 <1>  -0.3400 
 10 F       -0.6270     1.0660     2.2470 F     1 <1>  -0.3400 
 11 F       -0.0190     2.9140     3.0920 F     1 <1>  -0.3400 
 12 C       -0.1440     6.0620    -0.9400 C.3   1 <1>   0.4870 
 13 N        1.0460     6.8180    -0.4670 N.4   1 <1>  -0.8520 
 14 C        0.8760     8.2850    -0.3150 C.3   1 <1>   0.2960 
 15 C        2.2520     6.5300    -1.2830 C.3   1 <1>   0.5240 
 16 C       -0.4300     8.8820     0.0910 C.3   1 <1>  -0.2000 
 17 C        0.0810     9.0600    -1.3120 C.3   1 <1>  -0.2000 
 18 C        3.4500     6.8400    -0.4220 C.2   1 <1>  -0.1810 
 19 C        3.9840     6.0000     0.5510 C.2   1 <1>   0.1080 
 20 C        4.2270     7.9480    -0.3900 C.2   1 <1>  -0.3320 
 21 N        4.9830     6.5450     1.1570 N.2   1 <1>  -0.7070 
 22 C        3.5270     4.6050     0.9220 C.3   1 <1>  -0.0590 
 23 N        5.1500     7.7420     0.5770 N.pl3 1 <1>   0.3140 
 24 C        4.1690     9.2160    -1.2330 C.3   1 <1>  -0.0600 
 25 C        6.2350     8.6400     0.9980 C.3   1 <1>   0.0160 
 26 H        0.8640     1.7660    -2.4660 H     1 <1>   0.1500 
 27 H       -0.1810     4.6630     1.3820 H     1 <1>   0.1500 
 28 H        0.4190     4.1570    -2.8300 H     1 <1>   0.1500 
 29 H       -1.0140     6.3460    -0.3720 H     1 <1>   0.0800 
 30 H       -0.3330     6.2730    -1.9800 H     1 <1>   0.0800 
 31 H        1.2870     6.4610     0.4640 H     1 <1>   0.4500 
 32 H        1.7630     8.7540     0.0890 H     1 <1>   0.1000 
 33 H        2.2610     7.1390    -2.1720 H     1 <1>   0.0800 
 34 H        2.2880     5.4920    -1.5700 H     1 <1>   0.0800 
 35 H       -0.4200     9.7440     0.7350 H     1 <1>   0.1000 
 36 H       -1.3100     8.2840     0.2400 H     1 <1>   0.1000 
 37 H       -0.4500     8.5720    -2.1100 H     1 <1>   0.1000 
 38 H        0.4170    10.0440    -1.5930 H     1 <1>   0.1000 
 39 H        3.0660     4.1100     0.0890 H     1 <1>   0.0800 
 40 H        2.8410     4.6510     1.7480 H     1 <1>   0.0800 
 41 H        4.3790     4.0240     1.2270 H     1 <1>   0.0800 
 42 H        3.3820     9.1640    -1.9620 H     1 <1>   0.0800 
 43 H        5.1010     9.3520    -1.7550 H     1 <1>   0.0800 
 44 H        4.0000    10.0730    -0.6050 H     1 <1>   0.0800 
 45 H        5.8170     9.5690     1.3360 H     1 <1>   0.0800 
 46 H        6.8960     8.8100     0.1690 H     1 <1>   0.0800 
 47 H        6.7810     8.1790     1.8020 H     1 <1>   0.0800 
@<TRIPOS>BOND
  1   1   2  1   
  2   2   3  ar  
  3   2   4  ar  
  4   3   5  ar  
  5   3   6  1   
  6   4   7  ar  
  7   4  26  1   
  8   5   8  ar  
  9   5  27  1   
 10   6   9  1   
 11   6  10  1   
 12   6  11  1   
 13   7   8  ar  
 14   7  28  1   
 15   8  12  1   
 16  12  13  1   
 17  12  29  1   
 18  12  30  1   
 19  13  14  1   
 20  13  15  1   
 21  13  31  1   
 22  14  16  1   
 23  14  17  1   
 24  14  32  1   
 25  15  18  1   
 26  15  33  1   
 27  15  34  1   
 28  16  17  1   
 29  16  35  1   
 30  16  36  1   
 31  17  37  1   
 32  17  38  1   
 33  18  19  1   
 34  18  20  2   
 35  19  21  2   
 36  19  22  1   
 37  20  23  1   
 38  20  24  1   
 39  21  23  1   
 40  22  39  1   
 41  22  40  1   
 42  22  41  1   
 43  23  25  1   
 44  24  42  1   
 45  24  43  1   
 46  24  44  1   
 47  25  45  1   
 48  25  46  1   
 49  25  47  1   
@<TRIPOS>SUBSTRUCTURE
  1 ****  13 GROUP 4 **** **** 0

# MOE 2024.06 (io_trps.svl 2023.06)
