@<TRIPOS>MOLECULE
NONAME
49 51 1 0 0 
SMALL
USER_CHARGES


@<TRIPOS>ATOM
  1 S       -0.4610     0.0380     0.5360 S.3   1 <1>  -0.3320 
  2 C        1.0870     0.8150     0.0320 C.ar  1 <1>   0.1020 
  3 C       -0.2030    -1.7850     0.3990 C.3   1 <1>   0.0700 
  4 C        1.1250     2.1980     0.0450 C.ar  1 <1>  -0.1500 
  5 C        2.1930     0.0700    -0.3540 C.ar  1 <1>  -0.1500 
  6 C       -1.5010    -2.4760     0.8210 C.3   1 <1>  -0.0990 
  7 C        2.2850     2.8490    -0.3350 C.ar  1 <1>   0.0830 
  8 C        3.3570     0.7240    -0.7280 C.ar  1 <1>  -0.1500 
  9 C       -1.4210    -3.9920     0.7140 C.2   1 <1>   0.5690 
 10 O        2.3060     4.2060    -0.3350 O.3   1 <1>  -0.3630 
 11 C        3.4090     2.1080    -0.7140 C.ar  1 <1>   0.0830 
 12 O       -0.3400    -4.4870     0.4950 O.2   1 <1>  -0.5700 
 13 N       -2.5440    -4.7630     0.8760 N.am  1 <1>  -0.6600 
 14 C        3.3740     4.8300    -1.0220 C.3   1 <1>   0.1200 
 15 O        4.5670     2.7230    -1.0690 O.3   1 <1>  -0.3630 
 16 C       -2.4380    -6.2510     0.7950 C.3   1 <1>   0.3200 
 17 C       -3.8770    -4.2130     1.2840 C.3   1 <1>   0.1400 
 18 C        4.6900     4.0930    -0.7380 C.3   1 <1>   0.1200 
 19 C       -3.5040    -6.8130    -0.1230 C.2   1 <1>  -0.3320 
 20 C       -4.7280    -3.8210     0.0680 C.3   1 <1>   0.1200 
 21 N       -4.7030    -7.2760     0.2840 N.pl3 1 <1>   0.0330 
 22 C       -3.4810    -6.9590    -1.4650 C.2   1 <1>   0.0770 
 23 O       -5.9560    -3.3680     0.5250 O.3   1 <1>  -0.6800 
 24 C       -5.3360    -7.6620    -0.8440 C.2   1 <1>   0.0060 
 25 N       -4.6350    -7.4860    -1.9150 N.2   1 <1>  -0.5650 
 26 C       -6.7330    -8.2420    -0.8430 C.3   1 <1>  -0.0600 
 27 H        0.6130    -2.0500     1.0490 H     1 <1>   0.0800 
 28 H        0.0440    -2.0040    -0.6250 H     1 <1>   0.0800 
 29 H        0.2620     2.7630     0.3430 H     1 <1>   0.1500 
 30 H        2.1700    -1.0020    -0.3690 H     1 <1>   0.1500 
 31 H       -2.2930    -2.1190     0.1920 H     1 <1>   0.0800 
 32 H       -1.7180    -2.2130     1.8390 H     1 <1>   0.0800 
 33 H        4.2260     0.1680    -1.0280 H     1 <1>   0.1500 
 34 H        3.4280     5.8510    -0.6920 H     1 <1>   0.0800 
 35 H        3.1530     4.8080    -2.0740 H     1 <1>   0.0800 
 36 H       -2.5300    -6.6710     1.7800 H     1 <1>   0.0800 
 37 H       -1.4750    -6.5390     0.4080 H     1 <1>   0.0800 
 38 H       -3.7420    -3.3500     1.9100 H     1 <1>   0.0800 
 39 H       -4.4050    -4.9510     1.8600 H     1 <1>   0.0800 
 40 H        4.9400     4.1630     0.3060 H     1 <1>   0.0800 
 41 H        5.4930     4.5040    -1.3220 H     1 <1>   0.0800 
 42 H       -4.9040    -4.6610    -0.5790 H     1 <1>   0.0800 
 43 H       -4.2630    -3.0280    -0.4890 H     1 <1>   0.0800 
 44 H       -5.0730    -7.3230     1.2370 H     1 <1>   0.2700 
 45 H       -2.6830    -6.7010    -2.1430 H     1 <1>   0.1500 
 46 H       -6.5350    -3.1360    -0.2290 H     1 <1>   0.4000 
 47 H       -7.4270    -7.5340    -0.4270 H     1 <1>   0.0800 
 48 H       -6.7560    -9.1480    -0.2660 H     1 <1>   0.0800 
 49 H       -7.0330    -8.4670    -1.8510 H     1 <1>   0.0800 
@<TRIPOS>BOND
  1   1   2  1   
  2   1   3  1   
  3   2   4  ar  
  4   2   5  ar  
  5   3   6  1   
  6   3  27  1   
  7   3  28  1   
  8   4   7  ar  
  9   4  29  1   
 10   5   8  ar  
 11   5  30  1   
 12   6   9  1   
 13   6  31  1   
 14   6  32  1   
 15   7  10  1   
 16   7  11  ar  
 17   8  11  ar  
 18   8  33  1   
 19   9  12  2   
 20   9  13  am  
 21  10  14  1   
 22  11  15  1   
 23  13  16  1   
 24  13  17  1   
 25  14  18  1   
 26  14  34  1   
 27  14  35  1   
 28  15  18  1   
 29  16  19  1   
 30  16  36  1   
 31  16  37  1   
 32  17  20  1   
 33  17  38  1   
 34  17  39  1   
 35  18  40  1   
 36  18  41  1   
 37  19  21  1   
 38  19  22  2   
 39  20  23  1   
 40  20  42  1   
 41  20  43  1   
 42  21  24  1   
 43  21  44  1   
 44  22  25  1   
 45  22  45  1   
 46  23  46  1   
 47  24  25  2   
 48  24  26  1   
 49  26  47  1   
 50  26  48  1   
 51  26  49  1   
@<TRIPOS>SUBSTRUCTURE
  1 ****   3 GROUP 4 **** **** 0

# MOE 2024.06 (io_trps.svl 2023.06)
