@<TRIPOS>MOLECULE
NONAME
48 49 1 0 0 
SMALL
USER_CHARGES


@<TRIPOS>ATOM
  1 F        0.0270    -1.8000    -0.9330 F     1 <1>  -0.1900 
  2 C       -1.1550    -1.5500    -0.4290 C.ar  1 <1>   0.1900 
  3 C       -1.9840    -2.5780     0.0360 C.ar  1 <1>   0.0820 
  4 C       -1.5280    -0.2220    -0.4030 C.ar  1 <1>  -0.1500 
  5 O       -1.6260    -3.8930     0.0770 O.3   1 <1>  -0.3630 
  6 C       -3.2630    -2.2390     0.5090 C.ar  1 <1>   0.0860 
  7 C       -2.7720     0.1130     0.0960 C.ar  1 <1>  -0.1500 
  8 C       -0.2840    -4.3330     0.1120 C.3   1 <1>   0.0400 
  9 C       -4.2290    -3.2220     0.9660 C.2   1 <1>   0.5440 
 10 C       -3.6170    -0.8850     0.5430 C.ar  1 <1>  -0.1500 
 11 O       -4.9700    -2.9920     1.9030 O.2   1 <1>  -0.5700 
 12 N       -4.4630    -4.3970     0.3110 N.am  1 <1>  -0.6600 
 13 C       -4.1720    -5.6810     1.0300 C.3   1 <1>   0.3210 
 14 C       -5.2230    -4.4030    -0.9780 C.3   1 <1>   0.1400 
 15 C       -4.6850    -6.9320     0.3190 C.2   1 <1>   0.0460 
 16 C       -6.7230    -4.7000    -0.7630 C.3   1 <1>   0.3430 
 17 N       -5.9190    -7.4250     0.5640 N.2   1 <1>  -0.5650 
 18 C       -4.0320    -7.7040    -0.5830 C.2   1 <1>  -0.3320 
 19 N       -7.2290    -4.0790     0.5030 N.4   1 <1>  -0.9590 
 20 C       -5.9800    -8.4900    -0.1690 C.2   1 <1>   0.0360 
 21 N       -4.8640    -8.7140    -0.8930 N.pl3 1 <1>   0.0330 
 22 C       -2.6420    -7.5670    -1.1840 C.3   1 <1>  -0.0600 
 23 C       -8.1100    -5.0180     1.2540 C.3   1 <1>   0.2630 
 24 C       -7.8510    -2.7420     0.3040 C.3   1 <1>   0.2630 
 25 H       -0.8560     0.5360    -0.7660 H     1 <1>   0.1500 
 26 H       -3.0770     1.1460     0.1360 H     1 <1>   0.1500 
 27 H       -0.2740    -5.3620     0.4230 H     1 <1>   0.0800 
 28 H        0.2670    -3.7350     0.8170 H     1 <1>   0.0800 
 29 H        0.1390    -4.2490    -0.8740 H     1 <1>   0.0800 
 30 H       -4.5820    -0.6100     0.9350 H     1 <1>   0.1500 
 31 H       -4.6020    -5.6440     2.0160 H     1 <1>   0.0800 
 32 H       -3.1070    -5.7690     1.1500 H     1 <1>   0.0800 
 33 H       -4.7980    -5.1270    -1.6520 H     1 <1>   0.0800 
 34 H       -5.1260    -3.4380    -1.4450 H     1 <1>   0.0800 
 35 H       -6.8470    -5.7670    -0.7130 H     1 <1>   0.0800 
 36 H       -7.2920    -4.3550    -1.6090 H     1 <1>   0.0800 
 37 H       -6.3720    -3.9360     1.0890 H     1 <1>   0.4500 
 38 H       -6.8270    -9.1530    -0.2120 H     1 <1>   0.1500 
 39 H       -4.6880    -9.5000    -1.5280 H     1 <1>   0.2700 
 40 H       -2.1760    -6.6550    -0.8580 H     1 <1>   0.0800 
 41 H       -2.7000    -7.5510    -2.2580 H     1 <1>   0.0800 
 42 H       -2.0250    -8.3940    -0.8820 H     1 <1>   0.0800 
 43 H       -8.9970    -5.2390     0.6850 H     1 <1>   0.0800 
 44 H       -8.3980    -4.5830     2.1970 H     1 <1>   0.0800 
 45 H       -7.5860    -5.9400     1.4510 H     1 <1>   0.0800 
 46 H       -8.7390    -2.8270    -0.3010 H     1 <1>   0.0800 
 47 H       -7.1560    -2.0790    -0.1840 H     1 <1>   0.0800 
 48 H       -8.1170    -2.3150     1.2570 H     1 <1>   0.0800 
@<TRIPOS>BOND
  1   1   2  1   
  2   2   3  ar  
  3   2   4  ar  
  4   3   5  1   
  5   3   6  ar  
  6   4   7  ar  
  7   4  25  1   
  8   5   8  1   
  9   6   9  1   
 10   6  10  ar  
 11   7  10  ar  
 12   7  26  1   
 13   8  27  1   
 14   8  28  1   
 15   8  29  1   
 16   9  11  2   
 17   9  12  am  
 18  10  30  1   
 19  12  13  1   
 20  12  14  1   
 21  13  15  1   
 22  13  31  1   
 23  13  32  1   
 24  14  16  1   
 25  14  33  1   
 26  14  34  1   
 27  15  17  1   
 28  15  18  2   
 29  16  19  1   
 30  16  35  1   
 31  16  36  1   
 32  17  20  2   
 33  18  21  1   
 34  18  22  1   
 35  19  23  1   
 36  19  24  1   
 37  19  37  1   
 38  20  21  1   
 39  20  38  1   
 40  21  39  1   
 41  22  40  1   
 42  22  41  1   
 43  22  42  1   
 44  23  43  1   
 45  23  44  1   
 46  23  45  1   
 47  24  46  1   
 48  24  47  1   
 49  24  48  1   
@<TRIPOS>SUBSTRUCTURE
  1 ****  12 GROUP 4 **** **** 0

# MOE 2024.06 (io_trps.svl 2023.06)
