@<TRIPOS>MOLECULE
NONAME
46 48 1 0 0 
SMALL
USER_CHARGES


@<TRIPOS>ATOM
  1 O        1.1920    -1.4790    -1.9400 O.3   1 <1>  -0.6800 
  2 C        0.5080    -2.0490    -0.8750 C.3   1 <1>   0.1200 
  3 C        1.4040    -2.1620     0.3930 C.3   1 <1>   0.0000 
  4 C        2.8020    -2.7900     0.1210 C.3   1 <1>   0.4230 
  5 C        1.5990    -0.7520     1.0120 C.3   1 <1>  -0.1600 
  6 C        0.6630    -3.0490     1.4340 C.3   1 <1>  -0.1600 
  7 N        2.7290    -4.2050    -0.4560 N.4   1 <1>  -0.9590 
  8 C        3.7620    -1.8040    -0.6250 C.3   1 <1>   0.3430 
  9 C        2.4810     0.1810     0.1760 C.3   1 <1>   0.3430 
 10 C        1.1130    -4.5250     1.4300 C.3   1 <1>  -0.1600 
 11 C        1.5610    -5.0080     0.0500 C.3   1 <1>   0.3430 
 12 C        2.7510    -4.2860    -1.9570 C.3   1 <1>   0.2630 
 13 N        3.8410    -0.4240    -0.0070 N.4   1 <1>  -0.9590 
 14 C        4.7120     0.4790    -0.8290 C.3   1 <1>   0.4860 
 15 C        4.8960     1.7980    -0.1150 C.ar  1 <1>  -0.1430 
 16 C        4.2170     2.9290    -0.5130 C.ar  1 <1>   0.1600 
 17 C        5.7440     1.9270     0.9620 C.ar  1 <1>   0.1600 
 18 N        4.3360     4.0710     0.1190 N.ar  1 <1>  -0.6200 
 19 N        5.8800     3.0570     1.6100 N.ar  1 <1>  -0.6200 
 20 C        5.1670     4.0740     1.1500 C.ar  1 <1>   0.4700 
 21 H        0.5650    -1.2780    -2.6740 H     1 <1>   0.4000 
 22 H       -0.3560    -1.4370    -0.6690 H     1 <1>   0.0800 
 23 H        0.1540    -3.0140    -1.1950 H     1 <1>   0.0800 
 24 H        3.2390    -2.9030     1.0990 H     1 <1>   0.0800 
 25 H        2.0360    -0.8250     1.9930 H     1 <1>   0.0800 
 26 H        0.6390    -0.2810     1.1400 H     1 <1>   0.0800 
 27 H        0.8100    -2.6770     2.4350 H     1 <1>   0.0800 
 28 H       -0.4010    -3.0040     1.2600 H     1 <1>   0.0800 
 29 H        3.5630    -4.7100    -0.1180 H     1 <1>   0.4500 
 30 H        3.4240    -1.7040    -1.6420 H     1 <1>   0.0800 
 31 H        4.7490    -2.2370    -0.6450 H     1 <1>   0.0800 
 32 H        2.5640     1.1320     0.6820 H     1 <1>   0.0800 
 33 H        2.0200     0.3570    -0.7830 H     1 <1>   0.0800 
 34 H        0.2970    -5.1410     1.7700 H     1 <1>   0.0800 
 35 H        1.9190    -4.6690     2.1300 H     1 <1>   0.0800 
 36 H        0.7300    -4.9140    -0.6300 H     1 <1>   0.0800 
 37 H        1.8260    -6.0530     0.0980 H     1 <1>   0.0800 
 38 H        1.9040    -3.7690    -2.3780 H     1 <1>   0.0800 
 39 H        2.7120    -5.3160    -2.2760 H     1 <1>   0.0800 
 40 H        3.6530    -3.8480    -2.3530 H     1 <1>   0.0800 
 41 H        4.2710    -0.4750     0.9270 H     1 <1>   0.4500 
 42 H        5.6790     0.0260    -0.9830 H     1 <1>   0.0800 
 43 H        4.2630     0.6490    -1.7950 H     1 <1>   0.0800 
 44 H        3.5540     2.9120    -1.3640 H     1 <1>   0.1500 
 45 H        6.3300     1.0940     1.3150 H     1 <1>   0.1500 
 46 H        5.2760     5.0100     1.6740 H     1 <1>   0.1500 
@<TRIPOS>BOND
  1   1   2  1   
  2   1  21  1   
  3   2   3  1   
  4   2  22  1   
  5   2  23  1   
  6   3   4  1   
  7   3   5  1   
  8   3   6  1   
  9   4   7  1   
 10   4   8  1   
 11   4  24  1   
 12   5   9  1   
 13   5  25  1   
 14   5  26  1   
 15   6  10  1   
 16   6  27  1   
 17   6  28  1   
 18   7  11  1   
 19   7  12  1   
 20   7  29  1   
 21   8  13  1   
 22   8  30  1   
 23   8  31  1   
 24   9  13  1   
 25   9  32  1   
 26   9  33  1   
 27  10  11  1   
 28  10  34  1   
 29  10  35  1   
 30  11  36  1   
 31  11  37  1   
 32  12  38  1   
 33  12  39  1   
 34  12  40  1   
 35  13  14  1   
 36  13  41  1   
 37  14  15  1   
 38  14  42  1   
 39  14  43  1   
 40  15  16  ar  
 41  15  17  ar  
 42  16  18  ar  
 43  16  44  1   
 44  17  19  ar  
 45  17  45  1   
 46  18  20  ar  
 47  19  20  ar  
 48  20  46  1   
@<TRIPOS>SUBSTRUCTURE
  1 ****  13 GROUP 4 **** **** 0

# MOE 2024.06 (io_trps.svl 2023.06)
