@<TRIPOS>MOLECULE
NONAME
48 50 1 0 0 
SMALL
USER_CHARGES


@<TRIPOS>ATOM
  1 O        3.4740    -1.6460    -2.4460 O.2   1 <1>  -0.5700 
  2 C        3.1740    -1.4540    -1.2820 C.2   1 <1>   0.5440 
  3 N        3.5460    -0.2630    -0.6910 N.am  1 <1>  -0.6600 
  4 C        2.4540    -2.4860    -0.5570 C.ar  1 <1>   0.0860 
  5 C        3.7410    -0.1040     0.7830 C.3   1 <1>   0.1400 
  6 C        4.0300     0.8890    -1.4990 C.3   1 <1>   0.1400 
  7 C        1.3200    -2.1920     0.2030 C.ar  1 <1>  -0.1500 
  8 C        2.8710    -3.8150    -0.6030 C.ar  1 <1>  -0.1500 
  9 C        5.2190     0.1530     1.1040 C.3   1 <1>   0.2000 
 10 C        5.5250     1.0850    -1.2470 C.3   1 <1>  -0.1600 
 11 C        0.6450    -3.1780     0.9000 C.ar  1 <1>  -0.1500 
 12 C        2.2000    -4.8060     0.0910 C.ar  1 <1>  -0.1500 
 13 O        5.3130     0.4780     2.4510 O.3   1 <1>  -0.6800 
 14 C        5.8140     1.2930     0.2430 C.3   1 <1>   0.2200 
 15 C        1.0860    -4.4880     0.8460 C.ar  1 <1>  -0.1500 
 16 N        7.2840     1.3940     0.4070 N.am  1 <1>  -0.7300 
 17 C        7.9500     1.9040     1.4730 C.2   1 <1>   0.5690 
 18 O        7.3630     2.2750     2.4600 O.2   1 <1>  -0.5700 
 19 C        9.4680     1.9940     1.4390 C.3   1 <1>   0.0440 
 20 C       10.0680     1.4110     0.1620 C.ar  1 <1>  -0.1430 
 21 C       10.2710     2.2210    -0.9470 C.ar  1 <1>  -0.1500 
 22 C       10.3960     0.0640     0.0950 C.ar  1 <1>  -0.1500 
 23 C       10.7930     1.6890    -2.1120 C.ar  1 <1>  -0.1500 
 24 C       10.9200    -0.4720    -1.0690 C.ar  1 <1>  -0.1500 
 25 C       11.1150     0.3460    -2.1700 C.ar  1 <1>   0.0830 
 26 O       11.6190    -0.1570    -3.3070 O.3   1 <1>  -0.5330 
 27 H        3.1500     0.7290     1.1230 H     1 <1>   0.0800 
 28 H        3.4290    -0.9860     1.3110 H     1 <1>   0.0800 
 29 H        3.8550     0.7170    -2.5480 H     1 <1>   0.0800 
 30 H        3.4850     1.7730    -1.2140 H     1 <1>   0.0800 
 31 H        0.9670    -1.1770     0.2420 H     1 <1>   0.1500 
 32 H        3.7330    -4.0660    -1.1970 H     1 <1>   0.1500 
 33 H        5.7780    -0.7520     0.9420 H     1 <1>   0.0800 
 34 H        5.8610     1.9420    -1.8030 H     1 <1>   0.0800 
 35 H        6.0450     0.2160    -1.6110 H     1 <1>   0.0800 
 36 H       -0.2250    -2.9280     1.4830 H     1 <1>   0.1500 
 37 H        2.5440    -5.8260     0.0410 H     1 <1>   0.1500 
 38 H        6.0860     1.0880     2.5870 H     1 <1>   0.4000 
 39 H        5.3600     2.2210     0.5520 H     1 <1>   0.0800 
 40 H        0.5620    -5.2580     1.3870 H     1 <1>   0.1500 
 41 H        7.8430     1.0550    -0.3820 H     1 <1>   0.3700 
 42 H        9.7470     3.0270     1.5360 H     1 <1>   0.0800 
 43 H        9.8570     1.4740     2.2950 H     1 <1>   0.0800 
 44 H       10.0220     3.2680    -0.9110 H     1 <1>   0.1500 
 45 H       10.2440    -0.5750     0.9480 H     1 <1>   0.1500 
 46 H       10.9540     2.3080    -2.9760 H     1 <1>   0.1500 
 47 H       11.1720    -1.5150    -1.1130 H     1 <1>   0.1500 
 48 H       11.8210    -1.1080    -3.2510 H     1 <1>   0.4500 
@<TRIPOS>BOND
  1   1   2  2   
  2   2   3  am  
  3   2   4  1   
  4   3   5  1   
  5   3   6  1   
  6   4   7  ar  
  7   4   8  ar  
  8   5   9  1   
  9   5  27  1   
 10   5  28  1   
 11   6  10  1   
 12   6  29  1   
 13   6  30  1   
 14   7  11  ar  
 15   7  31  1   
 16   8  12  ar  
 17   8  32  1   
 18   9  13  1   
 19   9  14  1   
 20   9  33  1   
 21  10  14  1   
 22  10  34  1   
 23  10  35  1   
 24  11  15  ar  
 25  11  36  1   
 26  12  15  ar  
 27  12  37  1   
 28  13  38  1   
 29  14  16  1   
 30  14  39  1   
 31  15  40  1   
 32  16  17  am  
 33  16  41  1   
 34  17  18  2   
 35  17  19  1   
 36  19  20  1   
 37  19  42  1   
 38  19  43  1   
 39  20  21  ar  
 40  20  22  ar  
 41  21  23  ar  
 42  21  44  1   
 43  22  24  ar  
 44  22  45  1   
 45  23  25  ar  
 46  23  46  1   
 47  24  25  ar  
 48  24  47  1   
 49  25  26  1   
 50  26  48  1   
@<TRIPOS>SUBSTRUCTURE
  1 ****   9 GROUP 4 **** **** 0

# MOE 2024.06 (io_trps.svl 2023.06)
