@<TRIPOS>MOLECULE
NONAME
48 51 1 0 0 
SMALL
USER_CHARGES


@<TRIPOS>ATOM
  1 O        3.6350    -3.0270    -2.3130 O.2   1 <1>  -0.5700 
  2 C        3.0850    -2.4030    -1.4380 C.2   1 <1>   0.5690 
  3 N        2.9970    -1.0310    -1.5170 N.am  1 <1>  -0.6600 
  4 C        2.5610    -3.1960    -0.2440 C.3   1 <1>   0.0440 
  5 C        2.8920    -0.1260    -0.3360 C.3   1 <1>   0.1400 
  6 C        3.1280    -0.3450    -2.8310 C.3   1 <1>   0.1400 
  7 C        1.1490    -2.8190     0.2000 C.ar  1 <1>  -0.1440 
  8 C        4.2770     0.0870     0.3010 C.3   1 <1>   0.3430 
  9 C        4.3840     0.5320    -2.8990 C.3   1 <1>  -0.1600 
 10 C        0.1570    -2.5740    -0.7460 C.ar  1 <1>  -0.1500 
 11 C        0.8500    -2.7200     1.5600 C.ar  1 <1>  -0.1500 
 12 N        5.2880     0.7410    -0.6040 N.4   1 <1>  -0.9590 
 13 C        5.4970     0.1070    -1.9400 C.3   1 <1>   0.3430 
 14 C       -1.1000    -2.2180    -0.3010 C.ar  1 <1>   0.0830 
 15 C       -0.4230    -2.3640     1.9890 C.ar  1 <1>  -0.1500 
 16 C        6.5650     0.9820     0.1200 C.3   1 <1>   0.5230 
 17 O       -2.1860    -1.9320    -1.0260 O.3   1 <1>  -0.3630 
 18 C       -1.3820    -2.1150     1.0290 C.ar  1 <1>   0.0830 
 19 C        6.3760     2.2260     0.9810 C.2   1 <1>   0.0060 
 20 C       -3.2310    -1.6450    -0.0990 C.3   1 <1>   0.4000 
 21 O       -2.6590    -1.7600     1.2030 O.3   1 <1>  -0.3630 
 22 N        5.3450     3.0120     0.8800 N.2   1 <1>  -0.5650 
 23 N        7.2670     2.6290     1.9190 N.pl3 1 <1>   0.0330 
 24 C        5.5750     3.9710     1.7970 C.2   1 <1>   0.0770 
 25 C        6.7420     3.7510     2.4390 C.2   1 <1>  -0.3020 
 26 H        3.2510    -3.0770     0.5680 H     1 <1>   0.0800 
 27 H        2.5570    -4.2380    -0.5080 H     1 <1>   0.0800 
 28 H        2.2290    -0.5440     0.3980 H     1 <1>   0.0800 
 29 H        2.4740     0.8220    -0.6310 H     1 <1>   0.0800 
 30 H        2.2500     0.2540    -3.0110 H     1 <1>   0.0800 
 31 H        3.1690    -1.0790    -3.6190 H     1 <1>   0.0800 
 32 H        4.6500    -0.8710     0.6240 H     1 <1>   0.0800 
 33 H        4.1490     0.7000     1.1790 H     1 <1>   0.0800 
 34 H        4.1240     1.5630    -2.7410 H     1 <1>   0.0800 
 35 H        4.7610     0.4630    -3.9040 H     1 <1>   0.0800 
 36 H        0.3410    -2.6520    -1.8030 H     1 <1>   0.1500 
 37 H        1.6040    -2.9260     2.3000 H     1 <1>   0.1500 
 38 H        4.9440     1.7090    -0.7400 H     1 <1>   0.4500 
 39 H        6.4360     0.4400    -2.3490 H     1 <1>   0.0800 
 40 H        5.5270    -0.9690    -1.8560 H     1 <1>   0.0800 
 41 H       -0.6700    -2.2840     3.0330 H     1 <1>   0.1500 
 42 H        7.3600     1.1660    -0.5830 H     1 <1>   0.0800 
 43 H        6.8220     0.1300     0.7280 H     1 <1>   0.0800 
 44 H       -4.0210    -2.3670    -0.2100 H     1 <1>   0.0800 
 45 H       -3.5840    -0.6410    -0.2510 H     1 <1>   0.0800 
 46 H        8.1590     2.2000     2.1930 H     1 <1>   0.2700 
 47 H        4.8830     4.7850     1.9510 H     1 <1>   0.1500 
 48 H        7.2120     4.3250     3.2190 H     1 <1>   0.1500 
@<TRIPOS>BOND
  1   1   2  2   
  2   2   3  am  
  3   2   4  1   
  4   3   5  1   
  5   3   6  1   
  6   4   7  1   
  7   4  26  1   
  8   4  27  1   
  9   5   8  1   
 10   5  28  1   
 11   5  29  1   
 12   6   9  1   
 13   6  30  1   
 14   6  31  1   
 15   7  10  ar  
 16   7  11  ar  
 17   8  12  1   
 18   8  32  1   
 19   8  33  1   
 20   9  13  1   
 21   9  34  1   
 22   9  35  1   
 23  10  14  ar  
 24  10  36  1   
 25  11  15  ar  
 26  11  37  1   
 27  12  13  1   
 28  12  16  1   
 29  12  38  1   
 30  13  39  1   
 31  13  40  1   
 32  14  17  1   
 33  14  18  ar  
 34  15  18  ar  
 35  15  41  1   
 36  16  19  1   
 37  16  42  1   
 38  16  43  1   
 39  17  20  1   
 40  18  21  1   
 41  19  22  2   
 42  19  23  1   
 43  20  21  1   
 44  20  44  1   
 45  20  45  1   
 46  22  24  1   
 47  23  25  1   
 48  23  46  1   
 49  24  25  2   
 50  24  47  1   
 51  25  48  1   
@<TRIPOS>SUBSTRUCTURE
  1 ****   5 GROUP 4 **** **** 0

# MOE 2024.06 (io_trps.svl 2023.06)
