@<TRIPOS>MOLECULE
NONAME
50 52 1 0 0 
SMALL
USER_CHARGES


@<TRIPOS>ATOM
  1 O        2.5290    -0.1960    -3.1070 O.2   1 <1>  -0.5700 
  2 C        2.9000    -0.2380    -1.9550 C.2   1 <1>   0.7150 
  3 N        3.0890    -1.4890    -1.4620 N.am  1 <1>  -0.7300 
  4 C        3.1170     0.9780    -1.2280 C.2   1 <1>  -0.2370 
  5 C        3.1800    -2.0450    -0.0830 C.3   1 <1>   0.1400 
  6 N        3.7970     1.1140    -0.0670 N.pl3 1 <1>   0.3140 
  7 C        2.7210     2.2360    -1.5490 C.2   1 <1>  -0.1500 
  8 C        3.3760    -1.0200     1.0460 C.3   1 <1>   0.2000 
  9 N        3.8480     2.3800     0.3520 N.2   1 <1>  -0.7070 
 10 C        4.4190     0.0500     0.7310 C.3   1 <1>   0.0960 
 11 C        3.1910     3.0900    -0.5540 C.2   1 <1>   0.2030 
 12 O        3.7780    -1.7100     2.1830 O.3   1 <1>  -0.6800 
 13 C        2.9490     4.5340    -0.5680 C.2   1 <1>   0.7160 
 14 O        1.9520     4.9470    -1.1420 O.2   1 <1>  -0.5700 
 15 N        3.7960     5.4710     0.0140 N.am  1 <1>  -0.6600 
 16 C        3.2860     6.8420     0.3350 C.3   1 <1>   0.2200 
 17 C        5.1990     5.1430     0.4140 C.3   1 <1>   0.1400 
 18 C        4.0640     7.9420    -0.4000 C.3   1 <1>  -0.1600 
 19 C        3.3870     7.1630     1.8330 C.3   1 <1>  -0.1600 
 20 C        6.0540     4.7950    -0.8110 C.3   1 <1>  -0.1600 
 21 C        4.2940     9.0500     0.6290 C.3   1 <1>  -0.1600 
 22 C        4.3780     8.3210     1.9650 C.3   1 <1>  -0.1600 
 23 C        7.5090     4.5280    -0.4080 C.3   1 <1>  -0.1600 
 24 C        8.3600     4.1700    -1.6290 C.3   1 <1>  -0.2400 
 25 H        2.9070    -2.1950    -2.1800 H     1 <1>   0.3700 
 26 H        4.0070    -2.7340    -0.0710 H     1 <1>   0.0800 
 27 H        2.2820    -2.6030     0.1180 H     1 <1>   0.0800 
 28 H        2.1510     2.5440    -2.4090 H     1 <1>   0.1500 
 29 H        2.4350    -0.5540     1.2890 H     1 <1>   0.0800 
 30 H        4.7740     0.4920     1.6440 H     1 <1>   0.0800 
 31 H        5.2460    -0.3580     0.1820 H     1 <1>   0.0800 
 32 H        4.6560    -2.1250     2.0680 H     1 <1>   0.4000 
 33 H        2.2480     6.9260     0.0600 H     1 <1>   0.0800 
 34 H        5.1960     4.3290     1.1160 H     1 <1>   0.0800 
 35 H        5.6420     5.9860     0.9110 H     1 <1>   0.0800 
 36 H        3.5050     8.3070    -1.2430 H     1 <1>   0.0800 
 37 H        5.0150     7.5830    -0.7440 H     1 <1>   0.0800 
 38 H        3.6750     6.3130     2.4260 H     1 <1>   0.0800 
 39 H        2.4220     7.4980     2.1700 H     1 <1>   0.0800 
 40 H        6.0220     5.6080    -1.5140 H     1 <1>   0.0800 
 41 H        5.6630     3.9160    -1.2910 H     1 <1>   0.0800 
 42 H        3.4450     9.7120     0.6370 H     1 <1>   0.0800 
 43 H        5.1840     9.6180     0.4200 H     1 <1>   0.0800 
 44 H        5.3740     7.9340     2.1010 H     1 <1>   0.0800 
 45 H        4.1380     8.9660     2.7930 H     1 <1>   0.0800 
 46 H        7.5430     3.7150     0.2980 H     1 <1>   0.0800 
 47 H        7.9210     5.4020     0.0670 H     1 <1>   0.0800 
 48 H        7.9770     3.2850    -2.1080 H     1 <1>   0.0800 
 49 H        9.3760     3.9830    -1.3280 H     1 <1>   0.0800 
 50 H        8.3570     4.9770    -2.3400 H     1 <1>   0.0800 
@<TRIPOS>BOND
  1   1   2  2   
  2   2   3  am  
  3   2   4  1   
  4   3   5  1   
  5   3  25  1   
  6   4   6  1   
  7   4   7  2   
  8   5   8  1   
  9   5  26  1   
 10   5  27  1   
 11   6   9  1   
 12   6  10  1   
 13   7  11  1   
 14   7  28  1   
 15   8  10  1   
 16   8  12  1   
 17   8  29  1   
 18   9  11  2   
 19  10  30  1   
 20  10  31  1   
 21  11  13  1   
 22  12  32  1   
 23  13  14  2   
 24  13  15  am  
 25  15  16  1   
 26  15  17  1   
 27  16  18  1   
 28  16  19  1   
 29  16  33  1   
 30  17  20  1   
 31  17  34  1   
 32  17  35  1   
 33  18  21  1   
 34  18  36  1   
 35  18  37  1   
 36  19  22  1   
 37  19  38  1   
 38  19  39  1   
 39  20  23  1   
 40  20  40  1   
 41  20  41  1   
 42  21  22  1   
 43  21  42  1   
 44  21  43  1   
 45  22  44  1   
 46  22  45  1   
 47  23  24  1   
 48  23  46  1   
 49  23  47  1   
 50  24  48  1   
 51  24  49  1   
 52  24  50  1   
@<TRIPOS>SUBSTRUCTURE
  1 ****  11 GROUP 4 **** **** 0

# MOE 2024.06 (io_trps.svl 2023.06)
