@<TRIPOS>MOLECULE
NONAME
44 46 1 0 0 
SMALL
USER_CHARGES


@<TRIPOS>ATOM
  1 F        1.8070    -0.3880     1.6980 F     1 <1>  -0.3400 
  2 C        1.6100     0.5970     0.8290 C.3   1 <1>   1.1640 
  3 F        0.5280     1.2440     1.2450 F     1 <1>  -0.3400 
  4 F        1.2830     0.0200    -0.3200 F     1 <1>  -0.3400 
  5 C        2.8390     1.5100     0.6840 C.ar  1 <1>  -0.1440 
  6 C        2.6960     2.8710     0.4390 C.ar  1 <1>  -0.1500 
  7 C        4.1230     0.9870     0.7860 C.ar  1 <1>  -0.1500 
  8 C        3.7900     3.7250     0.3040 C.ar  1 <1>   0.0860 
  9 C        5.2270     1.8070     0.6470 C.ar  1 <1>  -0.1500 
 10 C        3.6000     5.1440     0.0630 C.2   1 <1>   0.5440 
 11 C        5.0620     3.1580     0.4060 C.ar  1 <1>  -0.1500 
 12 O        2.6420     5.5280    -0.5820 O.2   1 <1>  -0.5700 
 13 N        4.5080     6.0330     0.5670 N.am  1 <1>  -0.4930 
 14 C        4.7250     7.4040     0.2880 C.2   1 <1>   0.0630 
 15 C        6.0140     7.9350     0.1650 C.2   1 <1>   0.3720 
 16 C        3.8960     8.4550     0.1040 C.2   1 <1>  -0.3320 
 17 N        6.0080     9.2040    -0.0960 N.2   1 <1>  -0.7070 
 18 N        7.1890     7.1680     0.3070 N.pl3 1 <1>  -0.8210 
 19 N        4.6950     9.5250    -0.1440 N.pl3 1 <1>   0.3140 
 20 C        2.3770     8.5180     0.1600 C.3   1 <1>  -0.0600 
 21 C        7.9010     7.0340    -0.9930 C.3   1 <1>   0.2090 
 22 C        8.1360     7.7670     1.2890 C.3   1 <1>   0.2090 
 23 C        4.2690    10.8990    -0.4340 C.3   1 <1>   0.0160 
 24 C        9.3790     7.2180    -0.6860 C.3   1 <1>  -0.1600 
 25 C        9.3810     8.1600     0.5060 C.3   1 <1>  -0.1600 
 26 H        1.7110     3.3020     0.3460 H     1 <1>   0.1500 
 27 H        4.2720    -0.0650     0.9720 H     1 <1>   0.1500 
 28 H        6.2180     1.3910     0.7240 H     1 <1>   0.1500 
 29 H        5.9360     3.7750     0.2870 H     1 <1>   0.1500 
 30 H        5.3490     5.6290     0.9780 H     1 <1>   0.3700 
 31 H        1.9860     7.6440     0.6470 H     1 <1>   0.0800 
 32 H        1.9740     8.5630    -0.8360 H     1 <1>   0.0800 
 33 H        2.0530     9.3790     0.7160 H     1 <1>   0.0800 
 34 H        7.5740     7.7990    -1.6800 H     1 <1>   0.0800 
 35 H        7.7100     6.0680    -1.4280 H     1 <1>   0.0800 
 36 H        8.3830     7.0210     2.0230 H     1 <1>   0.0800 
 37 H        7.7100     8.6200     1.7920 H     1 <1>   0.0800 
 38 H        3.5390    10.8830    -1.2210 H     1 <1>   0.0800 
 39 H        5.1220    11.4740    -0.7430 H     1 <1>   0.0800 
 40 H        3.8460    11.3290     0.4540 H     1 <1>   0.0800 
 41 H        9.9150     7.6180    -1.5280 H     1 <1>   0.0800 
 42 H        9.8030     6.2690    -0.4100 H     1 <1>   0.0800 
 43 H       10.2730     8.0790     1.1010 H     1 <1>   0.0800 
 44 H        9.2680     9.1760     0.1700 H     1 <1>   0.0800 
@<TRIPOS>BOND
  1   1   2  1   
  2   2   3  1   
  3   2   4  1   
  4   2   5  1   
  5   5   6  ar  
  6   5   7  ar  
  7   6   8  ar  
  8   6  26  1   
  9   7   9  ar  
 10   7  27  1   
 11   8  10  1   
 12   8  11  ar  
 13   9  11  ar  
 14   9  28  1   
 15  10  12  2   
 16  10  13  am  
 17  11  29  1   
 18  13  14  1   
 19  13  30  1   
 20  14  15  1   
 21  14  16  2   
 22  15  17  2   
 23  15  18  1   
 24  16  19  1   
 25  16  20  1   
 26  17  19  1   
 27  18  21  1   
 28  18  22  1   
 29  19  23  1   
 30  20  31  1   
 31  20  32  1   
 32  20  33  1   
 33  21  24  1   
 34  21  34  1   
 35  21  35  1   
 36  22  25  1   
 37  22  36  1   
 38  22  37  1   
 39  23  38  1   
 40  23  39  1   
 41  23  40  1   
 42  24  25  1   
 43  24  41  1   
 44  24  42  1   
 45  25  43  1   
 46  25  44  1   
@<TRIPOS>SUBSTRUCTURE
  1 ****  13 GROUP 4 **** **** 0

# MOE 2024.06 (io_trps.svl 2023.06)
