@<TRIPOS>MOLECULE
NONAME
52 54 1 0 0 
SMALL
USER_CHARGES


@<TRIPOS>ATOM
  1 CL      -1.9900    -0.4330     1.2390 Cl    1 <1>  -0.1240 
  2 C       -2.6800     1.0780     0.6840 C.2   1 <1>  -0.0280 
  3 N       -2.3420     2.2740     1.2010 N.pl3 1 <1>   0.3140 
  4 C       -3.6030     1.2690    -0.2820 C.2   1 <1>  -0.1810 
  5 N       -3.0430     3.2480     0.5900 N.2   1 <1>  -0.7070 
  6 C       -1.3670     2.5610     2.2620 C.3   1 <1>   0.0160 
  7 C       -3.7820     2.6510    -0.2950 C.2   1 <1>   0.1080 
  8 C       -4.2920     0.2500    -1.1570 C.3   1 <1>   0.5240 
  9 C       -4.7130     3.4320    -1.2090 C.3   1 <1>   0.0210 
 10 N       -4.7150    -0.8900    -0.3020 N.4   1 <1>  -0.9590 
 11 C       -4.1440     3.5390    -2.6280 C.3   1 <1>  -0.2400 
 12 C       -5.0440    -2.0830    -1.1530 C.3   1 <1>   0.3430 
 13 C       -5.7880    -0.4630     0.6470 C.3   1 <1>   0.3430 
 14 C       -5.4830    -3.3280    -0.3560 C.3   1 <1>   0.1400 
 15 C       -5.8290    -1.3950     1.8620 C.3   1 <1>  -0.1600 
 16 N       -6.8040    -3.1290     0.3260 N.am  1 <1>  -0.6600 
 17 C       -6.7750    -2.5950     1.7160 C.3   1 <1>   0.1400 
 18 C       -7.9680    -3.2370    -0.4120 C.2   1 <1>   0.7030 
 19 O       -7.9180    -2.8560    -1.5670 O.2   1 <1>  -0.5700 
 20 C       -9.2120    -3.7750     0.1400 C.2   1 <1>   0.2770 
 21 N      -10.5140    -3.6000    -0.3470 N.pl3 1 <1>  -0.7640 
 22 C       -9.3440    -4.5770     1.2300 C.2   1 <1>   0.2000 
 23 C      -11.3460    -4.2700     0.4380 C.cat 1 <1>   0.6500 
 24 C      -10.8780    -2.8330    -1.5750 C.3   1 <1>   0.2740 
 25 N      -10.6680    -4.8650     1.4060 N.pl3 1 <1>  -0.7000 
 26 H       -0.4290     2.0980     2.0190 H     1 <1>   0.0800 
 27 H       -1.7340     2.1760     3.1950 H     1 <1>   0.0800 
 28 H       -1.2330     3.6240     2.3390 H     1 <1>   0.0800 
 29 H       -3.6010    -0.0840    -1.9130 H     1 <1>   0.0800 
 30 H       -5.1470     0.6920    -1.6430 H     1 <1>   0.0800 
 31 H       -4.8370     4.4240    -0.8060 H     1 <1>   0.0800 
 32 H       -5.6820     2.9690    -1.2310 H     1 <1>   0.0800 
 33 H       -3.8810    -1.1030     0.2660 H     1 <1>   0.4500 
 34 H       -3.1810     4.0180    -2.5960 H     1 <1>   0.0800 
 35 H       -4.7980     4.1330    -3.2420 H     1 <1>   0.0800 
 36 H       -4.0330     2.5710    -3.0770 H     1 <1>   0.0800 
 37 H       -4.1750    -2.3470    -1.7340 H     1 <1>   0.0800 
 38 H       -5.8290    -1.8300    -1.8470 H     1 <1>   0.0800 
 39 H       -6.7460    -0.4410     0.1520 H     1 <1>   0.0800 
 40 H       -5.5720     0.5330     1.0010 H     1 <1>   0.0800 
 41 H       -4.7270    -3.6010     0.3600 H     1 <1>   0.0800 
 42 H       -5.5780    -4.1490    -1.0480 H     1 <1>   0.0800 
 43 H       -6.1730    -0.8230     2.7060 H     1 <1>   0.0800 
 44 H       -4.8380    -1.7290     2.1130 H     1 <1>   0.0800 
 45 H       -7.7670    -2.2800     1.9960 H     1 <1>   0.0800 
 46 H       -6.4730    -3.3750     2.3970 H     1 <1>   0.0800 
 47 H       -8.5690    -4.9590     1.8760 H     1 <1>   0.1500 
 48 H      -12.4200    -4.3290     0.3070 H     1 <1>   0.1500 
 49 H      -10.5290    -1.8170    -1.4940 H     1 <1>   0.0800 
 50 H      -11.9460    -2.8220    -1.7140 H     1 <1>   0.0800 
 51 H      -10.4230    -3.2870    -2.4400 H     1 <1>   0.0800 
 52 H      -11.0690    -5.4540     2.1450 H     1 <1>   0.4500 
@<TRIPOS>BOND
  1   1   2  1   
  2   2   3  1   
  3   2   4  2   
  4   3   5  1   
  5   3   6  1   
  6   4   7  1   
  7   4   8  1   
  8   5   7  2   
  9   6  26  1   
 10   6  27  1   
 11   6  28  1   
 12   7   9  1   
 13   8  10  1   
 14   8  29  1   
 15   8  30  1   
 16   9  11  1   
 17   9  31  1   
 18   9  32  1   
 19  10  12  1   
 20  10  13  1   
 21  10  33  1   
 22  11  34  1   
 23  11  35  1   
 24  11  36  1   
 25  12  14  1   
 26  12  37  1   
 27  12  38  1   
 28  13  15  1   
 29  13  39  1   
 30  13  40  1   
 31  14  16  1   
 32  14  41  1   
 33  14  42  1   
 34  15  17  1   
 35  15  43  1   
 36  15  44  1   
 37  16  17  1   
 38  16  18  am  
 39  17  45  1   
 40  17  46  1   
 41  18  19  2   
 42  18  20  1   
 43  20  21  1   
 44  20  22  2   
 45  21  23  ar  
 46  21  24  1   
 47  22  25  1   
 48  22  47  1   
 49  23  25  ar  
 50  23  48  1   
 51  24  49  1   
 52  24  50  1   
 53  24  51  1   
 54  25  52  1   
@<TRIPOS>SUBSTRUCTURE
  1 ****  13 GROUP 4 **** **** 0

# MOE 2024.06 (io_trps.svl 2023.06)
