@<TRIPOS>MOLECULE
NONAME
58 60 1 0 0 
SMALL
USER_CHARGES


@<TRIPOS>ATOM
  1 S       -0.3980     0.0890    -0.0210 S.o2  1 <1>   1.3330 
  2 O       -0.2440     0.1270    -1.4550 O.2   1 <1>  -0.6500 
  3 O       -0.6450     1.2980     0.7280 O.2   1 <1>  -0.6500 
  4 N       -1.6770    -1.0190     0.3730 N.am  1 <1>  -0.6930 
  5 C        1.0130    -0.7210     0.7000 C.3   1 <1>  -0.1350 
  6 C       -1.7210    -2.3250    -0.0940 C.ar  1 <1>   0.1990 
  7 C       -2.7530    -0.5090     1.2580 C.3   1 <1>   0.1160 
  8 C       -1.6540    -2.6220    -1.4520 C.ar  1 <1>  -0.1500 
  9 C       -1.8320    -3.3860     0.7990 C.ar  1 <1>  -0.1500 
 10 C       -1.6930    -3.9290    -1.8970 C.ar  1 <1>  -0.1500 
 11 C       -1.8750    -4.6920     0.3530 C.ar  1 <1>  -0.1500 
 12 C       -1.8160    -4.9970    -1.0080 C.ar  1 <1>   0.0860 
 13 C       -1.8770    -6.3630    -1.4840 C.2   1 <1>   0.5440 
 14 O       -0.9750    -6.7850    -2.1810 O.2   1 <1>  -0.5700 
 15 N       -2.9310    -7.1990    -1.1680 N.am  1 <1>  -0.6600 
 16 C       -2.8970    -8.6670    -1.4750 C.3   1 <1>   0.1400 
 17 C       -4.2560    -6.7030    -0.7110 C.3   1 <1>   0.1400 
 18 C       -3.2790    -9.5110    -0.2340 C.3   1 <1>   0.0000 
 19 C       -4.6720    -7.4670     0.5450 C.3   1 <1>  -0.1600 
 20 C       -4.6480    -8.9730     0.2700 C.3   1 <1>   0.2000 
 21 C       -3.5030   -10.9840    -0.6580 C.3   1 <1>   0.1200 
 22 C       -2.1800    -9.3960     0.8700 C.3   1 <1>  -0.0170 
 23 O       -5.0560    -9.6240     1.4210 O.3   1 <1>  -0.6800 
 24 O       -2.4650   -11.4590    -1.4480 O.3   1 <1>  -0.6800 
 25 C       -0.8740   -10.1270     0.5740 C.ar  1 <1>  -0.1440 
 26 C       -0.6660   -11.4080     1.0660 C.ar  1 <1>  -0.1500 
 27 C        0.1190    -9.5280    -0.1870 C.ar  1 <1>  -0.1500 
 28 C        0.5090   -12.0850     0.7890 C.ar  1 <1>  -0.1500 
 29 C        1.2940   -10.2030    -0.4650 C.ar  1 <1>  -0.1500 
 30 C        1.4900   -11.4830     0.0210 C.ar  1 <1>  -0.1500 
 31 H        1.1650    -1.6780     0.2390 H     1 <1>   0.0800 
 32 H        0.8620    -0.8610     1.7520 H     1 <1>   0.0800 
 33 H        1.8920    -0.1250     0.5530 H     1 <1>   0.0800 
 34 H       -3.5380    -1.2380     1.3570 H     1 <1>   0.0800 
 35 H       -3.1680     0.3910     0.8370 H     1 <1>   0.0800 
 36 H       -2.3500    -0.2830     2.2300 H     1 <1>   0.0800 
 37 H       -1.5740    -1.8220    -2.1660 H     1 <1>   0.1500 
 38 H       -1.8760    -3.1780     1.8530 H     1 <1>   0.1500 
 39 H       -1.6300    -4.1400    -2.9510 H     1 <1>   0.1500 
 40 H       -1.9520    -5.4990     1.0600 H     1 <1>   0.1500 
 41 H       -3.5910    -8.8650    -2.2730 H     1 <1>   0.0800 
 42 H       -1.9240    -8.9560    -1.8320 H     1 <1>   0.0800 
 43 H       -4.2330    -5.6470    -0.5080 H     1 <1>   0.0800 
 44 H       -4.9760    -6.8710    -1.4940 H     1 <1>   0.0800 
 45 H       -5.6690    -7.1700     0.8150 H     1 <1>   0.0800 
 46 H       -4.0090    -7.2100     1.3510 H     1 <1>   0.0800 
 47 H       -5.3940    -9.1860    -0.4790 H     1 <1>   0.0800 
 48 H       -4.4040   -11.0800    -1.2390 H     1 <1>   0.0800 
 49 H       -3.5890   -11.6210     0.2060 H     1 <1>   0.0800 
 50 H       -1.9490    -8.3620     1.0500 H     1 <1>   0.0800 
 51 H       -2.5560    -9.7900     1.7960 H     1 <1>   0.0800 
 52 H       -4.5290    -9.3270     2.1870 H     1 <1>   0.4000 
 53 H       -1.6060   -11.3350    -0.9810 H     1 <1>   0.4000 
 54 H       -1.4190   -11.8900     1.6650 H     1 <1>   0.1500 
 55 H       -0.0140    -8.5320    -0.5720 H     1 <1>   0.1500 
 56 H        0.6610   -13.0790     1.1710 H     1 <1>   0.1500 
 57 H        2.0530    -9.7290    -1.0630 H     1 <1>   0.1500 
 58 H        2.4030   -12.0080    -0.1980 H     1 <1>   0.1500 
@<TRIPOS>BOND
  1   1   2  2   
  2   1   3  2   
  3   1   4  am  
  4   1   5  1   
  5   4   6  1   
  6   4   7  1   
  7   5  31  1   
  8   5  32  1   
  9   5  33  1   
 10   6   8  ar  
 11   6   9  ar  
 12   7  34  1   
 13   7  35  1   
 14   7  36  1   
 15   8  10  ar  
 16   8  37  1   
 17   9  11  ar  
 18   9  38  1   
 19  10  12  ar  
 20  10  39  1   
 21  11  12  ar  
 22  11  40  1   
 23  12  13  1   
 24  13  14  2   
 25  13  15  am  
 26  15  16  1   
 27  15  17  1   
 28  16  18  1   
 29  16  41  1   
 30  16  42  1   
 31  17  19  1   
 32  17  43  1   
 33  17  44  1   
 34  18  20  1   
 35  18  21  1   
 36  18  22  1   
 37  19  20  1   
 38  19  45  1   
 39  19  46  1   
 40  20  23  1   
 41  20  47  1   
 42  21  24  1   
 43  21  48  1   
 44  21  49  1   
 45  22  25  1   
 46  22  50  1   
 47  22  51  1   
 48  23  52  1   
 49  24  53  1   
 50  25  26  ar  
 51  25  27  ar  
 52  26  28  ar  
 53  26  54  1   
 54  27  29  ar  
 55  27  55  1   
 56  28  30  ar  
 57  28  56  1   
 58  29  30  ar  
 59  29  57  1   
 60  30  58  1   
@<TRIPOS>SUBSTRUCTURE
  1 ****  13 GROUP 4 **** **** 0

# MOE 2024.06 (io_trps.svl 2023.06)
