@<TRIPOS>MOLECULE
NONAME
46 48 1 0 0 
SMALL
USER_CHARGES


@<TRIPOS>ATOM
  1 O        2.5160     0.0100     1.6690 O.2   1 <1>  -0.5700 
  2 C        1.9590    -1.0160     1.3460 C.2   1 <1>   0.5690 
  3 N        2.6120    -2.0300     0.6940 N.am  1 <1>  -0.4770 
  4 C        0.4680    -1.1770     1.6330 C.3   1 <1>   0.1810 
  5 C        1.8880    -3.1560     0.2440 C.ar  1 <1>   0.1170 
  6 C        4.1040    -1.9680     0.5600 C.3   1 <1>   0.2010 
  7 O        0.0570    -2.5400     1.6750 O.3   1 <1>  -0.3630 
  8 C        0.6150    -3.3960     0.7770 C.ar  1 <1>   0.0830 
  9 C        2.3780    -4.0400    -0.7130 C.ar  1 <1>  -0.1500 
 10 C        4.5440    -1.1370    -0.6400 C.2   1 <1>   0.5690 
 11 C       -0.1120    -4.5100     0.4000 C.ar  1 <1>  -0.1500 
 12 C        1.6480    -5.1530    -1.1000 C.ar  1 <1>  -0.1440 
 13 O        5.1460    -1.6700    -1.5400 O.2   1 <1>  -0.5700 
 14 N        4.2540     0.1870    -0.6620 N.am  1 <1>  -0.7300 
 15 C        0.4040    -5.3880    -0.5370 C.ar  1 <1>  -0.1500 
 16 C        2.2020    -6.1090    -2.1410 C.3   1 <1>  -0.0970 
 17 C        4.6560     1.1320    -1.7360 C.3   1 <1>   0.3200 
 18 C        5.4420     2.3100    -1.1830 C.2   1 <1>   0.2980 
 19 O        6.6100     2.0830    -0.6350 O.3   1 <1>  -0.0190 
 20 N        5.0750     3.5300    -1.2020 N.2   1 <1>  -0.5650 
 21 N        7.0200     3.2610    -0.2750 N.2   1 <1>  -0.4100 
 22 C        6.1170     4.0950    -0.6100 C.2   1 <1>   0.3350 
 23 C        6.1580     5.5960    -0.3910 C.3   1 <1>   0.0210 
 24 C        7.4700     6.0520     0.2460 C.3   1 <1>   0.1200 
 25 O        7.4310     7.4360     0.3890 O.3   1 <1>  -0.5600 
 26 C        8.5780     7.9750     0.9610 C.3   1 <1>   0.0400 
 27 H       -0.0970    -0.6880     0.8620 H     1 <1>   0.0800 
 28 H        0.2300    -0.7340     2.5820 H     1 <1>   0.0800 
 29 H        4.5090    -2.9590     0.4760 H     1 <1>   0.0800 
 30 H        4.5220    -1.5300     1.4480 H     1 <1>   0.0800 
 31 H        3.3330    -3.8630    -1.1740 H     1 <1>   0.1500 
 32 H       -1.0790    -4.6830     0.8350 H     1 <1>   0.1500 
 33 H        3.7190     0.5870     0.1230 H     1 <1>   0.3700 
 34 H       -0.1690    -6.2510    -0.8280 H     1 <1>   0.1500 
 35 H        3.2760    -6.0620    -2.1680 H     1 <1>   0.0800 
 36 H        1.8210    -5.8500    -3.1130 H     1 <1>   0.0800 
 37 H        1.9130    -7.1200    -1.9130 H     1 <1>   0.0800 
 38 H        3.7720     1.4990    -2.2260 H     1 <1>   0.0800 
 39 H        5.2590     0.6250    -2.4690 H     1 <1>   0.0800 
 40 H        5.3390     5.8710     0.2470 H     1 <1>   0.0800 
 41 H        6.0380     6.0830    -1.3410 H     1 <1>   0.0800 
 42 H        8.3030     5.7910    -0.3840 H     1 <1>   0.0800 
 43 H        7.5920     5.6050     1.2180 H     1 <1>   0.0800 
 44 H        8.4500     9.0410     1.0280 H     1 <1>   0.0800 
 45 H        9.4270     7.7500     0.3380 H     1 <1>   0.0800 
 46 H        8.7120     7.5630     1.9470 H     1 <1>   0.0800 
@<TRIPOS>BOND
  1   1   2  2   
  2   2   3  am  
  3   2   4  1   
  4   3   5  1   
  5   3   6  1   
  6   4   7  1   
  7   4  27  1   
  8   4  28  1   
  9   5   8  ar  
 10   5   9  ar  
 11   6  10  1   
 12   6  29  1   
 13   6  30  1   
 14   7   8  1   
 15   8  11  ar  
 16   9  12  ar  
 17   9  31  1   
 18  10  13  2   
 19  10  14  am  
 20  11  15  ar  
 21  11  32  1   
 22  12  15  ar  
 23  12  16  1   
 24  14  17  1   
 25  14  33  1   
 26  15  34  1   
 27  16  35  1   
 28  16  36  1   
 29  16  37  1   
 30  17  18  1   
 31  17  38  1   
 32  17  39  1   
 33  18  19  1   
 34  18  20  2   
 35  19  21  1   
 36  20  22  1   
 37  21  22  2   
 38  22  23  1   
 39  23  24  1   
 40  23  40  1   
 41  23  41  1   
 42  24  25  1   
 43  24  42  1   
 44  24  43  1   
 45  25  26  1   
 46  26  44  1   
 47  26  45  1   
 48  26  46  1   
@<TRIPOS>SUBSTRUCTURE
  1 ****  14 GROUP 4 **** **** 0

# MOE 2024.06 (io_trps.svl 2023.06)
