@<TRIPOS>MOLECULE
NONAME
44 45 1 0 0 
SMALL
USER_CHARGES


@<TRIPOS>ATOM
  1 CL       0.4990     0.5670     1.9730 Cl    1 <1>  -0.1770 
  2 C        1.4590    -0.7020     1.2610 C.ar  1 <1>   0.1770 
  3 C        1.0270    -2.0060     1.3600 C.ar  1 <1>  -0.1500 
  4 C        2.6290    -0.3840     0.6060 C.ar  1 <1>  -0.1500 
  5 C        1.7510    -3.0470     0.7800 C.ar  1 <1>   0.0860 
  6 C        3.3810    -1.4040     0.0520 C.ar  1 <1>  -0.1500 
  7 C        2.9610    -2.7240     0.1430 C.ar  1 <1>  -0.1440 
  8 C        1.2120    -4.3960     0.8540 C.2   1 <1>   0.5440 
  9 C        3.8710    -3.7990    -0.4440 C.3   1 <1>  -0.0960 
 10 O        0.7780    -4.8320     1.9000 O.2   1 <1>  -0.5700 
 11 N        1.0550    -5.1770    -0.2650 N.am  1 <1>  -0.6600 
 12 C        1.3370    -6.6360    -0.1840 C.3   1 <1>   0.3200 
 13 C        0.4550    -4.6180    -1.5200 C.3   1 <1>   0.1400 
 14 C        0.0310    -7.3960    -0.2580 C.2   1 <1>  -0.3320 
 15 C       -0.8870    -3.9040    -1.2350 C.3   1 <1>   0.3430 
 16 N       -0.3890    -8.1150    -1.3190 N.pl3 1 <1>   0.0330 
 17 C       -0.9220    -7.5200     0.6920 C.2   1 <1>   0.0770 
 18 N       -1.7530    -4.7410    -0.3480 N.4   1 <1>  -0.9590 
 19 C       -1.5970    -8.5950    -0.9560 C.2   1 <1>   0.0360 
 20 N       -1.9640    -8.2360     0.2320 N.2   1 <1>  -0.5650 
 21 C       -2.8580    -5.4360    -1.0710 C.3   1 <1>   0.2630 
 22 C       -2.2700    -4.0000     0.8390 C.3   1 <1>   0.2630 
 23 H        0.1220    -2.2130     1.9010 H     1 <1>   0.1500 
 24 H        2.9490     0.6410     0.5390 H     1 <1>   0.1500 
 25 H        4.3060    -1.1570    -0.4440 H     1 <1>   0.1500 
 26 H        3.9230    -4.6480     0.2140 H     1 <1>   0.0800 
 27 H        4.8710    -3.4250    -0.5700 H     1 <1>   0.0800 
 28 H        3.5080    -4.1180    -1.4040 H     1 <1>   0.0800 
 29 H        1.8260    -6.8600     0.7510 H     1 <1>   0.0800 
 30 H        2.0000    -6.9270    -0.9820 H     1 <1>   0.0800 
 31 H        0.2890    -5.4080    -2.2290 H     1 <1>   0.0800 
 32 H        1.1410    -3.9180    -1.9660 H     1 <1>   0.0800 
 33 H       -1.3940    -3.6850    -2.1600 H     1 <1>   0.0800 
 34 H       -0.6740    -2.9660    -0.7490 H     1 <1>   0.0800 
 35 H        0.1020    -8.3090    -2.1980 H     1 <1>   0.2700 
 36 H       -0.9120    -7.1160     1.6940 H     1 <1>   0.1500 
 37 H       -1.1180    -5.4790     0.0280 H     1 <1>   0.4500 
 38 H       -2.1850    -9.2220    -1.6060 H     1 <1>   0.1500 
 39 H       -3.5640    -4.7220    -1.4600 H     1 <1>   0.0800 
 40 H       -3.3720    -6.1060    -0.3990 H     1 <1>   0.0800 
 41 H       -2.4620    -6.0200    -1.8850 H     1 <1>   0.0800 
 42 H       -2.8870    -3.1730     0.5300 H     1 <1>   0.0800 
 43 H       -1.4490    -3.6270     1.4300 H     1 <1>   0.0800 
 44 H       -2.8560    -4.6600     1.4590 H     1 <1>   0.0800 
@<TRIPOS>BOND
  1   1   2  1   
  2   2   3  ar  
  3   2   4  ar  
  4   3   5  ar  
  5   3  23  1   
  6   4   6  ar  
  7   4  24  1   
  8   5   7  ar  
  9   5   8  1   
 10   6   7  ar  
 11   6  25  1   
 12   7   9  1   
 13   8  10  2   
 14   8  11  am  
 15   9  26  1   
 16   9  27  1   
 17   9  28  1   
 18  11  12  1   
 19  11  13  1   
 20  12  14  1   
 21  12  29  1   
 22  12  30  1   
 23  13  15  1   
 24  13  31  1   
 25  13  32  1   
 26  14  16  1   
 27  14  17  2   
 28  15  18  1   
 29  15  33  1   
 30  15  34  1   
 31  16  19  1   
 32  16  35  1   
 33  17  20  1   
 34  17  36  1   
 35  18  21  1   
 36  18  22  1   
 37  18  37  1   
 38  19  20  2   
 39  19  38  1   
 40  21  39  1   
 41  21  40  1   
 42  21  41  1   
 43  22  42  1   
 44  22  43  1   
 45  22  44  1   
@<TRIPOS>SUBSTRUCTURE
  1 ****   8 GROUP 4 **** **** 0

# MOE 2024.06 (io_trps.svl 2023.06)
