@<TRIPOS>MOLECULE
NONAME
52 56 1 0 0 
SMALL
USER_CHARGES


@<TRIPOS>ATOM
  1 O       -0.2960    -1.8330    -1.9440 O.3   1 <1>  -0.0190 
  2 N        0.5240    -0.9590    -2.4400 N.2   1 <1>  -0.4100 
  3 C       -0.4240    -1.6990    -0.6520 C.2   1 <1>  -0.0400 
  4 C        0.9490    -0.2590    -1.4510 C.2   1 <1>   0.1080 
  5 C        0.3690    -0.6880    -0.2610 C.2   1 <1>  -0.1500 
  6 C       -1.3690    -2.6250     0.0830 C.3   1 <1>   0.5230 
  7 C        1.9450     0.8740    -1.5790 C.3   1 <1>  -0.0590 
  8 N       -2.6590    -2.7210    -0.6670 N.4   1 <1>  -0.9590 
  9 C       -3.3700    -1.3970    -0.8120 C.3   1 <1>   0.3430 
 10 C       -3.5430    -3.8080    -0.1290 C.3   1 <1>   0.3430 
 11 C       -3.9700    -0.8450     0.5030 C.3   1 <1>   0.1430 
 12 C       -4.6370    -3.2900     0.8170 C.3   1 <1>  -0.1600 
 13 C       -5.2210    -0.0920     0.0940 C.ar  1 <1>   0.1670 
 14 C       -4.2810    -1.9700     1.5210 C.3   1 <1>  -0.1600 
 15 C       -3.1030     0.2720     1.1480 C.3   1 <1>  -0.1600 
 16 N       -6.3080    -0.6520    -0.3760 N.ar  1 <1>  -0.6200 
 17 C       -5.0820     1.2520     0.2410 C.ar  1 <1>  -0.1440 
 18 C       -3.7190     1.6290     0.7560 C.3   1 <1>  -0.0170 
 19 C       -7.3140     0.1850    -0.6720 C.ar  1 <1>   0.6200 
 20 C       -6.1500     2.0430    -0.0950 C.ar  1 <1>   0.1600 
 21 N       -7.2650     1.5180    -0.5480 N.ar  1 <1>  -0.6200 
 22 C       -8.5510    -0.4010    -1.1680 C.ar  1 <1>   0.0000 
 23 C       -9.7930     0.1760    -0.8890 C.ar  1 <1>  -0.1500 
 24 C       -8.5550    -1.5640    -1.9430 C.ar  1 <1>  -0.1500 
 25 C      -10.9730    -0.3760    -1.3540 C.ar  1 <1>  -0.1500 
 26 C       -9.7310    -2.1220    -2.4120 C.ar  1 <1>  -0.1500 
 27 C      -10.9440    -1.5290    -2.1170 C.ar  1 <1>  -0.1500 
 28 H        0.5530    -0.2700     0.7130 H     1 <1>   0.1500 
 29 H       -1.5370    -2.2600     1.0830 H     1 <1>   0.0800 
 30 H       -0.9150    -3.6000     0.1470 H     1 <1>   0.0800 
 31 H        2.2460     0.9860    -2.6050 H     1 <1>   0.0800 
 32 H        2.8160     0.6660    -0.9860 H     1 <1>   0.0800 
 33 H        1.5010     1.7950    -1.2470 H     1 <1>   0.0800 
 34 H       -2.3780    -2.9940    -1.6210 H     1 <1>   0.4500 
 35 H       -4.1860    -1.5340    -1.5050 H     1 <1>   0.0800 
 36 H       -2.7130    -0.6600    -1.2450 H     1 <1>   0.0800 
 37 H       -2.9400    -4.5340     0.3930 H     1 <1>   0.0800 
 38 H       -4.0230    -4.3200    -0.9480 H     1 <1>   0.0800 
 39 H       -4.8510    -4.0470     1.5520 H     1 <1>   0.0800 
 40 H       -5.5430    -3.1560     0.2500 H     1 <1>   0.0800 
 41 H       -5.0980    -1.6660     2.1560 H     1 <1>   0.0800 
 42 H       -3.4310    -2.1420     2.1580 H     1 <1>   0.0800 
 43 H       -2.0720     0.2210     0.8520 H     1 <1>   0.0800 
 44 H       -3.1500     0.1950     2.2210 H     1 <1>   0.0800 
 45 H       -3.1510     2.1000    -0.0280 H     1 <1>   0.0800 
 46 H       -3.7880     2.2920     1.6020 H     1 <1>   0.0800 
 47 H       -6.0940     3.1150     0.0040 H     1 <1>   0.1500 
 48 H       -9.8350     1.0740    -0.2970 H     1 <1>   0.1500 
 49 H       -7.6210    -2.0380    -2.1850 H     1 <1>   0.1500 
 50 H      -11.9140     0.0910    -1.1220 H     1 <1>   0.1500 
 51 H       -9.7040    -3.0180    -3.0070 H     1 <1>   0.1500 
 52 H      -11.8610    -1.9600    -2.4810 H     1 <1>   0.1500 
@<TRIPOS>BOND
  1   1   2  1   
  2   1   3  1   
  3   2   4  2   
  4   3   5  2   
  5   3   6  1   
  6   4   5  1   
  7   4   7  1   
  8   5  28  1   
  9   6   8  1   
 10   6  29  1   
 11   6  30  1   
 12   7  31  1   
 13   7  32  1   
 14   7  33  1   
 15   8   9  1   
 16   8  10  1   
 17   8  34  1   
 18   9  11  1   
 19   9  35  1   
 20   9  36  1   
 21  10  12  1   
 22  10  37  1   
 23  10  38  1   
 24  11  13  1   
 25  11  14  1   
 26  11  15  1   
 27  12  14  1   
 28  12  39  1   
 29  12  40  1   
 30  13  16  ar  
 31  13  17  ar  
 32  14  41  1   
 33  14  42  1   
 34  15  18  1   
 35  15  43  1   
 36  15  44  1   
 37  16  19  ar  
 38  17  18  1   
 39  17  20  ar  
 40  18  45  1   
 41  18  46  1   
 42  19  21  ar  
 43  19  22  1   
 44  20  21  ar  
 45  20  47  1   
 46  22  23  ar  
 47  22  24  ar  
 48  23  25  ar  
 49  23  48  1   
 50  24  26  ar  
 51  24  49  1   
 52  25  27  ar  
 53  25  50  1   
 54  26  27  ar  
 55  26  51  1   
 56  27  52  1   
@<TRIPOS>SUBSTRUCTURE
  1 ****  13 GROUP 4 **** **** 0

# MOE 2024.06 (io_trps.svl 2023.06)
