@<TRIPOS>MOLECULE
NONAME
50 54 1 0 0 
SMALL
USER_CHARGES


@<TRIPOS>ATOM
  1 O       -0.9220     0.2670     1.8640 O.2   1 <1>  -0.5700 
  2 C       -1.6930     0.8720     1.1430 C.2   1 <1>   0.7150 
  3 N       -2.6960     0.1730     0.5160 N.am  1 <1>  -0.6600 
  4 C       -1.5480     2.2840     0.9460 C.2   1 <1>  -0.2370 
  5 C       -3.4750     0.6820    -0.6410 C.3   1 <1>   0.1400 
  6 C       -2.8310    -1.3020     0.6190 C.3   1 <1>   0.1400 
  7 N       -0.3570     2.8580     0.5890 N.pl3 1 <1>   0.2940 
  8 C       -2.4780     3.2870     1.0670 C.2   1 <1>  -0.1500 
  9 C       -4.4120    -0.4680    -1.0060 C.3   1 <1>   0.2000 
 10 C       -3.6110    -1.7220    -0.6340 C.3   1 <1>  -0.0800 
 11 C       -0.5540     4.1960     0.4900 C.2   1 <1>  -0.3020 
 12 C        0.9220     2.1590     0.3220 C.3   1 <1>  -0.0910 
 13 C       -1.8490     4.4930     0.7770 C.2   1 <1>  -0.1500 
 14 O       -5.5370    -0.3750    -0.1990 O.3   1 <1>  -0.6800 
 15 C       -4.4640    -2.9960    -0.4500 C.3   1 <1>  -0.0170 
 16 C        1.7690     2.5440    -0.8560 C.3   1 <1>  -0.2000 
 17 C        1.0220     1.2480    -0.8660 C.3   1 <1>  -0.2000 
 18 C       -3.7040    -4.3090    -0.2210 C.ar  1 <1>  -0.1440 
 19 C       -4.4180    -5.4750     0.1520 C.ar  1 <1>   0.0000 
 20 C       -2.3500    -4.4360    -0.3660 C.ar  1 <1>  -0.1500 
 21 C       -3.6820    -6.6670     0.3710 C.ar  1 <1>   0.3100 
 22 C       -5.8230    -5.5330     0.3150 C.ar  1 <1>  -0.1500 
 23 C       -1.7200    -5.6630    -0.1300 C.ar  1 <1>   0.1600 
 24 N       -2.3370    -6.7430     0.2270 N.ar  1 <1>  -0.6200 
 25 C       -4.3660    -7.8330     0.7510 C.ar  1 <1>  -0.1500 
 26 C       -6.4600    -6.6870     0.6850 C.ar  1 <1>  -0.1500 
 27 C       -5.7250    -7.8530     0.9080 C.ar  1 <1>  -0.1500 
 28 H       -4.0240     1.5750    -0.3980 H     1 <1>   0.0800 
 29 H       -2.8020     0.8840    -1.4560 H     1 <1>   0.0800 
 30 H       -1.8640    -1.7740     0.6660 H     1 <1>   0.0800 
 31 H       -3.3810    -1.5410     1.5140 H     1 <1>   0.0800 
 32 H       -3.5130     3.1820     1.3470 H     1 <1>   0.1500 
 33 H       -4.7260    -0.4480    -2.0350 H     1 <1>   0.0800 
 34 H       -2.9070    -1.8870    -1.4290 H     1 <1>   0.0800 
 35 H        0.2400     4.8690     0.2210 H     1 <1>   0.1500 
 36 H        1.4030     1.8510     1.2340 H     1 <1>   0.1000 
 37 H       -2.3160     5.4640     0.7890 H     1 <1>   0.1500 
 38 H       -5.2510    -0.2270     0.7250 H     1 <1>   0.4000 
 39 H       -5.0830    -3.1180    -1.3210 H     1 <1>   0.0800 
 40 H       -5.1170    -2.8390     0.3900 H     1 <1>   0.0800 
 41 H        1.4370     3.3320    -1.5100 H     1 <1>   0.1000 
 42 H        2.8400     2.5100    -0.7590 H     1 <1>   0.1000 
 43 H        1.5800     0.3330    -0.7660 H     1 <1>   0.1000 
 44 H        0.1710     1.1450    -1.5170 H     1 <1>   0.1000 
 45 H       -1.7160    -3.6240    -0.6630 H     1 <1>   0.1500 
 46 H       -6.4150    -4.6540     0.1440 H     1 <1>   0.1500 
 47 H       -0.6510    -5.7110    -0.2540 H     1 <1>   0.1500 
 48 H       -3.7790    -8.7170     0.9140 H     1 <1>   0.1500 
 49 H       -7.5300    -6.7120     0.8060 H     1 <1>   0.1500 
 50 H       -6.2370    -8.7540     1.1990 H     1 <1>   0.1500 
@<TRIPOS>BOND
  1   1   2  2   
  2   2   3  am  
  3   2   4  1   
  4   3   5  1   
  5   3   6  1   
  6   4   7  1   
  7   4   8  2   
  8   5   9  1   
  9   5  28  1   
 10   5  29  1   
 11   6  10  1   
 12   6  30  1   
 13   6  31  1   
 14   7  11  1   
 15   7  12  1   
 16   8  13  1   
 17   8  32  1   
 18   9  10  1   
 19   9  14  1   
 20   9  33  1   
 21  10  15  1   
 22  10  34  1   
 23  11  13  2   
 24  11  35  1   
 25  12  16  1   
 26  12  17  1   
 27  12  36  1   
 28  13  37  1   
 29  14  38  1   
 30  15  18  1   
 31  15  39  1   
 32  15  40  1   
 33  16  17  1   
 34  16  41  1   
 35  16  42  1   
 36  17  43  1   
 37  17  44  1   
 38  18  19  ar  
 39  18  20  ar  
 40  19  21  ar  
 41  19  22  ar  
 42  20  23  ar  
 43  20  45  1   
 44  21  24  ar  
 45  21  25  ar  
 46  22  26  ar  
 47  22  46  1   
 48  23  24  ar  
 49  23  47  1   
 50  25  27  ar  
 51  25  48  1   
 52  26  27  ar  
 53  26  49  1   
 54  27  50  1   
@<TRIPOS>SUBSTRUCTURE
  1 ****   6 GROUP 4 **** **** 0

# MOE 2024.06 (io_trps.svl 2023.06)
