@<TRIPOS>MOLECULE
NONAME
41 43 1 0 0 
SMALL
USER_CHARGES


@<TRIPOS>ATOM
  1 CL       1.2160    -1.8470     2.2900 Cl    1 <1>  -0.1770 
  2 C        1.6500    -1.7420     0.5900 C.ar  1 <1>   0.1770 
  3 C        1.5010    -2.8940    -0.2220 C.ar  1 <1>   0.4100 
  4 C        2.1190    -0.5880     0.0420 C.ar  1 <1>   0.2170 
  5 N        1.7990    -2.8760    -1.5090 N.ar  1 <1>  -0.6200 
  6 N        1.0490    -4.0540     0.3040 N.pl3 1 <1>  -0.8690 
  7 N        2.4180    -0.6230    -1.2850 N.ar  1 <1>  -0.1790 
  8 C        2.3320     0.7250     0.7870 C.3   1 <1>  -0.0970 
  9 C        2.2530    -1.7450    -2.0130 C.ar  1 <1>   0.7710 
 10 C        0.8980    -5.3770    -0.3610 C.3   1 <1>   0.2890 
 11 N        2.5520    -1.7530    -3.3080 N.pl3 1 <1>  -0.9000 
 12 C       -0.5410    -5.8700    -0.2760 C.3   1 <1>  -0.0800 
 13 C        1.5990    -6.4290     0.4890 C.3   1 <1>   0.1200 
 14 C       -0.6040    -6.5370     1.1040 C.3   1 <1>   0.1200 
 15 C       -1.6370    -4.8140    -0.5130 C.3   1 <1>  -0.0170 
 16 O        0.7160    -6.6950     1.5360 O.3   1 <1>  -0.5600 
 17 C       -3.0200    -5.4440    -0.4590 C.ar  1 <1>  -0.1430 
 18 C       -3.5460    -6.1400    -1.5280 C.ar  1 <1>  -0.1500 
 19 C       -3.8210    -5.3560     0.6620 C.ar  1 <1>  -0.1500 
 20 C       -4.8080    -6.7030    -1.4270 C.ar  1 <1>   0.1600 
 21 C       -5.0700    -5.9560     0.6610 C.ar  1 <1>   0.1600 
 22 N       -5.5820    -6.6300    -0.3560 N.ar  1 <1>  -0.6200 
 23 H        0.8700    -4.1280     1.3160 H     1 <1>   0.4000 
 24 H        2.7760     0.1930    -1.7730 H     1 <1>   0.4570 
 25 H        2.0660     0.6360     1.8250 H     1 <1>   0.0800 
 26 H        1.7260     1.5030     0.3590 H     1 <1>   0.0800 
 27 H        3.3660     1.0210     0.7390 H     1 <1>   0.0800 
 28 H        1.2720    -5.3580    -1.3700 H     1 <1>   0.0800 
 29 H        2.9130    -0.9970    -3.8920 H     1 <1>   0.4000 
 30 H        2.4150    -2.6310    -3.8200 H     1 <1>   0.4000 
 31 H       -0.6640    -6.6480    -1.0090 H     1 <1>   0.0800 
 32 H        2.5390    -6.0880     0.8840 H     1 <1>   0.0800 
 33 H        1.7390    -7.3410    -0.0650 H     1 <1>   0.0800 
 34 H       -1.0750    -7.5040     1.0580 H     1 <1>   0.0800 
 35 H       -1.1100    -5.9200     1.8260 H     1 <1>   0.0800 
 36 H       -1.4910    -4.3570    -1.4770 H     1 <1>   0.0800 
 37 H       -1.5740    -4.0350     0.2270 H     1 <1>   0.0800 
 38 H       -2.9890    -6.2510    -2.4400 H     1 <1>   0.1500 
 39 H       -3.4900    -4.8290     1.5370 H     1 <1>   0.1500 
 40 H       -5.2010    -7.2430    -2.2710 H     1 <1>   0.1500 
 41 H       -5.6800    -5.8780     1.5450 H     1 <1>   0.1500 
@<TRIPOS>BOND
  1   1   2  1   
  2   2   3  ar  
  3   2   4  ar  
  4   3   5  ar  
  5   3   6  1   
  6   4   7  ar  
  7   4   8  1   
  8   5   9  ar  
  9   6  10  1   
 10   6  23  1   
 11   7   9  ar  
 12   7  24  1   
 13   8  25  1   
 14   8  26  1   
 15   8  27  1   
 16   9  11  1   
 17  10  12  1   
 18  10  13  1   
 19  10  28  1   
 20  11  29  1   
 21  11  30  1   
 22  12  14  1   
 23  12  15  1   
 24  12  31  1   
 25  13  16  1   
 26  13  32  1   
 27  13  33  1   
 28  14  16  1   
 29  14  34  1   
 30  14  35  1   
 31  15  17  1   
 32  15  36  1   
 33  15  37  1   
 34  17  18  ar  
 35  17  19  ar  
 36  18  20  ar  
 37  18  38  1   
 38  19  21  ar  
 39  19  39  1   
 40  20  22  ar  
 41  20  40  1   
 42  21  22  ar  
 43  21  41  1   
@<TRIPOS>SUBSTRUCTURE
  1 ****   6 GROUP 4 **** **** 0

# MOE 2024.06 (io_trps.svl 2023.06)
