@<TRIPOS>MOLECULE
NONAME
49 51 1 0 0 
SMALL
USER_CHARGES


@<TRIPOS>ATOM
  1 O       -0.3140     1.0470     1.4420 O.2   1 <1>  -0.5700 
  2 C       -0.0860     2.1910     1.0940 C.2   1 <1>   0.5440 
  3 N       -1.1390     3.0670     0.9170 N.am  1 <1>  -0.6600 
  4 C        1.2860     2.6000     0.8620 C.ar  1 <1>   0.0860 
  5 C       -2.5470     2.6690     1.2170 C.3   1 <1>   0.1400 
  6 C       -0.9800     4.3850     0.2300 C.3   1 <1>   0.1400 
  7 C        2.0800     1.9380    -0.0700 C.ar  1 <1>  -0.1500 
  8 C        1.8590     3.6640     1.5530 C.ar  1 <1>  -0.1500 
  9 C       -3.4040     2.5530    -0.0750 C.3   1 <1>   0.0000 
 10 C       -2.2720     4.8210    -0.4790 C.3   1 <1>  -0.1600 
 11 C        3.3870     2.3220    -0.3260 C.ar  1 <1>  -0.1430 
 12 C        3.1600     4.0590     1.3090 C.ar  1 <1>  -0.1500 
 13 C       -4.8930     2.6170     0.3360 C.3   1 <1>   0.2000 
 14 C       -2.9690     3.6170    -1.1270 C.3   1 <1>  -0.1600 
 15 C       -3.2840     1.1310    -0.6490 C.3   1 <1>  -0.1600 
 16 C        3.9330     3.3960     0.3680 C.ar  1 <1>  -0.1430 
 17 C        4.1930     1.5520    -1.3620 C.3   1 <1>  -0.0970 
 18 O       -5.7030     2.8220    -0.7880 O.3   1 <1>  -0.5600 
 19 C       -5.2000     1.2190     0.8860 C.3   1 <1>  -0.1600 
 20 C       -4.2560     0.2560     0.1520 C.3   1 <1>  -0.1600 
 21 C        5.3620     3.8580     0.1240 C.3   1 <1>  -0.0970 
 22 C       -6.9430     3.3980    -0.5280 C.3   1 <1>   0.0400 
 23 H       -2.5670     1.7440     1.7670 H     1 <1>   0.0800 
 24 H       -2.9650     3.4230     1.8600 H     1 <1>   0.0800 
 25 H       -0.6890     5.1320     0.9480 H     1 <1>   0.0800 
 26 H       -0.1980     4.3010    -0.5060 H     1 <1>   0.0800 
 27 H        1.6470     1.1040    -0.5950 H     1 <1>   0.1500 
 28 H        1.2730     4.1810     2.2920 H     1 <1>   0.1500 
 29 H       -2.9340     5.2890     0.2270 H     1 <1>   0.0800 
 30 H       -2.0310     5.5520    -1.2290 H     1 <1>   0.0800 
 31 H        3.5710     4.8860     1.8600 H     1 <1>   0.1500 
 32 H       -5.0780     3.4000     1.0520 H     1 <1>   0.0800 
 33 H       -2.2670     3.1650    -1.8070 H     1 <1>   0.0800 
 34 H       -3.7990     3.9540    -1.7200 H     1 <1>   0.0800 
 35 H       -3.6020     1.1370    -1.6780 H     1 <1>   0.0800 
 36 H       -2.2740     0.7590    -0.6020 H     1 <1>   0.0800 
 37 H        3.6120     0.7550    -1.7900 H     1 <1>   0.0800 
 38 H        5.0650     1.1220    -0.9040 H     1 <1>   0.0800 
 39 H        4.5000     2.2090    -2.1550 H     1 <1>   0.0800 
 40 H       -4.9720     1.1970     1.9370 H     1 <1>   0.0800 
 41 H       -6.2300     0.9430     0.7540 H     1 <1>   0.0800 
 42 H       -3.7170    -0.3510     0.8610 H     1 <1>   0.0800 
 43 H       -4.8060    -0.3880    -0.5120 H     1 <1>   0.0800 
 44 H        5.6070     4.7020     0.7430 H     1 <1>   0.0800 
 45 H        5.4870     4.1460    -0.9040 H     1 <1>   0.0800 
 46 H        6.0490     3.0640     0.3520 H     1 <1>   0.0800 
 47 H       -7.4770     3.4740    -1.4580 H     1 <1>   0.0800 
 48 H       -6.7970     4.3810    -0.1140 H     1 <1>   0.0800 
 49 H       -7.4940     2.7770     0.1560 H     1 <1>   0.0800 
@<TRIPOS>BOND
  1   1   2  2   
  2   2   3  am  
  3   2   4  1   
  4   3   5  1   
  5   3   6  1   
  6   4   7  ar  
  7   4   8  ar  
  8   5   9  1   
  9   5  23  1   
 10   5  24  1   
 11   6  10  1   
 12   6  25  1   
 13   6  26  1   
 14   7  11  ar  
 15   7  27  1   
 16   8  12  ar  
 17   8  28  1   
 18   9  13  1   
 19   9  14  1   
 20   9  15  1   
 21  10  14  1   
 22  10  29  1   
 23  10  30  1   
 24  11  16  ar  
 25  11  17  1   
 26  12  16  ar  
 27  12  31  1   
 28  13  18  1   
 29  13  19  1   
 30  13  32  1   
 31  14  33  1   
 32  14  34  1   
 33  15  20  1   
 34  15  35  1   
 35  15  36  1   
 36  16  21  1   
 37  17  37  1   
 38  17  38  1   
 39  17  39  1   
 40  18  22  1   
 41  19  20  1   
 42  19  40  1   
 43  19  41  1   
 44  20  42  1   
 45  20  43  1   
 46  21  44  1   
 47  21  45  1   
 48  21  46  1   
 49  22  47  1   
 50  22  48  1   
 51  22  49  1   
@<TRIPOS>SUBSTRUCTURE
  1 ****   3 GROUP 4 **** **** 0

# MOE 2024.06 (io_trps.svl 2023.06)
