@<TRIPOS>MOLECULE
NONAME
44 46 1 0 0 
SMALL
USER_CHARGES


@<TRIPOS>ATOM
  1 F        2.2750    -1.7100    -1.6270 F     1 <1>  -0.1900 
  2 C        2.2140    -1.8690    -0.3330 C.ar  1 <1>   0.1900 
  3 C        1.3450    -2.8210     0.1980 C.ar  1 <1>   0.0530 
  4 C        3.0460    -1.0770     0.4410 C.ar  1 <1>  -0.1500 
  5 C        1.3740    -2.9260     1.5880 C.ar  1 <1>   0.1900 
  6 C        0.4840    -3.6330    -0.6190 C.2   1 <1>   0.4250 
  7 C        3.0350    -1.2210     1.8190 C.ar  1 <1>  -0.1500 
  8 F        0.5870    -3.7860     2.1770 F     1 <1>  -0.1900 
  9 C        2.1910    -2.1560     2.3970 C.ar  1 <1>  -0.1500 
 10 O        0.4440    -4.9280    -0.4690 O.3   1 <1>  -0.0190 
 11 N       -0.3200    -3.2620    -1.5550 N.2   1 <1>  -0.5650 
 12 N       -0.3840    -5.4450    -1.2970 N.2   1 <1>  -0.4100 
 13 C       -0.8400    -4.4350    -1.9400 C.2   1 <1>   0.3350 
 14 C       -1.8830    -4.4980    -3.0580 C.3   1 <1>   0.3210 
 15 N       -2.6390    -5.7750    -3.0320 N.am  1 <1>  -0.7300 
 16 C       -3.9220    -5.8970    -2.6200 C.2   1 <1>   0.5690 
 17 O       -4.6760    -4.9540    -2.5760 O.2   1 <1>  -0.5700 
 18 C       -4.3970    -7.2700    -2.1460 C.3   1 <1>   0.2010 
 19 N       -3.5680    -7.7770    -0.9940 N.am  1 <1>  -0.6600 
 20 C       -2.3790    -8.4160    -1.2660 C.2   1 <1>   0.5690 
 21 C       -4.0560    -7.2950     0.3330 C.3   1 <1>   0.1400 
 22 O       -2.0030    -8.5390    -2.4090 O.2   1 <1>  -0.5700 
 23 C       -1.4510    -8.9890    -0.2020 C.3   1 <1>  -0.0990 
 24 C       -2.9240    -6.9260     1.2940 C.3   1 <1>  -0.1600 
 25 C       -2.1040    -9.3600     1.1370 C.3   1 <1>  -0.1600 
 26 C       -2.3350    -8.1360     2.0320 C.3   1 <1>  -0.1600 
 27 H        3.6940    -0.3600    -0.0320 H     1 <1>   0.1500 
 28 H        3.6770    -0.6120     2.4340 H     1 <1>   0.1500 
 29 H        2.1640    -2.2850     3.4650 H     1 <1>   0.1500 
 30 H       -1.3870    -4.4000    -4.0060 H     1 <1>   0.0800 
 31 H       -2.5620    -3.6710    -2.9470 H     1 <1>   0.0800 
 32 H       -2.0490    -6.6160    -2.9310 H     1 <1>   0.3700 
 33 H       -4.3340    -7.9570    -2.9710 H     1 <1>   0.0800 
 34 H       -5.4290    -7.2060    -1.8540 H     1 <1>   0.0800 
 35 H       -4.6960    -8.0410     0.7740 H     1 <1>   0.0800 
 36 H       -4.6490    -6.4090     0.1790 H     1 <1>   0.0800 
 37 H       -0.6470    -8.2940    -0.0420 H     1 <1>   0.0800 
 38 H       -1.0170    -9.8820    -0.6160 H     1 <1>   0.0800 
 39 H       -3.3120    -6.2460     2.0320 H     1 <1>   0.0800 
 40 H       -2.1580    -6.3940     0.7560 H     1 <1>   0.0800 
 41 H       -1.4630   -10.0470     1.6620 H     1 <1>   0.0800 
 42 H       -3.0340    -9.8700     0.9500 H     1 <1>   0.0800 
 43 H       -2.9960    -8.4210     2.8330 H     1 <1>   0.0800 
 44 H       -1.4010    -7.8390     2.4770 H     1 <1>   0.0800 
@<TRIPOS>BOND
  1   1   2  1   
  2   2   3  ar  
  3   2   4  ar  
  4   3   5  ar  
  5   3   6  1   
  6   4   7  ar  
  7   4  27  1   
  8   5   8  1   
  9   5   9  ar  
 10   6  10  1   
 11   6  11  2   
 12   7   9  ar  
 13   7  28  1   
 14   9  29  1   
 15  10  12  1   
 16  11  13  1   
 17  12  13  2   
 18  13  14  1   
 19  14  15  1   
 20  14  30  1   
 21  14  31  1   
 22  15  16  am  
 23  15  32  1   
 24  16  17  2   
 25  16  18  1   
 26  18  19  1   
 27  18  33  1   
 28  18  34  1   
 29  19  20  am  
 30  19  21  1   
 31  20  22  2   
 32  20  23  1   
 33  21  24  1   
 34  21  35  1   
 35  21  36  1   
 36  23  25  1   
 37  23  37  1   
 38  23  38  1   
 39  24  26  1   
 40  24  39  1   
 41  24  40  1   
 42  25  26  1   
 43  25  41  1   
 44  25  42  1   
 45  26  43  1   
 46  26  44  1   
@<TRIPOS>SUBSTRUCTURE
  1 ****  12 GROUP 4 **** **** 0

# MOE 2024.06 (io_trps.svl 2023.06)
