@<TRIPOS>MOLECULE
NONAME
50 51 1 0 0 
SMALL
USER_CHARGES


@<TRIPOS>ATOM
  1 O        0.0520    -0.2320    -0.0750 O.2   1 <1>  -0.5700 
  2 C        1.1250    -0.7950    -0.1860 C.2   1 <1>   0.7150 
  3 N        2.2480    -0.0880    -0.5000 N.am  1 <1>  -0.4930 
  4 C        1.2550    -2.2090     0.0200 C.2   1 <1>  -0.2370 
  5 C        2.4160     1.2950    -0.7570 C.2   1 <1>   0.0630 
  6 N        0.3540    -3.0010     0.6670 N.pl3 1 <1>   0.3140 
  7 C        2.2580    -3.0470    -0.3660 C.2   1 <1>  -0.1500 
  8 C        1.6480     2.1560    -1.5480 C.2   1 <1>   0.1080 
  9 C        3.4210     2.0660    -0.2850 C.2   1 <1>  -0.3320 
 10 N        0.7580    -4.2850     0.7000 N.2   1 <1>  -0.7070 
 11 C       -0.9310    -2.5590     1.2860 C.3   1 <1>   0.0960 
 12 C        1.8970    -4.3050     0.0800 C.2   1 <1>   0.1080 
 13 N        2.1280     3.3600    -1.5680 N.2   1 <1>  -0.7070 
 14 C        0.4040     1.7920    -2.3280 C.3   1 <1>  -0.0590 
 15 N        3.2190     3.3130    -0.7850 N.pl3 1 <1>   0.3140 
 16 C        4.5740     1.6900     0.6340 C.3   1 <1>  -0.0600 
 17 C       -1.6130    -3.6350     2.1480 C.3   1 <1>  -0.2400 
 18 C        2.7030    -5.5840    -0.1140 C.3   1 <1>   0.1010 
 19 C        4.0350     4.5230    -0.5540 C.3   1 <1>   0.0960 
 20 C        4.0680    -5.4800     0.5760 C.3   1 <1>  -0.2400 
 21 C        2.8720    -5.9030    -1.6040 C.3   1 <1>  -0.2400 
 22 C        3.5490     5.2860     0.6870 C.3   1 <1>  -0.1600 
 23 C        4.3970     6.5370     0.9430 C.3   1 <1>  -0.2400 
 24 H        3.1140    -0.6090    -0.4110 H     1 <1>   0.3700 
 25 H        3.1550    -2.8200    -0.9110 H     1 <1>   0.1500 
 26 H       -1.5930    -2.2600     0.4940 H     1 <1>   0.0800 
 27 H       -0.7280    -1.6990     1.8970 H     1 <1>   0.0800 
 28 H        0.4650     0.7780    -2.6750 H     1 <1>   0.0800 
 29 H        0.3000     2.4460    -3.1730 H     1 <1>   0.0800 
 30 H       -0.4570     1.8990    -1.6950 H     1 <1>   0.0800 
 31 H        4.4980     0.6630     0.9400 H     1 <1>   0.0800 
 32 H        4.5590     2.3040     1.5170 H     1 <1>   0.0800 
 33 H        5.5130     1.8280     0.1280 H     1 <1>   0.0800 
 34 H       -1.8630    -4.4900     1.5450 H     1 <1>   0.0800 
 35 H       -2.5170    -3.2410     2.5760 H     1 <1>   0.0800 
 36 H       -0.9590    -3.9420     2.9440 H     1 <1>   0.0800 
 37 H        2.1530    -6.3890     0.3440 H     1 <1>   0.0800 
 38 H        3.9510     5.1490    -1.4240 H     1 <1>   0.0800 
 39 H        5.0620     4.2330    -0.4410 H     1 <1>   0.0800 
 40 H        4.6590    -4.6980     0.1350 H     1 <1>   0.0800 
 41 H        4.6000    -6.4100     0.4900 H     1 <1>   0.0800 
 42 H        3.9290    -5.2610     1.6200 H     1 <1>   0.0800 
 43 H        3.4340    -5.1320    -2.0980 H     1 <1>   0.0800 
 44 H        1.9050    -5.9760    -2.0690 H     1 <1>   0.0800 
 45 H        3.3830    -6.8410    -1.7280 H     1 <1>   0.0800 
 46 H        3.5960     4.6430     1.5480 H     1 <1>   0.0800 
 47 H        2.5230     5.5770     0.5380 H     1 <1>   0.0800 
 48 H        5.4260     6.2700     1.1120 H     1 <1>   0.0800 
 49 H        4.0320     7.0560     1.8120 H     1 <1>   0.0800 
 50 H        4.3440     7.2050     0.1010 H     1 <1>   0.0800 
@<TRIPOS>BOND
  1   1   2  2   
  2   2   3  am  
  3   2   4  1   
  4   3   5  1   
  5   3  24  1   
  6   4   6  1   
  7   4   7  2   
  8   5   8  1   
  9   5   9  2   
 10   6  10  1   
 11   6  11  1   
 12   7  12  1   
 13   7  25  1   
 14   8  13  2   
 15   8  14  1   
 16   9  15  1   
 17   9  16  1   
 18  10  12  2   
 19  11  17  1   
 20  11  26  1   
 21  11  27  1   
 22  12  18  1   
 23  13  15  1   
 24  14  28  1   
 25  14  29  1   
 26  14  30  1   
 27  15  19  1   
 28  16  31  1   
 29  16  32  1   
 30  16  33  1   
 31  17  34  1   
 32  17  35  1   
 33  17  36  1   
 34  18  20  1   
 35  18  21  1   
 36  18  37  1   
 37  19  22  1   
 38  19  38  1   
 39  19  39  1   
 40  20  40  1   
 41  20  41  1   
 42  20  42  1   
 43  21  43  1   
 44  21  44  1   
 45  21  45  1   
 46  22  23  1   
 47  22  46  1   
 48  22  47  1   
 49  23  48  1   
 50  23  49  1   
 51  23  50  1   
@<TRIPOS>SUBSTRUCTURE
  1 ****   3 GROUP 4 **** **** 0

# MOE 2024.06 (io_trps.svl 2023.06)
