@<TRIPOS>MOLECULE
NONAME
49 51 1 0 0 
SMALL
USER_CHARGES


@<TRIPOS>ATOM
  1 O        0.3040     0.8380     1.3630 O.2   1 <1>  -0.5700 
  2 C       -0.0630     1.5370     0.4390 C.2   1 <1>   0.5440 
  3 N       -1.4040     1.6110     0.1920 N.am  1 <1>  -0.7300 
  4 C        0.8930     2.2410    -0.4000 C.ar  1 <1>   0.0860 
  5 C       -2.4750     1.0220     1.0360 C.3   1 <1>   0.2200 
  6 C        0.5590     3.4180    -1.0740 C.ar  1 <1>  -0.1500 
  7 C        2.1920     1.7590    -0.5620 C.ar  1 <1>  -0.1500 
  8 C       -2.6380    -0.4920     0.7750 C.3   1 <1>   0.2000 
  9 C       -3.7770     1.7810     0.7550 C.3   1 <1>  -0.1600 
 10 C        1.4720     4.0720    -1.8810 C.ar  1 <1>  -0.1500 
 11 C        3.1110     2.4080    -1.3670 C.ar  1 <1>  -0.1500 
 12 O       -1.5120    -1.1790     1.2020 O.3   1 <1>  -0.6800 
 13 C       -3.8490    -1.0640     1.5200 C.3   1 <1>   0.1400 
 14 C       -4.9510     1.1780     1.5320 C.3   1 <1>   0.1400 
 15 C        2.7510     3.5660    -2.0310 C.ar  1 <1>  -0.1500 
 16 N       -5.0740    -0.2680     1.1940 N.am  1 <1>  -0.6600 
 17 C       -6.2040    -0.7630     0.5920 C.2   1 <1>   0.5690 
 18 O       -7.1140    -0.0380     0.2660 O.2   1 <1>  -0.5700 
 19 C       -6.3300    -2.2560     0.3000 C.3   1 <1>  -0.0990 
 20 C       -7.7210    -2.6920    -0.1980 C.3   1 <1>  -0.1600 
 21 C       -7.7570    -4.1950    -0.5070 C.3   1 <1>   0.0960 
 22 N       -9.1160    -4.6390    -0.8720 N.pl3 1 <1>   0.3140 
 23 N       -9.7920    -5.5230    -0.1540 N.2   1 <1>  -0.7070 
 24 C       -9.8600    -4.2840    -1.9240 C.2   1 <1>   0.0360 
 25 C      -10.8940    -5.6360    -0.8200 C.2   1 <1>   0.3660 
 26 N      -10.9910    -4.8920    -1.9290 N.2   1 <1>  -0.5650 
 27 H       -1.7190     2.0400    -0.6790 H     1 <1>   0.3700 
 28 H       -2.2190     1.1600     2.0740 H     1 <1>   0.0800 
 29 H       -0.4250     3.8360    -0.9610 H     1 <1>   0.1500 
 30 H        2.4830     0.8590    -0.0460 H     1 <1>   0.1500 
 31 H       -2.7510    -0.6710    -0.2790 H     1 <1>   0.0800 
 32 H       -3.6620     2.8100     1.0460 H     1 <1>   0.0800 
 33 H       -4.0120     1.7460    -0.2940 H     1 <1>   0.0800 
 34 H        1.1920     4.9770    -2.3930 H     1 <1>   0.1500 
 35 H        4.1060     2.0130    -1.4760 H     1 <1>   0.1500 
 36 H       -0.7440    -0.5470     1.2390 H     1 <1>   0.4000 
 37 H       -3.6730    -1.0090     2.5810 H     1 <1>   0.0800 
 38 H       -3.9630    -2.0960     1.2490 H     1 <1>   0.0800 
 39 H       -5.8560     1.7080     1.2870 H     1 <1>   0.0800 
 40 H       -4.7870     1.2790     2.5910 H     1 <1>   0.0800 
 41 H        3.4640     4.0730    -2.6580 H     1 <1>   0.1500 
 42 H       -5.5930    -2.5100    -0.4400 H     1 <1>   0.0800 
 43 H       -6.1080    -2.7930     1.2040 H     1 <1>   0.0800 
 44 H       -7.9710    -2.1350    -1.0860 H     1 <1>   0.0800 
 45 H       -8.4510    -2.4630     0.5610 H     1 <1>   0.0800 
 46 H       -7.4480    -4.7540     0.3590 H     1 <1>   0.0800 
 47 H       -7.0930    -4.4290    -1.3190 H     1 <1>   0.0800 
 48 H       -9.5330    -3.5750    -2.6620 H     1 <1>   0.1500 
 49 H      -11.7020    -6.2860    -0.5220 H     1 <1>   0.1500 
@<TRIPOS>BOND
  1   1   2  2   
  2   2   3  am  
  3   2   4  1   
  4   3   5  1   
  5   3  27  1   
  6   4   6  ar  
  7   4   7  ar  
  8   5   8  1   
  9   5   9  1   
 10   5  28  1   
 11   6  10  ar  
 12   6  29  1   
 13   7  11  ar  
 14   7  30  1   
 15   8  12  1   
 16   8  13  1   
 17   8  31  1   
 18   9  14  1   
 19   9  32  1   
 20   9  33  1   
 21  10  15  ar  
 22  10  34  1   
 23  11  15  ar  
 24  11  35  1   
 25  12  36  1   
 26  13  16  1   
 27  13  37  1   
 28  13  38  1   
 29  14  16  1   
 30  14  39  1   
 31  14  40  1   
 32  15  41  1   
 33  16  17  am  
 34  17  18  2   
 35  17  19  1   
 36  19  20  1   
 37  19  42  1   
 38  19  43  1   
 39  20  21  1   
 40  20  44  1   
 41  20  45  1   
 42  21  22  1   
 43  21  46  1   
 44  21  47  1   
 45  22  23  1   
 46  22  24  1   
 47  23  25  2   
 48  24  26  2   
 49  24  48  1   
 50  25  26  1   
 51  25  49  1   
@<TRIPOS>SUBSTRUCTURE
  1 ****   8 GROUP 4 **** **** 0

# MOE 2024.06 (io_trps.svl 2023.06)
