@<TRIPOS>MOLECULE
NONAME
36 37 1 0 0 
SMALL
USER_CHARGES


@<TRIPOS>ATOM
  1 S       -0.6680     0.2560    -1.6480 S.3   1 <1>  -0.0800 
  2 C       -1.4670     0.4490    -0.0990 C.2   1 <1>   0.1980 
  3 C       -0.2030     1.9300    -1.5870 C.2   1 <1>  -0.1100 
  4 N       -1.3810     1.6250     0.3830 N.2   1 <1>  -0.5650 
  5 C       -2.1700    -0.7590     0.5140 C.3   1 <1>   0.1000 
  6 C       -0.6690     2.4730    -0.4490 C.2   1 <1>   0.0460 
  7 C       -1.1850    -1.9000     0.8010 C.3   1 <1>  -0.2400 
  8 C       -3.3220    -1.2510    -0.3720 C.3   1 <1>  -0.2400 
  9 C       -0.5130     3.9040     0.0390 C.3   1 <1>   0.0210 
 10 C        0.3040     4.7700    -0.9210 C.3   1 <1>   0.2090 
 11 N        0.4350     6.1430    -0.3820 N.pl3 1 <1>  -0.8690 
 12 C        1.6130     6.6920     0.0230 C.ar  1 <1>   0.4100 
 13 N        1.7600     7.9600    -0.2790 N.ar  1 <1>  -0.6200 
 14 C        2.5890     5.9930     0.7040 C.ar  1 <1>  -0.1500 
 15 C        2.8970     8.5100     0.1000 C.ar  1 <1>   0.4770 
 16 C        3.7280     6.6690     1.0460 C.ar  1 <1>   0.1600 
 17 N        3.9010     7.9410     0.7460 N.ar  1 <1>  -0.6200 
 18 C        3.0840     9.9690    -0.2400 C.3   1 <1>  -0.0970 
 19 H        0.3670     2.3140    -2.4120 H     1 <1>   0.1500 
 20 H       -2.5880    -0.4380     1.4530 H     1 <1>   0.0800 
 21 H       -0.7620    -2.2790    -0.1120 H     1 <1>   0.0800 
 22 H       -1.6850    -2.7050     1.3100 H     1 <1>   0.0800 
 23 H       -0.3870    -1.5440     1.4280 H     1 <1>   0.0800 
 24 H       -2.9510    -1.6140    -1.3140 H     1 <1>   0.0800 
 25 H       -4.0060    -0.4420    -0.5620 H     1 <1>   0.0800 
 26 H       -3.8570    -2.0440     0.1180 H     1 <1>   0.0800 
 27 H       -0.0300     3.8860     0.9980 H     1 <1>   0.0800 
 28 H       -1.4900     4.3330     0.1600 H     1 <1>   0.0800 
 29 H       -0.1880     4.8140    -1.8780 H     1 <1>   0.0800 
 30 H        1.2800     4.3380    -1.0630 H     1 <1>   0.0800 
 31 H       -0.1700     6.8380    -0.8290 H     1 <1>   0.4000 
 32 H        2.4490     4.9620     0.9590 H     1 <1>   0.1500 
 33 H        4.5180     6.1680     1.5780 H     1 <1>   0.1500 
 34 H        2.2380    10.3410    -0.7880 H     1 <1>   0.0800 
 35 H        3.9680    10.0860    -0.8370 H     1 <1>   0.0800 
 36 H        3.1920    10.5350     0.6660 H     1 <1>   0.0800 
@<TRIPOS>BOND
  1   1   2  1   
  2   1   3  1   
  3   2   4  2   
  4   2   5  1   
  5   3   6  2   
  6   3  19  1   
  7   4   6  1   
  8   5   7  1   
  9   5   8  1   
 10   5  20  1   
 11   6   9  1   
 12   7  21  1   
 13   7  22  1   
 14   7  23  1   
 15   8  24  1   
 16   8  25  1   
 17   8  26  1   
 18   9  10  1   
 19   9  27  1   
 20   9  28  1   
 21  10  11  1   
 22  10  29  1   
 23  10  30  1   
 24  11  12  1   
 25  11  31  1   
 26  12  13  ar  
 27  12  14  ar  
 28  13  15  ar  
 29  14  16  ar  
 30  14  32  1   
 31  15  17  ar  
 32  15  18  1   
 33  16  17  ar  
 34  16  33  1   
 35  18  34  1   
 36  18  35  1   
 37  18  36  1   
@<TRIPOS>SUBSTRUCTURE
  1 ****   9 GROUP 4 **** **** 0

# MOE 2024.06 (io_trps.svl 2023.06)
