@<TRIPOS>MOLECULE
NONAME
40 41 1 0 0 
SMALL
USER_CHARGES


@<TRIPOS>ATOM
  1 S       -0.9380    -0.0420     0.1100 S.3   1 <1>  -0.0800 
  2 C       -1.3430    -1.1590    -1.1530 C.2   1 <1>   0.4420 
  3 C       -0.3490     1.0230    -1.1200 C.2   1 <1>   0.1980 
  4 N       -1.0380    -0.7060    -2.3150 N.2   1 <1>  -0.3380 
  5 N       -1.9100    -2.3520    -0.7540 N.am  1 <1>  -0.4940 
  6 N       -0.4730     0.5400    -2.2880 N.2   1 <1>  -0.3380 
  7 C        0.2230     2.3640    -0.7020 C.3   1 <1>   0.0200 
  8 C       -2.4220    -3.3880    -1.4980 C.2   1 <1>   0.5440 
  9 C        1.5930     2.2100    -0.0250 C.3   1 <1>  -0.1600 
 10 O       -2.5290    -3.2550    -2.6980 O.2   1 <1>  -0.5700 
 11 C       -2.8270    -4.6420    -0.8810 C.ar  1 <1>   0.0860 
 12 C        2.1820     3.5710     0.3700 C.3   1 <1>  -0.1600 
 13 C       -3.1170    -4.8000     0.4810 C.ar  1 <1>   0.1900 
 14 C       -2.9490    -5.7920    -1.6700 C.ar  1 <1>  -0.1500 
 15 C        3.5490     3.4050     1.0430 C.3   1 <1>  -0.1600 
 16 F       -3.0340    -3.7550     1.2670 F     1 <1>  -0.1900 
 17 C       -3.4980    -6.0040     1.0680 C.ar  1 <1>   0.0820 
 18 C       -3.3250    -7.0100    -1.1350 C.ar  1 <1>  -0.1500 
 19 C        4.1370     4.7620     1.4370 C.3   1 <1>  -0.2400 
 20 O       -3.7410    -5.9960     2.4160 O.3   1 <1>  -0.3630 
 21 C       -3.5930    -7.1090     0.2170 C.ar  1 <1>   0.1900 
 22 C       -4.1950    -7.1220     3.1350 C.3   1 <1>   0.0400 
 23 F       -3.9380    -8.2920     0.6520 F     1 <1>  -0.1900 
 24 H       -1.9840    -2.4690     0.2550 H     1 <1>   0.3700 
 25 H       -0.4680     2.8480    -0.0350 H     1 <1>   0.0800 
 26 H        0.3240     2.9790    -1.5790 H     1 <1>   0.0800 
 27 H        2.2640     1.7110    -0.7040 H     1 <1>   0.0800 
 28 H        1.4920     1.5960     0.8530 H     1 <1>   0.0800 
 29 H        1.5100     4.0720     1.0460 H     1 <1>   0.0800 
 30 H        2.2910     4.1840    -0.5090 H     1 <1>   0.0800 
 31 H       -2.7430    -5.7270    -2.7270 H     1 <1>   0.1500 
 32 H        4.2270     2.9080     0.3700 H     1 <1>   0.0800 
 33 H        3.4480     2.7950     1.9250 H     1 <1>   0.0800 
 34 H       -3.4110    -7.8820    -1.7610 H     1 <1>   0.1500 
 35 H        4.2690     5.3820     0.5670 H     1 <1>   0.0800 
 36 H        5.0950     4.6260     1.9070 H     1 <1>   0.0800 
 37 H        3.4870     5.2690     2.1290 H     1 <1>   0.0800 
 38 H       -4.3360    -6.8290     4.1600 H     1 <1>   0.0800 
 39 H       -3.4520    -7.8980     3.0800 H     1 <1>   0.0800 
 40 H       -5.1310    -7.4520     2.7200 H     1 <1>   0.0800 
@<TRIPOS>BOND
  1   1   2  1   
  2   1   3  1   
  3   2   4  2   
  4   2   5  1   
  5   3   6  2   
  6   3   7  1   
  7   4   6  1   
  8   5   8  am  
  9   5  24  1   
 10   7   9  1   
 11   7  25  1   
 12   7  26  1   
 13   8  10  2   
 14   8  11  1   
 15   9  12  1   
 16   9  27  1   
 17   9  28  1   
 18  11  13  ar  
 19  11  14  ar  
 20  12  15  1   
 21  12  29  1   
 22  12  30  1   
 23  13  16  1   
 24  13  17  ar  
 25  14  18  ar  
 26  14  31  1   
 27  15  19  1   
 28  15  32  1   
 29  15  33  1   
 30  17  20  1   
 31  17  21  ar  
 32  18  21  ar  
 33  18  34  1   
 34  19  35  1   
 35  19  36  1   
 36  19  37  1   
 37  20  22  1   
 38  21  23  1   
 39  22  38  1   
 40  22  39  1   
 41  22  40  1   
@<TRIPOS>SUBSTRUCTURE
  1 ****   5 GROUP 4 **** **** 0

# MOE 2024.06 (io_trps.svl 2023.06)
