@<TRIPOS>MOLECULE
NONAME
51 54 1 0 0 
SMALL
USER_CHARGES


@<TRIPOS>ATOM
  1 O        3.6000    -0.9770     2.7130 O.2   1 <1>  -0.5700 
  2 C        3.0030    -1.4000     1.7360 C.2   1 <1>   0.7150 
  3 N        2.7780    -0.5140     0.6890 N.am  1 <1>  -0.6600 
  4 C        2.5680    -2.7800     1.7210 C.2   1 <1>   0.0550 
  5 C        2.9360     0.9570     0.9360 C.3   1 <1>   0.1400 
  6 C        2.6720    -1.0090    -0.7220 C.3   1 <1>   0.1400 
  7 O        1.5610    -3.2000     0.9570 O.3   1 <1>  -0.2800 
  8 C        3.0310    -3.8460     2.4300 C.2   1 <1>  -0.1500 
  9 C        4.2480     1.5700     0.3780 C.3   1 <1>   0.4230 
 10 C        3.6320    -0.3410    -1.7300 C.3   1 <1>  -0.0800 
 11 C        1.3660    -4.4960     1.1370 C.2   1 <1>   0.0870 
 12 C        2.2670    -4.9430     2.0530 C.2   1 <1>  -0.1500 
 13 N        4.1200     2.0450    -1.0490 N.4   1 <1>  -0.9590 
 14 C        5.5040     0.6720     0.5350 C.3   1 <1>   0.1200 
 15 C        5.1300    -0.6290    -1.4920 C.3   1 <1>   0.1200 
 16 C        3.3140     1.1430    -1.9240 C.3   1 <1>   0.3430 
 17 C        0.3320    -5.1890     0.4070 C.ar  1 <1>   0.0530 
 18 C        3.6020     3.4460    -1.1200 C.3   1 <1>   0.2630 
 19 O        5.4720    -0.5570    -0.1460 O.3   1 <1>  -0.5600 
 20 C       -0.7340    -4.5010    -0.1730 C.ar  1 <1>  -0.1500 
 21 C        0.3600    -6.5760     0.2560 C.ar  1 <1>  -0.1500 
 22 C       -1.7280    -5.1600    -0.8730 C.ar  1 <1>  -0.1500 
 23 C       -0.6290    -7.2420    -0.4420 C.ar  1 <1>  -0.1500 
 24 C       -1.6810    -6.5440    -1.0130 C.ar  1 <1>   0.0830 
 25 O       -2.6090    -7.2690    -1.6800 O.3   1 <1>  -0.3630 
 26 C       -3.7230    -6.6580    -2.2910 C.3   1 <1>   0.0400 
 27 H        2.0830     1.4770     0.5400 H     1 <1>   0.0800 
 28 H        2.9230     1.1370     1.9970 H     1 <1>   0.0800 
 29 H        2.8800    -2.0650    -0.7470 H     1 <1>   0.0800 
 30 H        1.6530    -0.8820    -1.0480 H     1 <1>   0.0800 
 31 H        3.8330    -3.8470     3.1470 H     1 <1>   0.1500 
 32 H        4.4410     2.4420     0.9800 H     1 <1>   0.0800 
 33 H        3.3980    -0.7960    -2.6760 H     1 <1>   0.0800 
 34 H        2.3820    -5.9420     2.4330 H     1 <1>   0.1500 
 35 H        5.0800     2.0370    -1.4210 H     1 <1>   0.4500 
 36 H        5.6290     0.4340     1.5770 H     1 <1>   0.0800 
 37 H        6.3840     1.2020     0.2170 H     1 <1>   0.0800 
 38 H        5.7720     0.0260    -2.0560 H     1 <1>   0.0800 
 39 H        5.3430    -1.6400    -1.7970 H     1 <1>   0.0800 
 40 H        2.2630     1.2960    -1.7400 H     1 <1>   0.0800 
 41 H        3.5030     1.4030    -2.9540 H     1 <1>   0.0800 
 42 H        2.5980     3.4970    -0.7320 H     1 <1>   0.0800 
 43 H        3.5930     3.7910    -2.1420 H     1 <1>   0.0800 
 44 H        4.2290     4.1080    -0.5430 H     1 <1>   0.0800 
 45 H       -0.7850    -3.4330    -0.0660 H     1 <1>   0.1500 
 46 H        1.1670    -7.1400     0.6860 H     1 <1>   0.1500 
 47 H       -2.5290    -4.5860    -1.2990 H     1 <1>   0.1500 
 48 H       -0.5950    -8.3110    -0.5520 H     1 <1>   0.1500 
 49 H       -4.3140    -7.4270    -2.7530 H     1 <1>   0.0800 
 50 H       -3.3760    -5.9650    -3.0370 H     1 <1>   0.0800 
 51 H       -4.3020    -6.1560    -1.5360 H     1 <1>   0.0800 
@<TRIPOS>BOND
  1   1   2  2   
  2   2   3  am  
  3   2   4  1   
  4   3   5  1   
  5   3   6  1   
  6   4   7  1   
  7   4   8  2   
  8   5   9  1   
  9   5  27  1   
 10   5  28  1   
 11   6  10  1   
 12   6  29  1   
 13   6  30  1   
 14   7  11  1   
 15   8  12  1   
 16   8  31  1   
 17   9  13  1   
 18   9  14  1   
 19   9  32  1   
 20  10  15  1   
 21  10  16  1   
 22  10  33  1   
 23  11  12  2   
 24  11  17  1   
 25  12  34  1   
 26  13  16  1   
 27  13  18  1   
 28  13  35  1   
 29  14  19  1   
 30  14  36  1   
 31  14  37  1   
 32  15  19  1   
 33  15  38  1   
 34  15  39  1   
 35  16  40  1   
 36  16  41  1   
 37  17  20  ar  
 38  17  21  ar  
 39  18  42  1   
 40  18  43  1   
 41  18  44  1   
 42  20  22  ar  
 43  20  45  1   
 44  21  23  ar  
 45  21  46  1   
 46  22  24  ar  
 47  22  47  1   
 48  23  24  ar  
 49  23  48  1   
 50  24  25  1   
 51  25  26  1   
 52  26  49  1   
 53  26  50  1   
 54  26  51  1   
@<TRIPOS>SUBSTRUCTURE
  1 ****   7 GROUP 4 **** **** 0

# MOE 2024.06 (io_trps.svl 2023.06)
