@<TRIPOS>MOLECULE
NONAME
44 45 1 0 0 
SMALL
USER_CHARGES


@<TRIPOS>ATOM
  1 S       -0.7930     1.2990     0.8200 S.o2  1 <1>   1.4470 
  2 O       -0.7070     0.5890     2.0780 O.2   1 <1>  -0.6500 
  3 O       -1.5630     2.5260     0.8300 O.2   1 <1>  -0.6500 
  4 N       -1.5190     0.2710    -0.3280 N.am  1 <1>  -0.8490 
  5 C        0.8960     1.5600     0.2060 C.ar  1 <1>  -0.0090 
  6 C       -0.7740    -0.9510    -0.6960 C.3   1 <1>   0.1960 
  7 C       -2.9450     0.0160    -0.0980 C.3   1 <1>   0.1960 
  8 C        1.2600     2.6140    -0.6290 C.ar  1 <1>   0.0820 
  9 C        1.8860     0.6430     0.5400 C.ar  1 <1>  -0.1500 
 10 C       -0.9330    -2.0690     0.3360 C.3   1 <1>  -0.1860 
 11 C       -3.1910    -1.1220     0.9020 C.3   1 <1>  -0.1600 
 12 O        0.3520     3.5230    -1.0390 O.3   1 <1>  -0.3620 
 13 C        2.5610     2.7480    -1.0960 C.ar  1 <1>  -0.1500 
 14 C        3.1800     0.7480     0.0500 C.ar  1 <1>   0.0820 
 15 C       -0.1160    -3.2670    -0.0920 C.2   1 <1>   0.9060 
 16 C       -2.4220    -2.3720     0.4810 C.3   1 <1>   0.2000 
 17 C        0.3350     4.7470    -0.3410 C.3   1 <1>   0.0400 
 18 C        3.5310     1.8220    -0.7580 C.ar  1 <1>  -0.1440 
 19 O        4.1100    -0.1990     0.3310 O.3   1 <1>  -0.3630 
 20 O        1.0160    -3.0700    -0.5440 O.co2 1 <1>  -0.9000 
 21 O       -0.5840    -4.4050     0.0400 O.co2 1 <1>  -0.9000 
 22 O       -2.5950    -3.3500     1.4310 O.3   1 <1>  -0.6800 
 23 C        4.9510     1.9660    -1.2840 C.3   1 <1>  -0.0970 
 24 C        3.7170    -1.5570     0.2250 C.3   1 <1>   0.0400 
 25 H       -1.1500    -1.3080    -1.6400 H     1 <1>   0.0800 
 26 H        0.2650    -0.7310    -0.8550 H     1 <1>   0.0800 
 27 H       -3.4300     0.9160     0.2440 H     1 <1>   0.0800 
 28 H       -3.3940    -0.2520    -1.0400 H     1 <1>   0.0800 
 29 H        1.6320    -0.1790     1.1860 H     1 <1>   0.1500 
 30 H       -0.5330    -1.7560     1.2790 H     1 <1>   0.0800 
 31 H       -4.2410    -1.3450     0.9350 H     1 <1>   0.0800 
 32 H       -2.8800    -0.8150     1.8840 H     1 <1>   0.0800 
 33 H        2.7980     3.5770    -1.7370 H     1 <1>   0.1500 
 34 H       -2.8080    -2.7560    -0.4490 H     1 <1>   0.0800 
 35 H       -0.4640     5.3470    -0.7380 H     1 <1>   0.0800 
 36 H        1.2780     5.2450    -0.4780 H     1 <1>   0.0800 
 37 H        0.1590     4.5510     0.7030 H     1 <1>   0.0800 
 38 H       -1.9540    -4.0710     1.1710 H     1 <1>   0.4000 
 39 H        5.0670     2.8710    -1.8510 H     1 <1>   0.0800 
 40 H        5.1890     1.1290    -1.9150 H     1 <1>   0.0800 
 41 H        5.6420     1.9820    -0.4600 H     1 <1>   0.0800 
 42 H        4.6000    -2.1680     0.2380 H     1 <1>   0.0800 
 43 H        3.1880    -1.7020    -0.7020 H     1 <1>   0.0800 
 44 H        3.0840    -1.8190     1.0530 H     1 <1>   0.0800 
@<TRIPOS>BOND
  1   1   2  2   
  2   1   3  2   
  3   1   4  am  
  4   1   5  1   
  5   4   6  1   
  6   4   7  1   
  7   5   8  ar  
  8   5   9  ar  
  9   6  10  1   
 10   6  25  1   
 11   6  26  1   
 12   7  11  1   
 13   7  27  1   
 14   7  28  1   
 15   8  12  1   
 16   8  13  ar  
 17   9  14  ar  
 18   9  29  1   
 19  10  15  1   
 20  10  16  1   
 21  10  30  1   
 22  11  16  1   
 23  11  31  1   
 24  11  32  1   
 25  12  17  1   
 26  13  18  ar  
 27  13  33  1   
 28  14  18  ar  
 29  14  19  1   
 30  15  20  ar  
 31  15  21  ar  
 32  16  22  1   
 33  16  34  1   
 34  17  35  1   
 35  17  36  1   
 36  17  37  1   
 37  18  23  1   
 38  19  24  1   
 39  22  38  1   
 40  23  39  1   
 41  23  40  1   
 42  23  41  1   
 43  24  42  1   
 44  24  43  1   
 45  24  44  1   
@<TRIPOS>SUBSTRUCTURE
  1 ****   5 GROUP 4 **** **** 0

# MOE 2024.06 (io_trps.svl 2023.06)
