@<TRIPOS>MOLECULE
NONAME
35 37 1 0 0 
SMALL
USER_CHARGES


@<TRIPOS>ATOM
  1 O       -3.2160     1.1430    -1.8620 O.2   1 <1>  -0.5700 
  2 C       -2.6470     1.2330    -0.7890 C.2   1 <1>   0.7160 
  3 N       -2.2510     0.0690    -0.1880 N.am  1 <1>  -0.7300 
  4 C       -2.4010     2.5150    -0.1430 C.2   1 <1>   0.2030 
  5 C       -2.5220    -1.2860    -0.7180 C.3   1 <1>   0.2200 
  6 N       -3.0220     3.6360    -0.3640 N.2   1 <1>  -0.4100 
  7 C       -1.4460     2.7430     0.8410 C.2   1 <1>  -0.1500 
  8 C       -3.8500    -1.7780    -0.1610 C.3   1 <1>  -0.0800 
  9 C       -1.5460    -2.2750    -0.0960 C.3   1 <1>   0.1200 
 10 O       -2.5480     4.5870     0.4030 O.3   1 <1>  -0.0190 
 11 C       -1.5980     4.0390     1.1250 C.2   1 <1>  -0.0100 
 12 C       -3.4470    -2.4120     1.1790 C.3   1 <1>   0.1200 
 13 C       -4.5200    -2.7880    -1.1100 C.3   1 <1>  -0.0160 
 14 O       -2.0520    -2.5320     1.1750 O.3   1 <1>  -0.5600 
 15 C       -5.8700    -3.2360    -0.5730 C.ar  1 <1>  -0.1440 
 16 C       -6.9700    -2.4020    -0.6040 C.ar  1 <1>  -0.1500 
 17 C       -6.0700    -4.4890    -0.0290 C.ar  1 <1>  -0.1500 
 18 C       -8.1800    -2.8450    -0.0980 C.ar  1 <1>   0.1600 
 19 C       -7.3230    -4.8340     0.4500 C.ar  1 <1>   0.1600 
 20 N       -8.3830    -4.0410     0.4310 N.ar  1 <1>  -0.6200 
 21 H       -1.9500     0.0750     0.7880 H     1 <1>   0.3700 
 22 H       -2.4800    -1.2850    -1.7940 H     1 <1>   0.0800 
 23 H       -0.7570     2.0290     1.2520 H     1 <1>   0.1500 
 24 H       -4.5300    -0.9580    -0.0050 H     1 <1>   0.0800 
 25 H       -0.5460    -1.8850    -0.0190 H     1 <1>   0.0800 
 26 H       -1.5370    -3.2020    -0.6430 H     1 <1>   0.0800 
 27 H       -1.0720     4.6600     1.8280 H     1 <1>   0.1500 
 28 H       -3.8740    -3.3890     1.3220 H     1 <1>   0.0800 
 29 H       -3.7200    -1.7790     2.0050 H     1 <1>   0.0800 
 30 H       -3.8840    -3.6430    -1.2570 H     1 <1>   0.0800 
 31 H       -4.6710    -2.3260    -2.0710 H     1 <1>   0.0800 
 32 H       -6.8980    -1.4120    -1.0160 H     1 <1>   0.1500 
 33 H       -5.2670    -5.2000     0.0280 H     1 <1>   0.1500 
 34 H       -9.0260    -2.1800    -0.1290 H     1 <1>   0.1500 
 35 H       -7.4620    -5.8150     0.8710 H     1 <1>   0.1500 
@<TRIPOS>BOND
  1   1   2  2   
  2   2   3  am  
  3   2   4  1   
  4   3   5  1   
  5   3  21  1   
  6   4   6  2   
  7   4   7  1   
  8   5   8  1   
  9   5   9  1   
 10   5  22  1   
 11   6  10  1   
 12   7  11  2   
 13   7  23  1   
 14   8  12  1   
 15   8  13  1   
 16   8  24  1   
 17   9  14  1   
 18   9  25  1   
 19   9  26  1   
 20  10  11  1   
 21  11  27  1   
 22  12  14  1   
 23  12  28  1   
 24  12  29  1   
 25  13  15  1   
 26  13  30  1   
 27  13  31  1   
 28  15  16  ar  
 29  15  17  ar  
 30  16  18  ar  
 31  16  32  1   
 32  17  19  ar  
 33  17  33  1   
 34  18  20  ar  
 35  18  34  1   
 36  19  20  ar  
 37  19  35  1   
@<TRIPOS>SUBSTRUCTURE
  1 ****   8 GROUP 4 **** **** 0

# MOE 2024.06 (io_trps.svl 2023.06)
