@<TRIPOS>MOLECULE
NONAME
51 54 1 0 0 
SMALL
USER_CHARGES


@<TRIPOS>ATOM
  1 O       -2.5360    -0.0960    -2.0630 O.2   1 <1>  -0.5700 
  2 C       -2.1560     0.5300    -1.0860 C.2   1 <1>   0.5440 
  3 N       -2.3960    -0.0070     0.1570 N.am  1 <1>  -0.6600 
  4 C       -1.5080     1.8120    -1.2710 C.ar  1 <1>   0.0860 
  5 C       -1.9050    -1.3910     0.4250 C.3   1 <1>   0.1400 
  6 C       -2.5700     0.8090     1.3920 C.3   1 <1>   0.1400 
  7 C       -0.2900     2.1410    -0.6480 C.ar  1 <1>   0.0410 
  8 C       -2.1090     2.7630    -2.0980 C.ar  1 <1>  -0.1500 
  9 C       -3.0150    -2.3850     0.8060 C.3   1 <1>   0.1400 
 10 C       -3.9350     0.5610     2.0480 C.3   1 <1>  -0.1600 
 11 C        0.4050     1.2080     0.2000 C.2   1 <1>   0.6970 
 12 C        0.2480     3.4130    -0.8510 C.ar  1 <1>  -0.1500 
 13 C       -1.5550     4.0130    -2.2950 C.ar  1 <1>  -0.1500 
 14 N       -4.3020    -1.7390     1.2180 N.am  1 <1>  -0.6600 
 15 C       -4.2050    -0.9000     2.4380 C.3   1 <1>   0.1400 
 16 N        0.8890     0.0640    -0.1890 N.2   1 <1>  -0.6190 
 17 N        0.6060     1.4220     1.4730 N.2   1 <1>  -0.6190 
 18 C       -0.3700     4.3420    -1.6630 C.ar  1 <1>  -0.1500 
 19 C       -5.4080    -1.6180     0.4120 C.2   1 <1>   0.5690 
 20 N        1.3780    -0.4360     0.8860 N.2   1 <1>  -0.2500 
 21 N        1.2120     0.3660     1.8930 N.2   1 <1>  -0.2500 
 22 O       -6.4840    -1.3100     0.8770 O.2   1 <1>  -0.5700 
 23 C       -5.3160    -1.8270    -1.1050 C.3   1 <1>  -0.0190 
 24 C       -5.8950    -0.6380    -1.8870 C.3   1 <1>  -0.1600 
 25 C       -6.0070    -3.1180    -1.5680 C.3   1 <1>  -0.1600 
 26 C       -5.8080    -0.9090    -3.3910 C.3   1 <1>   0.1200 
 27 C       -5.9340    -3.2400    -3.0950 C.3   1 <1>   0.1200 
 28 O       -6.4770    -2.0990    -3.6860 O.3   1 <1>  -0.5600 
 29 H       -1.1790    -1.3530     1.2210 H     1 <1>   0.0800 
 30 H       -1.3770    -1.7620    -0.4370 H     1 <1>   0.0800 
 31 H       -2.4830     1.8550     1.1580 H     1 <1>   0.0800 
 32 H       -1.7870     0.5700     2.0920 H     1 <1>   0.0800 
 33 H       -3.0290     2.5040    -2.5920 H     1 <1>   0.1500 
 34 H       -2.6590    -2.9970     1.6160 H     1 <1>   0.0800 
 35 H       -3.1830    -3.0530    -0.0180 H     1 <1>   0.0800 
 36 H       -4.7140     0.9120     1.3960 H     1 <1>   0.0800 
 37 H       -3.9810     1.1560     2.9410 H     1 <1>   0.0800 
 38 H        1.1730     3.6580    -0.3540 H     1 <1>   0.1500 
 39 H       -2.0420     4.7270    -2.9360 H     1 <1>   0.1500 
 40 H       -5.1340    -0.9610     2.9800 H     1 <1>   0.0800 
 41 H       -3.4200    -1.2660     3.0770 H     1 <1>   0.0800 
 42 H        0.0690     5.3140    -1.8050 H     1 <1>   0.1500 
 43 H       -4.2850    -1.8850    -1.3910 H     1 <1>   0.0800 
 44 H       -5.3390     0.2510    -1.6490 H     1 <1>   0.0800 
 45 H       -6.9230    -0.4740    -1.6150 H     1 <1>   0.0800 
 46 H       -7.0400    -3.1080    -1.2650 H     1 <1>   0.0800 
 47 H       -5.5340    -3.9690    -1.1130 H     1 <1>   0.0800 
 48 H       -4.7820    -0.9960    -3.7090 H     1 <1>   0.0800 
 49 H       -6.2820    -0.1180    -3.9450 H     1 <1>   0.0800 
 50 H       -6.5040    -4.0880    -3.4340 H     1 <1>   0.0800 
 51 H       -4.9150    -3.3450    -3.4290 H     1 <1>   0.0800 
@<TRIPOS>BOND
  1   1   2  2   
  2   2   3  am  
  3   2   4  1   
  4   3   5  1   
  5   3   6  1   
  6   4   7  ar  
  7   4   8  ar  
  8   5   9  1   
  9   5  29  1   
 10   5  30  1   
 11   6  10  1   
 12   6  31  1   
 13   6  32  1   
 14   7  11  1   
 15   7  12  ar  
 16   8  13  ar  
 17   8  33  1   
 18   9  14  1   
 19   9  34  1   
 20   9  35  1   
 21  10  15  1   
 22  10  36  1   
 23  10  37  1   
 24  11  16  2   
 25  11  17  1   
 26  12  18  ar  
 27  12  38  1   
 28  13  18  ar  
 29  13  39  1   
 30  14  15  1   
 31  14  19  am  
 32  15  40  1   
 33  15  41  1   
 34  16  20  1   
 35  17  21  2   
 36  18  42  1   
 37  19  22  2   
 38  19  23  1   
 39  20  21  1   
 40  23  24  1   
 41  23  25  1   
 42  23  43  1   
 43  24  26  1   
 44  24  44  1   
 45  24  45  1   
 46  25  27  1   
 47  25  46  1   
 48  25  47  1   
 49  26  28  1   
 50  26  48  1   
 51  26  49  1   
 52  27  28  1   
 53  27  50  1   
 54  27  51  1   
@<TRIPOS>SUBSTRUCTURE
  1 ****   3 GROUP 4 **** **** 0

# MOE 2024.06 (io_trps.svl 2023.06)
