@<TRIPOS>MOLECULE
NONAME
48 51 1 0 0 
SMALL
USER_CHARGES


@<TRIPOS>ATOM
  1 O       -3.0390     0.2570    -2.5990 O.2   1 <1>  -0.5700 
  2 C       -2.8790    -0.3870    -1.5990 C.2   1 <1>   0.5690 
  3 N       -2.5350     0.2190    -0.4490 N.am  1 <1>  -0.7300 
  4 C       -3.0980    -1.8750    -1.6260 C.3   1 <1>  -0.0190 
  5 C       -2.3040    -0.4590     0.8470 C.3   1 <1>   0.2200 
  6 C       -1.8070    -2.6470    -1.2720 C.3   1 <1>   0.1200 
  7 C       -4.3470    -2.2010    -0.7960 C.3   1 <1>   0.3430 
  8 C       -1.1480    -1.4820     0.7200 C.3   1 <1>   0.1200 
  9 C       -3.6270    -1.0740     1.3850 C.3   1 <1>   0.3430 
 10 O       -1.5390    -2.6840     0.1050 O.3   1 <1>  -0.5600 
 11 N       -4.0880    -2.3210     0.6790 N.4   1 <1>  -0.9590 
 12 C       -5.2140    -2.9940     1.3780 C.3   1 <1>   0.4860 
 13 C       -5.3260    -4.4090     0.8550 C.ar  1 <1>  -0.1430 
 14 C       -6.3300    -4.7250    -0.0590 C.ar  1 <1>   0.0830 
 15 C       -4.4280    -5.3810     1.2750 C.ar  1 <1>  -0.1500 
 16 O       -7.1600    -3.7190    -0.4380 O.3   1 <1>  -0.3630 
 17 C       -6.4350    -6.0250    -0.5520 C.ar  1 <1>  -0.1500 
 18 C       -4.5450    -6.6620     0.7730 C.ar  1 <1>  -0.1430 
 19 C       -8.3130    -3.9800    -1.2140 C.3   1 <1>   0.0400 
 20 C       -5.5320    -6.9780    -0.1240 C.ar  1 <1>  -0.1430 
 21 C       -3.6850    -7.8620     1.0890 C.3   1 <1>  -0.0170 
 22 C       -5.4640    -8.4310    -0.5260 C.3   1 <1>  -0.0170 
 23 C       -4.4760    -9.0360     0.4860 C.3   1 <1>  -0.1600 
 24 H       -2.3530     1.2270    -0.5100 H     1 <1>   0.3700 
 25 H       -3.3330    -2.1170    -2.6470 H     1 <1>   0.0800 
 26 H       -1.9900     0.3010     1.5420 H     1 <1>   0.0800 
 27 H       -0.9550    -2.2240    -1.7800 H     1 <1>   0.0800 
 28 H       -1.9070    -3.6700    -1.5940 H     1 <1>   0.0800 
 29 H       -4.7310    -3.1410    -1.1570 H     1 <1>   0.0800 
 30 H       -5.1040    -1.4560    -0.9780 H     1 <1>   0.0800 
 31 H       -0.7980    -1.7430     1.7040 H     1 <1>   0.0800 
 32 H       -0.3180    -1.0620     0.1760 H     1 <1>   0.0800 
 33 H       -4.3990    -0.3230     1.3370 H     1 <1>   0.0800 
 34 H       -3.4730    -1.3120     2.4240 H     1 <1>   0.0800 
 35 H       -3.2780    -2.9710     0.7230 H     1 <1>   0.4500 
 36 H       -5.0270    -3.0280     2.4390 H     1 <1>   0.0800 
 37 H       -6.1340    -2.4590     1.2090 H     1 <1>   0.0800 
 38 H       -3.6470    -5.1620     1.9820 H     1 <1>   0.1500 
 39 H       -7.1940    -6.3100    -1.2550 H     1 <1>   0.1500 
 40 H       -8.8580    -3.0600    -1.3290 H     1 <1>   0.0800 
 41 H       -8.9240    -4.7030    -0.7020 H     1 <1>   0.0800 
 42 H       -8.0130    -4.3480    -2.1790 H     1 <1>   0.0800 
 43 H       -2.7300    -7.7600     0.6050 H     1 <1>   0.0800 
 44 H       -3.5470    -7.9850     2.1490 H     1 <1>   0.0800 
 45 H       -6.4270    -8.9060    -0.4670 H     1 <1>   0.0800 
 46 H       -5.0780    -8.5110    -1.5270 H     1 <1>   0.0800 
 47 H       -5.0350    -9.5150     1.2710 H     1 <1>   0.0800 
 48 H       -3.8270    -9.7610     0.0270 H     1 <1>   0.0800 
@<TRIPOS>BOND
  1   1   2  2   
  2   2   3  am  
  3   2   4  1   
  4   3   5  1   
  5   3  24  1   
  6   4   6  1   
  7   4   7  1   
  8   4  25  1   
  9   5   8  1   
 10   5   9  1   
 11   5  26  1   
 12   6  10  1   
 13   6  27  1   
 14   6  28  1   
 15   7  11  1   
 16   7  29  1   
 17   7  30  1   
 18   8  10  1   
 19   8  31  1   
 20   8  32  1   
 21   9  11  1   
 22   9  33  1   
 23   9  34  1   
 24  11  12  1   
 25  11  35  1   
 26  12  13  1   
 27  12  36  1   
 28  12  37  1   
 29  13  14  ar  
 30  13  15  ar  
 31  14  16  1   
 32  14  17  ar  
 33  15  18  ar  
 34  15  38  1   
 35  16  19  1   
 36  17  20  ar  
 37  17  39  1   
 38  18  20  ar  
 39  18  21  1   
 40  19  40  1   
 41  19  41  1   
 42  19  42  1   
 43  20  22  1   
 44  21  23  1   
 45  21  43  1   
 46  21  44  1   
 47  22  23  1   
 48  22  45  1   
 49  22  46  1   
 50  23  47  1   
 51  23  48  1   
@<TRIPOS>SUBSTRUCTURE
  1 ****  11 GROUP 4 **** **** 0

# MOE 2024.06 (io_trps.svl 2023.06)
