@<TRIPOS>MOLECULE
NONAME
43 45 1 0 0 
SMALL
USER_CHARGES


@<TRIPOS>ATOM
  1 O        0.1300     1.3800    -1.8270 O.2   1 <1>  -0.5700 
  2 C        0.5040     0.8840    -0.7930 C.2   1 <1>   0.5690 
  3 N        1.8160     1.0210    -0.3840 N.am  1 <1>  -0.6600 
  4 C       -0.5310     0.0920    -0.0220 C.3   1 <1>   0.1570 
  5 C        2.3780     0.3890     0.8780 C.3   1 <1>   0.2200 
  6 C        2.7550     1.7950    -1.2670 C.3   1 <1>   0.1400 
  7 N       -0.2740    -1.3390    -0.2170 N.pl3 1 <1>   0.3140 
  8 C        3.2580     1.3590     1.6850 C.3   1 <1>   0.1200 
  9 C        3.1660    -0.9060     0.5570 C.3   1 <1>   0.3430 
 10 C        4.2450     1.4250    -1.1390 C.3   1 <1>  -0.0800 
 11 N        0.3260    -2.0960     0.7240 N.2   1 <1>  -0.7070 
 12 C       -0.5840    -2.0750    -1.3020 C.2   1 <1>  -0.3020 
 13 O        4.5850     1.3010     1.2520 O.3   1 <1>  -0.5600 
 14 N        3.4980    -1.0100    -0.9040 N.4   1 <1>  -0.9590 
 15 C        4.8860     2.0380     0.1170 C.3   1 <1>   0.1200 
 16 C        4.5860    -0.0710    -1.3200 C.3   1 <1>   0.3430 
 17 C        0.3410    -3.2950     0.2310 C.2   1 <1>   0.1080 
 18 C       -0.2050    -3.3430    -1.0450 C.2   1 <1>  -0.1500 
 19 C        3.7670    -2.4210    -1.2940 C.3   1 <1>   0.2630 
 20 C        0.8820    -4.4850     0.9920 C.3   1 <1>  -0.0590 
 21 H       -1.5110     0.3190    -0.3970 H     1 <1>   0.0800 
 22 H       -0.5020     0.3270     1.0240 H     1 <1>   0.0800 
 23 H        1.5690     0.1230     1.5320 H     1 <1>   0.0800 
 24 H        2.4690     1.6480    -2.2960 H     1 <1>   0.0800 
 25 H        2.6270     2.8440    -1.0600 H     1 <1>   0.0800 
 26 H        3.2630     1.0500     2.7160 H     1 <1>   0.0800 
 27 H        2.8920     2.3710     1.6390 H     1 <1>   0.0800 
 28 H        2.5680    -1.7500     0.8490 H     1 <1>   0.0800 
 29 H        4.0660    -0.9420     1.1470 H     1 <1>   0.0800 
 30 H        4.7330     1.9320    -1.9520 H     1 <1>   0.0800 
 31 H       -1.0600    -1.6650    -2.1770 H     1 <1>   0.1500 
 32 H        2.6340    -0.6890    -1.3750 H     1 <1>   0.4500 
 33 H        4.5740     3.0590     0.2670 H     1 <1>   0.0800 
 34 H        5.9590     2.0310     0.0190 H     1 <1>   0.0800 
 35 H        5.4870    -0.2950    -0.7720 H     1 <1>   0.0800 
 36 H        4.7930    -0.2370    -2.3650 H     1 <1>   0.0800 
 37 H       -0.3060    -4.2160    -1.6670 H     1 <1>   0.1500 
 38 H        4.6440    -2.7890    -0.7860 H     1 <1>   0.0800 
 39 H        3.9260    -2.4910    -2.3580 H     1 <1>   0.0800 
 40 H        2.9260    -3.0420    -1.0310 H     1 <1>   0.0800 
 41 H        0.8500    -5.3680     0.3810 H     1 <1>   0.0800 
 42 H        0.2820    -4.6480     1.8690 H     1 <1>   0.0800 
 43 H        1.8950    -4.3000     1.2950 H     1 <1>   0.0800 
@<TRIPOS>BOND
  1   1   2  2   
  2   2   3  am  
  3   2   4  1   
  4   3   5  1   
  5   3   6  1   
  6   4   7  1   
  7   4  21  1   
  8   4  22  1   
  9   5   8  1   
 10   5   9  1   
 11   5  23  1   
 12   6  10  1   
 13   6  24  1   
 14   6  25  1   
 15   7  11  1   
 16   7  12  1   
 17   8  13  1   
 18   8  26  1   
 19   8  27  1   
 20   9  14  1   
 21   9  28  1   
 22   9  29  1   
 23  10  15  1   
 24  10  16  1   
 25  10  30  1   
 26  11  17  2   
 27  12  18  2   
 28  12  31  1   
 29  13  15  1   
 30  14  16  1   
 31  14  19  1   
 32  14  32  1   
 33  15  33  1   
 34  15  34  1   
 35  16  35  1   
 36  16  36  1   
 37  17  18  1   
 38  17  20  1   
 39  18  37  1   
 40  19  38  1   
 41  19  39  1   
 42  19  40  1   
 43  20  41  1   
 44  20  42  1   
 45  20  43  1   
@<TRIPOS>SUBSTRUCTURE
  1 ****   5 GROUP 4 **** **** 0

# MOE 2024.06 (io_trps.svl 2023.06)
