@<TRIPOS>MOLECULE
NONAME
46 48 1 0 0 
SMALL
USER_CHARGES


@<TRIPOS>ATOM
  1 CL      -1.8500    -1.7560     2.6080 Cl    1 <1>  -0.1770 
  2 C       -2.8630    -1.7940     1.1880 C.ar  1 <1>   0.1770 
  3 C       -3.8520    -0.8400     1.0360 C.ar  1 <1>  -0.1500 
  4 C       -2.6590    -2.7760     0.2370 C.ar  1 <1>  -0.1500 
  5 C       -4.6580    -0.8610    -0.0930 C.ar  1 <1>  -0.1440 
  6 C       -3.4650    -2.8020    -0.8880 C.ar  1 <1>  -0.1500 
  7 C       -4.4590    -1.8490    -1.0490 C.ar  1 <1>  -0.1500 
  8 C       -5.7480     0.1920    -0.2800 C.3   1 <1>   0.0450 
  9 C       -7.0650    -0.0990     0.4370 C.2   1 <1>   0.5690 
 10 O       -7.1330    -1.0690     1.1570 O.2   1 <1>  -0.5700 
 11 N       -8.1460     0.7330     0.2550 N.am  1 <1>  -0.6600 
 12 C       -9.4690     0.4320     0.8880 C.3   1 <1>   0.1400 
 13 C       -8.1860     1.9420    -0.6120 C.3   1 <1>   0.1400 
 14 C      -10.5490     0.1800    -0.1950 C.3   1 <1>   0.0000 
 15 C       -9.2160     1.7320    -1.7280 C.3   1 <1>  -0.1600 
 16 C      -11.9230    -0.0960     0.4410 C.3   1 <1>   0.2000 
 17 C      -10.6030     1.3840    -1.1610 C.3   1 <1>  -0.1600 
 18 C      -10.2750    -1.1470    -0.9260 C.3   1 <1>  -0.1600 
 19 O      -12.1620     0.7480     1.5280 O.3   1 <1>  -0.5600 
 20 C      -11.8960    -1.5670     0.8660 C.3   1 <1>  -0.1600 
 21 C      -10.8290    -2.2410    -0.0080 C.3   1 <1>  -0.1600 
 22 C      -13.4810     0.7740     1.9730 C.3   1 <1>   0.0400 
 23 H       -3.9900    -0.0970     1.8000 H     1 <1>   0.1500 
 24 H       -1.8830    -3.5060     0.3800 H     1 <1>   0.1500 
 25 H       -3.3230    -3.5630    -1.6350 H     1 <1>   0.1500 
 26 H       -5.0840    -1.8860    -1.9240 H     1 <1>   0.1500 
 27 H       -5.9520     0.2910    -1.3290 H     1 <1>   0.0800 
 28 H       -5.3790     1.1360     0.0740 H     1 <1>   0.0800 
 29 H       -9.3950    -0.4190     1.5420 H     1 <1>   0.0800 
 30 H       -9.7530     1.2750     1.4940 H     1 <1>   0.0800 
 31 H       -8.4750     2.7880    -0.0100 H     1 <1>   0.0800 
 32 H       -7.2250     2.1570    -1.0400 H     1 <1>   0.0800 
 33 H       -9.2860     2.6300    -2.3170 H     1 <1>   0.0800 
 34 H       -8.8750     0.9440    -2.3760 H     1 <1>   0.0800 
 35 H      -12.6910     0.0580    -0.2990 H     1 <1>   0.0800 
 36 H      -11.2850     1.1840    -1.9690 H     1 <1>   0.0800 
 37 H      -10.9800     2.2370    -0.6220 H     1 <1>   0.0800 
 38 H      -10.8180    -1.1680    -1.8550 H     1 <1>   0.0800 
 39 H       -9.2320    -1.3030    -1.1370 H     1 <1>   0.0800 
 40 H      -11.6140    -1.6510     1.9020 H     1 <1>   0.0800 
 41 H      -12.8580    -2.0220     0.7140 H     1 <1>   0.0800 
 42 H      -10.0380    -2.6210     0.6180 H     1 <1>   0.0800 
 43 H      -11.2380    -3.0560    -0.5800 H     1 <1>   0.0800 
 44 H      -13.5430     1.4700     2.7900 H     1 <1>   0.0800 
 45 H      -13.7660    -0.2060     2.3120 H     1 <1>   0.0800 
 46 H      -14.1210     1.1000     1.1710 H     1 <1>   0.0800 
@<TRIPOS>BOND
  1   1   2  1   
  2   2   3  ar  
  3   2   4  ar  
  4   3   5  ar  
  5   3  23  1   
  6   4   6  ar  
  7   4  24  1   
  8   5   7  ar  
  9   5   8  1   
 10   6   7  ar  
 11   6  25  1   
 12   7  26  1   
 13   8   9  1   
 14   8  27  1   
 15   8  28  1   
 16   9  10  2   
 17   9  11  am  
 18  11  12  1   
 19  11  13  1   
 20  12  14  1   
 21  12  29  1   
 22  12  30  1   
 23  13  15  1   
 24  13  31  1   
 25  13  32  1   
 26  14  16  1   
 27  14  17  1   
 28  14  18  1   
 29  15  17  1   
 30  15  33  1   
 31  15  34  1   
 32  16  19  1   
 33  16  20  1   
 34  16  35  1   
 35  17  36  1   
 36  17  37  1   
 37  18  21  1   
 38  18  38  1   
 39  18  39  1   
 40  19  22  1   
 41  20  21  1   
 42  20  40  1   
 43  20  41  1   
 44  21  42  1   
 45  21  43  1   
 46  22  44  1   
 47  22  45  1   
 48  22  46  1   
@<TRIPOS>SUBSTRUCTURE
  1 ****   9 GROUP 4 **** **** 0

# MOE 2024.06 (io_trps.svl 2023.06)
