@<TRIPOS>MOLECULE
NONAME
53 56 1 0 0 
SMALL
USER_CHARGES


@<TRIPOS>ATOM
  1 O        0.8780    -0.7920    -1.5320 O.3   1 <1>  -0.0190 
  2 N        0.6000    -2.0570    -1.6170 N.2   1 <1>  -0.4100 
  3 C        1.2040    -0.6230    -0.2740 C.2   1 <1>   0.2980 
  4 C        0.7660    -2.5570    -0.4550 C.2   1 <1>   0.3350 
  5 N        1.1690    -1.6700     0.4470 N.2   1 <1>  -0.5650 
  6 C        1.5960     0.7630     0.2070 C.3   1 <1>   0.0200 
  7 C        0.5410    -4.0300    -0.1060 C.3   1 <1>   0.2910 
  8 C        0.3880     1.6050     0.6640 C.3   1 <1>  -0.0800 
  9 N       -0.7820    -4.3070     0.5080 N.3   1 <1>  -0.8100 
 10 C       -0.5980     1.8820    -0.4810 C.3   1 <1>  -0.2400 
 11 C        0.8650     2.9350     1.2620 C.3   1 <1>  -0.2400 
 12 C       -1.9120    -3.8340    -0.3040 C.3   1 <1>   0.1100 
 13 C       -1.0100    -5.7360     0.7790 C.3   1 <1>   0.1100 
 14 C       -3.0940    -4.6670     0.1760 C.3   1 <1>   0.2000 
 15 C       -2.4710    -6.0420     0.4010 C.3   1 <1>  -0.0800 
 16 O       -3.4840    -4.1710     1.4040 O.3   1 <1>  -0.6800 
 17 C       -2.5830    -6.9080    -0.8720 C.3   1 <1>  -0.0170 
 18 C       -1.9220    -8.2740    -0.7070 C.ar  1 <1>  -0.1430 
 19 C       -2.4940    -9.3110     0.0690 C.ar  1 <1>   0.0000 
 20 C       -0.7310    -8.5330    -1.3220 C.ar  1 <1>  -0.1500 
 21 C       -1.7730   -10.5250     0.1780 C.ar  1 <1>   0.3100 
 22 C       -3.7380    -9.2180     0.7360 C.ar  1 <1>  -0.1500 
 23 C       -0.1060    -9.7740    -1.1570 C.ar  1 <1>   0.1600 
 24 N       -0.5830   -10.7390    -0.4380 N.ar  1 <1>  -0.6200 
 25 C       -2.3060   -11.5650     0.9560 C.ar  1 <1>  -0.1500 
 26 C       -4.2310   -10.2520     1.4840 C.ar  1 <1>  -0.1500 
 27 C       -3.5070   -11.4410     1.6000 C.ar  1 <1>  -0.1500 
 28 H        2.2710     0.6430     1.0340 H     1 <1>   0.0800 
 29 H        2.1270     1.2700    -0.5790 H     1 <1>   0.0800 
 30 H        1.3130    -4.3350     0.5770 H     1 <1>   0.0800 
 31 H        0.6440    -4.6070    -1.0070 H     1 <1>   0.0800 
 32 H       -0.1310     1.0560     1.4330 H     1 <1>   0.0800 
 33 H       -0.1050     2.3810    -1.2970 H     1 <1>   0.0800 
 34 H       -1.4030     2.5060    -0.1350 H     1 <1>   0.0800 
 35 H       -1.0270     0.9650    -0.8440 H     1 <1>   0.0800 
 36 H        1.3870     3.5200     0.5250 H     1 <1>   0.0800 
 37 H        1.5250     2.7580     2.0930 H     1 <1>   0.0800 
 38 H        0.0250     3.5050     1.6190 H     1 <1>   0.0800 
 39 H       -2.0820    -2.7780    -0.1680 H     1 <1>   0.0800 
 40 H       -1.7300    -4.0310    -1.3470 H     1 <1>   0.0800 
 41 H       -0.3230    -6.3510     0.2250 H     1 <1>   0.0800 
 42 H       -0.8550    -5.9190     1.8290 H     1 <1>   0.0800 
 43 H       -3.9400    -4.6580    -0.4890 H     1 <1>   0.0800 
 44 H       -2.9610    -6.5480     1.2130 H     1 <1>   0.0800 
 45 H       -2.6580    -3.9590     1.8910 H     1 <1>   0.4000 
 46 H       -2.1250    -6.3900    -1.6960 H     1 <1>   0.0800 
 47 H       -3.6190    -7.0460    -1.1290 H     1 <1>   0.0800 
 48 H       -0.2420    -7.8010    -1.9380 H     1 <1>   0.1500 
 49 H       -4.3160    -8.3170     0.6560 H     1 <1>   0.1500 
 50 H        0.8340    -9.9350    -1.6580 H     1 <1>   0.1500 
 51 H       -1.7340   -12.4710     1.0270 H     1 <1>   0.1500 
 52 H       -5.1780   -10.1660     1.9900 H     1 <1>   0.1500 
 53 H       -3.9040   -12.2460     2.1930 H     1 <1>   0.1500 
@<TRIPOS>BOND
  1   1   2  1   
  2   1   3  1   
  3   2   4  2   
  4   3   5  2   
  5   3   6  1   
  6   4   5  1   
  7   4   7  1   
  8   6   8  1   
  9   6  28  1   
 10   6  29  1   
 11   7   9  1   
 12   7  30  1   
 13   7  31  1   
 14   8  10  1   
 15   8  11  1   
 16   8  32  1   
 17   9  12  1   
 18   9  13  1   
 19  10  33  1   
 20  10  34  1   
 21  10  35  1   
 22  11  36  1   
 23  11  37  1   
 24  11  38  1   
 25  12  14  1   
 26  12  39  1   
 27  12  40  1   
 28  13  15  1   
 29  13  41  1   
 30  13  42  1   
 31  14  15  1   
 32  14  16  1   
 33  14  43  1   
 34  15  17  1   
 35  15  44  1   
 36  16  45  1   
 37  17  18  1   
 38  17  46  1   
 39  17  47  1   
 40  18  19  ar  
 41  18  20  ar  
 42  19  21  ar  
 43  19  22  ar  
 44  20  23  ar  
 45  20  48  1   
 46  21  24  ar  
 47  21  25  ar  
 48  22  26  ar  
 49  22  49  1   
 50  23  24  ar  
 51  23  50  1   
 52  25  27  ar  
 53  25  51  1   
 54  26  27  ar  
 55  26  52  1   
 56  27  53  1   
@<TRIPOS>SUBSTRUCTURE
  1 ****  13 GROUP 4 **** **** 0

# MOE 2024.06 (io_trps.svl 2023.06)
