@<TRIPOS>MOLECULE
NONAME
52 54 1 0 0 
SMALL
USER_CHARGES


@<TRIPOS>ATOM
  1 O       -1.0060    -2.2990    -1.2430 O.2   1 <1>  -0.5700 
  2 C        0.1570    -2.1110    -0.9730 C.2   1 <1>   0.5690 
  3 N        0.6820    -2.4380     0.2520 N.am  1 <1>  -0.6600 
  4 C        1.0400    -1.5200    -2.0600 C.3   1 <1>  -0.0990 
  5 C        2.1000    -2.2090     0.6420 C.3   1 <1>   0.1400 
  6 C       -0.1860    -3.0020     1.3140 C.3   1 <1>   0.1400 
  7 C        2.3760    -0.9710    -1.5410 C.3   1 <1>  -0.1600 
  8 C        3.0000    -1.9820    -0.5760 C.3   1 <1>  -0.1600 
  9 C       -0.2330    -4.5230     1.1660 C.3   1 <1>  -0.1600 
 10 C       -1.3290    -5.1390     2.0500 C.3   1 <1>  -0.0990 
 11 C       -1.4830    -6.6270     1.7900 C.2   1 <1>   0.5690 
 12 O       -0.8660    -7.3900     2.4940 O.2   1 <1>  -0.5700 
 13 N       -2.2900    -7.0740     0.7810 N.am  1 <1>  -0.6600 
 14 C       -3.0500    -6.2460    -0.1920 C.3   1 <1>   0.1400 
 15 C       -2.4380    -8.5160     0.4760 C.3   1 <1>   0.1400 
 16 C       -3.5280    -7.2350    -1.2550 C.3   1 <1>   0.2000 
 17 C       -3.5580    -8.5960    -0.5630 C.3   1 <1>  -0.0800 
 18 O       -4.7900    -6.9140    -1.7280 O.3   1 <1>  -0.6800 
 19 C       -3.4070    -9.7690    -1.5420 C.3   1 <1>   0.0200 
 20 C       -3.3740   -11.0930    -0.8030 C.2   1 <1>  -0.0400 
 21 O       -4.4150   -11.4850    -0.1180 O.3   1 <1>  -0.0190 
 22 C       -2.4230   -12.0310    -0.6830 C.2   1 <1>  -0.1500 
 23 N       -4.2110   -12.6340     0.4580 N.2   1 <1>  -0.4100 
 24 C       -3.0180   -12.9880     0.1350 C.2   1 <1>   0.1080 
 25 C       -2.3600   -14.2710     0.5900 C.3   1 <1>  -0.0590 
 26 H        1.2280    -2.2970    -2.7770 H     1 <1>   0.0800 
 27 H        0.4970    -0.7380    -2.5590 H     1 <1>   0.0800 
 28 H        2.1410    -1.3440     1.2830 H     1 <1>   0.0800 
 29 H        2.4630    -3.0570     1.1970 H     1 <1>   0.0800 
 30 H        0.1860    -2.7270     2.2860 H     1 <1>   0.0800 
 31 H       -1.1780    -2.5950     1.2100 H     1 <1>   0.0800 
 32 H        3.0390    -0.7820    -2.3670 H     1 <1>   0.0800 
 33 H        2.2060    -0.0410    -1.0250 H     1 <1>   0.0800 
 34 H        3.9590    -1.6250    -0.2440 H     1 <1>   0.0800 
 35 H        3.1580    -2.9210    -1.0790 H     1 <1>   0.0800 
 36 H       -0.4340    -4.7650     0.1380 H     1 <1>   0.0800 
 37 H        0.7200    -4.9460     1.4310 H     1 <1>   0.0800 
 38 H       -2.2690    -4.6500     1.8770 H     1 <1>   0.0800 
 39 H       -1.0760    -4.9990     3.0860 H     1 <1>   0.0800 
 40 H       -3.8860    -5.7900     0.3090 H     1 <1>   0.0800 
 41 H       -2.4240    -5.4910    -0.6330 H     1 <1>   0.0800 
 42 H       -1.5090    -8.8830     0.0750 H     1 <1>   0.0800 
 43 H       -2.6840    -9.0720     1.3660 H     1 <1>   0.0800 
 44 H       -2.8430    -7.2300    -2.0860 H     1 <1>   0.0800 
 45 H       -4.4830    -8.7010    -0.0210 H     1 <1>   0.0800 
 46 H       -5.4450    -6.9510    -1.0040 H     1 <1>   0.4000 
 47 H       -2.5000    -9.6590    -2.1100 H     1 <1>   0.0800 
 48 H       -4.2330    -9.7730    -2.2310 H     1 <1>   0.0800 
 49 H       -1.4330   -12.0710    -1.0960 H     1 <1>   0.1500 
 50 H       -2.0730   -14.8570    -0.2630 H     1 <1>   0.0800 
 51 H       -3.0450   -14.8420     1.1900 H     1 <1>   0.0800 
 52 H       -1.4890   -14.0450     1.1770 H     1 <1>   0.0800 
@<TRIPOS>BOND
  1   1   2  2   
  2   2   3  am  
  3   2   4  1   
  4   3   5  1   
  5   3   6  1   
  6   4   7  1   
  7   4  26  1   
  8   4  27  1   
  9   5   8  1   
 10   5  28  1   
 11   5  29  1   
 12   6   9  1   
 13   6  30  1   
 14   6  31  1   
 15   7   8  1   
 16   7  32  1   
 17   7  33  1   
 18   8  34  1   
 19   8  35  1   
 20   9  10  1   
 21   9  36  1   
 22   9  37  1   
 23  10  11  1   
 24  10  38  1   
 25  10  39  1   
 26  11  12  2   
 27  11  13  am  
 28  13  14  1   
 29  13  15  1   
 30  14  16  1   
 31  14  40  1   
 32  14  41  1   
 33  15  17  1   
 34  15  42  1   
 35  15  43  1   
 36  16  17  1   
 37  16  18  1   
 38  16  44  1   
 39  17  19  1   
 40  17  45  1   
 41  18  46  1   
 42  19  20  1   
 43  19  47  1   
 44  19  48  1   
 45  20  21  1   
 46  20  22  2   
 47  21  23  1   
 48  22  24  1   
 49  22  49  1   
 50  23  24  2   
 51  24  25  1   
 52  25  50  1   
 53  25  51  1   
 54  25  52  1   
@<TRIPOS>SUBSTRUCTURE
  1 ****  13 GROUP 4 **** **** 0

# MOE 2024.06 (io_trps.svl 2023.06)
