@<TRIPOS>MOLECULE
NONAME
54 57 1 0 0 
SMALL
USER_CHARGES


@<TRIPOS>ATOM
  1 O       -0.9350    -0.1040    -1.2240 O.2   1 <1>  -0.5700 
  2 C       -1.8240    -0.8040    -0.7750 C.2   1 <1>   0.5440 
  3 N       -3.0710    -0.2620    -0.6290 N.am  1 <1>  -0.3680 
  4 C       -1.6570    -2.1750    -0.3940 C.ar  1 <1>   0.0860 
  5 N       -4.1720    -0.8990    -0.1480 N.2   1 <1>  -0.5120 
  6 C       -2.7780    -2.8600     0.1090 C.ar  1 <1>   0.0860 
  7 C       -0.4310    -2.8350    -0.5190 C.ar  1 <1>  -0.1500 
  8 C       -4.0410    -2.1510     0.2230 C.2   1 <1>   0.3640 
  9 C       -2.6040    -4.2090     0.4600 C.ar  1 <1>  -0.1500 
 10 C       -0.2940    -4.1570    -0.1630 C.ar  1 <1>  -0.1500 
 11 C       -5.1850    -2.8690     0.7650 C.2   1 <1>   0.6300 
 12 C       -1.3890    -4.8460     0.3290 C.ar  1 <1>  -0.1500 
 13 O       -5.1270    -3.3030     1.9070 O.2   1 <1>  -0.5700 
 14 N       -6.3640    -3.1210     0.0560 N.am  1 <1>  -0.6600 
 15 C       -7.5250    -3.7800     0.7480 C.3   1 <1>   0.1400 
 16 C       -6.6470    -2.5050    -1.2740 C.3   1 <1>   0.1400 
 17 C       -8.6210    -2.7990     1.2510 C.3   1 <1>   0.4230 
 18 C       -7.8410    -1.5270    -1.2630 C.3   1 <1>  -0.0800 
 19 N       -9.6590    -2.4010     0.2320 N.4   1 <1>  -0.9590 
 20 C       -8.0490    -1.5020     1.8760 C.3   1 <1>   0.1200 
 21 C       -7.7380    -0.3310    -0.2830 C.3   1 <1>   0.1200 
 22 C       -9.1660    -2.2860    -1.1680 C.3   1 <1>   0.3430 
 23 C      -10.9770    -3.1040     0.4240 C.3   1 <1>   0.3430 
 24 O       -7.3140    -0.6790     1.0030 O.3   1 <1>  -0.5600 
 25 C      -11.3840    -4.1540    -0.6340 C.3   1 <1>  -0.0800 
 26 C      -12.8200    -4.6090    -0.3350 C.3   1 <1>  -0.2400 
 27 C      -10.4800    -5.3970    -0.6700 C.3   1 <1>  -0.2400 
 28 H       -3.1270     0.7290    -0.8880 H     1 <1>   0.3700 
 29 H        0.4170    -2.2910    -0.9040 H     1 <1>   0.1500 
 30 H       -3.4260    -4.7840     0.8490 H     1 <1>   0.1500 
 31 H        0.6560    -4.6550    -0.2630 H     1 <1>   0.1500 
 32 H       -1.2840    -5.8810     0.6100 H     1 <1>   0.1500 
 33 H       -7.9480    -4.5190     0.1000 H     1 <1>   0.0800 
 34 H       -7.1680    -4.3220     1.6060 H     1 <1>   0.0800 
 35 H       -5.7840    -1.9840    -1.6450 H     1 <1>   0.0800 
 36 H       -6.8390    -3.2980    -1.9780 H     1 <1>   0.0800 
 37 H       -9.1340    -3.3130     2.0460 H     1 <1>   0.0800 
 38 H       -7.8480    -1.0940    -2.2470 H     1 <1>   0.0800 
 39 H       -9.8440    -1.4260     0.4980 H     1 <1>   0.4500 
 40 H       -7.3780    -1.7680     2.6750 H     1 <1>   0.0800 
 41 H       -8.8390    -0.9090     2.3010 H     1 <1>   0.0800 
 42 H       -8.6640     0.2100    -0.2070 H     1 <1>   0.0800 
 43 H       -6.9920     0.3510    -0.6570 H     1 <1>   0.0800 
 44 H       -9.0420    -3.2630    -1.6020 H     1 <1>   0.0800 
 45 H       -9.9060    -1.7630    -1.7520 H     1 <1>   0.0800 
 46 H      -10.9940    -3.5750     1.3940 H     1 <1>   0.0800 
 47 H      -11.7530    -2.3560     0.4340 H     1 <1>   0.0800 
 48 H      -11.4040    -3.6990    -1.6090 H     1 <1>   0.0800 
 49 H      -12.8800    -5.1030     0.6200 H     1 <1>   0.0800 
 50 H      -13.1620    -5.2970    -1.0900 H     1 <1>   0.0800 
 51 H      -13.4950    -3.7700    -0.3300 H     1 <1>   0.0800 
 52 H      -10.3240    -5.7920     0.3190 H     1 <1>   0.0800 
 53 H       -9.5330    -5.1810    -1.1220 H     1 <1>   0.0800 
 54 H      -10.9360    -6.1700    -1.2660 H     1 <1>   0.0800 
@<TRIPOS>BOND
  1   1   2  2   
  2   2   3  am  
  3   2   4  1   
  4   3   5  1   
  5   3  28  1   
  6   4   6  ar  
  7   4   7  ar  
  8   5   8  2   
  9   6   8  1   
 10   6   9  ar  
 11   7  10  ar  
 12   7  29  1   
 13   8  11  1   
 14   9  12  ar  
 15   9  30  1   
 16  10  12  ar  
 17  10  31  1   
 18  11  13  2   
 19  11  14  am  
 20  12  32  1   
 21  14  15  1   
 22  14  16  1   
 23  15  17  1   
 24  15  33  1   
 25  15  34  1   
 26  16  18  1   
 27  16  35  1   
 28  16  36  1   
 29  17  19  1   
 30  17  20  1   
 31  17  37  1   
 32  18  21  1   
 33  18  22  1   
 34  18  38  1   
 35  19  22  1   
 36  19  23  1   
 37  19  39  1   
 38  20  24  1   
 39  20  40  1   
 40  20  41  1   
 41  21  24  1   
 42  21  42  1   
 43  21  43  1   
 44  22  44  1   
 45  22  45  1   
 46  23  25  1   
 47  23  46  1   
 48  23  47  1   
 49  25  26  1   
 50  25  27  1   
 51  25  48  1   
 52  26  49  1   
 53  26  50  1   
 54  26  51  1   
 55  27  52  1   
 56  27  53  1   
 57  27  54  1   
@<TRIPOS>SUBSTRUCTURE
  1 ****  14 GROUP 4 **** **** 0

# MOE 2024.06 (io_trps.svl 2023.06)
