@<TRIPOS>MOLECULE
NONAME
47 48 1 0 0 
SMALL
USER_CHARGES


@<TRIPOS>ATOM
  1 S        0.6960     0.2190    -1.5010 S.o2  1 <1>   1.3330 
  2 O        1.0570    -1.1490    -1.8000 O.2   1 <1>  -0.6500 
  3 O       -0.0860     0.9790    -2.4500 O.2   1 <1>  -0.6500 
  4 N       -0.1560     0.2220    -0.0310 N.am  1 <1>  -0.8490 
  5 C        2.2010     1.1190    -1.1220 C.3   1 <1>  -0.0550 
  6 C       -1.0460    -0.9370     0.0950 C.3   1 <1>   0.1160 
  7 C       -0.9180     1.4560     0.1960 C.3   1 <1>   0.1160 
  8 C        3.1570     0.3790    -0.1600 C.3   1 <1>  -0.0800 
  9 C        4.5160     1.0380     0.0230 C.3   1 <1>   0.2200 
 10 C        2.6530     0.2350     1.2830 C.3   1 <1>   0.1200 
 11 N        4.3750     2.5050     0.1760 N.am  1 <1>  -0.7300 
 12 C        4.9310     0.4480     1.3620 C.3   1 <1>   0.1200 
 13 O        3.7600     0.4300     2.1180 O.3   1 <1>  -0.5600 
 14 C        4.6330     3.4150    -0.7920 C.2   1 <1>   0.5690 
 15 O        4.9470     3.0840    -1.9070 O.2   1 <1>  -0.5700 
 16 C        4.5180     4.8840    -0.4600 C.3   1 <1>  -0.0990 
 17 C        5.8900     5.4790    -0.1300 C.3   1 <1>  -0.0170 
 18 C        5.7520     6.9450     0.2440 C.ar  1 <1>  -0.1440 
 19 C        5.6330     7.3230     1.5730 C.ar  1 <1>  -0.1500 
 20 C        5.7370     7.9210    -0.7460 C.ar  1 <1>  -0.1500 
 21 C        5.5020     8.6650     1.8760 C.ar  1 <1>   0.1900 
 22 C        5.6050     9.2630    -0.4210 C.ar  1 <1>  -0.1500 
 23 F        5.3890     9.0190     3.1280 F     1 <1>  -0.1900 
 24 C        5.4850     9.6460     0.9040 C.ar  1 <1>  -0.1500 
 25 H        2.7280     1.2910    -2.0410 H     1 <1>   0.0800 
 26 H        1.9470     2.0780    -0.7180 H     1 <1>   0.0800 
 27 H       -1.5630    -0.9110     1.0390 H     1 <1>   0.0800 
 28 H       -0.4730    -1.8480     0.0510 H     1 <1>   0.0800 
 29 H       -1.7670    -0.9430    -0.7050 H     1 <1>   0.0800 
 30 H       -1.3610     1.4420     1.1780 H     1 <1>   0.0800 
 31 H       -1.6990     1.5570    -0.5390 H     1 <1>   0.0800 
 32 H       -0.2690     2.3120     0.1290 H     1 <1>   0.0800 
 33 H        3.3240    -0.6120    -0.5450 H     1 <1>   0.0800 
 34 H        5.2080     0.7990    -0.7680 H     1 <1>   0.0800 
 35 H        2.2430    -0.7440     1.4660 H     1 <1>   0.0800 
 36 H        1.9240     0.9860     1.5320 H     1 <1>   0.0800 
 37 H        4.0830     2.7940     1.1130 H     1 <1>   0.3700 
 38 H        5.6820     1.0310     1.8640 H     1 <1>   0.0800 
 39 H        5.2680    -0.5680     1.2460 H     1 <1>   0.0800 
 40 H        4.0980     5.3950    -1.3070 H     1 <1>   0.0800 
 41 H        3.8520     5.0170     0.3720 H     1 <1>   0.0800 
 42 H        6.5400     5.3800    -0.9820 H     1 <1>   0.0800 
 43 H        6.3370     4.9360     0.6850 H     1 <1>   0.0800 
 44 H        5.6420     6.6000     2.3680 H     1 <1>   0.1500 
 45 H        5.8290     7.6370    -1.7800 H     1 <1>   0.1500 
 46 H        5.5960    10.0060    -1.2000 H     1 <1>   0.1500 
 47 H        5.3810    10.6800     1.1800 H     1 <1>   0.1500 
@<TRIPOS>BOND
  1   1   2  2   
  2   1   3  2   
  3   1   4  am  
  4   1   5  1   
  5   4   6  1   
  6   4   7  1   
  7   5   8  1   
  8   5  25  1   
  9   5  26  1   
 10   6  27  1   
 11   6  28  1   
 12   6  29  1   
 13   7  30  1   
 14   7  31  1   
 15   7  32  1   
 16   8   9  1   
 17   8  10  1   
 18   8  33  1   
 19   9  11  1   
 20   9  12  1   
 21   9  34  1   
 22  10  13  1   
 23  10  35  1   
 24  10  36  1   
 25  11  14  am  
 26  11  37  1   
 27  12  13  1   
 28  12  38  1   
 29  12  39  1   
 30  14  15  2   
 31  14  16  1   
 32  16  17  1   
 33  16  40  1   
 34  16  41  1   
 35  17  18  1   
 36  17  42  1   
 37  17  43  1   
 38  18  19  ar  
 39  18  20  ar  
 40  19  21  ar  
 41  19  44  1   
 42  20  22  ar  
 43  20  45  1   
 44  21  23  1   
 45  21  24  ar  
 46  22  24  ar  
 47  22  46  1   
 48  24  47  1   
@<TRIPOS>SUBSTRUCTURE
  1 ****  11 GROUP 4 **** **** 0

# MOE 2024.06 (io_trps.svl 2023.06)
