@<TRIPOS>MOLECULE
NONAME
57 60 1 0 0 
SMALL
USER_CHARGES


@<TRIPOS>ATOM
  1 O       -0.5530     0.1480    -0.3300 O.2   1 <1>  -0.5700 
  2 C       -1.4820     0.7830    -0.7720 C.2   1 <1>   0.5690 
  3 N       -2.6890     0.1490    -0.9410 N.am  1 <1>  -0.6600 
  4 C       -1.2350     2.2990    -1.0600 C.3   1 <1>   0.0610 
  5 C       -4.0360     0.7150    -1.2290 C.3   1 <1>   0.1400 
  6 C       -2.8110    -1.3270    -0.7650 C.3   1 <1>   0.1400 
  7 C       -1.6960     3.1330     0.1530 C.3   1 <1>  -0.1600 
  8 C        0.2770     2.5940    -1.2750 C.3   1 <1>  -0.1600 
  9 C       -1.9550     2.7980    -2.3360 C.3   1 <1>  -0.2400 
 10 C       -5.0170    -0.3490    -0.7450 C.3   1 <1>   0.2000 
 11 C       -4.2850    -1.6630    -1.0360 C.3   1 <1>  -0.0800 
 12 C       -0.8420     2.8410     1.3870 C.3   1 <1>   0.3430 
 13 C        1.1360     2.4110    -0.0190 C.3   1 <1>   0.3430 
 14 O       -5.1760    -0.1930     0.6250 O.3   1 <1>  -0.6800 
 15 C       -4.8160    -2.8820    -0.2500 C.3   1 <1>  -0.0160 
 16 N        0.5760     3.2100     1.1100 N.4   1 <1>  -0.9590 
 17 C       -4.2180    -4.2480    -0.6100 C.ar  1 <1>  -0.1440 
 18 C        1.4120     3.0210     2.3320 C.3   1 <1>   0.2630 
 19 C       -4.5160    -5.3760     0.1950 C.ar  1 <1>   0.0000 
 20 C       -3.4060    -4.4590    -1.6900 C.ar  1 <1>  -0.1500 
 21 C       -3.9360    -6.6200    -0.1580 C.ar  1 <1>   0.3100 
 22 C       -5.3650    -5.3470     1.3290 C.ar  1 <1>  -0.1500 
 23 C       -2.8880    -5.7320    -1.9530 C.ar  1 <1>   0.1600 
 24 N       -3.1250    -6.7800    -1.2320 N.ar  1 <1>  -0.6200 
 25 C       -4.2080    -7.7500     0.6300 C.ar  1 <1>  -0.1500 
 26 C       -5.6120    -6.4680     2.0740 C.ar  1 <1>  -0.1500 
 27 C       -5.0260    -7.6860     1.7240 C.ar  1 <1>  -0.1500 
 28 H       -4.2100     1.6510    -0.7290 H     1 <1>   0.0800 
 29 H       -4.1450     0.8400    -2.2920 H     1 <1>   0.0800 
 30 H       -2.1530    -1.8410    -1.4440 H     1 <1>   0.0800 
 31 H       -2.5400    -1.5870     0.2450 H     1 <1>   0.0800 
 32 H       -2.7190     2.9030     0.3870 H     1 <1>   0.0800 
 33 H       -1.6500     4.1850    -0.0710 H     1 <1>   0.0800 
 34 H        0.4180     3.6030    -1.6220 H     1 <1>   0.0800 
 35 H        0.6570     1.9430    -2.0430 H     1 <1>   0.0800 
 36 H       -1.6000     3.7710    -2.6280 H     1 <1>   0.0800 
 37 H       -3.0130     2.8930    -2.1920 H     1 <1>   0.0800 
 38 H       -1.7770     2.1190    -3.1520 H     1 <1>   0.0800 
 39 H       -5.9830    -0.2800    -1.2140 H     1 <1>   0.0800 
 40 H       -4.3990    -1.8540    -2.0880 H     1 <1>   0.0800 
 41 H       -0.9050     1.7930     1.6340 H     1 <1>   0.0800 
 42 H       -1.2130     3.4110     2.2240 H     1 <1>   0.0800 
 43 H        2.1450     2.7270    -0.2290 H     1 <1>   0.0800 
 44 H        1.1700     1.3690     0.2550 H     1 <1>   0.0800 
 45 H       -4.3000    -0.2380     1.0540 H     1 <1>   0.4000 
 46 H       -5.8810    -2.9380    -0.3920 H     1 <1>   0.0800 
 47 H       -4.6400    -2.7070     0.7970 H     1 <1>   0.0800 
 48 H        0.6000     4.2010     0.8370 H     1 <1>   0.4500 
 49 H        1.4050     1.9860     2.6330 H     1 <1>   0.0800 
 50 H        1.0310     3.6190     3.1440 H     1 <1>   0.0800 
 51 H        2.4310     3.3160     2.1380 H     1 <1>   0.0800 
 52 H       -3.1330    -3.6820    -2.3760 H     1 <1>   0.1500 
 53 H       -5.8340    -4.4260     1.6180 H     1 <1>   0.1500 
 54 H       -2.2500    -5.8470    -2.8130 H     1 <1>   0.1500 
 55 H       -3.7480    -8.6760     0.3380 H     1 <1>   0.1500 
 56 H       -6.2580    -6.4270     2.9340 H     1 <1>   0.1500 
 57 H       -5.2270    -8.5610     2.3180 H     1 <1>   0.1500 
@<TRIPOS>BOND
  1   1   2  2   
  2   2   3  am  
  3   2   4  1   
  4   3   5  1   
  5   3   6  1   
  6   4   7  1   
  7   4   8  1   
  8   4   9  1   
  9   5  10  1   
 10   5  28  1   
 11   5  29  1   
 12   6  11  1   
 13   6  30  1   
 14   6  31  1   
 15   7  12  1   
 16   7  32  1   
 17   7  33  1   
 18   8  13  1   
 19   8  34  1   
 20   8  35  1   
 21   9  36  1   
 22   9  37  1   
 23   9  38  1   
 24  10  11  1   
 25  10  14  1   
 26  10  39  1   
 27  11  15  1   
 28  11  40  1   
 29  12  16  1   
 30  12  41  1   
 31  12  42  1   
 32  13  16  1   
 33  13  43  1   
 34  13  44  1   
 35  14  45  1   
 36  15  17  1   
 37  15  46  1   
 38  15  47  1   
 39  16  18  1   
 40  16  48  1   
 41  17  19  ar  
 42  17  20  ar  
 43  18  49  1   
 44  18  50  1   
 45  18  51  1   
 46  19  21  ar  
 47  19  22  ar  
 48  20  23  ar  
 49  20  52  1   
 50  21  24  ar  
 51  21  25  ar  
 52  22  26  ar  
 53  22  53  1   
 54  23  24  ar  
 55  23  54  1   
 56  25  27  ar  
 57  25  55  1   
 58  26  27  ar  
 59  26  56  1   
 60  27  57  1   
@<TRIPOS>SUBSTRUCTURE
  1 ****   6 GROUP 4 **** **** 0

# MOE 2024.06 (io_trps.svl 2023.06)
