@<TRIPOS>MOLECULE
NONAME
34 35 1 0 0 
SMALL
USER_CHARGES


@<TRIPOS>ATOM
  1 CL       0.5030     0.3720     2.1500 Cl    1 <1>  -0.1770 
  2 C        1.4710    -0.7280     1.1850 C.ar  1 <1>   0.1770 
  3 C        0.9860    -1.9720     0.7970 C.ar  1 <1>   0.4100 
  4 C        2.7300    -0.3750     0.7860 C.ar  1 <1>   0.1600 
  5 N        1.7150    -2.7810     0.0470 N.ar  1 <1>  -0.6200 
  6 N       -0.2740    -2.4330     1.1330 N.pl3 1 <1>  -0.8380 
  7 N        3.4730    -1.1800     0.0450 N.ar  1 <1>  -0.6200 
  8 C        2.9200    -2.3370    -0.2770 C.ar  1 <1>   0.4770 
  9 C       -0.4000    -3.8480     1.6050 C.3   1 <1>   0.2090 
 10 C       -1.4100    -1.9530     0.2960 C.3   1 <1>   0.2090 
 11 C        3.7750    -3.2520    -1.1210 C.3   1 <1>  -0.0960 
 12 C       -0.6740    -4.8090     0.4200 C.3   1 <1>   0.4230 
 13 C       -1.6660    -2.9280    -0.8750 C.3   1 <1>   0.3430 
 14 N       -1.8300    -4.3510    -0.4130 N.4   1 <1>  -0.9060 
 15 C       -0.9430    -6.2400     0.9040 C.3   1 <1>  -0.1600 
 16 C       -1.1690    -7.2490    -0.2350 C.3   1 <1>  -0.2400 
 17 H        3.1390     0.5790     1.0720 H     1 <1>   0.1500 
 18 H       -1.1940    -3.9110     2.3290 H     1 <1>   0.0800 
 19 H        0.5110    -4.1430     2.0970 H     1 <1>   0.0800 
 20 H       -1.1850    -0.9750    -0.0960 H     1 <1>   0.0800 
 21 H       -2.2920    -1.8630     0.9070 H     1 <1>   0.0800 
 22 H        3.3300    -4.2260    -1.2020 H     1 <1>   0.0800 
 23 H        4.7470    -3.3510    -0.6720 H     1 <1>   0.0800 
 24 H        3.8870    -2.8320    -2.1020 H     1 <1>   0.0800 
 25 H        0.2140    -4.8190    -0.1930 H     1 <1>   0.0800 
 26 H       -0.8240    -2.8650    -1.5450 H     1 <1>   0.0800 
 27 H       -2.5430    -2.6110    -1.4160 H     1 <1>   0.0800 
 28 H       -2.6850    -4.4420     0.1450 H     1 <1>   0.4500 
 29 H       -1.9140    -4.9810    -1.2180 H     1 <1>   0.4500 
 30 H       -1.7870    -6.2540     1.5730 H     1 <1>   0.0800 
 31 H       -0.0870    -6.5660     1.4710 H     1 <1>   0.0800 
 32 H       -2.0840    -7.0580    -0.7650 H     1 <1>   0.0800 
 33 H       -1.2320    -8.2440     0.1740 H     1 <1>   0.0800 
 34 H       -0.3460    -7.2320    -0.9300 H     1 <1>   0.0800 
@<TRIPOS>BOND
  1   1   2  1   
  2   2   3  ar  
  3   2   4  ar  
  4   3   5  ar  
  5   3   6  1   
  6   4   7  ar  
  7   4  17  1   
  8   5   8  ar  
  9   6   9  1   
 10   6  10  1   
 11   7   8  ar  
 12   8  11  1   
 13   9  12  1   
 14   9  18  1   
 15   9  19  1   
 16  10  13  1   
 17  10  20  1   
 18  10  21  1   
 19  11  22  1   
 20  11  23  1   
 21  11  24  1   
 22  12  14  1   
 23  12  15  1   
 24  12  25  1   
 25  13  14  1   
 26  13  26  1   
 27  13  27  1   
 28  14  28  1   
 29  14  29  1   
 30  15  16  1   
 31  15  30  1   
 32  15  31  1   
 33  16  32  1   
 34  16  33  1   
 35  16  34  1   
@<TRIPOS>SUBSTRUCTURE
  1 ****   3 GROUP 4 **** **** 0

# MOE 2024.06 (io_trps.svl 2023.06)
