@<TRIPOS>MOLECULE
NONAME
42 44 1 0 0 
SMALL
USER_CHARGES


@<TRIPOS>ATOM
  1 O       -0.9590    -0.6880     1.5550 O.2   1 <1>  -0.5760 
  2 C       -2.0900    -0.5280     1.1610 C.2   1 <1>   0.6850 
  3 N       -2.9070    -1.5900     0.8000 N.am  1 <1>  -0.4430 
  4 N       -2.5720     0.7460     1.0700 N.am  1 <1>  -0.4960 
  5 C       -4.1850    -1.2940     0.3510 C.2   1 <1>   0.4190 
  6 C       -2.4220    -2.9990     0.8800 C.3   1 <1>   0.0500 
  7 C       -3.8290     1.0530     0.6330 C.2   1 <1>   0.6980 
  8 N       -5.1430    -2.1660    -0.0580 N.pl3 1 <1>  -0.7050 
  9 C       -4.6790    -0.0400     0.2540 C.2   1 <1>   0.2690 
 10 O       -4.1660     2.2190     0.5820 O.2   1 <1>  -0.5760 
 11 C       -6.2360    -1.4770    -0.3920 C.cat 1 <1>   1.0680 
 12 N       -5.9940    -0.1630    -0.2370 N.pl3 1 <1>  -0.7680 
 13 N       -7.3770    -2.0760    -0.8040 N.pl3 1 <1>  -0.5980 
 14 C       -6.7870     1.0330    -0.6440 C.3   1 <1>   0.2660 
 15 C       -7.3940    -3.4500    -1.3980 C.3   1 <1>   0.1590 
 16 C       -8.7500    -1.5260    -0.5970 C.3   1 <1>   0.1590 
 17 C       -8.1720    -4.4100    -0.4900 C.3   1 <1>   0.1910 
 18 C       -9.5810    -2.4770     0.2770 C.3   1 <1>  -0.1690 
 19 O       -8.1690    -5.6600    -1.0740 O.3   1 <1>  -0.6850 
 20 C       -9.6130    -3.9230    -0.2690 C.3   1 <1>  -0.0900 
 21 C      -10.3820    -4.8780     0.6590 C.3   1 <1>   0.1110 
 22 O      -11.6940    -4.4550     0.7700 O.3   1 <1>  -0.6850 
 23 H       -1.9490     1.5040     1.3430 H     1 <1>   0.3630 
 24 H       -3.1060    -3.5910     1.4620 H     1 <1>   0.0700 
 25 H       -1.4540    -3.0460     1.3510 H     1 <1>   0.0700 
 26 H       -2.3380    -3.4130    -0.1090 H     1 <1>   0.0700 
 27 H       -5.0730    -3.1790    -0.0680 H     1 <1>   0.4430 
 28 H       -6.1360     1.7930    -1.0430 H     1 <1>   0.0700 
 29 H       -7.3060     1.4380     0.2080 H     1 <1>   0.0700 
 30 H       -7.5000     0.7760    -1.4090 H     1 <1>   0.0700 
 31 H       -7.8760    -3.4030    -2.3600 H     1 <1>   0.0700 
 32 H       -6.3960    -3.8240    -1.5450 H     1 <1>   0.0700 
 33 H       -8.7160    -0.5720    -0.1050 H     1 <1>   0.0700 
 34 H       -9.2300    -1.3990    -1.5540 H     1 <1>   0.0700 
 35 H       -7.6610    -4.5050     0.4530 H     1 <1>   0.0700 
 36 H       -9.1820    -2.4750     1.2770 H     1 <1>   0.0700 
 37 H      -10.5840    -2.0920     0.3310 H     1 <1>   0.0700 
 38 H       -8.9520    -5.7820    -1.6510 H     1 <1>   0.3930 
 39 H      -10.1130    -3.9110    -1.2240 H     1 <1>   0.0700 
 40 H       -9.9500    -4.9120     1.6450 H     1 <1>   0.0700 
 41 H      -10.4010    -5.8750     0.2530 H     1 <1>   0.0700 
 42 H      -11.7630    -3.6720     1.3490 H     1 <1>   0.3930 
@<TRIPOS>BOND
  1   1   2  2   
  2   2   3  am  
  3   2   4  am  
  4   3   5  1   
  5   3   6  1   
  6   4   7  am  
  7   4  23  1   
  8   5   8  1   
  9   5   9  2   
 10   6  24  1   
 11   6  25  1   
 12   6  26  1   
 13   7   9  1   
 14   7  10  2   
 15   8  11  ar  
 16   8  27  1   
 17   9  12  1   
 18  11  12  ar  
 19  11  13  ar  
 20  12  14  1   
 21  13  15  1   
 22  13  16  1   
 23  14  28  1   
 24  14  29  1   
 25  14  30  1   
 26  15  17  1   
 27  15  31  1   
 28  15  32  1   
 29  16  18  1   
 30  16  33  1   
 31  16  34  1   
 32  17  19  1   
 33  17  20  1   
 34  17  35  1   
 35  18  20  1   
 36  18  36  1   
 37  18  37  1   
 38  19  38  1   
 39  20  21  1   
 40  20  39  1   
 41  21  22  1   
 42  21  40  1   
 43  21  41  1   
 44  22  42  1   
@<TRIPOS>SUBSTRUCTURE
  1 ****  11 GROUP 4 **** **** 0

# MOE 2024.06 (io_trps.svl 2023.06)
