@<TRIPOS>MOLECULE
NONAME
46 48 1 0 0 
SMALL
USER_CHARGES


@<TRIPOS>ATOM
  1 O       -0.5470     0.0680    -0.1600 O.2   1 <1>  -0.5700 
  2 C       -1.4690     0.7250    -0.6040 C.2   1 <1>   0.7160 
  3 N       -2.6290     0.0750    -0.9690 N.am  1 <1>  -0.6600 
  4 C       -1.3380     2.1590    -0.7290 C.2   1 <1>  -0.0860 
  5 C       -3.9770     0.7220    -0.9260 C.3   1 <1>   0.1400 
  6 C       -2.7000    -1.4130    -1.0980 C.3   1 <1>   0.1400 
  7 C       -0.7470     3.0580     0.1070 C.2   1 <1>  -0.0400 
  8 C       -1.8080     2.9490    -1.8010 C.2   1 <1>  -0.1500 
  9 C       -4.9020     0.0010     0.0740 C.3   1 <1>   0.2950 
 10 C       -3.6960    -2.0110    -0.0810 C.3   1 <1>   0.2000 
 11 O       -0.8400     4.2780    -0.3650 O.3   1 <1>  -0.2800 
 12 C       -0.0360     2.8610     1.4310 C.3   1 <1>  -0.0600 
 13 C       -1.4740     4.2230    -1.5150 C.2   1 <1>  -0.0100 
 14 O       -4.9340    -1.3700    -0.1950 O.3   1 <1>  -0.5600 
 15 C       -6.3390     0.5230    -0.0140 C.3   1 <1>  -0.1950 
 16 C       -3.9530    -3.5080    -0.2960 C.3   1 <1>  -0.1600 
 17 C       -6.7700     1.7360     0.7520 C.3   1 <1>  -0.2000 
 18 C       -7.2880     0.3770     1.1340 C.3   1 <1>  -0.2000 
 19 C       -2.7050    -4.3740    -0.0560 C.3   1 <1>  -0.1600 
 20 C       -3.0370    -5.8640    -0.1880 C.3   1 <1>  -0.1600 
 21 C       -1.7960    -6.7290     0.0480 C.3   1 <1>  -0.2400 
 22 H       -3.8990     1.7530    -0.6310 H     1 <1>   0.0800 
 23 H       -4.4180     0.6860    -1.9060 H     1 <1>   0.0800 
 24 H       -3.0200    -1.6640    -2.0940 H     1 <1>   0.0800 
 25 H       -1.7280    -1.8490    -0.9500 H     1 <1>   0.0800 
 26 H       -2.3220     2.5700    -2.6670 H     1 <1>   0.1500 
 27 H       -4.5310     0.1370     1.0760 H     1 <1>   0.0800 
 28 H       -3.3280    -1.8550     0.9190 H     1 <1>   0.0800 
 29 H       -0.0470     1.8270     1.7220 H     1 <1>   0.0800 
 30 H       -0.5220     3.4420     2.1930 H     1 <1>   0.0800 
 31 H        0.9850     3.1840     1.3430 H     1 <1>   0.0800 
 32 H       -1.6400     5.1360    -2.0600 H     1 <1>   0.1500 
 33 H       -6.7500     0.3970    -1.0010 H     1 <1>   0.1000 
 34 H       -4.7230    -3.8160     0.3900 H     1 <1>   0.0800 
 35 H       -4.3130    -3.6650    -1.2970 H     1 <1>   0.0800 
 36 H       -6.0780     2.2210     1.4190 H     1 <1>   0.1000 
 37 H       -7.4480     2.4300     0.2860 H     1 <1>   0.1000 
 38 H       -8.3120     0.1270     0.9200 H     1 <1>   0.1000 
 39 H       -6.9330    -0.0850     2.0400 H     1 <1>   0.1000 
 40 H       -1.9390    -4.1240    -0.7690 H     1 <1>   0.0800 
 41 H       -2.3200    -4.1820     0.9310 H     1 <1>   0.0800 
 42 H       -3.7950    -6.1320     0.5290 H     1 <1>   0.0800 
 43 H       -3.4260    -6.0640    -1.1720 H     1 <1>   0.0800 
 44 H       -1.4030    -6.5620     1.0350 H     1 <1>   0.0800 
 45 H       -1.0320    -6.4960    -0.6730 H     1 <1>   0.0800 
 46 H       -2.0490    -7.7700    -0.0480 H     1 <1>   0.0800 
@<TRIPOS>BOND
  1   1   2  2   
  2   2   3  am  
  3   2   4  1   
  4   3   5  1   
  5   3   6  1   
  6   4   7  2   
  7   4   8  1   
  8   5   9  1   
  9   5  22  1   
 10   5  23  1   
 11   6  10  1   
 12   6  24  1   
 13   6  25  1   
 14   7  11  1   
 15   7  12  1   
 16   8  13  2   
 17   8  26  1   
 18   9  14  1   
 19   9  15  1   
 20   9  27  1   
 21  10  14  1   
 22  10  16  1   
 23  10  28  1   
 24  11  13  1   
 25  12  29  1   
 26  12  30  1   
 27  12  31  1   
 28  13  32  1   
 29  15  17  1   
 30  15  18  1   
 31  15  33  1   
 32  16  19  1   
 33  16  34  1   
 34  16  35  1   
 35  17  18  1   
 36  17  36  1   
 37  17  37  1   
 38  18  38  1   
 39  18  39  1   
 40  19  20  1   
 41  19  40  1   
 42  19  41  1   
 43  20  21  1   
 44  20  42  1   
 45  20  43  1   
 46  21  44  1   
 47  21  45  1   
 48  21  46  1   
@<TRIPOS>SUBSTRUCTURE
  1 ****   3 GROUP 4 **** **** 0

# MOE 2024.06 (io_trps.svl 2023.06)
