@<TRIPOS>MOLECULE
NONAME
53 56 1 0 0 
SMALL
USER_CHARGES


@<TRIPOS>ATOM
  1 O       -2.0640     1.2810    -2.6240 O.2   1 <1>  -0.5700 
  2 C       -2.8210     0.7940    -1.8200 C.2   1 <1>   0.5690 
  3 N       -2.8420     1.0450    -0.4910 N.am  1 <1>  -0.6600 
  4 C       -3.8840    -0.2000    -2.1940 C.3   1 <1>  -0.0990 
  5 C       -1.9390     2.0080     0.1910 C.3   1 <1>   0.2200 
  6 C       -3.9050     0.2800     0.1920 C.3   1 <1>   0.1400 
  7 C       -4.3050    -0.7890    -0.8330 C.3   1 <1>  -0.0800 
  8 C       -1.1270     1.3200     1.2880 C.3   1 <1>  -0.1600 
  9 C       -2.7290     3.0920     0.9190 C.3   1 <1>  -0.1600 
 10 C       -3.5540    -2.0950    -0.5280 C.3   1 <1>   0.2090 
 11 C       -1.8670     1.5470     2.6150 C.3   1 <1>  -0.1600 
 12 C       -2.9690     2.5760     2.3410 C.3   1 <1>  -0.1600 
 13 N       -3.9740    -3.1720    -1.4720 N.pl3 1 <1>  -0.8380 
 14 C       -5.2400    -3.7250    -1.3560 C.ar  1 <1>   0.4100 
 15 C       -2.8570    -4.0100    -1.9830 C.3   1 <1>   0.1290 
 16 N       -5.8470    -3.6460    -0.2040 N.ar  1 <1>  -0.6200 
 17 C       -5.8270    -4.3360    -2.4800 C.ar  1 <1>  -0.1500 
 18 C       -7.0900    -4.1870    -0.0800 C.ar  1 <1>   0.3100 
 19 C       -7.0620    -4.8910    -2.3960 C.ar  1 <1>  -0.1500 
 20 C       -7.7810    -4.1180     1.1610 C.ar  1 <1>   0.0820 
 21 C       -7.7340    -4.8310    -1.1630 C.ar  1 <1>   0.0000 
 22 O       -7.1590    -3.4880     2.2000 O.3   1 <1>  -0.3620 
 23 C       -9.0380    -4.6720     1.2960 C.ar  1 <1>  -0.1500 
 24 C       -9.0140    -5.3860    -0.9870 C.ar  1 <1>  -0.1500 
 25 C       -7.6950    -3.4650     3.5030 C.3   1 <1>   0.0400 
 26 C       -9.6540    -5.3090     0.2180 C.ar  1 <1>  -0.1500 
 27 H       -3.5030    -0.9390    -2.8740 H     1 <1>   0.0800 
 28 H       -4.7020     0.3240    -2.6510 H     1 <1>   0.0800 
 29 H       -1.2830     2.4490    -0.5410 H     1 <1>   0.0800 
 30 H       -4.7360     0.9330     0.3980 H     1 <1>   0.0800 
 31 H       -3.5510    -0.1570     1.1090 H     1 <1>   0.0800 
 32 H       -5.3640    -0.9700    -0.7840 H     1 <1>   0.0800 
 33 H       -0.1680     1.8020     1.3460 H     1 <1>   0.0800 
 34 H       -0.9700     0.2770     1.0770 H     1 <1>   0.0800 
 35 H       -3.6400     3.3460     0.4060 H     1 <1>   0.0800 
 36 H       -2.1130     3.9720     0.9750 H     1 <1>   0.0800 
 37 H       -3.7570    -2.4090     0.4830 H     1 <1>   0.0800 
 38 H       -2.4940    -1.9250    -0.6120 H     1 <1>   0.0800 
 39 H       -1.1830     1.9150     3.3610 H     1 <1>   0.0800 
 40 H       -2.2980     0.6270     2.9700 H     1 <1>   0.0800 
 41 H       -3.9310     2.0990     2.3970 H     1 <1>   0.0800 
 42 H       -2.9450     3.3810     3.0560 H     1 <1>   0.0800 
 43 H       -2.3230    -3.4730    -2.7480 H     1 <1>   0.0800 
 44 H       -3.2270    -4.9320    -2.3960 H     1 <1>   0.0800 
 45 H       -2.1810    -4.2470    -1.1800 H     1 <1>   0.0800 
 46 H       -5.2730    -4.3370    -3.3990 H     1 <1>   0.1500 
 47 H       -7.5320    -5.3640    -3.2400 H     1 <1>   0.1500 
 48 H       -9.5800    -4.6330     2.2210 H     1 <1>   0.1500 
 49 H       -9.4850    -5.8740    -1.8210 H     1 <1>   0.1500 
 50 H       -6.9960    -2.9550     4.1410 H     1 <1>   0.0800 
 51 H       -7.8290    -4.4760     3.8430 H     1 <1>   0.0800 
 52 H       -8.6300    -2.9330     3.4870 H     1 <1>   0.0800 
 53 H      -10.6350    -5.7340     0.3490 H     1 <1>   0.1500 
@<TRIPOS>BOND
  1   1   2  2   
  2   2   3  am  
  3   2   4  1   
  4   3   5  1   
  5   3   6  1   
  6   4   7  1   
  7   4  27  1   
  8   4  28  1   
  9   5   8  1   
 10   5   9  1   
 11   5  29  1   
 12   6   7  1   
 13   6  30  1   
 14   6  31  1   
 15   7  10  1   
 16   7  32  1   
 17   8  11  1   
 18   8  33  1   
 19   8  34  1   
 20   9  12  1   
 21   9  35  1   
 22   9  36  1   
 23  10  13  1   
 24  10  37  1   
 25  10  38  1   
 26  11  12  1   
 27  11  39  1   
 28  11  40  1   
 29  12  41  1   
 30  12  42  1   
 31  13  14  1   
 32  13  15  1   
 33  14  16  ar  
 34  14  17  ar  
 35  15  43  1   
 36  15  44  1   
 37  15  45  1   
 38  16  18  ar  
 39  17  19  ar  
 40  17  46  1   
 41  18  20  ar  
 42  18  21  ar  
 43  19  21  ar  
 44  19  47  1   
 45  20  22  1   
 46  20  23  ar  
 47  21  24  ar  
 48  22  25  1   
 49  23  26  ar  
 50  23  48  1   
 51  24  26  ar  
 52  24  49  1   
 53  25  50  1   
 54  25  51  1   
 55  25  52  1   
 56  26  53  1   
@<TRIPOS>SUBSTRUCTURE
  1 ****   7 GROUP 4 **** **** 0

# MOE 2024.06 (io_trps.svl 2023.06)
