@<TRIPOS>MOLECULE
NONAME
44 45 1 0 0 
SMALL
USER_CHARGES


@<TRIPOS>ATOM
  1 S        0.3050     0.1640     0.4530 S.o2  1 <1>   1.3330 
  2 O        1.7010     0.0280     0.0980 O.2   1 <1>  -0.6500 
  3 O       -0.0610     0.4140     1.8280 O.2   1 <1>  -0.6500 
  4 N       -0.5050    -1.2320    -0.0740 N.am  1 <1>  -0.8490 
  5 C       -0.4240     1.4550    -0.5530 C.3   1 <1>  -0.0550 
  6 C       -0.6220    -2.2420     0.9820 C.3   1 <1>   0.1160 
  7 C        0.0840    -1.8320    -1.2760 C.3   1 <1>   0.1160 
  8 C        0.0940     2.8620    -0.2080 C.3   1 <1>  -0.0800 
  9 C       -0.5510     3.9400    -1.0710 C.3   1 <1>   0.2000 
 10 C        1.5960     3.0560    -0.4320 C.3   1 <1>   0.2090 
 11 O       -1.7920     4.2800    -0.5510 O.3   1 <1>  -0.6800 
 12 C        0.4330     5.1070    -1.0480 C.3   1 <1>   0.2090 
 13 N        1.7650     4.4790    -0.8170 N.pl3 1 <1>  -0.8380 
 14 C        2.8320     5.2250    -0.3300 C.ar  1 <1>   0.4100 
 15 N        2.5850     6.4830     0.0200 N.ar  1 <1>  -0.6200 
 16 C        4.1000     4.6520    -0.2340 C.ar  1 <1>  -0.1500 
 17 C        3.6080     7.1780     0.4830 C.ar  1 <1>   0.1670 
 18 C        5.1620     5.3780     0.2520 C.ar  1 <1>  -0.1440 
 19 C        4.8930     6.6800     0.6190 C.ar  1 <1>  -0.1500 
 20 C        3.3010     8.6060     0.8780 C.3   1 <1>  -0.0970 
 21 C        6.5570     4.7950     0.3780 C.3   1 <1>  -0.0970 
 22 H       -0.2310     1.2510    -1.5880 H     1 <1>   0.0800 
 23 H       -1.4870     1.4410    -0.4100 H     1 <1>   0.0800 
 24 H       -1.1560    -3.1030     0.6190 H     1 <1>   0.0800 
 25 H       -1.1670    -1.8390     1.8200 H     1 <1>   0.0800 
 26 H        0.3550    -2.5460     1.3210 H     1 <1>   0.0800 
 27 H       -0.5230    -2.6550    -1.6140 H     1 <1>   0.0800 
 28 H        1.0790    -2.1920    -1.0690 H     1 <1>   0.0800 
 29 H        0.1390    -1.1040    -2.0670 H     1 <1>   0.0800 
 30 H       -0.1010     3.0720     0.8310 H     1 <1>   0.0800 
 31 H       -0.6860     3.6040    -2.0840 H     1 <1>   0.0800 
 32 H        1.9490     2.4360    -1.2390 H     1 <1>   0.0800 
 33 H        2.1500     2.8250     0.4630 H     1 <1>   0.0800 
 34 H       -1.6910     4.6400     0.3520 H     1 <1>   0.4000 
 35 H        0.1980     5.7770    -0.2390 H     1 <1>   0.0800 
 36 H        0.4310     5.6400    -1.9820 H     1 <1>   0.0800 
 37 H        4.2370     3.6380    -0.5530 H     1 <1>   0.1500 
 38 H        5.6780     7.3020     1.0060 H     1 <1>   0.1500 
 39 H        4.1800     9.1080     1.2380 H     1 <1>   0.0800 
 40 H        2.5540     8.6110     1.6500 H     1 <1>   0.0800 
 41 H        2.9220     9.1380     0.0250 H     1 <1>   0.0800 
 42 H        6.8890     4.8550     1.3990 H     1 <1>   0.0800 
 43 H        7.2410     5.3430    -0.2450 H     1 <1>   0.0800 
 44 H        6.5680     3.7630     0.0740 H     1 <1>   0.0800 
@<TRIPOS>BOND
  1   1   2  2   
  2   1   3  2   
  3   1   4  am  
  4   1   5  1   
  5   4   6  1   
  6   4   7  1   
  7   5   8  1   
  8   5  22  1   
  9   5  23  1   
 10   6  24  1   
 11   6  25  1   
 12   6  26  1   
 13   7  27  1   
 14   7  28  1   
 15   7  29  1   
 16   8   9  1   
 17   8  10  1   
 18   8  30  1   
 19   9  11  1   
 20   9  12  1   
 21   9  31  1   
 22  10  13  1   
 23  10  32  1   
 24  10  33  1   
 25  11  34  1   
 26  12  13  1   
 27  12  35  1   
 28  12  36  1   
 29  13  14  1   
 30  14  15  ar  
 31  14  16  ar  
 32  15  17  ar  
 33  16  18  ar  
 34  16  37  1   
 35  17  19  ar  
 36  17  20  1   
 37  18  19  ar  
 38  18  21  1   
 39  19  38  1   
 40  20  39  1   
 41  20  40  1   
 42  20  41  1   
 43  21  42  1   
 44  21  43  1   
 45  21  44  1   
@<TRIPOS>SUBSTRUCTURE
  1 ****  10 GROUP 4 **** **** 0

# MOE 2024.06 (io_trps.svl 2023.06)
