@<TRIPOS>MOLECULE
NONAME
64 67 1 0 0 
SMALL
USER_CHARGES


@<TRIPOS>ATOM
  1 O       -0.5330    -1.2560    -0.9940 O.2   1 <1>  -0.5700 
  2 C        0.1070    -2.0190    -0.3100 C.2   1 <1>   0.5690 
  3 N        0.9660    -1.5460     0.6540 N.am  1 <1>  -0.6600 
  4 C       -0.1450    -3.4930    -0.5860 C.3   1 <1>  -0.0990 
  5 C        1.8540    -2.3960     1.5060 C.3   1 <1>   0.1400 
  6 C        0.9830    -0.0920     0.9840 C.3   1 <1>   0.1400 
  7 C        0.7850    -4.5240     0.0490 C.3   1 <1>   0.1200 
  8 C        2.7830    -3.3720     0.7270 C.3   1 <1>   0.2800 
  9 C        2.1230     0.6040     0.2380 C.3   1 <1>  -0.1600 
 10 O        2.1020    -4.1640    -0.2100 O.3   1 <1>  -0.5600 
 11 C        3.4900    -4.3260     1.7070 C.3   1 <1>  -0.1600 
 12 C        3.8300    -2.5890    -0.0840 C.3   1 <1>  -0.1600 
 13 C        2.1260     2.1140     0.5140 C.3   1 <1>  -0.1600 
 14 C        4.5230    -5.2150     1.0080 C.3   1 <1>   0.1400 
 15 C        4.8420    -3.5160    -0.7600 C.3   1 <1>   0.1400 
 16 C        3.2460     2.8240    -0.2550 C.3   1 <1>  -0.0170 
 17 N        5.4980    -4.3500     0.2860 N.am  1 <1>  -0.6600 
 18 C        3.2440     4.3120     0.0550 C.ar  1 <1>  -0.1430 
 19 C        6.8350    -4.3650     0.6090 C.2   1 <1>   0.5690 
 20 C        4.0330     4.8180     1.0760 C.ar  1 <1>  -0.1500 
 21 C        2.4480     5.1770    -0.6800 C.ar  1 <1>  -0.1500 
 22 O        7.2620    -5.1020     1.4650 O.2   1 <1>  -0.5700 
 23 C        7.8290    -3.4610    -0.1150 C.3   1 <1>  -0.0190 
 24 C        4.0300     6.1740     1.3570 C.ar  1 <1>  -0.1500 
 25 C        2.4440     6.5320    -0.4010 C.ar  1 <1>  -0.1500 
 26 C        8.2520    -4.0650    -1.4630 C.3   1 <1>   0.1400 
 27 C        9.1530    -3.1590     0.6290 C.3   1 <1>  -0.0990 
 28 C        3.2360     7.0320     0.6180 C.ar  1 <1>  -0.1500 
 29 N        9.6300    -3.5840    -1.6190 N.am  1 <1>  -0.7300 
 30 C       10.1530    -3.0880    -0.4900 C.2   1 <1>   0.5690 
 31 O       11.2660    -2.6450    -0.3830 O.2   1 <1>  -0.5700 
 32 H       -0.1030    -3.6290    -1.6510 H     1 <1>   0.0800 
 33 H       -1.1520    -3.7120    -0.2860 H     1 <1>   0.0800 
 34 H        1.2460    -2.9400     2.2050 H     1 <1>   0.0800 
 35 H        2.4840    -1.7560     2.0980 H     1 <1>   0.0800 
 36 H        1.0940     0.0410     2.0470 H     1 <1>   0.0800 
 37 H        0.0450     0.3580     0.7010 H     1 <1>   0.0800 
 38 H        0.6200    -5.4820    -0.4130 H     1 <1>   0.0800 
 39 H        0.6210    -4.6340     1.1060 H     1 <1>   0.0800 
 40 H        1.9960     0.4360    -0.8180 H     1 <1>   0.0800 
 41 H        3.0640     0.1880     0.5480 H     1 <1>   0.0800 
 42 H        2.7670    -4.9450     2.2050 H     1 <1>   0.0800 
 43 H        4.0000    -3.7560     2.4630 H     1 <1>   0.0800 
 44 H        4.3610    -1.9140     0.5610 H     1 <1>   0.0800 
 45 H        3.3290    -2.0020    -0.8330 H     1 <1>   0.0800 
 46 H        2.2550     2.2910     1.5680 H     1 <1>   0.0800 
 47 H        1.1800     2.5360     0.2210 H     1 <1>   0.0800 
 48 H        4.0340    -5.8630     0.3000 H     1 <1>   0.0800 
 49 H        5.0190    -5.8340     1.7360 H     1 <1>   0.0800 
 50 H        5.5510    -2.9350    -1.3180 H     1 <1>   0.0800 
 51 H        4.3320    -4.1630    -1.4550 H     1 <1>   0.0800 
 52 H        3.1110     2.6790    -1.3130 H     1 <1>   0.0800 
 53 H        4.1990     2.4030     0.0140 H     1 <1>   0.0800 
 54 H        4.6530     4.1590     1.6570 H     1 <1>   0.1500 
 55 H        1.8280     4.7970    -1.4730 H     1 <1>   0.1500 
 56 H        7.3650    -2.5120    -0.3010 H     1 <1>   0.0800 
 57 H        4.6460     6.5600     2.1500 H     1 <1>   0.1500 
 58 H        1.8240     7.1970    -0.9760 H     1 <1>   0.1500 
 59 H        7.6260    -3.7220    -2.2690 H     1 <1>   0.0800 
 60 H        8.2500    -5.1420    -1.4220 H     1 <1>   0.0800 
 61 H        9.4470    -3.9550     1.2880 H     1 <1>   0.0800 
 62 H        9.1110    -2.2330     1.1700 H     1 <1>   0.0800 
 63 H        3.2330     8.0860     0.8350 H     1 <1>   0.1500 
 64 H       10.1830    -3.7020    -2.4700 H     1 <1>   0.3700 
@<TRIPOS>BOND
  1   1   2  2   
  2   2   3  am  
  3   2   4  1   
  4   3   5  1   
  5   3   6  1   
  6   4   7  1   
  7   4  32  1   
  8   4  33  1   
  9   5   8  1   
 10   5  34  1   
 11   5  35  1   
 12   6   9  1   
 13   6  36  1   
 14   6  37  1   
 15   7  10  1   
 16   7  38  1   
 17   7  39  1   
 18   8  10  1   
 19   8  11  1   
 20   8  12  1   
 21   9  13  1   
 22   9  40  1   
 23   9  41  1   
 24  11  14  1   
 25  11  42  1   
 26  11  43  1   
 27  12  15  1   
 28  12  44  1   
 29  12  45  1   
 30  13  16  1   
 31  13  46  1   
 32  13  47  1   
 33  14  17  1   
 34  14  48  1   
 35  14  49  1   
 36  15  17  1   
 37  15  50  1   
 38  15  51  1   
 39  16  18  1   
 40  16  52  1   
 41  16  53  1   
 42  17  19  am  
 43  18  20  ar  
 44  18  21  ar  
 45  19  22  2   
 46  19  23  1   
 47  20  24  ar  
 48  20  54  1   
 49  21  25  ar  
 50  21  55  1   
 51  23  26  1   
 52  23  27  1   
 53  23  56  1   
 54  24  28  ar  
 55  24  57  1   
 56  25  28  ar  
 57  25  58  1   
 58  26  29  1   
 59  26  59  1   
 60  26  60  1   
 61  27  30  1   
 62  27  61  1   
 63  27  62  1   
 64  28  63  1   
 65  29  30  am  
 66  29  64  1   
 67  30  31  2   
@<TRIPOS>SUBSTRUCTURE
  1 ****  12 GROUP 4 **** **** 0

# MOE 2024.06 (io_trps.svl 2023.06)
