@<TRIPOS>MOLECULE
NONAME
46 48 1 0 0 
SMALL
USER_CHARGES


@<TRIPOS>ATOM
  1 O       -2.1490     0.9610    -2.2020 O.2   1 <1>  -0.5700 
  2 C       -2.1320     1.2190    -1.0240 C.2   1 <1>   0.5690 
  3 N       -2.2810     0.2620    -0.0780 N.am  1 <1>  -0.7300 
  4 C       -1.9320     2.6520    -0.5850 C.3   1 <1>  -0.0990 
  5 C       -2.4600    -1.1800    -0.3580 C.3   1 <1>   0.2200 
  6 C       -0.4470     3.0290    -0.5950 C.3   1 <1>  -0.0160 
  7 C       -3.9000    -1.5680    -0.0670 C.3   1 <1>  -0.0800 
  8 C       -1.7040    -1.9970     0.6820 C.3   1 <1>   0.1200 
  9 C       -0.2570     4.4620    -0.1250 C.ar  1 <1>  -0.1440 
 10 C       -3.8710    -1.8340     1.4440 C.3   1 <1>   0.1200 
 11 C       -4.3220    -2.8120    -0.8730 C.3   1 <1>  -0.0160 
 12 O       -2.5350    -2.0460     1.8020 O.3   1 <1>  -0.5600 
 13 C       -0.3930     5.5100    -1.0240 C.ar  1 <1>  -0.1500 
 14 C        0.0520     4.7350     1.2000 C.ar  1 <1>  -0.1500 
 15 C       -5.7700    -3.1870    -0.6010 C.ar  1 <1>  -0.1440 
 16 C       -0.2230     6.8180    -0.6040 C.ar  1 <1>  -0.1500 
 17 C        0.2240     6.0410     1.6250 C.ar  1 <1>  -0.1500 
 18 C       -6.8180    -2.4610    -1.1290 C.ar  1 <1>  -0.1500 
 19 C       -6.1150    -4.2710     0.1830 C.ar  1 <1>  -0.1500 
 20 C        0.0860     7.0800     0.7190 C.ar  1 <1>   0.0820 
 21 C       -8.1220    -2.8370    -0.8520 C.ar  1 <1>   0.1600 
 22 C       -7.4520    -4.5620     0.3990 C.ar  1 <1>   0.1600 
 23 O        0.2510     8.3510     1.1140 O.3   1 <1>  -0.5330 
 24 N       -8.4640    -3.8700    -0.0980 N.ar  1 <1>  -0.6200 
 25 H       -2.2790     0.4990     0.9160 H     1 <1>   0.3700 
 26 H       -2.4700     3.2950    -1.2590 H     1 <1>   0.0800 
 27 H       -2.3370     2.7910     0.4000 H     1 <1>   0.0800 
 28 H       -2.1500    -1.4090    -1.3640 H     1 <1>   0.0800 
 29 H       -0.0560     2.9210    -1.5920 H     1 <1>   0.0800 
 30 H        0.1030     2.3600     0.0440 H     1 <1>   0.0800 
 31 H       -4.5730    -0.7630    -0.3030 H     1 <1>   0.0800 
 32 H       -0.7590    -1.5580     0.9490 H     1 <1>   0.0800 
 33 H       -1.5540    -3.0050     0.3400 H     1 <1>   0.0800 
 34 H       -4.4480    -2.6950     1.7320 H     1 <1>   0.0800 
 35 H       -4.2200    -0.9740     1.9880 H     1 <1>   0.0800 
 36 H       -3.6830    -3.6450    -0.6360 H     1 <1>   0.0800 
 37 H       -4.2120    -2.6090    -1.9240 H     1 <1>   0.0800 
 38 H       -0.6330     5.3130    -2.0550 H     1 <1>   0.1500 
 39 H        0.1610     3.9310     1.9060 H     1 <1>   0.1500 
 40 H       -0.3260     7.6350    -1.2950 H     1 <1>   0.1500 
 41 H        0.4640     6.2420     2.6530 H     1 <1>   0.1500 
 42 H       -6.6340    -1.6060    -1.7540 H     1 <1>   0.1500 
 43 H       -5.3590    -4.8910     0.6290 H     1 <1>   0.1500 
 44 H       -8.9260    -2.2580    -1.2720 H     1 <1>   0.1500 
 45 H       -7.7010    -5.4100     1.0130 H     1 <1>   0.1500 
 46 H        0.4750     8.4310     2.0580 H     1 <1>   0.4500 
@<TRIPOS>BOND
  1   1   2  2   
  2   2   3  am  
  3   2   4  1   
  4   3   5  1   
  5   3  25  1   
  6   4   6  1   
  7   4  26  1   
  8   4  27  1   
  9   5   7  1   
 10   5   8  1   
 11   5  28  1   
 12   6   9  1   
 13   6  29  1   
 14   6  30  1   
 15   7  10  1   
 16   7  11  1   
 17   7  31  1   
 18   8  12  1   
 19   8  32  1   
 20   8  33  1   
 21   9  13  ar  
 22   9  14  ar  
 23  10  12  1   
 24  10  34  1   
 25  10  35  1   
 26  11  15  1   
 27  11  36  1   
 28  11  37  1   
 29  13  16  ar  
 30  13  38  1   
 31  14  17  ar  
 32  14  39  1   
 33  15  18  ar  
 34  15  19  ar  
 35  16  20  ar  
 36  16  40  1   
 37  17  20  ar  
 38  17  41  1   
 39  18  21  ar  
 40  18  42  1   
 41  19  22  ar  
 42  19  43  1   
 43  20  23  1   
 44  21  24  ar  
 45  21  44  1   
 46  22  24  ar  
 47  22  45  1   
 48  23  46  1   
@<TRIPOS>SUBSTRUCTURE
  1 ****   3 GROUP 4 **** **** 0

# MOE 2024.06 (io_trps.svl 2023.06)
