@<TRIPOS>MOLECULE
NONAME
53 54 1 0 0 
SMALL
USER_CHARGES


@<TRIPOS>ATOM
  1 O        2.8450    -1.7920     1.1330 O.co2 1 <1>  -0.9000 
  2 C        2.6690    -0.6130     1.4770 C.2   1 <1>   0.9060 
  3 O        2.7760    -0.2730     2.6620 O.co2 1 <1>  -0.9000 
  4 C        2.3000     0.4450     0.4080 C.3   1 <1>  -0.1060 
  5 C        3.0520     0.1370    -0.9150 C.3   1 <1>   0.2000 
  6 C        2.7620     1.8570     0.8720 C.3   1 <1>  -0.1600 
  7 C        0.7540     0.4170     0.2310 C.3   1 <1>  -0.1600 
  8 O        2.7310    -1.1330    -1.3610 O.3   1 <1>  -0.6800 
  9 C        4.5790     0.2360    -0.7490 C.3   1 <1>   0.1400 
 10 C        4.2840     1.9270     1.0600 C.3   1 <1>   0.1400 
 11 C        0.1650     1.3470    -0.8460 C.3   1 <1>  -0.1600 
 12 N        4.9570     1.5910    -0.2300 N.am  1 <1>  -0.6600 
 13 C       -1.3600     1.2150    -0.9000 C.3   1 <1>  -0.2400 
 14 C        5.8140     2.4100    -0.9180 C.2   1 <1>   0.5690 
 15 O        6.3060     2.0810    -1.9730 O.2   1 <1>  -0.5700 
 16 C        6.1640     3.7810    -0.3570 C.3   1 <1>  -0.0990 
 17 C        7.1510     4.5810    -1.2190 C.3   1 <1>  -0.0170 
 18 C        7.4260     5.9310    -0.5780 C.ar  1 <1>  -0.1430 
 19 C        8.4530     6.0710     0.3420 C.ar  1 <1>  -0.1500 
 20 C        6.6460     7.0300    -0.9000 C.ar  1 <1>  -0.1500 
 21 C        8.7020     7.2970     0.9370 C.ar  1 <1>  -0.1430 
 22 C        6.8850     8.2600    -0.3110 C.ar  1 <1>  -0.1430 
 23 C        7.9130     8.3860     0.6080 C.ar  1 <1>  -0.1500 
 24 C        9.8270     7.4440     1.9450 C.3   1 <1>  -0.0970 
 25 C        6.0270     9.4600    -0.6670 C.3   1 <1>  -0.0970 
 26 H        2.7610     0.8250    -1.6880 H     1 <1>   0.0800 
 27 H        2.2880     2.0990     1.8070 H     1 <1>   0.0800 
 28 H        2.4810     2.6070     0.1570 H     1 <1>   0.0800 
 29 H        0.4650    -0.5950    -0.0010 H     1 <1>   0.0800 
 30 H        0.3060     0.6530     1.1820 H     1 <1>   0.0800 
 31 H        2.7460    -1.7060    -0.5350 H     1 <1>   0.4000 
 32 H        5.0450     0.0520    -1.7000 H     1 <1>   0.0800 
 33 H        4.9180    -0.5110    -0.0520 H     1 <1>   0.0800 
 34 H        4.5990     1.2250     1.8150 H     1 <1>   0.0800 
 35 H        4.5500     2.9080     1.4040 H     1 <1>   0.0800 
 36 H        0.4140     2.3710    -0.6370 H     1 <1>   0.0800 
 37 H        0.5650     1.0880    -1.8110 H     1 <1>   0.0800 
 38 H       -1.7920     1.4840     0.0480 H     1 <1>   0.0800 
 39 H       -1.6370     0.2020    -1.1330 H     1 <1>   0.0800 
 40 H       -1.7590     1.8650    -1.6580 H     1 <1>   0.0800 
 41 H        5.2570     4.3480    -0.2590 H     1 <1>   0.0800 
 42 H        6.5910     3.6490     0.6200 H     1 <1>   0.0800 
 43 H        6.7420     4.7210    -2.2050 H     1 <1>   0.0800 
 44 H        8.0700     4.0310    -1.3230 H     1 <1>   0.0800 
 45 H        9.0610     5.2210     0.5960 H     1 <1>   0.1500 
 46 H        5.8480     6.9250    -1.6130 H     1 <1>   0.1500 
 47 H        8.1000     9.3390     1.0710 H     1 <1>   0.1500 
 48 H       10.2440     8.4340     1.9000 H     1 <1>   0.0800 
 49 H       10.6110     6.7370     1.7400 H     1 <1>   0.0800 
 50 H        9.4510     7.2690     2.9370 H     1 <1>   0.0800 
 51 H        6.6090    10.3630    -0.6230 H     1 <1>   0.0800 
 52 H        5.2090     9.5390     0.0270 H     1 <1>   0.0800 
 53 H        5.6320     9.3600    -1.6610 H     1 <1>   0.0800 
@<TRIPOS>BOND
  1   1   2  ar  
  2   2   3  ar  
  3   2   4  1   
  4   4   5  1   
  5   4   6  1   
  6   4   7  1   
  7   5   8  1   
  8   5   9  1   
  9   5  26  1   
 10   6  10  1   
 11   6  27  1   
 12   6  28  1   
 13   7  11  1   
 14   7  29  1   
 15   7  30  1   
 16   8  31  1   
 17   9  12  1   
 18   9  32  1   
 19   9  33  1   
 20  10  12  1   
 21  10  34  1   
 22  10  35  1   
 23  11  13  1   
 24  11  36  1   
 25  11  37  1   
 26  12  14  am  
 27  13  38  1   
 28  13  39  1   
 29  13  40  1   
 30  14  15  2   
 31  14  16  1   
 32  16  17  1   
 33  16  41  1   
 34  16  42  1   
 35  17  18  1   
 36  17  43  1   
 37  17  44  1   
 38  18  19  ar  
 39  18  20  ar  
 40  19  21  ar  
 41  19  45  1   
 42  20  22  ar  
 43  20  46  1   
 44  21  23  ar  
 45  21  24  1   
 46  22  23  ar  
 47  22  25  1   
 48  23  47  1   
 49  24  48  1   
 50  24  49  1   
 51  24  50  1   
 52  25  51  1   
 53  25  52  1   
 54  25  53  1   
@<TRIPOS>SUBSTRUCTURE
  1 ****  14 GROUP 4 **** **** 0

# MOE 2024.06 (io_trps.svl 2023.06)
