@<TRIPOS>MOLECULE
NONAME
49 51 1 0 0 
SMALL
USER_CHARGES


@<TRIPOS>ATOM
  1 O        0.3680    -0.4510    -1.3230 O.2   1 <1>  -0.5700 
  2 C        0.9940    -1.3740    -0.8640 C.2   1 <1>   0.5690 
  3 N        0.4430    -2.3340    -0.0590 N.am  1 <1>  -0.6600 
  4 C        2.4690    -1.4920    -1.1840 C.3   1 <1>  -0.0990 
  5 C        1.2820    -3.4040     0.5300 C.3   1 <1>   0.1400 
  6 C       -0.9910    -2.3130     0.3380 C.3   1 <1>   0.0600 
  7 C        2.8210    -2.9490    -1.5340 C.3   1 <1>  -0.0800 
  8 C        2.2590    -3.9740    -0.5220 C.3   1 <1>  -0.0800 
  9 C        4.3340    -3.1920    -1.6290 C.3   1 <1>  -0.1600 
 10 C        3.4830    -4.6530     0.1060 C.3   1 <1>  -0.1600 
 11 C        4.5590    -4.5500    -0.9740 C.3   1 <1>   0.4230 
 12 N        5.9690    -4.7690    -0.5190 N.4   1 <1>  -0.9590 
 13 C        6.3690    -4.2490     0.8290 C.3   1 <1>   0.4860 
 14 C        6.3110    -6.2200    -0.6180 C.3   1 <1>   0.2630 
 15 C        6.5210    -2.7400     0.7850 C.ar  1 <1>  -0.1440 
 16 C        7.5300    -2.1600     0.0310 C.ar  1 <1>  -0.1500 
 17 C        5.6510    -1.9190     1.4880 C.ar  1 <1>  -0.1500 
 18 C        7.6440    -0.7840    -0.0370 C.ar  1 <1>  -0.1500 
 19 C        5.7730    -0.5430     1.4120 C.ar  1 <1>  -0.1500 
 20 C        6.7700     0.0620     0.6450 C.ar  1 <1>   0.0860 
 21 C        6.9070     1.5060     0.5430 C.2   1 <1>   0.5440 
 22 O        7.4910     2.0200    -0.3850 O.2   1 <1>  -0.5700 
 23 N        6.4010     2.3520     1.4690 N.am  1 <1>  -0.8000 
 24 H        2.7060    -0.8440    -2.0090 H     1 <1>   0.0800 
 25 H        3.0200    -1.1570    -0.3250 H     1 <1>   0.0800 
 26 H        1.8240    -2.9770     1.3570 H     1 <1>   0.0800 
 27 H        0.6580    -4.1950     0.9120 H     1 <1>   0.0800 
 28 H       -1.4690    -3.2260     0.0290 H     1 <1>   0.0800 
 29 H       -1.5010    -1.4860    -0.1270 H     1 <1>   0.0800 
 30 H       -1.0730    -2.2100     1.4060 H     1 <1>   0.0800 
 31 H        2.3730    -3.1630    -2.4930 H     1 <1>   0.0800 
 32 H        1.7190    -4.7170    -1.0860 H     1 <1>   0.0800 
 33 H        4.8530    -2.4090    -1.1130 H     1 <1>   0.0800 
 34 H        4.6520    -3.2000    -2.6560 H     1 <1>   0.0800 
 35 H        3.2700    -5.6750     0.3640 H     1 <1>   0.0800 
 36 H        3.7580    -4.1040     0.9840 H     1 <1>   0.0800 
 37 H        4.3220    -5.2870    -1.7260 H     1 <1>   0.0800 
 38 H        6.5540    -4.2540    -1.1900 H     1 <1>   0.4500 
 39 H        5.6500    -4.5350     1.5780 H     1 <1>   0.0800 
 40 H        7.3210    -4.6700     1.1120 H     1 <1>   0.0800 
 41 H        5.7140    -6.7950     0.0720 H     1 <1>   0.0800 
 42 H        7.3530    -6.3790    -0.3880 H     1 <1>   0.0800 
 43 H        6.1250    -6.5820    -1.6170 H     1 <1>   0.0800 
 44 H        8.2400    -2.7620    -0.5110 H     1 <1>   0.1500 
 45 H        4.8670    -2.3340     2.0980 H     1 <1>   0.1500 
 46 H        8.4280    -0.3420    -0.6310 H     1 <1>   0.1500 
 47 H        5.0760     0.0740     1.9520 H     1 <1>   0.1500 
 48 H        6.5490     3.3540     1.3380 H     1 <1>   0.3700 
 49 H        6.0110     2.0640     2.3640 H     1 <1>   0.3700 
@<TRIPOS>BOND
  1   1   2  2   
  2   2   3  am  
  3   2   4  1   
  4   3   5  1   
  5   3   6  1   
  6   4   7  1   
  7   4  24  1   
  8   4  25  1   
  9   5   8  1   
 10   5  26  1   
 11   5  27  1   
 12   6  28  1   
 13   6  29  1   
 14   6  30  1   
 15   7   8  1   
 16   7   9  1   
 17   7  31  1   
 18   8  10  1   
 19   8  32  1   
 20   9  11  1   
 21   9  33  1   
 22   9  34  1   
 23  10  11  1   
 24  10  35  1   
 25  10  36  1   
 26  11  12  1   
 27  11  37  1   
 28  12  13  1   
 29  12  14  1   
 30  12  38  1   
 31  13  15  1   
 32  13  39  1   
 33  13  40  1   
 34  14  41  1   
 35  14  42  1   
 36  14  43  1   
 37  15  16  ar  
 38  15  17  ar  
 39  16  18  ar  
 40  16  44  1   
 41  17  19  ar  
 42  17  45  1   
 43  18  20  ar  
 44  18  46  1   
 45  19  20  ar  
 46  19  47  1   
 47  20  21  1   
 48  21  22  2   
 49  21  23  am  
 50  23  48  1   
 51  23  49  1   
@<TRIPOS>SUBSTRUCTURE
  1 ****   9 GROUP 4 **** **** 0

# MOE 2024.06 (io_trps.svl 2023.06)
