@<TRIPOS>MOLECULE
NONAME
50 52 1 0 0 
SMALL
USER_CHARGES


@<TRIPOS>ATOM
  1 O        0.8550     2.9560    -0.4630 O.2   1 <1>  -0.5700 
  2 C       -0.3600     2.7990    -0.4700 C.2   1 <1>   0.7670 
  3 N       -0.8370     1.6830    -1.0930 N.2   1 <1>  -0.6610 
  4 C       -1.2340     3.7460     0.1500 C.2   1 <1>  -0.1240 
  5 C       -2.1050     1.5210    -1.1170 C.2   1 <1>   0.4390 
  6 C       -2.5740     3.5330     0.0790 C.2   1 <1>  -0.0380 
  7 C       -0.5670     4.9440     0.8360 C.3   1 <1>   0.0390 
  8 N       -2.9860     2.3950    -0.5580 N.pl3 1 <1>  -0.5500 
  9 C       -2.6920     0.3080    -1.7940 C.3   1 <1>  -0.1790 
 10 C       -3.6910     4.4160     0.6140 C.3   1 <1>  -0.1020 
 11 C        0.0840     5.8500    -0.2030 C.2   1 <1>   0.5690 
 12 O       -0.6520     6.3350    -1.0280 O.2   1 <1>  -0.5700 
 13 N        1.4370     6.0850    -0.2510 N.am  1 <1>  -0.6600 
 14 C        2.3750     5.9620     0.9300 C.3   1 <1>   0.2200 
 15 C        2.0020     6.5080    -1.5720 C.3   1 <1>   0.1400 
 16 C        3.1970     7.2450     1.1400 C.3   1 <1>   0.1200 
 17 C        3.2970     4.7200     0.8440 C.3   1 <1>   0.3430 
 18 C        3.5300     6.4000    -1.7200 C.3   1 <1>  -0.0800 
 19 O        4.3770     7.2260     0.3980 O.3   1 <1>  -0.5600 
 20 N        3.3790     4.1360    -0.5320 N.4   1 <1>  -0.9590 
 21 C        4.2670     7.5100    -0.9550 C.3   1 <1>   0.1200 
 22 C        4.1380     5.0030    -1.4810 C.3   1 <1>   0.3430 
 23 C        4.0690     2.7860    -0.4330 C.3   1 <1>   0.2370 
 24 C        5.4930     2.8370     0.1290 C.2   1 <1>   0.9060 
 25 O        6.4210     3.0150    -0.6660 O.co2 1 <1>  -0.9000 
 26 O        5.6340     2.8310     1.3560 O.co2 1 <1>  -0.9000 
 27 H        0.1530     4.5630     1.5320 H     1 <1>   0.0800 
 28 H       -1.2680     5.5270     1.3970 H     1 <1>   0.0800 
 29 H       -3.9840     2.1880    -0.6430 H     1 <1>   0.4000 
 30 H       -3.3320     0.6130    -2.6010 H     1 <1>   0.0800 
 31 H       -3.2570    -0.2700    -1.0870 H     1 <1>   0.0800 
 32 H       -1.9070    -0.3090    -2.1930 H     1 <1>   0.0800 
 33 H       -4.4470     4.5430    -0.1410 H     1 <1>   0.0800 
 34 H       -3.3450     5.3950     0.8820 H     1 <1>   0.0800 
 35 H       -4.1400     3.9590     1.4780 H     1 <1>   0.0800 
 36 H        1.7890     5.8650     1.8240 H     1 <1>   0.0800 
 37 H        1.5460     5.9020    -2.3380 H     1 <1>   0.0800 
 38 H        1.6980     7.5240    -1.7580 H     1 <1>   0.0800 
 39 H        3.4950     7.3030     2.1720 H     1 <1>   0.0800 
 40 H        2.6280     8.1280     0.9020 H     1 <1>   0.0800 
 41 H        2.9170     3.9680     1.5140 H     1 <1>   0.0800 
 42 H        4.2870     4.9740     1.1930 H     1 <1>   0.0800 
 43 H        3.7280     6.6190    -2.7530 H     1 <1>   0.0800 
 44 H        2.4030     3.9750    -0.8480 H     1 <1>   0.4500 
 45 H        3.7810     8.4640    -1.0720 H     1 <1>   0.0800 
 46 H        5.2730     7.5980    -1.3310 H     1 <1>   0.0800 
 47 H        5.1510     5.1170    -1.1240 H     1 <1>   0.0800 
 48 H        4.1950     4.4910    -2.4270 H     1 <1>   0.0800 
 49 H        3.4980     2.1360     0.2040 H     1 <1>   0.0800 
 50 H        4.1260     2.3350    -1.4070 H     1 <1>   0.0800 
@<TRIPOS>BOND
  1   1   2  2   
  2   2   3  1   
  3   2   4  1   
  4   3   5  2   
  5   4   6  2   
  6   4   7  1   
  7   5   8  1   
  8   5   9  1   
  9   6   8  1   
 10   6  10  1   
 11   7  11  1   
 12   7  27  1   
 13   7  28  1   
 14   8  29  1   
 15   9  30  1   
 16   9  31  1   
 17   9  32  1   
 18  10  33  1   
 19  10  34  1   
 20  10  35  1   
 21  11  12  2   
 22  11  13  am  
 23  13  14  1   
 24  13  15  1   
 25  14  16  1   
 26  14  17  1   
 27  14  36  1   
 28  15  18  1   
 29  15  37  1   
 30  15  38  1   
 31  16  19  1   
 32  16  39  1   
 33  16  40  1   
 34  17  20  1   
 35  17  41  1   
 36  17  42  1   
 37  18  21  1   
 38  18  22  1   
 39  18  43  1   
 40  19  21  1   
 41  20  22  1   
 42  20  23  1   
 43  20  44  1   
 44  21  45  1   
 45  21  46  1   
 46  22  47  1   
 47  22  48  1   
 48  23  24  1   
 49  23  49  1   
 50  23  50  1   
 51  24  25  ar  
 52  24  26  ar  
@<TRIPOS>SUBSTRUCTURE
  1 ****   1 GROUP 4 **** **** 0

# MOE 2024.06 (io_trps.svl 2023.06)
