@<TRIPOS>MOLECULE
NONAME
48 50 1 0 0 
SMALL
USER_CHARGES


@<TRIPOS>ATOM
  1 O       -0.6720     0.2180     1.5280 O.2   1 <1>  -0.5700 
  2 C       -1.5730     0.7980     0.9500 C.2   1 <1>   0.5440 
  3 N       -2.7060     0.0960     0.6150 N.am  1 <1>  -0.6600 
  4 C       -1.4530     2.2030     0.6100 C.ar  1 <1>   0.0860 
  5 C       -3.7400     0.5670    -0.3400 C.3   1 <1>   0.1400 
  6 C       -2.9060    -1.3380     0.9130 C.3   1 <1>   0.1400 
  7 C       -0.5400     2.6750    -0.3400 C.ar  1 <1>  -0.1440 
  8 C       -2.2880     3.1310     1.2330 C.ar  1 <1>  -0.1500 
  9 C       -4.6400    -0.6470    -0.6130 C.3   1 <1>   0.2000 
 10 C       -3.7650    -1.8510    -0.2440 C.3   1 <1>  -0.0800 
 11 C       -0.4880     4.0250    -0.6460 C.ar  1 <1>  -0.1500 
 12 C        0.4070     1.7140    -1.0470 C.3   1 <1>  -0.0960 
 13 C       -2.2390     4.4790     0.9270 C.ar  1 <1>  -0.1430 
 14 O       -5.7510    -0.6180     0.2380 O.3   1 <1>  -0.5600 
 15 C       -4.5450    -3.1350     0.0920 C.3   1 <1>   0.0200 
 16 C       -1.3330     4.9220    -0.0180 C.ar  1 <1>  -0.1500 
 17 C       -3.1580     5.4690     1.6200 C.3   1 <1>  -0.0970 
 18 C       -6.8300     0.1360    -0.2170 C.3   1 <1>   0.0400 
 19 C       -3.6480    -4.3480     0.2790 C.2   1 <1>  -0.0400 
 20 O       -4.1920    -5.4810     0.6380 O.3   1 <1>  -0.0190 
 21 C       -2.3270    -4.5550     0.1500 C.2   1 <1>  -0.1500 
 22 N       -3.3100    -6.4300     0.7580 N.2   1 <1>  -0.4100 
 23 C       -2.1760    -5.9000     0.4710 C.2   1 <1>   0.1080 
 24 C       -0.8600    -6.6450     0.4850 C.3   1 <1>  -0.0590 
 25 H       -4.2960     1.3890     0.0730 H     1 <1>   0.0800 
 26 H       -3.2560     0.8780    -1.2500 H     1 <1>   0.0800 
 27 H       -1.9650    -1.8570     0.9830 H     1 <1>   0.0800 
 28 H       -3.4340    -1.4250     1.8470 H     1 <1>   0.0800 
 29 H       -2.9830     2.7720     1.9720 H     1 <1>   0.1500 
 30 H       -4.9760    -0.6950    -1.6350 H     1 <1>   0.0800 
 31 H       -3.1120    -2.0480    -1.0750 H     1 <1>   0.0800 
 32 H        0.2140     4.3900    -1.3740 H     1 <1>   0.1500 
 33 H        0.9880     2.2200    -1.7960 H     1 <1>   0.0800 
 34 H       -0.1490     0.9250    -1.5210 H     1 <1>   0.0800 
 35 H        1.0810     1.2770    -0.3310 H     1 <1>   0.0800 
 36 H       -5.2380    -3.3470    -0.7020 H     1 <1>   0.0800 
 37 H       -5.1160    -2.9890     0.9920 H     1 <1>   0.0800 
 38 H       -1.2780     5.9680    -0.2670 H     1 <1>   0.1500 
 39 H       -3.6480     6.0890     0.8910 H     1 <1>   0.0800 
 40 H       -2.5850     6.0950     2.2800 H     1 <1>   0.0800 
 41 H       -3.9090     4.9600     2.1950 H     1 <1>   0.0800 
 42 H       -7.6050     0.0910     0.5270 H     1 <1>   0.0800 
 43 H       -7.1920    -0.2820    -1.1400 H     1 <1>   0.0800 
 44 H       -6.5250     1.1580    -0.3560 H     1 <1>   0.0800 
 45 H       -1.5390    -3.8810    -0.1310 H     1 <1>   0.1500 
 46 H       -0.1840    -6.1760     1.1760 H     1 <1>   0.0800 
 47 H       -0.4270    -6.6380    -0.4980 H     1 <1>   0.0800 
 48 H       -1.0190    -7.6640     0.7890 H     1 <1>   0.0800 
@<TRIPOS>BOND
  1   1   2  2   
  2   2   3  am  
  3   2   4  1   
  4   3   5  1   
  5   3   6  1   
  6   4   7  ar  
  7   4   8  ar  
  8   5   9  1   
  9   5  25  1   
 10   5  26  1   
 11   6  10  1   
 12   6  27  1   
 13   6  28  1   
 14   7  11  ar  
 15   7  12  1   
 16   8  13  ar  
 17   8  29  1   
 18   9  10  1   
 19   9  14  1   
 20   9  30  1   
 21  10  15  1   
 22  10  31  1   
 23  11  16  ar  
 24  11  32  1   
 25  12  33  1   
 26  12  34  1   
 27  12  35  1   
 28  13  16  ar  
 29  13  17  1   
 30  14  18  1   
 31  15  19  1   
 32  15  36  1   
 33  15  37  1   
 34  16  38  1   
 35  17  39  1   
 36  17  40  1   
 37  17  41  1   
 38  18  42  1   
 39  18  43  1   
 40  18  44  1   
 41  19  20  1   
 42  19  21  2   
 43  20  22  1   
 44  21  23  1   
 45  21  45  1   
 46  22  23  2   
 47  23  24  1   
 48  24  46  1   
 49  24  47  1   
 50  24  48  1   
@<TRIPOS>SUBSTRUCTURE
  1 ****   3 GROUP 4 **** **** 0

# MOE 2024.06 (io_trps.svl 2023.06)
