@<TRIPOS>MOLECULE
NONAME
41 42 1 0 0 
SMALL
USER_CHARGES


@<TRIPOS>ATOM
  1 S        0.0420    -0.6720     0.9160 S.3   1 <1>  -0.0800 
  2 C       -1.2230     0.2630     0.1320 C.2   1 <1>  -0.1400 
  3 C        1.2850     0.3770     0.2590 C.2   1 <1>  -0.1100 
  4 C       -0.6910     1.2860    -0.5620 C.2   1 <1>  -0.1500 
  5 C       -2.6620    -0.1870     0.3500 C.3   1 <1>   0.0810 
  6 C        0.7370     1.3510    -0.4910 C.2   1 <1>  -0.1500 
  7 C       -3.0570    -1.4690    -0.3820 C.2   1 <1>   0.5690 
  8 O       -2.4080    -1.8040    -1.3470 O.2   1 <1>  -0.5700 
  9 N       -4.1460    -2.1980     0.0350 N.am  1 <1>  -0.6600 
 10 C       -4.4710    -3.5330    -0.5650 C.3   1 <1>   0.1400 
 11 C       -5.1350    -1.7770     1.0690 C.3   1 <1>   0.1400 
 12 C       -5.8840    -3.5180    -1.1680 C.3   1 <1>   0.2000 
 13 C       -6.5430    -1.7470     0.4580 C.3   1 <1>  -0.1600 
 14 O       -6.1560    -4.7700    -1.6940 O.3   1 <1>  -0.6800 
 15 C       -6.9680    -3.1250    -0.1270 C.3   1 <1>  -0.1060 
 16 C       -7.0350    -4.1990     0.9850 C.2   1 <1>   0.9060 
 17 C       -8.3430    -2.9960    -0.8460 C.3   1 <1>  -0.1600 
 18 O       -6.9570    -5.3980     0.6740 O.co2 1 <1>  -0.9000 
 19 O       -7.1520    -3.8550     2.1680 O.co2 1 <1>  -0.9000 
 20 C       -9.5130    -2.5640     0.0560 C.3   1 <1>  -0.1600 
 21 C      -10.8340    -2.5680    -0.7180 C.3   1 <1>  -0.2400 
 22 H        2.3060     0.1480     0.5060 H     1 <1>   0.1500 
 23 H       -1.2440     2.0090    -1.1350 H     1 <1>   0.1500 
 24 H       -2.7960    -0.3270     1.4050 H     1 <1>   0.0800 
 25 H       -3.3230     0.5920     0.0230 H     1 <1>   0.0800 
 26 H        1.2810     2.1220    -1.0080 H     1 <1>   0.1500 
 27 H       -3.7640    -3.7830    -1.3370 H     1 <1>   0.0800 
 28 H       -4.4140    -4.2830     0.2040 H     1 <1>   0.0800 
 29 H       -5.1030    -2.4730     1.8910 H     1 <1>   0.0800 
 30 H       -4.9120    -0.8020     1.4580 H     1 <1>   0.0800 
 31 H       -5.8910    -2.8260    -1.9920 H     1 <1>   0.0800 
 32 H       -7.2270    -1.4580     1.2360 H     1 <1>   0.0800 
 33 H       -6.5780    -0.9920    -0.3060 H     1 <1>   0.0800 
 34 H       -6.4730    -5.3180    -0.9120 H     1 <1>   0.4000 
 35 H       -8.2540    -2.3020    -1.6620 H     1 <1>   0.0800 
 36 H       -8.5910    -3.9560    -1.2690 H     1 <1>   0.0800 
 37 H       -9.5930    -3.2390     0.8930 H     1 <1>   0.0800 
 38 H       -9.3410    -1.5760     0.4440 H     1 <1>   0.0800 
 39 H      -11.0440    -3.5560    -1.0860 H     1 <1>   0.0800 
 40 H      -10.7830    -1.8890    -1.5510 H     1 <1>   0.0800 
 41 H      -11.6380    -2.2650    -0.0720 H     1 <1>   0.0800 
@<TRIPOS>BOND
  1   1   2  1   
  2   1   3  1   
  3   2   4  2   
  4   2   5  1   
  5   3   6  2   
  6   3  22  1   
  7   4   6  1   
  8   4  23  1   
  9   5   7  1   
 10   5  24  1   
 11   5  25  1   
 12   6  26  1   
 13   7   8  2   
 14   7   9  am  
 15   9  10  1   
 16   9  11  1   
 17  10  12  1   
 18  10  27  1   
 19  10  28  1   
 20  11  13  1   
 21  11  29  1   
 22  11  30  1   
 23  12  14  1   
 24  12  15  1   
 25  12  31  1   
 26  13  15  1   
 27  13  32  1   
 28  13  33  1   
 29  14  34  1   
 30  15  16  1   
 31  15  17  1   
 32  16  18  ar  
 33  16  19  ar  
 34  17  20  1   
 35  17  35  1   
 36  17  36  1   
 37  20  21  1   
 38  20  37  1   
 39  20  38  1   
 40  21  39  1   
 41  21  40  1   
 42  21  41  1   
@<TRIPOS>SUBSTRUCTURE
  1 ****   9 GROUP 4 **** **** 0

# MOE 2024.06 (io_trps.svl 2023.06)
