@<TRIPOS>MOLECULE
NONAME
44 46 1 0 0 
SMALL
USER_CHARGES


@<TRIPOS>ATOM
  1 S        1.1720     0.8610     2.2550 S.3   1 <1>  -0.0800 
  2 C        0.8620    -0.2620     0.9560 C.2   1 <1>   0.1980 
  3 C        2.1750     1.7860     1.1740 C.2   1 <1>  -0.1400 
  4 N        1.4380     0.0220    -0.1450 N.2   1 <1>  -0.5650 
  5 C       -0.0460    -1.4460     1.2400 C.3   1 <1>   0.5230 
  6 C        2.1840     1.1840    -0.0290 C.2   1 <1>   0.0460 
  7 C        2.8220     3.0330     1.7490 C.3   1 <1>  -0.0600 
  8 N       -0.2090    -2.2160    -0.0380 N.4   1 <1>  -0.9590 
  9 C        2.9210     1.6340    -1.2740 C.3   1 <1>  -0.0590 
 10 C       -1.5210    -2.0860    -0.7280 C.3   1 <1>   0.4230 
 11 C        0.2360    -3.6340     0.0990 C.3   1 <1>   0.2630 
 12 C       -2.7100    -2.5920     0.0860 C.3   1 <1>  -0.1600 
 13 C       -1.8850    -0.6460    -1.0760 C.3   1 <1>  -0.1600 
 14 C       -3.9300    -1.9490    -0.5890 C.3   1 <1>  -0.0800 
 15 C       -3.4020    -0.6810    -1.3080 C.3   1 <1>  -0.0800 
 16 C       -5.1170    -1.7300     0.3740 C.3   1 <1>   0.1400 
 17 C       -4.1080     0.6270    -0.8980 C.3   1 <1>  -0.0990 
 18 N       -6.0270    -0.7140    -0.1860 N.am  1 <1>  -0.7300 
 19 C       -5.6020     0.4140    -0.7930 C.2   1 <1>   0.5690 
 20 O       -6.3740     1.2250    -1.2290 O.2   1 <1>  -0.5700 
 21 H       -0.9950    -1.0900     1.6000 H     1 <1>   0.0800 
 22 H        0.4080    -2.0600     1.9990 H     1 <1>   0.0800 
 23 H        3.4190     3.5330     1.0080 H     1 <1>   0.0800 
 24 H        3.4550     2.7680     2.5770 H     1 <1>   0.0800 
 25 H        2.0650     3.7130     2.0960 H     1 <1>   0.0800 
 26 H        0.4760    -1.7260    -0.6510 H     1 <1>   0.4500 
 27 H        3.4700     2.5390    -1.0920 H     1 <1>   0.0800 
 28 H        2.2190     1.8110    -2.0670 H     1 <1>   0.0800 
 29 H        3.6100     0.8700    -1.5830 H     1 <1>   0.0800 
 30 H       -1.4910    -2.6430    -1.6510 H     1 <1>   0.0800 
 31 H       -0.4180    -4.1720     0.7650 H     1 <1>   0.0800 
 32 H        1.2410    -3.6750     0.4890 H     1 <1>   0.0800 
 33 H        0.2250    -4.1220    -0.8630 H     1 <1>   0.0800 
 34 H       -2.7810    -3.6650     0.0630 H     1 <1>   0.0800 
 35 H       -2.6480    -2.2550     1.1050 H     1 <1>   0.0800 
 36 H       -1.6680     0.0210    -0.2620 H     1 <1>   0.0800 
 37 H       -1.3660    -0.3090    -1.9560 H     1 <1>   0.0800 
 38 H       -4.2740    -2.6240    -1.3560 H     1 <1>   0.0800 
 39 H       -3.5810    -0.8190    -2.3630 H     1 <1>   0.0800 
 40 H       -4.7700    -1.3790     1.3310 H     1 <1>   0.0800 
 41 H       -5.6500    -2.6540     0.5220 H     1 <1>   0.0800 
 42 H       -3.9090     1.4010    -1.6180 H     1 <1>   0.0800 
 43 H       -3.7650     0.9660     0.0620 H     1 <1>   0.0800 
 44 H       -7.0370    -0.8380    -0.0830 H     1 <1>   0.3700 
@<TRIPOS>BOND
  1   1   2  1   
  2   1   3  1   
  3   2   4  2   
  4   2   5  1   
  5   3   6  2   
  6   3   7  1   
  7   4   6  1   
  8   5   8  1   
  9   5  21  1   
 10   5  22  1   
 11   6   9  1   
 12   7  23  1   
 13   7  24  1   
 14   7  25  1   
 15   8  10  1   
 16   8  11  1   
 17   8  26  1   
 18   9  27  1   
 19   9  28  1   
 20   9  29  1   
 21  10  12  1   
 22  10  13  1   
 23  10  30  1   
 24  11  31  1   
 25  11  32  1   
 26  11  33  1   
 27  12  14  1   
 28  12  34  1   
 29  12  35  1   
 30  13  15  1   
 31  13  36  1   
 32  13  37  1   
 33  14  15  1   
 34  14  16  1   
 35  14  38  1   
 36  15  17  1   
 37  15  39  1   
 38  16  18  1   
 39  16  40  1   
 40  16  41  1   
 41  17  19  1   
 42  17  42  1   
 43  17  43  1   
 44  18  19  am  
 45  18  44  1   
 46  19  20  2   
@<TRIPOS>SUBSTRUCTURE
  1 ****  13 GROUP 4 **** **** 0

# MOE 2024.06 (io_trps.svl 2023.06)
