@<TRIPOS>MOLECULE
NONAME
56 58 1 0 0 
SMALL
USER_CHARGES


@<TRIPOS>ATOM
  1 F       -1.0010    -0.4100    -1.0060 F     1 <1>  -0.1900 
  2 C       -2.1890     0.1280    -0.9000 C.ar  1 <1>   0.1900 
  3 C       -2.4770     1.1050     0.0590 C.ar  1 <1>   0.0830 
  4 C       -3.1500    -0.3270    -1.7830 C.ar  1 <1>  -0.1500 
  5 O       -1.6190     1.6320     0.9780 O.3   1 <1>  -0.3630 
  6 C       -3.7690     1.6040     0.1010 C.ar  1 <1>  -0.1500 
  7 C       -4.4300     0.1900    -1.7140 C.ar  1 <1>  -0.1500 
  8 C       -0.2340     1.3640     0.9770 C.3   1 <1>   0.0400 
  9 C       -4.7660     1.1580    -0.7650 C.ar  1 <1>   0.0530 
 10 C       -6.1070     1.6710    -0.6720 C.2   1 <1>   0.0870 
 11 O       -6.3360     2.9470    -0.5070 O.3   1 <1>  -0.0190 
 12 C       -7.3130     1.0490    -0.7070 C.2   1 <1>  -0.0860 
 13 N       -7.6120     3.2250    -0.4340 N.2   1 <1>  -0.4100 
 14 C       -8.2220     2.0970    -0.5510 C.2   1 <1>   0.3720 
 15 C       -7.6210    -0.3380    -0.8000 C.2   1 <1>   0.7160 
 16 N       -9.6140     1.9500    -0.4990 N.pl3 1 <1>  -0.8210 
 17 O       -8.4760    -0.7770    -1.5490 O.2   1 <1>  -0.5700 
 18 N       -6.9410    -1.2300    -0.0220 N.am  1 <1>  -0.7300 
 19 C      -10.2400     2.0050    -1.8480 C.3   1 <1>   0.1290 
 20 C      -10.2920     2.8860     0.4440 C.3   1 <1>   0.1290 
 21 C       -7.1900    -2.6900     0.0460 C.3   1 <1>   0.2200 
 22 C       -8.5800    -3.0200     0.6340 C.3   1 <1>   0.4230 
 23 C       -6.1840    -3.3820     0.9740 C.3   1 <1>  -0.1600 
 24 N       -9.7060    -2.9340    -0.3540 N.4   1 <1>  -0.9590 
 25 C       -8.4030    -4.3850     1.2930 C.3   1 <1>  -0.1600 
 26 C       -6.9930    -4.3170     1.8870 C.3   1 <1>  -0.1600 
 27 C      -11.0290    -2.8230     0.3250 C.3   1 <1>   0.2630 
 28 C       -9.7200    -3.9820    -1.4200 C.3   1 <1>   0.2630 
 29 H       -2.8910    -1.0720    -2.5150 H     1 <1>   0.1500 
 30 H       -4.0030     2.3590     0.8310 H     1 <1>   0.1500 
 31 H       -5.1770    -0.1560    -2.4080 H     1 <1>   0.1500 
 32 H        0.2240     1.9670     1.7410 H     1 <1>   0.0800 
 33 H        0.1740     1.6230     0.0160 H     1 <1>   0.0800 
 34 H       -0.0770     0.3220     1.1950 H     1 <1>   0.0800 
 35 H       -6.1680    -0.8750     0.5470 H     1 <1>   0.3700 
 36 H      -11.2770     1.7270    -1.7840 H     1 <1>   0.0800 
 37 H       -9.7410     1.3250    -2.5160 H     1 <1>   0.0800 
 38 H      -10.1640     3.0020    -2.2490 H     1 <1>   0.0800 
 39 H      -11.3150     2.5860     0.5900 H     1 <1>   0.0800 
 40 H      -10.2690     3.8900     0.0530 H     1 <1>   0.0800 
 41 H       -9.7890     2.8750     1.3950 H     1 <1>   0.0800 
 42 H       -7.0990    -3.1180    -0.9370 H     1 <1>   0.0800 
 43 H       -8.7540    -2.3050     1.4200 H     1 <1>   0.0800 
 44 H       -5.4890    -3.9550     0.3850 H     1 <1>   0.0800 
 45 H       -5.6300    -2.6770     1.5710 H     1 <1>   0.0800 
 46 H       -9.5330    -2.0280    -0.8470 H     1 <1>   0.4500 
 47 H       -9.1390    -4.5620     2.0580 H     1 <1>   0.0800 
 48 H       -8.4280    -5.1790     0.5700 H     1 <1>   0.0800 
 49 H       -7.0400    -3.8940     2.8770 H     1 <1>   0.0800 
 50 H       -6.5440    -5.2940     1.9570 H     1 <1>   0.0800 
 51 H      -11.2490    -3.7280     0.8690 H     1 <1>   0.0800 
 52 H      -11.8080    -2.6570    -0.4010 H     1 <1>   0.0800 
 53 H      -11.0250    -1.9950     1.0150 H     1 <1>   0.0800 
 54 H       -9.9100    -4.9530    -0.9940 H     1 <1>   0.0800 
 55 H       -8.7740    -4.0050    -1.9350 H     1 <1>   0.0800 
 56 H      -10.4920    -3.7650    -2.1410 H     1 <1>   0.0800 
@<TRIPOS>BOND
  1   1   2  1   
  2   2   3  ar  
  3   2   4  ar  
  4   3   5  1   
  5   3   6  ar  
  6   4   7  ar  
  7   4  29  1   
  8   5   8  1   
  9   6   9  ar  
 10   6  30  1   
 11   7   9  ar  
 12   7  31  1   
 13   8  32  1   
 14   8  33  1   
 15   8  34  1   
 16   9  10  1   
 17  10  11  1   
 18  10  12  2   
 19  11  13  1   
 20  12  14  1   
 21  12  15  1   
 22  13  14  2   
 23  14  16  1   
 24  15  17  2   
 25  15  18  am  
 26  16  19  1   
 27  16  20  1   
 28  18  21  1   
 29  18  35  1   
 30  19  36  1   
 31  19  37  1   
 32  19  38  1   
 33  20  39  1   
 34  20  40  1   
 35  20  41  1   
 36  21  22  1   
 37  21  23  1   
 38  21  42  1   
 39  22  24  1   
 40  22  25  1   
 41  22  43  1   
 42  23  26  1   
 43  23  44  1   
 44  23  45  1   
 45  24  27  1   
 46  24  28  1   
 47  24  46  1   
 48  25  26  1   
 49  25  47  1   
 50  25  48  1   
 51  26  49  1   
 52  26  50  1   
 53  27  51  1   
 54  27  52  1   
 55  27  53  1   
 56  28  54  1   
 57  28  55  1   
 58  28  56  1   
@<TRIPOS>SUBSTRUCTURE
  1 ****  18 GROUP 4 **** **** 0

# MOE 2024.06 (io_trps.svl 2023.06)
