@<TRIPOS>MOLECULE
NONAME
51 53 1 0 0 
SMALL
USER_CHARGES


@<TRIPOS>ATOM
  1 O       -2.5960     0.4750    -1.6580 O.2   1 <1>  -0.5700 
  2 C       -1.8880     0.8690    -0.7520 C.2   1 <1>   0.7160 
  3 N       -1.2770    -0.0660     0.0340 N.am  1 <1>  -0.7300 
  4 C       -1.6670     2.2570    -0.4850 C.2   1 <1>  -0.0860 
  5 C       -1.3090    -1.5350    -0.1920 C.3   1 <1>   0.1400 
  6 C       -2.5870     3.3140    -0.5470 C.2   1 <1>   0.3720 
  7 C       -0.5210     2.8640    -0.0750 C.2   1 <1>   0.0870 
  8 C       -2.6540    -2.1190     0.2400 C.3   1 <1>   0.1200 
  9 N       -2.0320     4.4220    -0.1900 N.2   1 <1>  -0.4100 
 10 N       -3.9380     3.2140    -0.9210 N.pl3 1 <1>  -0.8210 
 11 O       -0.7920     4.1300     0.0930 O.3   1 <1>  -0.0190 
 12 C        0.8080     2.3690     0.1720 C.ar  1 <1>   0.0530 
 13 O       -2.5600    -3.5080     0.1980 O.3   1 <1>  -0.5600 
 14 C       -4.7150     4.4590    -1.1710 C.3   1 <1>   0.2090 
 15 C       -4.7730     2.2620    -0.1460 C.3   1 <1>   0.2090 
 16 C        1.4140     1.4480    -0.6830 C.ar  1 <1>  -0.1500 
 17 C        1.5350     2.7950     1.2820 C.ar  1 <1>  -0.1500 
 18 C       -3.7500    -4.1600     0.4880 C.3   1 <1>   0.1200 
 19 C       -5.9020     4.3880    -0.2210 C.3   1 <1>  -0.1600 
 20 C       -6.1550     2.8960    -0.0560 C.3   1 <1>  -0.1600 
 21 C        2.6830     0.9590    -0.4350 C.ar  1 <1>  -0.1500 
 22 C        2.8040     2.3110     1.5360 C.ar  1 <1>  -0.1500 
 23 C       -3.4800    -5.6580     0.4190 C.3   1 <1>  -0.2400 
 24 C        3.3890     1.3880     0.6850 C.ar  1 <1>   0.0830 
 25 O        4.6330     0.9620     1.0040 O.3   1 <1>  -0.3620 
 26 C        5.3410     0.0580     0.1840 C.3   1 <1>   0.0400 
 27 H       -0.6260     0.2580     0.7520 H     1 <1>   0.3700 
 28 H       -0.5200    -1.9960     0.3760 H     1 <1>   0.0800 
 29 H       -1.1550    -1.7400    -1.2380 H     1 <1>   0.0800 
 30 H       -3.4290    -1.8000    -0.4360 H     1 <1>   0.0800 
 31 H       -2.8870    -1.8250     1.2480 H     1 <1>   0.0800 
 32 H       -5.0570     4.4450    -2.1910 H     1 <1>   0.0800 
 33 H       -4.1420     5.3560    -1.0110 H     1 <1>   0.0800 
 34 H       -4.3580     2.1330     0.8390 H     1 <1>   0.0800 
 35 H       -4.8210     1.3090    -0.6460 H     1 <1>   0.0800 
 36 H        0.8850     1.1150    -1.5600 H     1 <1>   0.1500 
 37 H        1.0980     3.5140     1.9530 H     1 <1>   0.1500 
 38 H       -4.4900    -3.8750    -0.2410 H     1 <1>   0.0800 
 39 H       -4.0730    -3.8770     1.4750 H     1 <1>   0.0800 
 40 H       -6.7560     4.9130    -0.6090 H     1 <1>   0.0800 
 41 H       -5.6160     4.8210     0.7210 H     1 <1>   0.0800 
 42 H       -6.6430     2.6610     0.8730 H     1 <1>   0.0800 
 43 H       -6.7560     2.5340    -0.8720 H     1 <1>   0.0800 
 44 H        3.1090     0.2500    -1.1210 H     1 <1>   0.1500 
 45 H        3.3540     2.6460     2.3980 H     1 <1>   0.1500 
 46 H       -3.1450    -5.9270    -0.5660 H     1 <1>   0.0800 
 47 H       -4.3800    -6.2020     0.6370 H     1 <1>   0.0800 
 48 H       -2.7300    -5.9310     1.1400 H     1 <1>   0.0800 
 49 H        6.3030    -0.1160     0.6310 H     1 <1>   0.0800 
 50 H        5.4650     0.4960    -0.7910 H     1 <1>   0.0800 
 51 H        4.7920    -0.8650     0.1260 H     1 <1>   0.0800 
@<TRIPOS>BOND
  1   1   2  2   
  2   2   3  am  
  3   2   4  1   
  4   3   5  1   
  5   3  27  1   
  6   4   6  1   
  7   4   7  2   
  8   5   8  1   
  9   5  28  1   
 10   5  29  1   
 11   6   9  2   
 12   6  10  1   
 13   7  11  1   
 14   7  12  1   
 15   8  13  1   
 16   8  30  1   
 17   8  31  1   
 18   9  11  1   
 19  10  14  1   
 20  10  15  1   
 21  12  16  ar  
 22  12  17  ar  
 23  13  18  1   
 24  14  19  1   
 25  14  32  1   
 26  14  33  1   
 27  15  20  1   
 28  15  34  1   
 29  15  35  1   
 30  16  21  ar  
 31  16  36  1   
 32  17  22  ar  
 33  17  37  1   
 34  18  23  1   
 35  18  38  1   
 36  18  39  1   
 37  19  20  1   
 38  19  40  1   
 39  19  41  1   
 40  20  42  1   
 41  20  43  1   
 42  21  24  ar  
 43  21  44  1   
 44  22  24  ar  
 45  22  45  1   
 46  23  46  1   
 47  23  47  1   
 48  23  48  1   
 49  24  25  1   
 50  25  26  1   
 51  26  49  1   
 52  26  50  1   
 53  26  51  1   
@<TRIPOS>SUBSTRUCTURE
  1 ****   2 GROUP 4 **** **** 0

# MOE 2024.06 (io_trps.svl 2023.06)
