@<TRIPOS>MOLECULE
NONAME
34 33 1 0 0 
SMALL
USER_CHARGES


@<TRIPOS>ATOM
  1 O        0.0050     0.5200     0.8680 O.3   1 <1>  -0.6800 
  2 C        0.0860     1.4700    -0.1250 C.3   1 <1>   0.2000 
  3 C        1.3710     2.2830     0.0730 C.3   1 <1>  -0.1600 
  4 C       -1.1650     2.3340    -0.0220 C.3   1 <1>  -0.2400 
  5 C        2.6510     1.4380    -0.0450 C.3   1 <1>  -0.1600 
  6 C        3.9030     2.3180     0.0590 C.3   1 <1>  -0.1600 
  7 C        5.1810     1.4770    -0.0550 C.3   1 <1>  -0.1600 
  8 C        6.4320     2.3580     0.0480 C.3   1 <1>  -0.1600 
  9 C        7.7100     1.5170    -0.0650 C.3   1 <1>  -0.1600 
 10 C        8.9620     2.3980     0.0380 C.3   1 <1>  -0.1600 
 11 C       10.2340     1.5570    -0.0720 C.3   1 <1>   0.1200 
 12 O       11.3230     2.3980     0.0400 O.3   1 <1>  -0.6800 
 13 H        0.8280     0.0000     0.8910 H     1 <1>   0.4000 
 14 H        0.1060     0.9590    -1.0730 H     1 <1>   0.0800 
 15 H        1.3390     2.7690     1.0330 H     1 <1>   0.0800 
 16 H        1.3970     3.0540    -0.6770 H     1 <1>   0.0800 
 17 H       -1.2090     2.8180     0.9380 H     1 <1>   0.0800 
 18 H       -2.0420     1.7260    -0.1530 H     1 <1>   0.0800 
 19 H       -1.1560     3.0870    -0.7880 H     1 <1>   0.0800 
 20 H        2.6550     0.9230    -0.9900 H     1 <1>   0.0800 
 21 H        2.6770     0.7020     0.7410 H     1 <1>   0.0800 
 22 H        3.8990     2.8360     1.0030 H     1 <1>   0.0800 
 23 H        3.8900     3.0540    -0.7270 H     1 <1>   0.0800 
 24 H        5.1850     0.9580    -0.9980 H     1 <1>   0.0800 
 25 H        5.1960     0.7420     0.7320 H     1 <1>   0.0800 
 26 H        6.4270     2.8770     0.9910 H     1 <1>   0.0800 
 27 H        6.4160     3.0940    -0.7390 H     1 <1>   0.0800 
 28 H        7.7130     0.9970    -1.0080 H     1 <1>   0.0800 
 29 H        7.7240     0.7830     0.7230 H     1 <1>   0.0800 
 30 H        8.9610     2.9080     0.9860 H     1 <1>   0.0800 
 31 H        8.9460     3.1290    -0.7510 H     1 <1>   0.0800 
 32 H       10.2900     1.0520    -1.0220 H     1 <1>   0.0800 
 33 H       10.2900     0.8330     0.7230 H     1 <1>   0.0800 
 34 H       11.2930     3.0880    -0.6490 H     1 <1>   0.4000 
@<TRIPOS>BOND
  1   1   2  1   
  2   1  13  1   
  3   2   3  1   
  4   2   4  1   
  5   2  14  1   
  6   3   5  1   
  7   3  15  1   
  8   3  16  1   
  9   4  17  1   
 10   4  18  1   
 11   4  19  1   
 12   5   6  1   
 13   5  20  1   
 14   5  21  1   
 15   6   7  1   
 16   6  22  1   
 17   6  23  1   
 18   7   8  1   
 19   7  24  1   
 20   7  25  1   
 21   8   9  1   
 22   8  26  1   
 23   8  27  1   
 24   9  10  1   
 25   9  28  1   
 26   9  29  1   
 27  10  11  1   
 28  10  30  1   
 29  10  31  1   
 30  11  12  1   
 31  11  32  1   
 32  11  33  1   
 33  12  34  1   
@<TRIPOS>SUBSTRUCTURE
  1 ****   7 GROUP 4 **** **** 0

# MOE 2024.06 (io_trps.svl 2023.06)
