@<TRIPOS>MOLECULE
NONAME
54 57 1 0 0 
SMALL
USER_CHARGES


@<TRIPOS>ATOM
  1 O       -0.4300    -0.1460    -2.7940 O.2   1 <1>  -0.5700 
  2 C       -0.8870     0.7560    -2.1280 C.2   1 <1>   0.5690 
  3 N       -1.8560     0.5120    -1.1870 N.am  1 <1>  -0.6600 
  4 C       -0.3700     2.1650    -2.4080 C.3   1 <1>   0.0820 
  5 C       -2.4290     1.4920    -0.2290 C.3   1 <1>   0.1400 
  6 C       -2.3660    -0.8520    -0.9050 C.3   1 <1>   0.1400 
  7 C        0.1610     2.8900    -1.1720 C.2   1 <1>  -0.1810 
  8 C       -3.4460     0.6940     0.5870 C.3   1 <1>   0.2000 
  9 C       -2.9950    -0.7600     0.4870 C.3   1 <1>  -0.0800 
 10 C       -0.3270     4.1010    -0.5990 C.ar  1 <1>   0.0000 
 11 C        1.1860     2.4440    -0.4030 C.2   1 <1>  -0.3320 
 12 O       -3.4700     1.0930     1.9140 O.3   1 <1>  -0.6800 
 13 C       -4.1460    -1.7520     0.7290 C.3   1 <1>  -0.0170 
 14 C       -1.3190     5.0570    -0.9090 C.ar  1 <1>  -0.1430 
 15 C        0.4380     4.2970     0.5530 C.ar  1 <1>  -0.1520 
 16 N        1.3630     3.2940     0.6440 N.pl3 1 <1>   0.0330 
 17 C        2.0630     1.2130    -0.5610 C.3   1 <1>  -0.0600 
 18 C       -3.6770    -3.1960     0.6590 C.ar  1 <1>   0.1670 
 19 C       -1.5240     6.1140    -0.0490 C.ar  1 <1>  -0.1500 
 20 C       -2.1620     4.9830    -2.1710 C.3   1 <1>  -0.0970 
 21 C        0.2280     5.3720     1.4220 C.ar  1 <1>  -0.1430 
 22 N       -3.5830    -3.7300    -0.5480 N.ar  1 <1>  -0.6200 
 23 C       -3.3690    -3.8850     1.8310 C.ar  1 <1>   0.1600 
 24 C       -0.7620     6.2710     1.1110 C.ar  1 <1>  -0.1500 
 25 C        1.0750     5.5330     2.6720 C.3   1 <1>  -0.0970 
 26 C       -3.1630    -4.9830    -0.5060 C.ar  1 <1>   0.1600 
 27 N       -2.9480    -5.1390     1.8750 N.ar  1 <1>  -0.6200 
 28 C       -2.8560    -5.6640     0.6650 C.ar  1 <1>   0.1600 
 29 H        0.4300     2.0960    -3.1210 H     1 <1>   0.0800 
 30 H       -1.1580     2.7050    -2.8800 H     1 <1>   0.0800 
 31 H       -1.6470     1.8640     0.4100 H     1 <1>   0.0800 
 32 H       -2.9050     2.3020    -0.7500 H     1 <1>   0.0800 
 33 H       -3.1040    -1.1090    -1.6460 H     1 <1>   0.0800 
 34 H       -1.5710    -1.5780    -0.9330 H     1 <1>   0.0800 
 35 H       -4.4310     0.8270     0.1730 H     1 <1>   0.0800 
 36 H       -2.2100    -0.9400     1.2010 H     1 <1>   0.0800 
 37 H       -2.5610     1.1430     2.2680 H     1 <1>   0.4000 
 38 H       -4.9210    -1.6010    -0.0030 H     1 <1>   0.0800 
 39 H       -4.5760    -1.5610     1.6960 H     1 <1>   0.0800 
 40 H        2.0700     3.2180     1.3790 H     1 <1>   0.2700 
 41 H        1.8540     0.7030    -1.4840 H     1 <1>   0.0800 
 42 H        1.8890     0.5280     0.2490 H     1 <1>   0.0800 
 43 H        3.1010     1.4960    -0.5650 H     1 <1>   0.0800 
 44 H       -2.2770     6.8520    -0.2580 H     1 <1>   0.1500 
 45 H       -2.7940     5.8480    -2.2630 H     1 <1>   0.0800 
 46 H       -2.7920     4.1140    -2.1520 H     1 <1>   0.0800 
 47 H       -1.5230     4.9510    -3.0350 H     1 <1>   0.0800 
 48 H       -3.4730    -3.3780     2.7730 H     1 <1>   0.1500 
 49 H       -0.9630     7.1120     1.7500 H     1 <1>   0.1500 
 50 H        0.7750     6.4040     3.2260 H     1 <1>   0.0800 
 51 H        2.1100     5.6420     2.4000 H     1 <1>   0.0800 
 52 H        0.9640     4.6720     3.3050 H     1 <1>   0.0800 
 53 H       -3.0550    -5.4970    -1.4450 H     1 <1>   0.1500 
 54 H       -2.5200    -6.6840     0.5970 H     1 <1>   0.1500 
@<TRIPOS>BOND
  1   1   2  2   
  2   2   3  am  
  3   2   4  1   
  4   3   5  1   
  5   3   6  1   
  6   4   7  1   
  7   4  29  1   
  8   4  30  1   
  9   5   8  1   
 10   5  31  1   
 11   5  32  1   
 12   6   9  1   
 13   6  33  1   
 14   6  34  1   
 15   7  10  1   
 16   7  11  2   
 17   8   9  1   
 18   8  12  1   
 19   8  35  1   
 20   9  13  1   
 21   9  36  1   
 22  10  14  ar  
 23  10  15  ar  
 24  11  16  1   
 25  11  17  1   
 26  12  37  1   
 27  13  18  1   
 28  13  38  1   
 29  13  39  1   
 30  14  19  ar  
 31  14  20  1   
 32  15  16  1   
 33  15  21  ar  
 34  16  40  1   
 35  17  41  1   
 36  17  42  1   
 37  17  43  1   
 38  18  22  ar  
 39  18  23  ar  
 40  19  24  ar  
 41  19  44  1   
 42  20  45  1   
 43  20  46  1   
 44  20  47  1   
 45  21  24  ar  
 46  21  25  1   
 47  22  26  ar  
 48  23  27  ar  
 49  23  48  1   
 50  24  49  1   
 51  25  50  1   
 52  25  51  1   
 53  25  52  1   
 54  26  28  ar  
 55  26  53  1   
 56  27  28  ar  
 57  28  54  1   
@<TRIPOS>SUBSTRUCTURE
  1 ****   5 GROUP 4 **** **** 0

# MOE 2024.06 (io_trps.svl 2023.06)
