@<TRIPOS>MOLECULE
NONAME
51 52 1 0 0 
SMALL
USER_CHARGES


@<TRIPOS>ATOM
  1 O       -0.1020    -1.7650    -1.2750 O.2   1 <1>  -0.5700 
  2 C        0.0030    -2.0610    -0.1040 C.2   1 <1>   0.5690 
  3 N        1.2220    -2.2450     0.5020 N.am  1 <1>  -0.6600 
  4 C       -1.3160    -2.2040     0.6780 C.3   1 <1>   0.4040 
  5 C        1.4060    -2.5730     1.9450 C.3   1 <1>   0.1400 
  6 C        2.4860    -2.0310    -0.2660 C.3   1 <1>   0.1400 
  7 N       -2.4680    -1.4650     0.0430 N.4   1 <1>  -0.9590 
  8 C        1.0710    -4.0410     2.2100 C.3   1 <1>  -0.2400 
  9 C        3.1060    -3.3720    -0.6490 C.3   1 <1>  -0.2400 
 10 C       -3.7920    -1.9290     0.5590 C.3   1 <1>   0.3430 
 11 C       -2.3020     0.0110     0.1450 C.3   1 <1>   0.3430 
 12 C       -4.9620    -1.2670    -0.2000 C.3   1 <1>   0.0000 
 13 C       -3.4210     0.7140    -0.6260 C.3   1 <1>  -0.1600 
 14 C       -6.2910    -1.7300     0.4190 C.3   1 <1>   0.2000 
 15 C       -4.8130     0.2670    -0.1530 C.3   1 <1>  -0.1600 
 16 C       -5.0580    -1.8080    -1.6360 C.3   1 <1>  -0.1600 
 17 O       -6.1440    -1.8850     1.7990 O.3   1 <1>  -0.5600 
 18 C       -6.6300    -3.0680    -0.2500 C.3   1 <1>  -0.1600 
 19 C       -5.7530    -3.1640    -1.5060 C.3   1 <1>  -0.1600 
 20 C       -7.3430    -1.9610     2.5080 C.3   1 <1>   0.0400 
 21 H       -1.1690    -1.8530     1.6830 H     1 <1>   0.0800 
 22 H       -1.5480    -3.2540     0.7190 H     1 <1>   0.0800 
 23 H        2.4290    -2.3890     2.2310 H     1 <1>   0.0800 
 24 H        0.7850    -1.9340     2.5500 H     1 <1>   0.0800 
 25 H        2.2860    -1.4690    -1.1640 H     1 <1>   0.0800 
 26 H        3.1810    -1.4570     0.3230 H     1 <1>   0.0800 
 27 H       -2.4070    -1.6850    -0.9650 H     1 <1>   0.4500 
 28 H        1.6880    -4.6840     1.6080 H     1 <1>   0.0800 
 29 H        0.0390    -4.2580     2.0110 H     1 <1>   0.0800 
 30 H        1.2660    -4.2690     3.2430 H     1 <1>   0.0800 
 31 H        2.3980    -3.9650    -1.1990 H     1 <1>   0.0800 
 32 H        3.4300    -3.9070     0.2240 H     1 <1>   0.0800 
 33 H        3.9640    -3.2030    -1.2740 H     1 <1>   0.0800 
 34 H       -3.8760    -2.9990     0.4660 H     1 <1>   0.0800 
 35 H       -3.8740    -1.6810     1.6050 H     1 <1>   0.0800 
 36 H       -2.3370     0.3120     1.1800 H     1 <1>   0.0800 
 37 H       -1.3470     0.3040    -0.2650 H     1 <1>   0.0800 
 38 H       -3.3240     1.7770    -0.4880 H     1 <1>   0.0800 
 39 H       -3.3040     0.5190    -1.6780 H     1 <1>   0.0800 
 40 H       -7.0620    -1.0040     0.2170 H     1 <1>   0.0800 
 41 H       -5.5710     0.7360    -0.7580 H     1 <1>   0.0800 
 42 H       -4.9610     0.6010     0.8610 H     1 <1>   0.0800 
 43 H       -5.6860    -1.1600    -2.2240 H     1 <1>   0.0800 
 44 H       -4.1080    -1.8940    -2.1330 H     1 <1>   0.0800 
 45 H       -6.4240    -3.8960     0.4060 H     1 <1>   0.0800 
 46 H       -7.6710    -3.0830    -0.5220 H     1 <1>   0.0800 
 47 H       -5.0220    -3.9450    -1.3780 H     1 <1>   0.0800 
 48 H       -6.3400    -3.3870    -2.3820 H     1 <1>   0.0800 
 49 H       -7.1100    -2.0750     3.5520 H     1 <1>   0.0800 
 50 H       -7.9100    -2.8110     2.1710 H     1 <1>   0.0800 
 51 H       -7.9030    -1.0530     2.3620 H     1 <1>   0.0800 
@<TRIPOS>BOND
  1   1   2  2   
  2   2   3  am  
  3   2   4  1   
  4   3   5  1   
  5   3   6  1   
  6   4   7  1   
  7   4  21  1   
  8   4  22  1   
  9   5   8  1   
 10   5  23  1   
 11   5  24  1   
 12   6   9  1   
 13   6  25  1   
 14   6  26  1   
 15   7  10  1   
 16   7  11  1   
 17   7  27  1   
 18   8  28  1   
 19   8  29  1   
 20   8  30  1   
 21   9  31  1   
 22   9  32  1   
 23   9  33  1   
 24  10  12  1   
 25  10  34  1   
 26  10  35  1   
 27  11  13  1   
 28  11  36  1   
 29  11  37  1   
 30  12  14  1   
 31  12  15  1   
 32  12  16  1   
 33  13  15  1   
 34  13  38  1   
 35  13  39  1   
 36  14  17  1   
 37  14  18  1   
 38  14  40  1   
 39  15  41  1   
 40  15  42  1   
 41  16  19  1   
 42  16  43  1   
 43  16  44  1   
 44  17  20  1   
 45  18  19  1   
 46  18  45  1   
 47  18  46  1   
 48  19  47  1   
 49  19  48  1   
 50  20  49  1   
 51  20  50  1   
 52  20  51  1   
@<TRIPOS>SUBSTRUCTURE
  1 ****   7 GROUP 4 **** **** 0

# MOE 2024.06 (io_trps.svl 2023.06)
