@<TRIPOS>MOLECULE
NONAME
51 55 1 0 0 
SMALL
USER_CHARGES


@<TRIPOS>ATOM
  1 O        0.9990    -0.6830    -1.6000 O.2   1 <1>  -0.5700 
  2 C        1.6320    -1.5630    -1.0790 C.2   1 <1>   0.5690 
  3 N        1.0380    -2.5220    -0.3390 N.am  1 <1>  -0.7300 
  4 C        3.1350    -1.6290    -1.2260 C.3   1 <1>  -0.0990 
  5 C        1.7780    -3.5880     0.3610 C.3   1 <1>   0.1400 
  6 C        3.5860    -3.0820    -1.4730 C.3   1 <1>  -0.0800 
  7 C        2.9150    -4.1220    -0.5390 C.3   1 <1>  -0.0800 
  8 C        5.1030    -3.2650    -1.3200 C.3   1 <1>  -0.1600 
  9 C        4.0600    -4.7640     0.2560 C.3   1 <1>  -0.1600 
 10 C        5.2670    -4.6340    -0.6720 C.3   1 <1>   0.4230 
 11 N        6.6090    -4.8350    -0.0400 N.4   1 <1>  -0.9590 
 12 C        6.8000    -4.4030     1.3800 C.3   1 <1>   0.4860 
 13 C        7.0520    -6.2500    -0.2050 C.3   1 <1>   0.2630 
 14 C        6.8410    -2.8930     1.4730 C.ar  1 <1>  -0.1440 
 15 C        7.7330    -2.1810     0.6840 C.ar  1 <1>   0.1400 
 16 C        6.0110    -2.1770     2.3210 C.ar  1 <1>  -0.1500 
 17 O        8.5960    -2.6960    -0.2070 O.3   1 <1>  -0.2800 
 18 C        7.8030    -0.8010     0.7090 C.ar  1 <1>   0.0000 
 19 C        6.0750    -0.7840     2.3610 C.ar  1 <1>  -0.1500 
 20 C        9.2410    -1.6580    -0.7630 C.ar  1 <1>   0.1400 
 21 C        8.7970    -0.4570    -0.2410 C.ar  1 <1>   0.0000 
 22 C        6.9630    -0.0910     1.5610 C.ar  1 <1>  -0.1500 
 23 C       10.2270    -1.7140    -1.7360 C.ar  1 <1>  -0.1500 
 24 C        9.3460     0.7370    -0.7000 C.ar  1 <1>  -0.1500 
 25 C       10.7690    -0.5250    -2.1880 C.ar  1 <1>  -0.1500 
 26 C       10.3280     0.6940    -1.6720 C.ar  1 <1>  -0.1500 
 27 H        0.0250    -2.4520    -0.2100 H     1 <1>   0.3700 
 28 H        3.4410    -0.9990    -2.0420 H     1 <1>   0.0800 
 29 H        3.5660    -1.2410    -0.3210 H     1 <1>   0.0800 
 30 H        2.1770    -3.1730     1.2710 H     1 <1>   0.0800 
 31 H        1.1040    -4.3880     0.6200 H     1 <1>   0.0800 
 32 H        3.3080    -3.3350    -2.4840 H     1 <1>   0.0800 
 33 H        2.4850    -4.8820    -1.1700 H     1 <1>   0.0800 
 34 H        5.4840    -2.4870    -0.6890 H     1 <1>   0.0800 
 35 H        5.5950    -3.2180    -2.2750 H     1 <1>   0.0800 
 36 H        3.8440    -5.7900     0.4940 H     1 <1>   0.0800 
 37 H        4.2030    -4.1980     1.1560 H     1 <1>   0.0800 
 38 H        5.1450    -5.3590    -1.4610 H     1 <1>   0.0800 
 39 H        7.2660    -4.2350    -0.5690 H     1 <1>   0.4500 
 40 H        6.0170    -4.7980     2.0050 H     1 <1>   0.0800 
 41 H        7.7400    -4.7810     1.7470 H     1 <1>   0.0800 
 42 H        6.4040    -6.9140     0.3450 H     1 <1>   0.0800 
 43 H        8.0610    -6.3720     0.1570 H     1 <1>   0.0800 
 44 H        7.0290    -6.5310    -1.2460 H     1 <1>   0.0800 
 45 H        5.3060    -2.6770     2.9640 H     1 <1>   0.1500 
 46 H        5.4230    -0.2410     3.0270 H     1 <1>   0.1500 
 47 H        7.0140     0.9840     1.5880 H     1 <1>   0.1500 
 48 H       10.5580    -2.6610    -2.1210 H     1 <1>   0.1500 
 49 H        9.0040     1.6740    -0.2990 H     1 <1>   0.1500 
 50 H       11.5370    -0.5340    -2.9430 H     1 <1>   0.1500 
 51 H       10.7630     1.6090    -2.0370 H     1 <1>   0.1500 
@<TRIPOS>BOND
  1   1   2  2   
  2   2   3  am  
  3   2   4  1   
  4   3   5  1   
  5   3  27  1   
  6   4   6  1   
  7   4  28  1   
  8   4  29  1   
  9   5   7  1   
 10   5  30  1   
 11   5  31  1   
 12   6   7  1   
 13   6   8  1   
 14   6  32  1   
 15   7   9  1   
 16   7  33  1   
 17   8  10  1   
 18   8  34  1   
 19   8  35  1   
 20   9  10  1   
 21   9  36  1   
 22   9  37  1   
 23  10  11  1   
 24  10  38  1   
 25  11  12  1   
 26  11  13  1   
 27  11  39  1   
 28  12  14  1   
 29  12  40  1   
 30  12  41  1   
 31  13  42  1   
 32  13  43  1   
 33  13  44  1   
 34  14  15  ar  
 35  14  16  ar  
 36  15  17  1   
 37  15  18  ar  
 38  16  19  ar  
 39  16  45  1   
 40  17  20  1   
 41  18  21  1   
 42  18  22  ar  
 43  19  22  ar  
 44  19  46  1   
 45  20  21  ar  
 46  20  23  ar  
 47  21  24  ar  
 48  22  47  1   
 49  23  25  ar  
 50  23  48  1   
 51  24  26  ar  
 52  24  49  1   
 53  25  26  ar  
 54  25  50  1   
 55  26  51  1   
@<TRIPOS>SUBSTRUCTURE
  1 ****   8 GROUP 4 **** **** 0

# MOE 2024.06 (io_trps.svl 2023.06)
