@<TRIPOS>MOLECULE
NONAME
53 55 1 0 0 
SMALL
USER_CHARGES


@<TRIPOS>ATOM
  1 O        2.8470     0.2950     2.1230 O.2   1 <1>  -0.5700 
  2 C        3.2290    -0.4280     1.2150 C.2   1 <1>   0.7160 
  3 N        4.5110    -0.2100     0.7220 N.am  1 <1>  -0.6600 
  4 C        2.3360    -1.4800     0.7230 C.2   1 <1>   0.1410 
  5 C        5.2030    -1.2000    -0.1630 C.3   1 <1>   0.1400 
  6 C        5.3160     0.9530     1.2050 C.3   1 <1>   0.1400 
  7 N        2.2440    -1.8550    -0.5930 N.2   1 <1>  -0.5650 
  8 C        1.4460    -2.2390     1.4410 C.2   1 <1>  -0.3320 
  9 C        5.1080    -0.8000    -1.6430 C.3   1 <1>   0.1400 
 10 C        6.2760     1.5430     0.1630 C.3   1 <1>  -0.1600 
 11 C        1.3420    -2.7740    -0.6250 C.2   1 <1>   0.0360 
 12 N        0.8180    -3.0520     0.5820 N.pl3 1 <1>   0.0330 
 13 C        1.1350    -2.2450     2.9310 C.3   1 <1>  -0.0600 
 14 N        6.0150     0.3420    -1.9770 N.am  1 <1>  -0.6600 
 15 C        5.7040     1.6080    -1.2570 C.3   1 <1>   0.1400 
 16 C        7.0930     0.1640    -2.8140 C.2   1 <1>   0.5690 
 17 O        7.3610    -0.9210    -3.2780 O.2   1 <1>  -0.5700 
 18 C        8.0090     1.3190    -3.2070 C.3   1 <1>   0.0440 
 19 C        8.8640     1.8280    -2.0490 C.ar  1 <1>  -0.1430 
 20 C        8.8680     3.1720    -1.7070 C.ar  1 <1>  -0.1500 
 21 C        9.6440     0.9400    -1.3220 C.ar  1 <1>  -0.1500 
 22 C        9.6290     3.6170    -0.6410 C.ar  1 <1>  -0.1500 
 23 C       10.4070     1.3830    -0.2560 C.ar  1 <1>  -0.1500 
 24 C       10.3990     2.7310     0.0930 C.ar  1 <1>   0.0830 
 25 O       11.1090     3.2490     1.1250 O.3   1 <1>  -0.3630 
 26 C       11.9730     2.4470     1.8950 C.3   1 <1>   0.1200 
 27 C       12.6380     3.3380     2.9400 C.3   1 <1>  -0.2400 
 28 H        4.7530    -2.1680    -0.0380 H     1 <1>   0.0800 
 29 H        6.2360    -1.2940     0.1200 H     1 <1>   0.0800 
 30 H        5.8730     0.6540     2.0760 H     1 <1>   0.0800 
 31 H        4.6440     1.7380     1.5080 H     1 <1>   0.0800 
 32 H        4.0940    -0.5350    -1.8860 H     1 <1>   0.0800 
 33 H        5.3610    -1.6580    -2.2400 H     1 <1>   0.0800 
 34 H        7.1990     0.9930     0.1660 H     1 <1>   0.0800 
 35 H        6.5160     2.5420     0.4790 H     1 <1>   0.0800 
 36 H        1.0220    -3.2830    -1.5180 H     1 <1>   0.1500 
 37 H        0.0870    -3.7390     0.7900 H     1 <1>   0.2700 
 38 H        1.8140    -1.6080     3.4690 H     1 <1>   0.0800 
 39 H        1.2260    -3.2400     3.3270 H     1 <1>   0.0800 
 40 H        0.1350    -1.8890     3.1000 H     1 <1>   0.0800 
 41 H        6.1330     2.4440    -1.7770 H     1 <1>   0.0800 
 42 H        4.6370     1.7600    -1.2270 H     1 <1>   0.0800 
 43 H        7.4100     2.1090    -3.6160 H     1 <1>   0.0800 
 44 H        8.6650     0.9820    -3.9890 H     1 <1>   0.0800 
 45 H        8.2800     3.8800    -2.2640 H     1 <1>   0.1500 
 46 H        9.6540    -0.1050    -1.5840 H     1 <1>   0.1500 
 47 H        9.6330     4.6570    -0.3710 H     1 <1>   0.1500 
 48 H       10.9950     0.6680     0.2860 H     1 <1>   0.1500 
 49 H       12.7090     2.0140     1.2400 H     1 <1>   0.0800 
 50 H       11.3910     1.6750     2.3670 H     1 <1>   0.0800 
 51 H       13.2030     4.1150     2.4570 H     1 <1>   0.0800 
 52 H       13.3060     2.7530     3.5450 H     1 <1>   0.0800 
 53 H       11.8920     3.7780     3.5770 H     1 <1>   0.0800 
@<TRIPOS>BOND
  1   1   2  2   
  2   2   3  am  
  3   2   4  1   
  4   3   5  1   
  5   3   6  1   
  6   4   7  1   
  7   4   8  2   
  8   5   9  1   
  9   5  28  1   
 10   5  29  1   
 11   6  10  1   
 12   6  30  1   
 13   6  31  1   
 14   7  11  2   
 15   8  12  1   
 16   8  13  1   
 17   9  14  1   
 18   9  32  1   
 19   9  33  1   
 20  10  15  1   
 21  10  34  1   
 22  10  35  1   
 23  11  12  1   
 24  11  36  1   
 25  12  37  1   
 26  13  38  1   
 27  13  39  1   
 28  13  40  1   
 29  14  15  1   
 30  14  16  am  
 31  15  41  1   
 32  15  42  1   
 33  16  17  2   
 34  16  18  1   
 35  18  19  1   
 36  18  43  1   
 37  18  44  1   
 38  19  20  ar  
 39  19  21  ar  
 40  20  22  ar  
 41  20  45  1   
 42  21  23  ar  
 43  21  46  1   
 44  22  24  ar  
 45  22  47  1   
 46  23  24  ar  
 47  23  48  1   
 48  24  25  1   
 49  25  26  1   
 50  26  27  1   
 51  26  49  1   
 52  26  50  1   
 53  27  51  1   
 54  27  52  1   
 55  27  53  1   
@<TRIPOS>SUBSTRUCTURE
  1 ****  10 GROUP 4 **** **** 0

# MOE 2024.06 (io_trps.svl 2023.06)
