@<TRIPOS>MOLECULE
NONAME
60 62 1 0 0 
SMALL
USER_CHARGES


@<TRIPOS>ATOM
  1 F       -0.8370     0.1600     0.4970 F     1 <1>  -0.1900 
  2 C       -2.0900     0.5100     0.3510 C.ar  1 <1>   0.1900 
  3 C       -2.5460     1.1780    -0.7920 C.ar  1 <1>   0.0830 
  4 C       -2.9420     0.1880     1.3890 C.ar  1 <1>  -0.1500 
  5 O       -1.8060     1.5510    -1.8760 O.3   1 <1>  -0.3630 
  6 C       -3.8900     1.5050    -0.8500 C.ar  1 <1>  -0.1500 
  7 C       -4.2790     0.5300     1.2980 C.ar  1 <1>  -0.1500 
  8 C       -0.4250     1.2900    -1.9920 C.3   1 <1>   0.0400 
  9 C       -4.7820     1.1890     0.1760 C.ar  1 <1>   0.0530 
 10 C       -6.1710     1.5550     0.0690 C.2   1 <1>   0.0870 
 11 O       -6.4840     2.7660    -0.3160 O.3   1 <1>  -0.0190 
 12 C       -7.3410     0.8890     0.2790 C.2   1 <1>  -0.0860 
 13 N       -7.7720     2.9690    -0.3700 N.2   1 <1>  -0.4100 
 14 C       -8.3120     1.8570    -0.0150 C.2   1 <1>   0.3720 
 15 C       -7.5960    -0.4660     0.6680 C.2   1 <1>   0.7160 
 16 N       -9.7030     1.6790     0.0630 N.pl3 1 <1>  -0.8210 
 17 O       -6.7060    -1.2300     0.9900 O.2   1 <1>  -0.5700 
 18 N       -8.8670    -0.9560     0.6760 N.am  1 <1>  -0.7300 
 19 C      -10.2990     2.4420     1.1960 C.3   1 <1>   0.1290 
 20 C      -10.3960     2.0180    -1.2150 C.3   1 <1>   0.1290 
 21 C       -9.2810    -2.2770     1.2120 C.3   1 <1>   0.1400 
 22 C       -8.8350    -3.4150     0.2760 C.3   1 <1>   0.2000 
 23 O       -9.3440    -3.1720    -1.0040 O.3   1 <1>  -0.6800 
 24 C       -9.2800    -4.8170     0.7510 C.3   1 <1>   0.3430 
 25 N      -10.5740    -5.2190     0.1150 N.4   1 <1>  -0.9590 
 26 C      -11.7750    -4.8630     0.9200 C.3   1 <1>   0.3430 
 27 C      -10.5690    -6.6470    -0.3090 C.3   1 <1>   0.3430 
 28 C      -13.0400    -5.1260     0.1020 C.3   1 <1>  -0.1600 
 29 C      -11.8160    -6.9400    -1.1470 C.3   1 <1>  -0.1600 
 30 C      -13.1040    -6.5760    -0.3980 C.3   1 <1>  -0.1600 
 31 H       -2.5630    -0.3240     2.2550 H     1 <1>   0.1500 
 32 H       -4.2540     2.0200    -1.7210 H     1 <1>   0.1500 
 33 H       -4.9430     0.2820     2.1070 H     1 <1>   0.1500 
 34 H       -0.0900     1.6790    -2.9360 H     1 <1>   0.0800 
 35 H       -0.2660     0.2270    -1.9590 H     1 <1>   0.0800 
 36 H        0.0940     1.7840    -1.1900 H     1 <1>   0.0800 
 37 H       -9.5940    -0.2420     0.4930 H     1 <1>   0.3700 
 38 H       -9.7860     2.2010     2.1110 H     1 <1>   0.0800 
 39 H      -11.3400     2.1910     1.3060 H     1 <1>   0.0800 
 40 H      -10.2080     3.5020     1.0200 H     1 <1>   0.0800 
 41 H       -9.9130     1.5180    -2.0370 H     1 <1>   0.0800 
 42 H      -10.3580     3.0800    -1.3900 H     1 <1>   0.0800 
 43 H      -11.4240     1.7040    -1.1730 H     1 <1>   0.0800 
 44 H      -10.3490    -2.2880     1.3350 H     1 <1>   0.0800 
 45 H       -8.8300    -2.4140     2.1810 H     1 <1>   0.0800 
 46 H       -7.7600    -3.4050     0.2130 H     1 <1>   0.0800 
 47 H       -9.0370    -2.2820    -1.2920 H     1 <1>   0.4000 
 48 H       -9.3460    -4.8520     1.8250 H     1 <1>   0.0800 
 49 H       -8.5110    -5.5120     0.4540 H     1 <1>   0.0800 
 50 H      -10.5940    -4.6400    -0.7480 H     1 <1>   0.4500 
 51 H      -11.7430    -3.8220     1.1960 H     1 <1>   0.0800 
 52 H      -11.8000    -5.4560     1.8200 H     1 <1>   0.0800 
 53 H      -10.5600    -7.2860     0.5590 H     1 <1>   0.0800 
 54 H       -9.6880    -6.8540    -0.8970 H     1 <1>   0.0800 
 55 H      -13.0690    -4.4490    -0.7350 H     1 <1>   0.0800 
 56 H      -13.9040    -4.9210     0.7100 H     1 <1>   0.0800 
 57 H      -11.8330    -7.9860    -1.3980 H     1 <1>   0.0800 
 58 H      -11.7600    -6.3880    -2.0690 H     1 <1>   0.0800 
 59 H      -13.9540    -6.7010    -1.0490 H     1 <1>   0.0800 
 60 H      -13.2340    -7.2410     0.4400 H     1 <1>   0.0800 
@<TRIPOS>BOND
  1   1   2  1   
  2   2   3  ar  
  3   2   4  ar  
  4   3   5  1   
  5   3   6  ar  
  6   4   7  ar  
  7   4  31  1   
  8   5   8  1   
  9   6   9  ar  
 10   6  32  1   
 11   7   9  ar  
 12   7  33  1   
 13   8  34  1   
 14   8  35  1   
 15   8  36  1   
 16   9  10  1   
 17  10  11  1   
 18  10  12  2   
 19  11  13  1   
 20  12  14  1   
 21  12  15  1   
 22  13  14  2   
 23  14  16  1   
 24  15  17  2   
 25  15  18  am  
 26  16  19  1   
 27  16  20  1   
 28  18  21  1   
 29  18  37  1   
 30  19  38  1   
 31  19  39  1   
 32  19  40  1   
 33  20  41  1   
 34  20  42  1   
 35  20  43  1   
 36  21  22  1   
 37  21  44  1   
 38  21  45  1   
 39  22  23  1   
 40  22  24  1   
 41  22  46  1   
 42  23  47  1   
 43  24  25  1   
 44  24  48  1   
 45  24  49  1   
 46  25  26  1   
 47  25  27  1   
 48  25  50  1   
 49  26  28  1   
 50  26  51  1   
 51  26  52  1   
 52  27  29  1   
 53  27  53  1   
 54  27  54  1   
 55  28  30  1   
 56  28  55  1   
 57  28  56  1   
 58  29  30  1   
 59  29  57  1   
 60  29  58  1   
 61  30  59  1   
 62  30  60  1   
@<TRIPOS>SUBSTRUCTURE
  1 ****  15 GROUP 4 **** **** 0

# MOE 2024.06 (io_trps.svl 2023.06)
