@<TRIPOS>MOLECULE
NONAME
38 40 1 0 0 
SMALL
USER_CHARGES


@<TRIPOS>ATOM
  1 O        0.4200    -0.2140    -1.3000 O.2   1 <1>  -0.5700 
  2 C        1.2460    -0.6850    -0.5420 C.2   1 <1>   0.5440 
  3 N        2.0820     0.1370     0.1780 N.am  1 <1>  -0.4940 
  4 C        1.3500    -2.1210    -0.3810 C.ar  1 <1>   0.0860 
  5 C        2.2840     1.5390     0.1520 C.2   1 <1>  -0.0880 
  6 C        0.2010    -2.9190    -0.4010 C.ar  1 <1>  -0.1500 
  7 C        2.5930    -2.7540    -0.2000 C.ar  1 <1>  -0.1500 
  8 N        1.3590     2.5210    -0.0490 N.pl3 1 <1>   0.3140 
  9 C        3.4670     2.1720     0.3520 C.2   1 <1>  -0.1810 
 10 C        0.3230    -4.2800    -0.2250 C.ar  1 <1>   0.0830 
 11 C        2.6990    -4.1260    -0.0240 C.ar  1 <1>  -0.1500 
 12 N        1.9220     3.7480     0.0170 N.2   1 <1>  -0.7070 
 13 C       -0.0960     2.4040    -0.2110 C.3   1 <1>   0.0160 
 14 C        3.1750     3.5290     0.2480 C.2   1 <1>   0.1080 
 15 C        4.8300     1.5560     0.6220 C.3   1 <1>   0.0210 
 16 O       -0.6440    -5.2040    -0.2040 O.3   1 <1>  -0.3620 
 17 C        1.5380    -4.8710    -0.0380 C.ar  1 <1>   0.0830 
 18 C        4.1660     4.6630     0.3840 C.3   1 <1>  -0.0590 
 19 C        5.5490     1.2590    -0.6940 C.3   1 <1>  -0.2400 
 20 C       -0.0040    -6.4620     0.0030 C.3   1 <1>   0.4000 
 21 O        1.3910    -6.1880     0.1090 O.3   1 <1>  -0.3620 
 22 H        2.7410    -0.3580     0.7740 H     1 <1>   0.3700 
 23 H       -0.7690    -2.4790    -0.5530 H     1 <1>   0.1500 
 24 H        3.4930    -2.1660    -0.2080 H     1 <1>   0.1500 
 25 H        3.6490    -4.6120     0.1160 H     1 <1>   0.1500 
 26 H       -0.4570     1.5840     0.3790 H     1 <1>   0.0800 
 27 H       -0.3180     2.2360    -1.2480 H     1 <1>   0.0800 
 28 H       -0.5610     3.3160     0.1130 H     1 <1>   0.0800 
 29 H        4.7100     0.6450     1.1810 H     1 <1>   0.0800 
 30 H        5.4210     2.2280     1.2190 H     1 <1>   0.0800 
 31 H        5.0530     4.4490    -0.1800 H     1 <1>   0.0800 
 32 H        4.4200     4.7970     1.4180 H     1 <1>   0.0800 
 33 H        3.7290     5.5720     0.0110 H     1 <1>   0.0800 
 34 H        4.9630     0.5820    -1.2910 H     1 <1>   0.0800 
 35 H        6.5100     0.8150    -0.5030 H     1 <1>   0.0800 
 36 H        5.6910     2.1670    -1.2520 H     1 <1>   0.0800 
 37 H       -0.1830    -7.1020    -0.8430 H     1 <1>   0.0800 
 38 H       -0.3570    -6.9020     0.9190 H     1 <1>   0.0800 
@<TRIPOS>BOND
  1   1   2  2   
  2   2   3  am  
  3   2   4  1   
  4   3   5  1   
  5   3  22  1   
  6   4   6  ar  
  7   4   7  ar  
  8   5   8  1   
  9   5   9  2   
 10   6  10  ar  
 11   6  23  1   
 12   7  11  ar  
 13   7  24  1   
 14   8  12  1   
 15   8  13  1   
 16   9  14  1   
 17   9  15  1   
 18  10  16  1   
 19  10  17  ar  
 20  11  17  ar  
 21  11  25  1   
 22  12  14  2   
 23  13  26  1   
 24  13  27  1   
 25  13  28  1   
 26  14  18  1   
 27  15  19  1   
 28  15  29  1   
 29  15  30  1   
 30  16  20  1   
 31  17  21  1   
 32  18  31  1   
 33  18  32  1   
 34  18  33  1   
 35  19  34  1   
 36  19  35  1   
 37  19  36  1   
 38  20  21  1   
 39  20  37  1   
 40  20  38  1   
@<TRIPOS>SUBSTRUCTURE
  1 ****   2 GROUP 4 **** **** 0

# MOE 2024.06 (io_trps.svl 2023.06)
