@<TRIPOS>MOLECULE
NONAME
36 37 1 0 0 
SMALL
USER_CHARGES


@<TRIPOS>ATOM
  1 F       -0.8260    -0.9060    -1.2920 F     1 <1>  -0.1900 
  2 C       -1.9290    -1.2750    -0.7020 C.ar  1 <1>   0.1900 
  3 C       -2.8560    -0.3120    -0.3590 C.ar  1 <1>  -0.1500 
  4 C       -2.1230    -2.6230    -0.4490 C.ar  1 <1>  -0.1500 
  5 C       -4.0070    -0.7520     0.2620 C.ar  1 <1>   0.1900 
  6 C       -3.2960    -3.0410     0.1720 C.ar  1 <1>  -0.1440 
  7 F       -4.9120     0.1220     0.6030 F     1 <1>  -0.1900 
  8 C       -4.2430    -2.0890     0.5360 C.ar  1 <1>  -0.1500 
  9 C       -3.5420    -4.5130     0.4510 C.3   1 <1>   0.4870 
 10 N       -3.8800    -5.1950    -0.8320 N.4   1 <1>  -0.9590 
 11 C       -3.8160    -6.6880    -0.6490 C.3   1 <1>   0.3430 
 12 C       -5.1790    -4.7200    -1.4010 C.3   1 <1>   0.3430 
 13 C       -5.1900    -7.3790    -0.6530 C.3   1 <1>  -0.0800 
 14 C       -6.3820    -5.1440    -0.5420 C.3   1 <1>  -0.1600 
 15 C       -6.2360    -6.5380     0.0890 C.3   1 <1>   0.2000 
 16 C       -5.0660    -8.7900    -0.0660 C.3   1 <1>   0.1200 
 17 O       -5.8180    -6.3750     1.4000 O.3   1 <1>  -0.6800 
 18 O       -4.0300    -9.4330    -0.7220 O.3   1 <1>  -0.6800 
 19 H       -2.6880     0.7300    -0.5640 H     1 <1>   0.1500 
 20 H       -1.3520    -3.3170    -0.7370 H     1 <1>   0.1500 
 21 H       -5.1600    -2.3610     1.0310 H     1 <1>   0.1500 
 22 H       -4.3430    -4.6260     1.1610 H     1 <1>   0.0800 
 23 H       -2.6520    -4.9470     0.8770 H     1 <1>   0.0800 
 24 H       -3.1380    -4.9300    -1.4910 H     1 <1>   0.4500 
 25 H       -3.2180    -7.1290    -1.4300 H     1 <1>   0.0800 
 26 H       -3.3310    -6.9130     0.2870 H     1 <1>   0.0800 
 27 H       -5.1710    -3.6470    -1.5120 H     1 <1>   0.0800 
 28 H       -5.2960    -5.1470    -2.3840 H     1 <1>   0.0800 
 29 H       -5.5120    -7.4940    -1.6730 H     1 <1>   0.0800 
 30 H       -7.2380    -5.1560    -1.1920 H     1 <1>   0.0800 
 31 H       -6.5810    -4.4030     0.2110 H     1 <1>   0.0800 
 32 H       -7.1860    -7.0480     0.1090 H     1 <1>   0.0800 
 33 H       -5.9720    -9.3540    -0.2190 H     1 <1>   0.0800 
 34 H       -4.8320    -8.7620     0.9860 H     1 <1>   0.0800 
 35 H       -6.5860    -6.2010     1.9860 H     1 <1>   0.4000 
 36 H       -3.9680   -10.3710    -0.4420 H     1 <1>   0.4000 
@<TRIPOS>BOND
  1   1   2  1   
  2   2   3  ar  
  3   2   4  ar  
  4   3   5  ar  
  5   3  19  1   
  6   4   6  ar  
  7   4  20  1   
  8   5   7  1   
  9   5   8  ar  
 10   6   8  ar  
 11   6   9  1   
 12   8  21  1   
 13   9  10  1   
 14   9  22  1   
 15   9  23  1   
 16  10  11  1   
 17  10  12  1   
 18  10  24  1   
 19  11  13  1   
 20  11  25  1   
 21  11  26  1   
 22  12  14  1   
 23  12  27  1   
 24  12  28  1   
 25  13  15  1   
 26  13  16  1   
 27  13  29  1   
 28  14  15  1   
 29  14  30  1   
 30  14  31  1   
 31  15  17  1   
 32  15  32  1   
 33  16  18  1   
 34  16  33  1   
 35  16  34  1   
 36  17  35  1   
 37  18  36  1   
@<TRIPOS>SUBSTRUCTURE
  1 ****   9 GROUP 4 **** **** 0

# MOE 2024.06 (io_trps.svl 2023.06)
