@<TRIPOS>MOLECULE
NONAME
40 41 1 0 0 
SMALL
USER_CHARGES


@<TRIPOS>ATOM
  1 S       -0.7650     0.0700    -0.5340 S.o2  1 <1>   1.3330 
  2 O        0.5960     0.3700    -0.1720 O.2   1 <1>  -0.6500 
  3 O       -1.2020     0.1090    -1.9080 O.2   1 <1>  -0.6500 
  4 N       -1.0080    -1.4880     0.0160 N.am  1 <1>  -0.9140 
  5 C       -1.8860     1.0220     0.4680 C.3   1 <1>  -0.1350 
  6 C       -0.5020    -2.4840    -0.9480 C.3   1 <1>   0.2570 
  7 C       -0.6800    -3.9330    -0.4770 C.2   1 <1>   0.5690 
  8 O        0.2770    -4.5040    -0.0090 O.2   1 <1>  -0.5700 
  9 N       -1.8980    -4.5530    -0.5740 N.am  1 <1>  -0.6600 
 10 C       -3.1790    -3.9170    -0.9780 C.3   1 <1>   0.1400 
 11 C       -2.1400    -5.9280    -0.0730 C.3   1 <1>   0.1400 
 12 C       -4.2450    -4.7440    -0.2640 C.3   1 <1>   0.2000 
 13 C       -3.6490    -6.1570    -0.2380 C.3   1 <1>  -0.0800 
 14 O       -4.3610    -4.2650     1.0320 O.3   1 <1>  -0.6800 
 15 C       -4.2570    -7.0980     0.8200 C.3   1 <1>   0.0200 
 16 C       -3.7440    -8.5240     0.7170 C.2   1 <1>  -0.0400 
 17 O       -4.0800    -9.3780     1.6470 O.3   1 <1>  -0.0190 
 18 C       -2.9720    -9.1730    -0.1710 C.2   1 <1>  -0.1500 
 19 N       -3.5730   -10.5570     1.4340 N.2   1 <1>  -0.4100 
 20 C       -2.9000   -10.4640     0.3450 C.2   1 <1>   0.1080 
 21 C       -2.1360   -11.6080    -0.2830 C.3   1 <1>  -0.0590 
 22 H       -0.3910    -1.5640     0.8260 H     1 <1>   0.4200 
 23 H       -1.6470     0.9080     1.5060 H     1 <1>   0.0800 
 24 H       -2.8940     0.6950     0.3050 H     1 <1>   0.0800 
 25 H       -1.8160     2.0600     0.2100 H     1 <1>   0.0800 
 26 H       -1.0120    -2.3740    -1.8890 H     1 <1>   0.0800 
 27 H        0.5470    -2.3120    -1.1240 H     1 <1>   0.0800 
 28 H       -3.2310    -2.8790    -0.6970 H     1 <1>   0.0800 
 29 H       -3.2960    -4.0100    -2.0440 H     1 <1>   0.0800 
 30 H       -1.5620    -6.6400    -0.6360 H     1 <1>   0.0800 
 31 H       -1.8510    -5.9800     0.9640 H     1 <1>   0.0800 
 32 H       -5.2120    -4.6930    -0.7360 H     1 <1>   0.0800 
 33 H       -3.8100    -6.5900    -1.2090 H     1 <1>   0.0800 
 34 H       -3.4630    -4.1480     1.4050 H     1 <1>   0.4000 
 35 H       -5.3270    -7.1130     0.7120 H     1 <1>   0.0800 
 36 H       -4.0380    -6.7300     1.8080 H     1 <1>   0.0800 
 37 H       -2.5040    -8.8300    -1.0730 H     1 <1>   0.1500 
 38 H       -2.5050   -11.7940    -1.2740 H     1 <1>   0.0800 
 39 H       -2.2580   -12.4980     0.3070 H     1 <1>   0.0800 
 40 H       -1.0900   -11.3650    -0.3320 H     1 <1>   0.0800 
@<TRIPOS>BOND
  1   1   2  2   
  2   1   3  2   
  3   1   4  am  
  4   1   5  1   
  5   4   6  1   
  6   4  22  1   
  7   5  23  1   
  8   5  24  1   
  9   5  25  1   
 10   6   7  1   
 11   6  26  1   
 12   6  27  1   
 13   7   8  2   
 14   7   9  am  
 15   9  10  1   
 16   9  11  1   
 17  10  12  1   
 18  10  28  1   
 19  10  29  1   
 20  11  13  1   
 21  11  30  1   
 22  11  31  1   
 23  12  13  1   
 24  12  14  1   
 25  12  32  1   
 26  13  15  1   
 27  13  33  1   
 28  14  34  1   
 29  15  16  1   
 30  15  35  1   
 31  15  36  1   
 32  16  17  1   
 33  16  18  2   
 34  17  19  1   
 35  18  20  1   
 36  18  37  1   
 37  19  20  2   
 38  20  21  1   
 39  21  38  1   
 40  21  39  1   
 41  21  40  1   
@<TRIPOS>SUBSTRUCTURE
  1 ****  11 GROUP 4 **** **** 0

# MOE 2024.06 (io_trps.svl 2023.06)
