@<TRIPOS>MOLECULE
NONAME
53 56 1 0 0 
SMALL
USER_CHARGES


@<TRIPOS>ATOM
  1 O       -2.7000     1.2910    -3.4630 O.2   1 <1>  -0.5700 
  2 C       -2.8050     1.7760    -2.3520 C.2   1 <1>   0.5440 
  3 N       -3.0500     0.9060    -1.2980 N.am  1 <1>  -0.6600 
  4 C       -2.6440     3.2180    -2.1880 C.ar  1 <1>   0.3960 
  5 C       -2.6680    -0.5360    -1.3850 C.3   1 <1>   0.1400 
  6 C       -3.3780     1.3400     0.0920 C.3   1 <1>   0.1400 
  7 N       -1.9360     3.6980    -1.1500 N.ar  1 <1>  -0.6200 
  8 C       -3.2310     4.0610    -3.1320 C.ar  1 <1>   0.1600 
  9 C       -1.4600    -0.8050    -0.4650 C.3   1 <1>   0.3430 
 10 C       -2.1590     1.1020     1.0030 C.3   1 <1>   0.3430 
 11 C       -1.8690     5.0220    -1.1140 C.ar  1 <1>   0.4100 
 12 N       -3.1930     5.3850    -3.1020 N.ar  1 <1>  -0.6200 
 13 N       -1.6940    -0.3360     0.9550 N.4   1 <1>  -0.9590 
 14 N       -1.1540     5.5910    -0.0690 N.3   1 <1>  -0.5900 
 15 C       -2.5080     5.8300    -2.0700 C.ar  1 <1>   0.1600 
 16 C       -0.4670    -0.5260     1.7850 C.3   1 <1>   0.2630 
 17 C       -0.1610     6.6980    -0.3320 C.3   1 <1>   0.2450 
 18 C       -0.0960     4.8540     0.7230 C.3   1 <1>   0.2450 
 19 C        0.9800     5.7210     0.0350 C.3   1 <1>   0.2580 
 20 O        1.8820     6.2650     0.9780 O.3   1 <1>  -0.3400 
 21 C        2.7900     7.2040     0.6120 C.ar  1 <1>   0.0820 
 22 C        3.4430     7.8740     1.6350 C.ar  1 <1>  -0.1500 
 23 C        3.0850     7.5190    -0.7120 C.ar  1 <1>  -0.1500 
 24 C        4.3790     8.8560     1.3550 C.ar  1 <1>  -0.1430 
 25 C        4.0180     8.5010    -0.9940 C.ar  1 <1>  -0.1500 
 26 C        4.6620     9.1670     0.0350 C.ar  1 <1>  -0.1500 
 27 C        5.0890     9.5900     2.4780 C.3   1 <1>  -0.0970 
 28 H       -2.4080    -0.8040    -2.3950 H     1 <1>   0.0800 
 29 H       -3.5040    -1.1470    -1.0930 H     1 <1>   0.0800 
 30 H       -4.2190     0.7730     0.4530 H     1 <1>   0.0800 
 31 H       -3.6620     2.3770     0.1180 H     1 <1>   0.0800 
 32 H       -3.7640     3.6090    -3.9520 H     1 <1>   0.1500 
 33 H       -0.6080    -0.2910    -0.8770 H     1 <1>   0.0800 
 34 H       -1.2420    -1.8610    -0.4720 H     1 <1>   0.0800 
 35 H       -2.4150     1.3730     2.0140 H     1 <1>   0.0800 
 36 H       -1.3650     1.7540     0.6760 H     1 <1>   0.0800 
 37 H       -2.4500    -0.9160     1.3470 H     1 <1>   0.4500 
 38 H       -2.4350     6.8960    -1.9540 H     1 <1>   0.1500 
 39 H        0.3430     0.0700     1.3980 H     1 <1>   0.0800 
 40 H       -0.1670    -1.5620     1.7800 H     1 <1>   0.0800 
 41 H       -0.6550    -0.2300     2.8050 H     1 <1>   0.0800 
 42 H       -0.2920     7.5060     0.3670 H     1 <1>   0.0000 
 43 H       -0.1460     7.0010    -1.3630 H     1 <1>   0.0000 
 44 H       -0.0220     3.8110     0.4740 H     1 <1>   0.0000 
 45 H       -0.2040     5.0460     1.7760 H     1 <1>   0.0000 
 46 H        1.4790     5.2380    -0.7870 H     1 <1>   0.0000 
 47 H        3.2090     7.6200     2.6520 H     1 <1>   0.1500 
 48 H        2.6100     7.0150    -1.5310 H     1 <1>   0.1500 
 49 H        4.2480     8.7480    -2.0160 H     1 <1>   0.1500 
 50 H        5.3860     9.9300    -0.1960 H     1 <1>   0.1500 
 51 H        5.0020     9.0480     3.4020 H     1 <1>   0.0800 
 52 H        4.6550    10.5650     2.6060 H     1 <1>   0.0800 
 53 H        6.1330     9.7000     2.2460 H     1 <1>   0.0800 
@<TRIPOS>BOND
  1   1   2  2   
  2   2   3  am  
  3   2   4  1   
  4   3   5  1   
  5   3   6  1   
  6   4   7  ar  
  7   4   8  ar  
  8   5   9  1   
  9   5  28  1   
 10   5  29  1   
 11   6  10  1   
 12   6  30  1   
 13   6  31  1   
 14   7  11  ar  
 15   8  12  ar  
 16   8  32  1   
 17   9  13  1   
 18   9  33  1   
 19   9  34  1   
 20  10  13  1   
 21  10  35  1   
 22  10  36  1   
 23  11  14  1   
 24  11  15  ar  
 25  12  15  ar  
 26  13  16  1   
 27  13  37  1   
 28  14  17  1   
 29  14  18  1   
 30  15  38  1   
 31  16  39  1   
 32  16  40  1   
 33  16  41  1   
 34  17  19  1   
 35  17  42  1   
 36  17  43  1   
 37  18  19  1   
 38  18  44  1   
 39  18  45  1   
 40  19  20  1   
 41  19  46  1   
 42  20  21  1   
 43  21  22  ar  
 44  21  23  ar  
 45  22  24  ar  
 46  22  47  1   
 47  23  25  ar  
 48  23  48  1   
 49  24  26  ar  
 50  24  27  1   
 51  25  26  ar  
 52  25  49  1   
 53  26  50  1   
 54  27  51  1   
 55  27  52  1   
 56  27  53  1   
@<TRIPOS>SUBSTRUCTURE
  1 ****  18 GROUP 4 **** **** 0

# MOE 2024.06 (io_trps.svl 2023.06)
