@<TRIPOS>MOLECULE
NONAME
53 56 1 0 0 
SMALL
USER_CHARGES


@<TRIPOS>ATOM
  1 O       -0.5670    -1.1580    -1.5060 O.3   1 <1>  -0.6800 
  2 C        0.5210    -2.0120    -1.4410 C.3   1 <1>   0.1200 
  3 C        1.1960    -1.9230    -0.0390 C.3   1 <1>   0.0000 
  4 C        2.5590    -2.6660    -0.0360 C.3   1 <1>   0.4230 
  5 C        1.4700    -0.4440     0.3480 C.3   1 <1>  -0.1600 
  6 C        0.2680    -2.5450     1.0460 C.3   1 <1>  -0.1600 
  7 N        2.4380    -4.1670    -0.2970 N.4   1 <1>  -0.9590 
  8 C        3.6340    -1.9410    -0.8990 C.3   1 <1>   0.2090 
  9 C        2.4630     0.2400    -0.5920 C.3   1 <1>   0.2090 
 10 C        0.6290    -3.9950     1.4180 C.3   1 <1>  -0.1600 
 11 C        1.1640    -4.7760     0.2210 C.3   1 <1>   0.3430 
 12 C        2.6530    -4.6120    -1.7150 C.3   1 <1>   0.2630 
 13 N        3.7840    -0.4790    -0.5320 N.pl3 1 <1>  -0.8380 
 14 C        4.9760     0.1230    -0.2630 C.ar  1 <1>   0.4610 
 15 N        5.0030     1.3530     0.2640 N.ar  1 <1>  -0.1790 
 16 C        6.2440    -0.4750    -0.5010 C.ar  1 <1>  -0.1500 
 17 C        6.1480     2.0470     0.6130 C.ar  1 <1>   0.3610 
 18 C        7.4170     0.1410    -0.1850 C.ar  1 <1>  -0.1440 
 19 C        7.4000     1.4430     0.4010 C.ar  1 <1>   0.0000 
 20 C        6.0690     3.3260     1.1750 C.ar  1 <1>  -0.1500 
 21 C        8.7490    -0.5480    -0.4650 C.3   1 <1>  -0.0970 
 22 C        8.5470     2.1630     0.7740 C.ar  1 <1>  -0.1500 
 23 C        7.2090     4.0060     1.5280 C.ar  1 <1>  -0.1500 
 24 C        8.4530     3.4180     1.3260 C.ar  1 <1>  -0.1500 
 25 H       -1.0720    -1.2620    -2.3400 H     1 <1>   0.4000 
 26 H        0.1580    -3.0060    -1.6350 H     1 <1>   0.0800 
 27 H        1.1930    -1.7300    -2.2310 H     1 <1>   0.0800 
 28 H        2.9150    -2.5740     0.9770 H     1 <1>   0.0800 
 29 H        1.8600    -0.3870     1.3490 H     1 <1>   0.0800 
 30 H        0.5490     0.1140     0.3460 H     1 <1>   0.0800 
 31 H        0.2930    -1.9640     1.9530 H     1 <1>   0.0800 
 32 H       -0.7550    -2.5130     0.7080 H     1 <1>   0.0800 
 33 H        3.1850    -4.6030     0.2660 H     1 <1>   0.4500 
 34 H        3.3760    -1.9990    -1.9410 H     1 <1>   0.0800 
 35 H        4.5570    -2.4650    -0.7520 H     1 <1>   0.0800 
 36 H        2.5510     1.2740    -0.3130 H     1 <1>   0.0800 
 37 H        2.0880     0.2250    -1.6030 H     1 <1>   0.0800 
 38 H       -0.2500    -4.4870     1.7980 H     1 <1>   0.0800 
 39 H        1.3620    -4.0080     2.2070 H     1 <1>   0.0800 
 40 H        0.4120    -4.7670    -0.5520 H     1 <1>   0.0800 
 41 H        1.3350    -5.8030     0.5020 H     1 <1>   0.0800 
 42 H        1.9070    -4.1830    -2.3640 H     1 <1>   0.0800 
 43 H        2.5840    -5.6870    -1.7820 H     1 <1>   0.0800 
 44 H        3.6290    -4.3180    -2.0640 H     1 <1>   0.0800 
 45 H        4.1160     1.8030     0.4550 H     1 <1>   0.4570 
 46 H        6.2820    -1.4390    -0.9650 H     1 <1>   0.1500 
 47 H        5.1130     3.7920     1.3370 H     1 <1>   0.1500 
 48 H        8.6050    -1.5140    -0.9150 H     1 <1>   0.0800 
 49 H        9.2970    -0.6860     0.4510 H     1 <1>   0.0800 
 50 H        9.3410     0.0470    -1.1380 H     1 <1>   0.0800 
 51 H        9.5240     1.7360     0.6290 H     1 <1>   0.1500 
 52 H        7.1570     4.9920     1.9630 H     1 <1>   0.1500 
 53 H        9.3440     3.9580     1.6070 H     1 <1>   0.1500 
@<TRIPOS>BOND
  1   1   2  1   
  2   1  25  1   
  3   2   3  1   
  4   2  26  1   
  5   2  27  1   
  6   3   4  1   
  7   3   5  1   
  8   3   6  1   
  9   4   7  1   
 10   4   8  1   
 11   4  28  1   
 12   5   9  1   
 13   5  29  1   
 14   5  30  1   
 15   6  10  1   
 16   6  31  1   
 17   6  32  1   
 18   7  11  1   
 19   7  12  1   
 20   7  33  1   
 21   8  13  1   
 22   8  34  1   
 23   8  35  1   
 24   9  13  1   
 25   9  36  1   
 26   9  37  1   
 27  10  11  1   
 28  10  38  1   
 29  10  39  1   
 30  11  40  1   
 31  11  41  1   
 32  12  42  1   
 33  12  43  1   
 34  12  44  1   
 35  13  14  1   
 36  14  15  ar  
 37  14  16  ar  
 38  15  17  ar  
 39  15  45  1   
 40  16  18  ar  
 41  16  46  1   
 42  17  19  ar  
 43  17  20  ar  
 44  18  19  ar  
 45  18  21  1   
 46  19  22  ar  
 47  20  23  ar  
 48  20  47  1   
 49  21  48  1   
 50  21  49  1   
 51  21  50  1   
 52  22  24  ar  
 53  22  51  1   
 54  23  24  ar  
 55  23  52  1   
 56  24  53  1   
@<TRIPOS>SUBSTRUCTURE
  1 ****  13 GROUP 4 **** **** 0

# MOE 2024.06 (io_trps.svl 2023.06)
