@<TRIPOS>MOLECULE
NONAME
45 46 1 0 0 
SMALL
USER_CHARGES


@<TRIPOS>ATOM
  1 CL       1.5220     0.3350     0.6630 Cl    1 <1>  -0.1770 
  2 C        2.7180     1.5130     1.1550 C.ar  1 <1>   0.1770 
  3 C        2.6770     2.8180     0.6780 C.ar  1 <1>  -0.1440 
  4 C        3.7000     1.0820     2.0250 C.ar  1 <1>  -0.1500 
  5 C        3.6830     3.7160     1.0680 C.ar  1 <1>   0.0860 
  6 C        1.5390     3.2560    -0.2460 C.3   1 <1>  -0.0970 
  7 C        4.6740     1.9690     2.4390 C.ar  1 <1>  -0.1500 
  8 C        3.7820     5.0800     0.5750 C.2   1 <1>   0.5440 
  9 C        4.6570     3.2660     1.9630 C.ar  1 <1>  -0.1500 
 10 O        4.0340     6.0030     1.3260 O.2   1 <1>  -0.5700 
 11 N        3.7760     5.3660    -0.7700 N.am  1 <1>  -0.6600 
 12 C        4.8520     4.7860    -1.6270 C.3   1 <1>   0.1400 
 13 C        3.1310     6.6020    -1.3040 C.3   1 <1>   0.1400 
 14 C        6.2300     5.3750    -1.2500 C.3   1 <1>   0.3430 
 15 C        3.9910     7.8670    -1.1190 C.3   1 <1>  -0.1600 
 16 N        6.1010     6.7290    -0.6100 N.4   1 <1>  -0.9590 
 17 C        5.4710     7.7380    -1.4930 C.3   1 <1>   0.3430 
 18 C        7.3450     7.1830     0.0400 C.3   1 <1>   0.4810 
 19 C        7.6290     6.2190     1.1680 C.2   1 <1>  -0.2880 
 20 C        8.6550     5.3630     1.2200 C.2   1 <1>  -0.2880 
 21 C        8.9130     4.4070     2.3700 C.3   1 <1>  -0.1020 
 22 H        3.6950     0.0650     2.3760 H     1 <1>   0.1500 
 23 H        1.3020     4.2940    -0.1030 H     1 <1>   0.0800 
 24 H        0.6380     2.7040    -0.0480 H     1 <1>   0.0800 
 25 H        1.8170     3.0990    -1.2730 H     1 <1>   0.0800 
 26 H        5.4370     1.6490     3.1290 H     1 <1>   0.1500 
 27 H        5.4180     3.9510     2.2950 H     1 <1>   0.1500 
 28 H        4.8750     3.7150    -1.5120 H     1 <1>   0.0800 
 29 H        4.6420     4.9920    -2.6630 H     1 <1>   0.0800 
 30 H        2.9130     6.4590    -2.3490 H     1 <1>   0.0800 
 31 H        2.1890     6.7460    -0.8000 H     1 <1>   0.0800 
 32 H        6.8600     5.4250    -2.1220 H     1 <1>   0.0800 
 33 H        6.6970     4.7000    -0.5510 H     1 <1>   0.0800 
 34 H        3.9130     8.1990    -0.0990 H     1 <1>   0.0800 
 35 H        3.5600     8.6470    -1.7200 H     1 <1>   0.0800 
 36 H        5.4100     6.5840     0.1580 H     1 <1>   0.4500 
 37 H        5.9480     8.6950    -1.3570 H     1 <1>   0.0800 
 38 H        5.5730     7.4510    -2.5270 H     1 <1>   0.0800 
 39 H        8.1580     7.1850    -0.6660 H     1 <1>   0.0800 
 40 H        7.2220     8.1780     0.4380 H     1 <1>   0.0800 
 41 H        6.8970     6.2920     1.9570 H     1 <1>   0.1500 
 42 H        9.4010     5.2790     0.4450 H     1 <1>   0.1500 
 43 H        8.9030     3.3900     2.0180 H     1 <1>   0.0800 
 44 H        8.1630     4.5130     3.1340 H     1 <1>   0.0800 
 45 H        9.8740     4.6090     2.8080 H     1 <1>   0.0800 
@<TRIPOS>BOND
  1   1   2  1   
  2   2   3  ar  
  3   2   4  ar  
  4   3   5  ar  
  5   3   6  1   
  6   4   7  ar  
  7   4  22  1   
  8   5   8  1   
  9   5   9  ar  
 10   6  23  1   
 11   6  24  1   
 12   6  25  1   
 13   7   9  ar  
 14   7  26  1   
 15   8  10  2   
 16   8  11  am  
 17   9  27  1   
 18  11  12  1   
 19  11  13  1   
 20  12  14  1   
 21  12  28  1   
 22  12  29  1   
 23  13  15  1   
 24  13  30  1   
 25  13  31  1   
 26  14  16  1   
 27  14  32  1   
 28  14  33  1   
 29  15  17  1   
 30  15  34  1   
 31  15  35  1   
 32  16  17  1   
 33  16  18  1   
 34  16  36  1   
 35  17  37  1   
 36  17  38  1   
 37  18  19  1   
 38  18  39  1   
 39  18  40  1   
 40  19  20  2   
 41  19  41  1   
 42  20  21  1   
 43  20  42  1   
 44  21  43  1   
 45  21  44  1   
 46  21  45  1   
@<TRIPOS>SUBSTRUCTURE
  1 ****   8 GROUP 4 **** **** 0

# MOE 2024.06 (io_trps.svl 2023.06)
