@<TRIPOS>MOLECULE
NONAME
51 54 1 0 0 
SMALL
USER_CHARGES


@<TRIPOS>ATOM
  1 O       -0.6210     0.9450    -0.1700 O.2   1 <1>  -0.5700 
  2 C       -0.5980     2.1490    -0.2820 C.2   1 <1>   0.5690 
  3 N       -1.6150     2.9650     0.1360 N.am  1 <1>  -0.5090 
  4 C        0.6170     2.7810    -0.9530 C.3   1 <1>   0.1810 
  5 C       -1.6530     4.4130    -0.2400 C.3   1 <1>   0.3640 
  6 C       -2.8060     2.4600     0.8590 C.3   1 <1>   0.0490 
  7 O        0.7920     4.1190    -0.5630 O.3   1 <1>  -0.5600 
  8 C       -2.8030     4.6480    -1.2210 C.ar  1 <1>  -0.1440 
  9 C       -0.3240     4.9560    -0.8360 C.3   1 <1>   0.2610 
 10 C       -3.1180     3.0320     2.2080 C.3   1 <1>  -0.2000 
 11 C       -2.6270     1.6250     2.0870 C.3   1 <1>  -0.2000 
 12 C       -3.6430     5.7420    -1.0520 C.ar  1 <1>   0.1600 
 13 C       -3.0390     3.7980    -2.2870 C.ar  1 <1>  -0.1500 
 14 C       -0.0710     6.3700    -0.3020 C.2   1 <1>   0.5690 
 15 N       -4.6700     6.0390    -1.8310 N.ar  1 <1>  -0.6200 
 16 C       -4.1030     4.0960    -3.1100 C.ar  1 <1>  -0.1500 
 17 O       -0.9660     7.1800    -0.3560 O.2   1 <1>  -0.5700 
 18 N        1.1470     6.6620     0.2320 N.am  1 <1>  -0.7300 
 19 C       -4.8760     5.2110    -2.8410 C.ar  1 <1>   0.1600 
 20 C        1.6200     7.9250     0.8340 C.3   1 <1>   0.2200 
 21 C        0.7950     8.2670     2.0830 C.3   1 <1>  -0.1600 
 22 C        1.5980     9.0610    -0.1990 C.3   1 <1>  -0.1600 
 23 C        1.2520     9.5970     2.7040 C.3   1 <1>  -0.1600 
 24 C        2.0530    10.3900     0.4260 C.3   1 <1>  -0.1600 
 25 C        1.2140    10.7210     1.6640 C.3   1 <1>   0.2000 
 26 O        1.7250    11.8610     2.2410 O.3   1 <1>  -0.6800 
 27 H        0.5100     2.7400    -2.0220 H     1 <1>   0.0800 
 28 H        1.5010     2.2380    -0.6690 H     1 <1>   0.0800 
 29 H       -1.8590     4.9660     0.6600 H     1 <1>   0.0800 
 30 H       -3.6230     2.2200     0.1980 H     1 <1>   0.1000 
 31 H       -0.4150     5.0260    -1.9050 H     1 <1>   0.0800 
 32 H       -2.4570     3.7520     2.6560 H     1 <1>   0.1000 
 33 H       -4.1470     3.1860     2.4800 H     1 <1>   0.1000 
 34 H       -3.3180     0.8200     2.2630 H     1 <1>   0.1000 
 35 H       -1.6260     1.3850     2.4000 H     1 <1>   0.1000 
 36 H       -3.4620     6.4180    -0.2320 H     1 <1>   0.1500 
 37 H       -2.4310     2.9290    -2.4740 H     1 <1>   0.1500 
 38 H       -4.3370     3.4700    -3.9530 H     1 <1>   0.1500 
 39 H        1.8210     5.8900     0.2480 H     1 <1>   0.3700 
 40 H       -5.7070     5.4350    -3.4890 H     1 <1>   0.1500 
 41 H        2.6430     7.7780     1.1420 H     1 <1>   0.0800 
 42 H       -0.2440     8.3550     1.8180 H     1 <1>   0.0800 
 43 H        0.8950     7.4800     2.8090 H     1 <1>   0.0800 
 44 H        2.2430     8.8130    -1.0230 H     1 <1>   0.0800 
 45 H        0.5990     9.1890    -0.5780 H     1 <1>   0.0800 
 46 H        2.2530     9.4830     3.0820 H     1 <1>   0.0800 
 47 H        0.6010     9.8490     3.5230 H     1 <1>   0.0800 
 48 H        1.9440    11.1780    -0.2980 H     1 <1>   0.0800 
 49 H        3.0910    10.3130     0.6990 H     1 <1>   0.0800 
 50 H        0.1950    10.9270     1.3770 H     1 <1>   0.0800 
 51 H        2.6510    11.7140     2.5070 H     1 <1>   0.4000 
@<TRIPOS>BOND
  1   1   2  2   
  2   2   3  am  
  3   2   4  1   
  4   3   5  1   
  5   3   6  1   
  6   4   7  1   
  7   4  27  1   
  8   4  28  1   
  9   5   8  1   
 10   5   9  1   
 11   5  29  1   
 12   6  10  1   
 13   6  11  1   
 14   6  30  1   
 15   7   9  1   
 16   8  12  ar  
 17   8  13  ar  
 18   9  14  1   
 19   9  31  1   
 20  10  11  1   
 21  10  32  1   
 22  10  33  1   
 23  11  34  1   
 24  11  35  1   
 25  12  15  ar  
 26  12  36  1   
 27  13  16  ar  
 28  13  37  1   
 29  14  17  2   
 30  14  18  am  
 31  15  19  ar  
 32  16  19  ar  
 33  16  38  1   
 34  18  20  1   
 35  18  39  1   
 36  19  40  1   
 37  20  21  1   
 38  20  22  1   
 39  20  41  1   
 40  21  23  1   
 41  21  42  1   
 42  21  43  1   
 43  22  24  1   
 44  22  44  1   
 45  22  45  1   
 46  23  25  1   
 47  23  46  1   
 48  23  47  1   
 49  24  25  1   
 50  24  48  1   
 51  24  49  1   
 52  25  26  1   
 53  25  50  1   
 54  26  51  1   
@<TRIPOS>SUBSTRUCTURE
  1 ****  14 GROUP 4 **** **** 0

# MOE 2024.06 (io_trps.svl 2023.06)
