@<TRIPOS>MOLECULE
NONAME
49 50 1 0 0 
SMALL
USER_CHARGES


@<TRIPOS>ATOM
  1 O        4.0370    -0.6040     1.6100 O.co2 1 <1>  -0.9000 
  2 C        3.9360    -0.5810     0.3790 C.2   1 <1>   0.9060 
  3 O        4.8660    -0.9860    -0.3280 O.co2 1 <1>  -0.9000 
  4 C        2.7370     0.1470    -0.2790 C.3   1 <1>  -0.1060 
  5 C        3.2010     1.1020    -1.4230 C.3   1 <1>   0.2000 
  6 C        2.0520     1.0600     0.7740 C.3   1 <1>  -0.1600 
  7 C        1.7600    -0.9420    -0.8040 C.3   1 <1>  -0.1600 
  8 O        4.1810     0.5280    -2.2100 O.3   1 <1>  -0.6800 
  9 C        3.6920     2.4900    -0.9410 C.3   1 <1>   0.3430 
 10 C        3.0550     2.0170     1.4510 C.3   1 <1>   0.3430 
 11 C        0.3990    -0.4590    -1.3410 C.3   1 <1>  -0.1600 
 12 N        4.0890     2.5610     0.5060 N.4   1 <1>  -0.9590 
 13 C       -0.4350    -1.6450    -1.8340 C.3   1 <1>  -0.2400 
 14 C        5.4200     1.9170     0.7260 C.3   1 <1>   0.4860 
 15 C        6.4620     3.0160     0.5810 C.ar  1 <1>  -0.1430 
 16 C        7.2750     3.0640    -0.5520 C.ar  1 <1>  -0.1430 
 17 C        6.6000     3.9870     1.5750 C.ar  1 <1>  -0.1430 
 18 C        8.1780     4.1040    -0.7010 C.ar  1 <1>  -0.1500 
 19 C        7.2280     2.0010    -1.6460 C.3   1 <1>  -0.0970 
 20 C        7.5100     5.0170     1.4030 C.ar  1 <1>  -0.1500 
 21 C        5.7970     3.9610     2.8730 C.3   1 <1>  -0.0970 
 22 C        8.2930     5.0800     0.2680 C.ar  1 <1>  -0.1500 
 23 H        2.3820     1.2940    -2.0900 H     1 <1>   0.0800 
 24 H        1.6030     0.4520     1.5410 H     1 <1>   0.0800 
 25 H        1.2660     1.6400     0.3260 H     1 <1>   0.0800 
 26 H        2.2640    -1.4960    -1.5800 H     1 <1>   0.0800 
 27 H        1.5760    -1.6380    -0.0020 H     1 <1>   0.0800 
 28 H        4.6160    -0.1990    -1.6530 H     1 <1>   0.4000 
 29 H        2.8800     3.1800    -1.0900 H     1 <1>   0.0800 
 30 H        4.5070     2.8120    -1.5670 H     1 <1>   0.0800 
 31 H        3.5510     1.4860     2.2490 H     1 <1>   0.0800 
 32 H        2.5070     2.8290     1.8980 H     1 <1>   0.0800 
 33 H       -0.1520     0.0430    -0.5660 H     1 <1>   0.0800 
 34 H        0.5330     0.2230    -2.1620 H     1 <1>   0.0800 
 35 H        4.2830     3.5410     0.7370 H     1 <1>   0.4500 
 36 H       -0.6120    -2.3390    -1.0310 H     1 <1>   0.0800 
 37 H        0.0770    -2.1590    -2.6290 H     1 <1>   0.0800 
 38 H       -1.3850    -1.3010    -2.2040 H     1 <1>   0.0800 
 39 H        5.4760     1.4790     1.7090 H     1 <1>   0.0800 
 40 H        5.5900     1.1350     0.0090 H     1 <1>   0.0800 
 41 H        8.8050     4.1580    -1.5740 H     1 <1>   0.1500 
 42 H        8.1110     2.0460    -2.2570 H     1 <1>   0.0800 
 43 H        6.3770     2.1500    -2.2840 H     1 <1>   0.0800 
 44 H        7.1830     1.0110    -1.2260 H     1 <1>   0.0800 
 45 H        7.6240     5.7780     2.1560 H     1 <1>   0.1500 
 46 H        6.2800     4.5600     3.6250 H     1 <1>   0.0800 
 47 H        5.7260     2.9600     3.2600 H     1 <1>   0.0800 
 48 H        4.8110     4.3560     2.7150 H     1 <1>   0.0800 
 49 H        8.9970     5.8840     0.1420 H     1 <1>   0.1500 
@<TRIPOS>BOND
  1   1   2  ar  
  2   2   3  ar  
  3   2   4  1   
  4   4   5  1   
  5   4   6  1   
  6   4   7  1   
  7   5   8  1   
  8   5   9  1   
  9   5  23  1   
 10   6  10  1   
 11   6  24  1   
 12   6  25  1   
 13   7  11  1   
 14   7  26  1   
 15   7  27  1   
 16   8  28  1   
 17   9  12  1   
 18   9  29  1   
 19   9  30  1   
 20  10  12  1   
 21  10  31  1   
 22  10  32  1   
 23  11  13  1   
 24  11  33  1   
 25  11  34  1   
 26  12  14  1   
 27  12  35  1   
 28  13  36  1   
 29  13  37  1   
 30  13  38  1   
 31  14  15  1   
 32  14  39  1   
 33  14  40  1   
 34  15  16  ar  
 35  15  17  ar  
 36  16  18  ar  
 37  16  19  1   
 38  17  20  ar  
 39  17  21  1   
 40  18  22  ar  
 41  18  41  1   
 42  19  42  1   
 43  19  43  1   
 44  19  44  1   
 45  20  22  ar  
 46  20  45  1   
 47  21  46  1   
 48  21  47  1   
 49  21  48  1   
 50  22  49  1   
@<TRIPOS>SUBSTRUCTURE
  1 ****  12 GROUP 4 **** **** 0

# MOE 2024.06 (io_trps.svl 2023.06)
