@<TRIPOS>MOLECULE
NONAME
41 43 1 0 0 
SMALL
USER_CHARGES


@<TRIPOS>ATOM
  1 CL      -5.1000     0.6180     1.5190 Cl    1 <1>  -0.1770 
  2 C       -5.0750    -1.0640     1.0560 C.ar  1 <1>   0.1770 
  3 C       -4.6740    -2.0130     1.9770 C.ar  1 <1>  -0.1500 
  4 C       -5.4600    -1.4160    -0.2350 C.ar  1 <1>  -0.1500 
  5 C       -4.6750    -3.3280     1.5510 C.ar  1 <1>   0.0400 
  6 C       -5.4480    -2.7470    -0.6250 C.ar  1 <1>  -0.1500 
  7 S       -4.2290    -4.7610     2.4490 S.3   1 <1>  -0.0800 
  8 C       -5.0490    -3.7260     0.2790 C.ar  1 <1>   0.2270 
  9 C       -4.5820    -5.7430     1.0280 C.2   1 <1>   0.4620 
 10 N       -4.9950    -5.0840     0.0090 N.2   1 <1>  -0.5650 
 11 N       -4.4070    -7.0890     1.1330 N.pl3 1 <1>  -0.8530 
 12 C       -4.7840    -8.0380     0.0650 C.3   1 <1>   0.2890 
 13 C       -6.2850    -8.3010     0.1300 C.3   1 <1>  -0.0800 
 14 C       -4.1600    -9.4160     0.2850 C.3   1 <1>   0.1200 
 15 C       -6.3880    -9.8150     0.3170 C.3   1 <1>   0.1200 
 16 C       -7.0130    -7.7680    -1.1170 C.3   1 <1>  -0.0550 
 17 O       -5.1610   -10.2050     0.8420 O.3   1 <1>  -0.5600 
 18 S       -8.8020    -7.8280    -1.0040 S.o2  1 <1>   1.3330 
 19 O       -9.3640    -7.0660    -2.0950 O.2   1 <1>  -0.6500 
 20 O       -9.1910    -9.2090    -0.8220 O.2   1 <1>  -0.6500 
 21 N       -9.1530    -6.9950     0.4320 N.am  1 <1>  -0.8490 
 22 C       -8.9400    -5.5470     0.3360 C.3   1 <1>   0.1160 
 23 C      -10.5140    -7.2700     0.8990 C.3   1 <1>   0.1160 
 24 H       -4.3750    -1.7400     2.9720 H     1 <1>   0.1500 
 25 H       -5.7640    -0.6450    -0.9210 H     1 <1>   0.1500 
 26 H       -5.7390    -3.0390    -1.6180 H     1 <1>   0.1500 
 27 H       -4.2750    -7.5020     2.0600 H     1 <1>   0.4000 
 28 H       -4.4740    -7.6430    -0.8890 H     1 <1>   0.0800 
 29 H       -6.6970    -7.8350     1.0080 H     1 <1>   0.0800 
 30 H       -3.3130    -9.3900     0.9470 H     1 <1>   0.0800 
 31 H       -3.8810    -9.8580    -0.6550 H     1 <1>   0.0800 
 32 H       -6.5280   -10.3280    -0.6200 H     1 <1>   0.0800 
 33 H       -7.1720   -10.0910     1.0030 H     1 <1>   0.0800 
 34 H       -6.6960    -8.3200    -1.9800 H     1 <1>   0.0800 
 35 H       -6.7200    -6.7470    -1.2680 H     1 <1>   0.0800 
 36 H       -9.1330    -5.0810     1.2870 H     1 <1>   0.0800 
 37 H       -9.5940    -5.1170    -0.4050 H     1 <1>   0.0800 
 38 H       -7.9200    -5.3360     0.0630 H     1 <1>   0.0800 
 39 H      -10.7010    -6.7580     1.8270 H     1 <1>   0.0800 
 40 H      -10.6380    -8.3270     1.0680 H     1 <1>   0.0800 
 41 H      -11.2340    -6.9510     0.1630 H     1 <1>   0.0800 
@<TRIPOS>BOND
  1   1   2  1   
  2   2   3  ar  
  3   2   4  ar  
  4   3   5  ar  
  5   3  24  1   
  6   4   6  ar  
  7   4  25  1   
  8   5   7  1   
  9   5   8  ar  
 10   6   8  ar  
 11   6  26  1   
 12   7   9  1   
 13   8  10  1   
 14   9  10  2   
 15   9  11  1   
 16  11  12  1   
 17  11  27  1   
 18  12  13  1   
 19  12  14  1   
 20  12  28  1   
 21  13  15  1   
 22  13  16  1   
 23  13  29  1   
 24  14  17  1   
 25  14  30  1   
 26  14  31  1   
 27  15  17  1   
 28  15  32  1   
 29  15  33  1   
 30  16  18  1   
 31  16  34  1   
 32  16  35  1   
 33  18  19  2   
 34  18  20  2   
 35  18  21  am  
 36  21  22  1   
 37  21  23  1   
 38  22  36  1   
 39  22  37  1   
 40  22  38  1   
 41  23  39  1   
 42  23  40  1   
 43  23  41  1   
@<TRIPOS>SUBSTRUCTURE
  1 ****  10 GROUP 4 **** **** 0

# MOE 2024.06 (io_trps.svl 2023.06)
