@<TRIPOS>MOLECULE
NONAME
50 52 1 0 0 
SMALL
USER_CHARGES


@<TRIPOS>ATOM
  1 O        0.5100     0.4140    -1.0750 O.2   1 <1>  -0.5700 
  2 C        1.6530     0.2160    -0.7290 C.2   1 <1>   0.7150 
  3 N        2.0110    -1.0920    -0.6650 N.am  1 <1>  -0.7300 
  4 C        2.5100     1.3270    -0.4320 C.2   1 <1>  -0.2370 
  5 C        3.1290    -1.8230    -0.0070 C.3   1 <1>   0.1400 
  6 N        3.8570     1.3020    -0.3050 N.pl3 1 <1>   0.3140 
  7 C        2.1640     2.6270    -0.2410 C.2   1 <1>  -0.1500 
  8 C        4.2600    -0.9500     0.5580 C.3   1 <1>   0.2000 
  9 N        4.3720     2.5070    -0.0420 N.2   1 <1>  -0.7070 
 10 C        4.7390     0.1310    -0.4070 C.3   1 <1>   0.0960 
 11 C        3.3380     3.3330     0.0010 C.2   1 <1>   0.2030 
 12 O        5.3330    -1.7810     0.8580 O.3   1 <1>  -0.6800 
 13 C        3.4110     4.7630     0.2610 C.2   1 <1>   0.7160 
 14 O        2.4170     5.4700     0.2770 O.2   1 <1>  -0.5700 
 15 N        4.6300     5.3380     0.4860 N.am  1 <1>  -0.7300 
 16 C        4.8820     6.7650     0.7850 C.3   1 <1>   0.1400 
 17 C        5.1300     7.5360    -0.5120 C.3   1 <1>  -0.0170 
 18 C        5.3060     9.0280    -0.2160 C.ar  1 <1>  -0.1430 
 19 C        4.1940     9.8700    -0.1760 C.ar  1 <1>  -0.1430 
 20 C        6.5740     9.5580     0.0250 C.ar  1 <1>  -0.1430 
 21 C        4.3610    11.2180     0.1000 C.ar  1 <1>  -0.1500 
 22 C        2.7740     9.3710    -0.4300 C.3   1 <1>  -0.0970 
 23 C        6.7150    10.9100     0.2990 C.ar  1 <1>  -0.1500 
 24 C        7.8390     8.7080    -0.0010 C.3   1 <1>  -0.0970 
 25 C        5.6150    11.7450     0.3400 C.ar  1 <1>  -0.1430 
 26 C        5.7820    13.2230     0.6390 C.3   1 <1>  -0.0970 
 27 H        1.2390    -1.6960    -0.9590 H     1 <1>   0.3700 
 28 H        3.5440    -2.4980    -0.7350 H     1 <1>   0.0800 
 29 H        2.7220    -2.4120     0.7980 H     1 <1>   0.0800 
 30 H        1.1770     3.0560    -0.2690 H     1 <1>   0.1500 
 31 H        3.9520    -0.5020     1.4890 H     1 <1>   0.0800 
 32 H        5.7320     0.4450    -0.1400 H     1 <1>   0.0800 
 33 H        4.7330    -0.2200    -1.4220 H     1 <1>   0.0800 
 34 H        5.7110    -2.1940     0.0570 H     1 <1>   0.4000 
 35 H        5.4320     4.7050     0.4380 H     1 <1>   0.3700 
 36 H        5.7320     6.8530     1.4390 H     1 <1>   0.0800 
 37 H        4.0290     7.1800     1.2950 H     1 <1>   0.0800 
 38 H        4.3010     7.3840    -1.1790 H     1 <1>   0.0800 
 39 H        5.9960     7.1400    -1.0070 H     1 <1>   0.0800 
 40 H        3.5060    11.8690     0.1270 H     1 <1>   0.1500 
 41 H        2.5480     8.5270     0.1960 H     1 <1>   0.0800 
 42 H        2.6670     9.0810    -1.4590 H     1 <1>   0.0800 
 43 H        2.0510    10.1370    -0.2200 H     1 <1>   0.0800 
 44 H        7.6900    11.3220     0.4810 H     1 <1>   0.1500 
 45 H        7.7350     7.8590     0.6490 H     1 <1>   0.0800 
 46 H        8.6920     9.2730     0.3290 H     1 <1>   0.0800 
 47 H        8.0300     8.3670    -1.0020 H     1 <1>   0.0800 
 48 H        4.9110    13.6050     1.1390 H     1 <1>   0.0800 
 49 H        5.9240    13.7640    -0.2790 H     1 <1>   0.0800 
 50 H        6.6350    13.3840     1.2740 H     1 <1>   0.0800 
@<TRIPOS>BOND
  1   1   2  2   
  2   2   3  am  
  3   2   4  1   
  4   3   5  1   
  5   3  27  1   
  6   4   6  1   
  7   4   7  2   
  8   5   8  1   
  9   5  28  1   
 10   5  29  1   
 11   6   9  1   
 12   6  10  1   
 13   7  11  1   
 14   7  30  1   
 15   8  10  1   
 16   8  12  1   
 17   8  31  1   
 18   9  11  2   
 19  10  32  1   
 20  10  33  1   
 21  11  13  1   
 22  12  34  1   
 23  13  14  2   
 24  13  15  am  
 25  15  16  1   
 26  15  35  1   
 27  16  17  1   
 28  16  36  1   
 29  16  37  1   
 30  17  18  1   
 31  17  38  1   
 32  17  39  1   
 33  18  19  ar  
 34  18  20  ar  
 35  19  21  ar  
 36  19  22  1   
 37  20  23  ar  
 38  20  24  1   
 39  21  25  ar  
 40  21  40  1   
 41  22  41  1   
 42  22  42  1   
 43  22  43  1   
 44  23  25  ar  
 45  23  44  1   
 46  24  45  1   
 47  24  46  1   
 48  24  47  1   
 49  25  26  1   
 50  26  48  1   
 51  26  49  1   
 52  26  50  1   
@<TRIPOS>SUBSTRUCTURE
  1 ****  15 GROUP 4 **** **** 0

# MOE 2024.06 (io_trps.svl 2023.06)
