@<TRIPOS>MOLECULE
NONAME
49 50 1 0 0 
SMALL
USER_CHARGES


@<TRIPOS>ATOM
  1 N       -1.0480    -0.0960    -0.2840 N.ar  1 <1>  -0.6200 
  2 C       -1.8410     0.7090     0.3940 C.ar  1 <1>   0.4100 
  3 C        0.0850     0.4320    -0.7080 C.ar  1 <1>   0.4760 
  4 N       -3.0260     0.1760     0.8460 N.pl3 1 <1>  -0.8690 
  5 C       -1.5020     2.0360     0.6270 C.ar  1 <1>  -0.1430 
  6 N        0.5030     1.6710    -0.5570 N.ar  1 <1>  -0.6200 
  7 C        1.0160    -0.4830    -1.4650 C.3   1 <1>  -0.0970 
  8 C       -3.2020    -1.2990     1.0650 C.3   1 <1>   0.2090 
  9 C       -0.3040     2.4640     0.1160 C.ar  1 <1>   0.1600 
 10 C       -2.3890     3.0020     1.4070 C.3   1 <1>  -0.0170 
 11 C       -3.2290    -2.1530    -0.2390 C.3   1 <1>   0.5660 
 12 C       -3.5190     3.5450     0.5270 C.3   1 <1>  -0.2400 
 13 N       -4.1550    -1.6960    -1.3350 N.4   1 <1>  -0.9590 
 14 C       -3.5480    -3.6170     0.0300 C.ar  1 <1>  -0.1430 
 15 C       -3.5070    -0.6240    -2.1500 C.3   1 <1>   0.2630 
 16 C       -5.4950    -1.2470    -0.8570 C.3   1 <1>   0.2630 
 17 C       -2.7260    -4.5820    -0.5340 C.ar  1 <1>  -0.1500 
 18 C       -4.6280    -4.0260     0.8050 C.ar  1 <1>  -0.1500 
 19 C       -2.9790    -5.9270    -0.3340 C.ar  1 <1>  -0.1500 
 20 C       -4.8790    -5.3720     1.0030 C.ar  1 <1>  -0.1500 
 21 C       -4.0580    -6.3290     0.4340 C.ar  1 <1>  -0.1430 
 22 C       -4.3320    -7.8060     0.6560 C.3   1 <1>  -0.0970 
 23 H       -3.4850     0.7540     1.5570 H     1 <1>   0.4000 
 24 H        0.7880    -1.5120    -1.2590 H     1 <1>   0.0800 
 25 H        2.0320    -0.2900    -1.1700 H     1 <1>   0.0800 
 26 H        0.9200    -0.3000    -2.5180 H     1 <1>   0.0800 
 27 H       -4.1070    -1.4570     1.6210 H     1 <1>   0.0800 
 28 H       -2.3900    -1.6550     1.6770 H     1 <1>   0.0800 
 29 H        0.0150     3.4840     0.2570 H     1 <1>   0.1500 
 30 H       -1.7980     3.8280     1.7640 H     1 <1>   0.0800 
 31 H       -2.7990     2.5120     2.2730 H     1 <1>   0.0800 
 32 H       -2.2250    -2.1320    -0.6290 H     1 <1>   0.0800 
 33 H       -3.1090     4.0650    -0.3220 H     1 <1>   0.0800 
 34 H       -4.1260     4.2330     1.0880 H     1 <1>   0.0800 
 35 H       -4.1430     2.7450     0.1720 H     1 <1>   0.0800 
 36 H       -4.2820    -2.5300    -1.9250 H     1 <1>   0.4500 
 37 H       -3.4060     0.2780    -1.5690 H     1 <1>   0.0800 
 38 H       -4.0990    -0.4050    -3.0240 H     1 <1>   0.0800 
 39 H       -2.5240    -0.9330    -2.4650 H     1 <1>   0.0800 
 40 H       -5.3900    -0.3910    -0.2100 H     1 <1>   0.0800 
 41 H       -5.9870    -2.0380    -0.3180 H     1 <1>   0.0800 
 42 H       -6.1140    -0.9690    -1.6950 H     1 <1>   0.0800 
 43 H       -1.8760    -4.3040    -1.1350 H     1 <1>   0.1500 
 44 H       -5.2930    -3.3200     1.2690 H     1 <1>   0.1500 
 45 H       -2.3310    -6.6640    -0.7760 H     1 <1>   0.1500 
 46 H       -5.7160    -5.6780     1.6070 H     1 <1>   0.1500 
 47 H       -4.0060    -8.3810    -0.1920 H     1 <1>   0.0800 
 48 H       -5.3830    -7.9780     0.7970 H     1 <1>   0.0800 
 49 H       -3.8040    -8.1460     1.5290 H     1 <1>   0.0800 
@<TRIPOS>BOND
  1   1   2  ar  
  2   1   3  ar  
  3   2   4  1   
  4   2   5  ar  
  5   3   6  ar  
  6   3   7  1   
  7   4   8  1   
  8   4  23  1   
  9   5   9  ar  
 10   5  10  1   
 11   6   9  ar  
 12   7  24  1   
 13   7  25  1   
 14   7  26  1   
 15   8  11  1   
 16   8  27  1   
 17   8  28  1   
 18   9  29  1   
 19  10  12  1   
 20  10  30  1   
 21  10  31  1   
 22  11  13  1   
 23  11  14  1   
 24  11  32  1   
 25  12  33  1   
 26  12  34  1   
 27  12  35  1   
 28  13  15  1   
 29  13  16  1   
 30  13  36  1   
 31  14  17  ar  
 32  14  18  ar  
 33  15  37  1   
 34  15  38  1   
 35  15  39  1   
 36  16  40  1   
 37  16  41  1   
 38  16  42  1   
 39  17  19  ar  
 40  17  43  1   
 41  18  20  ar  
 42  18  44  1   
 43  19  21  ar  
 44  19  45  1   
 45  20  21  ar  
 46  20  46  1   
 47  21  22  1   
 48  22  47  1   
 49  22  48  1   
 50  22  49  1   
@<TRIPOS>SUBSTRUCTURE
  1 ****  11 GROUP 4 **** **** 0

# MOE 2024.06 (io_trps.svl 2023.06)
