@<TRIPOS>MOLECULE
NONAME
49 51 1 0 0 
SMALL
USER_CHARGES


@<TRIPOS>ATOM
  1 CL      -3.3650    -1.7410    -0.0230 Cl    1 <1>  -0.1770 
  2 C       -3.3650    -0.1130     0.6320 C.ar  1 <1>   0.1770 
  3 C       -3.0080     0.0960     1.9590 C.ar  1 <1>   0.0830 
  4 C       -3.7290     0.9450    -0.1870 C.ar  1 <1>  -0.1440 
  5 O       -2.6740    -0.9360     2.7570 O.3   1 <1>  -0.5320 
  6 C       -3.0010     1.3840     2.4700 C.ar  1 <1>  -0.1500 
  7 C       -3.7170     2.2320     0.3340 C.ar  1 <1>  -0.1500 
  8 C       -4.1500     0.6860    -1.6160 C.3   1 <1>   0.4860 
  9 C       -3.3530     2.4470     1.6550 C.ar  1 <1>  -0.1500 
 10 N       -5.5950     0.3650    -1.5910 N.4   1 <1>  -0.9590 
 11 C       -5.9170    -1.0010    -2.1210 C.3   1 <1>   0.3430 
 12 C       -6.4780     1.4330    -2.1170 C.3   1 <1>   0.3430 
 13 C       -7.3310    -1.4600    -1.7010 C.3   1 <1>   0.1400 
 14 C       -7.5750     1.7300    -1.0910 C.3   1 <1>  -0.1600 
 15 N       -7.7900    -0.7110    -0.4950 N.am  1 <1>  -0.6600 
 16 C       -8.5200     0.5610    -0.7600 C.3   1 <1>   0.1400 
 17 C       -7.2210    -0.9680     0.7300 C.2   1 <1>   0.5440 
 18 O       -6.6080    -0.0410     1.2260 O.2   1 <1>  -0.5700 
 19 C       -7.1830    -2.2820     1.3390 C.ar  1 <1>   0.0860 
 20 C       -8.2270    -3.2160     1.2270 C.ar  1 <1>   0.3930 
 21 C       -6.0680    -2.6710     2.0740 C.ar  1 <1>  -0.1500 
 22 O       -9.3460    -2.8560     0.5640 O.3   1 <1>  -0.3630 
 23 N       -8.2020    -4.4480     1.7350 N.ar  1 <1>  -0.6200 
 24 C       -6.0400    -3.9370     2.6120 C.ar  1 <1>  -0.1500 
 25 C      -10.4780    -3.7030     0.4800 C.3   1 <1>   0.0400 
 26 C       -7.1180    -4.7780     2.4130 C.ar  1 <1>   0.1600 
 27 H       -2.4280    -0.6660     3.6610 H     1 <1>   0.4500 
 28 H       -2.7280     1.5650     3.4940 H     1 <1>   0.1500 
 29 H       -3.9910     3.0780    -0.2730 H     1 <1>   0.1500 
 30 H       -3.5840    -0.1390    -2.0170 H     1 <1>   0.0800 
 31 H       -3.9630     1.5570    -2.2210 H     1 <1>   0.0800 
 32 H       -3.3470     3.4480     2.0540 H     1 <1>   0.1500 
 33 H       -5.8470     0.3090    -0.5770 H     1 <1>   0.4500 
 34 H       -5.2120    -1.7110    -1.7210 H     1 <1>   0.0800 
 35 H       -5.8280    -1.0250    -3.1940 H     1 <1>   0.0800 
 36 H       -6.9170     1.1310    -3.0540 H     1 <1>   0.0800 
 37 H       -5.9080     2.3330    -2.2840 H     1 <1>   0.0800 
 38 H       -7.3210    -2.5170    -1.4970 H     1 <1>   0.0800 
 39 H       -8.0210    -1.2980    -2.5110 H     1 <1>   0.0800 
 40 H       -8.1740     2.5420    -1.4620 H     1 <1>   0.0800 
 41 H       -7.1210     2.0840    -0.1820 H     1 <1>   0.0800 
 42 H       -9.2140     0.4060    -1.5690 H     1 <1>   0.0800 
 43 H       -9.1000     0.8140     0.1130 H     1 <1>   0.0800 
 44 H       -5.2410    -1.9970     2.2210 H     1 <1>   0.1500 
 45 H       -5.1910    -4.2710     3.1820 H     1 <1>   0.1500 
 46 H      -11.2440    -3.1920    -0.0750 H     1 <1>   0.0800 
 47 H      -10.8240    -3.9190     1.4750 H     1 <1>   0.0800 
 48 H      -10.1980    -4.6110    -0.0240 H     1 <1>   0.0800 
 49 H       -7.0870    -5.7690     2.8340 H     1 <1>   0.1500 
@<TRIPOS>BOND
  1   1   2  1   
  2   2   3  ar  
  3   2   4  ar  
  4   3   5  1   
  5   3   6  ar  
  6   4   7  ar  
  7   4   8  1   
  8   5  27  1   
  9   6   9  ar  
 10   6  28  1   
 11   7   9  ar  
 12   7  29  1   
 13   8  10  1   
 14   8  30  1   
 15   8  31  1   
 16   9  32  1   
 17  10  11  1   
 18  10  12  1   
 19  10  33  1   
 20  11  13  1   
 21  11  34  1   
 22  11  35  1   
 23  12  14  1   
 24  12  36  1   
 25  12  37  1   
 26  13  15  1   
 27  13  38  1   
 28  13  39  1   
 29  14  16  1   
 30  14  40  1   
 31  14  41  1   
 32  15  16  1   
 33  15  17  am  
 34  16  42  1   
 35  16  43  1   
 36  17  18  2   
 37  17  19  1   
 38  19  20  ar  
 39  19  21  ar  
 40  20  22  1   
 41  20  23  ar  
 42  21  24  ar  
 43  21  44  1   
 44  22  25  1   
 45  23  26  ar  
 46  24  26  ar  
 47  24  45  1   
 48  25  46  1   
 49  25  47  1   
 50  25  48  1   
 51  26  49  1   
@<TRIPOS>SUBSTRUCTURE
  1 ****  17 GROUP 4 **** **** 0

# MOE 2024.06 (io_trps.svl 2023.06)
