@<TRIPOS>MOLECULE
NONAME
28 28 1 0 0 
SMALL
USER_CHARGES


@<TRIPOS>ATOM
  1 BR      -0.2510    -0.2210    -0.2510 Br    1 <1>  -0.1110 
  2 C       -0.0820     1.6890    -0.0400 C.ar  1 <1>   0.1110 
  3 C       -1.2200     2.4720     0.0970 C.ar  1 <1>  -0.1440 
  4 C        1.1950     2.2150    -0.0340 C.ar  1 <1>  -0.1500 
  5 C       -1.0480     3.8390     0.2460 C.ar  1 <1>  -0.1500 
  6 C       -2.6150     1.8650     0.0860 C.3   1 <1>  -0.0960 
  7 C        1.3490     3.5890     0.1160 C.ar  1 <1>   0.0830 
  8 C        0.2240     4.3890     0.2550 C.ar  1 <1>  -0.1500 
  9 O        2.5520     4.2170     0.1370 O.3   1 <1>  -0.3630 
 10 C        3.7530     3.5020     0.0050 C.3   1 <1>   0.1200 
 11 C        4.8890     4.5240     0.0730 C.3   1 <1>  -0.1600 
 12 C        6.2480     3.8460    -0.0620 C.3   1 <1>   0.3430 
 13 N        7.3100     4.8770     0.0110 N.4   1 <1>  -0.8530 
 14 H        2.0260     1.5470    -0.1450 H     1 <1>   0.1500 
 15 H       -1.9020     4.4850     0.3550 H     1 <1>   0.1500 
 16 H       -2.7150     1.1590     0.8910 H     1 <1>   0.0800 
 17 H       -2.7880     1.3570    -0.8460 H     1 <1>   0.0800 
 18 H       -3.3660     2.6240     0.2040 H     1 <1>   0.0800 
 19 H        0.3480     5.4510     0.3710 H     1 <1>   0.1500 
 20 H        3.7370     2.9930    -0.9450 H     1 <1>   0.0800 
 21 H        3.8120     2.7920     0.8130 H     1 <1>   0.0800 
 22 H        4.8260     5.0330     1.0200 H     1 <1>   0.0800 
 23 H        4.7520     5.2320    -0.7250 H     1 <1>   0.0800 
 24 H        6.3020     3.3250    -1.0060 H     1 <1>   0.0800 
 25 H        6.3760     3.1270     0.7330 H     1 <1>   0.0800 
 26 H        7.2000     5.5680    -0.7400 H     1 <1>   0.4500 
 27 H        8.2450     4.4590    -0.0760 H     1 <1>   0.4500 
 28 H        7.2700     5.3800     0.9060 H     1 <1>   0.4500 
@<TRIPOS>BOND
  1   1   2  1   
  2   2   3  ar  
  3   2   4  ar  
  4   3   5  ar  
  5   3   6  1   
  6   4   7  ar  
  7   4  14  1   
  8   5   8  ar  
  9   5  15  1   
 10   6  16  1   
 11   6  17  1   
 12   6  18  1   
 13   7   8  ar  
 14   7   9  1   
 15   8  19  1   
 16   9  10  1   
 17  10  11  1   
 18  10  20  1   
 19  10  21  1   
 20  11  12  1   
 21  11  22  1   
 22  11  23  1   
 23  12  13  1   
 24  12  24  1   
 25  12  25  1   
 26  13  26  1   
 27  13  27  1   
 28  13  28  1   
@<TRIPOS>SUBSTRUCTURE
  1 ****   7 GROUP 4 **** **** 0

# MOE 2024.06 (io_trps.svl 2023.06)
