@<TRIPOS>MOLECULE
NONAME
41 43 1 0 0 
SMALL
USER_CHARGES


@<TRIPOS>ATOM
  1 F        1.7260     0.8590     2.0570 F     1 <1>  -0.1900 
  2 C        2.4680    -0.0620     1.5060 C.ar  1 <1>   0.1900 
  3 C        3.5400     0.3100     0.6860 C.ar  1 <1>   0.3960 
  4 C        2.1470    -1.3770     1.7570 C.ar  1 <1>  -0.1500 
  5 N        4.3190    -0.6150     0.0790 N.ar  1 <1>  -0.6200 
  6 C        3.8350     1.7200     0.4830 C.2   1 <1>   0.5440 
  7 C        2.9630    -2.2900     1.1320 C.ar  1 <1>   0.1900 
  8 C        4.0140    -1.8860     0.3200 C.ar  1 <1>   0.1600 
  9 O        4.4000     2.3710     1.3460 O.2   1 <1>  -0.5700 
 10 N        3.6400     2.3490    -0.7310 N.am  1 <1>  -0.6600 
 11 F        2.7430    -3.5620     1.3070 F     1 <1>  -0.1900 
 12 C        4.3840     1.8530    -1.9280 C.3   1 <1>   0.1400 
 13 C        3.2230     3.7810    -0.8020 C.3   1 <1>   0.1400 
 14 C        5.9070     1.9900    -1.7060 C.3   1 <1>   0.3430 
 15 C        4.3870     4.7660    -0.5790 C.3   1 <1>  -0.1600 
 16 N        6.2270     3.1500    -0.8100 N.4   1 <1>  -0.9590 
 17 C        5.6980     4.4490    -1.3080 C.3   1 <1>   0.3430 
 18 C        7.6440     3.1910    -0.3730 C.3   1 <1>   0.5240 
 19 C        7.7930     4.2510     0.6950 C.2   1 <1>  -0.1810 
 20 C        7.1960     4.3220     1.9070 C.2   1 <1>  -0.0100 
 21 C        8.6020     5.3940     0.6070 C.2   1 <1>  -0.1500 
 22 O        7.5730     5.4110     2.5440 O.3   1 <1>  -0.2800 
 23 C        8.4190     6.0570     1.7680 C.2   1 <1>  -0.0100 
 24 H        1.3270    -1.6680     2.3870 H     1 <1>   0.1500 
 25 H        4.6170    -2.6490    -0.1430 H     1 <1>   0.1500 
 26 H        4.0950     2.4200    -2.7970 H     1 <1>   0.0800 
 27 H        4.1350     0.8250    -2.1240 H     1 <1>   0.0800 
 28 H        2.4670     3.9610    -0.0540 H     1 <1>   0.0800 
 29 H        2.7690     3.9650    -1.7610 H     1 <1>   0.0800 
 30 H        6.4060     2.0910    -2.6550 H     1 <1>   0.0800 
 31 H        6.2560     1.0800    -1.2430 H     1 <1>   0.0800 
 32 H        4.5840     4.8470     0.4760 H     1 <1>   0.0800 
 33 H        4.0570     5.7400    -0.8930 H     1 <1>   0.0800 
 34 H        5.6720     2.9800     0.0560 H     1 <1>   0.4500 
 35 H        6.4030     5.2390    -1.1050 H     1 <1>   0.0800 
 36 H        5.5340     4.4080    -2.3730 H     1 <1>   0.0800 
 37 H        8.2860     3.4180    -1.2080 H     1 <1>   0.0800 
 38 H        7.9310     2.2350     0.0350 H     1 <1>   0.0800 
 39 H        6.4980     3.6610     2.3960 H     1 <1>   0.1500 
 40 H        9.2350     5.6730    -0.2180 H     1 <1>   0.1500 
 41 H        8.8460     6.9800     2.1250 H     1 <1>   0.1500 
@<TRIPOS>BOND
  1   1   2  1   
  2   2   3  ar  
  3   2   4  ar  
  4   3   5  ar  
  5   3   6  1   
  6   4   7  ar  
  7   4  24  1   
  8   5   8  ar  
  9   6   9  2   
 10   6  10  am  
 11   7   8  ar  
 12   7  11  1   
 13   8  25  1   
 14  10  12  1   
 15  10  13  1   
 16  12  14  1   
 17  12  26  1   
 18  12  27  1   
 19  13  15  1   
 20  13  28  1   
 21  13  29  1   
 22  14  16  1   
 23  14  30  1   
 24  14  31  1   
 25  15  17  1   
 26  15  32  1   
 27  15  33  1   
 28  16  17  1   
 29  16  18  1   
 30  16  34  1   
 31  17  35  1   
 32  17  36  1   
 33  18  19  1   
 34  18  37  1   
 35  18  38  1   
 36  19  20  2   
 37  19  21  1   
 38  20  22  1   
 39  20  39  1   
 40  21  23  2   
 41  21  40  1   
 42  22  23  1   
 43  23  41  1   
@<TRIPOS>SUBSTRUCTURE
  1 ****   9 GROUP 4 **** **** 0

# MOE 2024.06 (io_trps.svl 2023.06)
