@<TRIPOS>MOLECULE
NONAME
34 35 1 0 0 
SMALL
USER_CHARGES


@<TRIPOS>ATOM
  1 O        0.2950    -0.8310     1.1240 O.2   1 <1>  -0.5700 
  2 C        0.8120    -1.9350     1.0890 C.2   1 <1>   0.6900 
  3 N        0.1830    -3.0200     1.5510 N.am  1 <1>  -0.7300 
  4 N        2.0110    -2.2860     0.5440 N.am  1 <1>  -0.1680 
  5 C        0.8680    -4.2240     1.1280 C.3   1 <1>   0.5700 
  6 N        2.1870    -3.7540     0.6390 N.3   1 <1>  -0.6390 
  7 C        2.9140    -1.4990    -0.1970 C.ar  1 <1>   0.1170 
  8 C        0.0750    -4.8900    -0.0050 C.3   1 <1>  -0.1600 
  9 C        1.0770    -5.1130     2.3450 C.3   1 <1>  -0.2400 
 10 C        3.0730    -0.1380     0.0590 C.ar  1 <1>  -0.1500 
 11 C        3.6900    -2.0650    -1.2090 C.ar  1 <1>  -0.1500 
 12 C        0.7790    -6.0870    -0.6630 C.3   1 <1>  -0.0220 
 13 C        3.9690     0.6280    -0.6650 C.ar  1 <1>  -0.1500 
 14 C        4.5880    -1.3040    -1.9350 C.ar  1 <1>  -0.1500 
 15 C       -0.1040    -6.6740    -1.7470 C.2   1 <1>  -0.2880 
 16 C        4.7290     0.0460    -1.6640 C.ar  1 <1>  -0.1500 
 17 C       -0.6050    -7.9130    -1.7370 C.2   1 <1>  -0.3000 
 18 H       -0.8310    -3.0040     1.5690 H     1 <1>   0.3700 
 19 H        2.7790    -3.8710     1.4660 H     1 <1>   0.3600 
 20 H       -0.1220    -4.1530    -0.7640 H     1 <1>   0.0800 
 21 H       -0.8710    -5.2230     0.3830 H     1 <1>   0.0800 
 22 H        1.5480    -4.5600     3.1380 H     1 <1>   0.0800 
 23 H        1.6920    -5.9570     2.0970 H     1 <1>   0.0800 
 24 H        0.1300    -5.4790     2.6980 H     1 <1>   0.0800 
 25 H        2.4920     0.3300     0.8330 H     1 <1>   0.1500 
 26 H        3.5850    -3.1110    -1.4310 H     1 <1>   0.1500 
 27 H        0.9920    -6.8450     0.0700 H     1 <1>   0.0800 
 28 H        1.7110    -5.7740    -1.1020 H     1 <1>   0.0800 
 29 H        4.0740     1.6770    -0.4510 H     1 <1>   0.1500 
 30 H        5.1750    -1.7610    -2.7120 H     1 <1>   0.1500 
 31 H       -0.2950    -5.9820    -2.5520 H     1 <1>   0.1500 
 32 H        5.4270     0.6410    -2.2280 H     1 <1>   0.1500 
 33 H       -1.2300    -8.3120    -2.5170 H     1 <1>   0.1500 
 34 H       -0.4360    -8.6320    -0.9540 H     1 <1>   0.1500 
@<TRIPOS>BOND
  1   1   2  2   
  2   2   3  am  
  3   2   4  am  
  4   3   5  1   
  5   3  18  1   
  6   4   6  1   
  7   4   7  1   
  8   5   6  1   
  9   5   8  1   
 10   5   9  1   
 11   6  19  1   
 12   7  10  ar  
 13   7  11  ar  
 14   8  12  1   
 15   8  20  1   
 16   8  21  1   
 17   9  22  1   
 18   9  23  1   
 19   9  24  1   
 20  10  13  ar  
 21  10  25  1   
 22  11  14  ar  
 23  11  26  1   
 24  12  15  1   
 25  12  27  1   
 26  12  28  1   
 27  13  16  ar  
 28  13  29  1   
 29  14  16  ar  
 30  14  30  1   
 31  15  17  2   
 32  15  31  1   
 33  16  32  1   
 34  17  33  1   
 35  17  34  1   
@<TRIPOS>SUBSTRUCTURE
  1 ****   4 GROUP 4 **** **** 0

# MOE 2024.06 (io_trps.svl 2023.06)
