@<TRIPOS>MOLECULE
NONAME
52 55 1 0 0 
SMALL
USER_CHARGES


@<TRIPOS>ATOM
  1 O        0.2340     0.0810    -0.0530 O.3   1 <1>  -0.5600 
  2 C        1.4380    -0.5260    -0.4080 C.3   1 <1>   0.3440 
  3 C        0.1700     1.4450    -0.3520 C.3   1 <1>   0.2000 
  4 C        1.3550    -2.0230    -0.1430 C.ar  1 <1>  -0.1440 
  5 C        2.5800     0.0950     0.4220 C.3   1 <1>   0.2090 
  6 C       -1.2630     1.9370    -0.0370 C.3   1 <1>  -0.0800 
  7 C        1.2630     2.2120     0.4350 C.3   1 <1>   0.2090 
  8 C        0.7910    -2.5080     1.0290 C.ar  1 <1>  -0.1500 
  9 C        1.8620    -2.9230    -1.0710 C.ar  1 <1>  -0.1500 
 10 N        2.6440     1.6060     0.3140 N.pl3 1 <1>  -0.8380 
 11 C       -2.3160     1.1420    -0.8270 C.3   1 <1>  -0.2400 
 12 C       -1.4490     3.4340    -0.3430 C.3   1 <1>  -0.2400 
 13 C        0.7480    -3.8690     1.2770 C.ar  1 <1>  -0.1500 
 14 C        1.8190    -4.2840    -0.8240 C.ar  1 <1>  -0.1500 
 15 C        3.7780     2.3510     0.2390 C.ar  1 <1>   0.4610 
 16 C        1.2640    -4.7580     0.3520 C.ar  1 <1>  -0.1500 
 17 N        4.9200     1.7720    -0.1620 N.ar  1 <1>  -0.1790 
 18 C        3.8920     3.7310     0.5390 C.ar  1 <1>   0.0000 
 19 C        6.0980     2.4560    -0.3410 C.ar  1 <1>   0.5270 
 20 C        5.0990     4.3570     0.3330 C.ar  1 <1>   0.1050 
 21 C        3.0920     4.7570     1.0700 C.2   1 <1>   0.1390 
 22 N        6.2190     3.7170    -0.1190 N.ar  1 <1>  -0.5670 
 23 C        7.2980     1.6700    -0.8290 C.3   1 <1>  -0.0970 
 24 N        4.9500     5.6530     0.6890 N.pl3 1 <1>   0.3140 
 25 N        3.7040     5.8900     1.1470 N.2   1 <1>  -0.7070 
 26 C        5.9610     6.7200     0.6500 C.3   1 <1>   0.0160 
 27 H        1.6010    -0.3570    -1.4580 H     1 <1>   0.0800 
 28 H        0.3450     1.5610    -1.4090 H     1 <1>   0.0800 
 29 H        3.5010    -0.3660     0.1200 H     1 <1>   0.0800 
 30 H        2.4160    -0.1690     1.4540 H     1 <1>   0.0800 
 31 H       -1.4470     1.7860     1.0130 H     1 <1>   0.0800 
 32 H        0.9800     2.2510     1.4730 H     1 <1>   0.0800 
 33 H        1.2750     3.2140     0.0490 H     1 <1>   0.0800 
 34 H        0.3750    -1.8270     1.7520 H     1 <1>   0.1500 
 35 H        2.2910    -2.5780    -1.9950 H     1 <1>   0.1500 
 36 H       -2.1620     1.2480    -1.8860 H     1 <1>   0.0800 
 37 H       -3.3070     1.4870    -0.5870 H     1 <1>   0.0800 
 38 H       -2.2650     0.0960    -0.5780 H     1 <1>   0.0800 
 39 H       -1.2140     3.6450    -1.3720 H     1 <1>   0.0800 
 40 H       -0.8310     4.0450     0.2900 H     1 <1>   0.0800 
 41 H       -2.4710     3.7220    -0.1670 H     1 <1>   0.0800 
 42 H        0.3080    -4.2360     2.1880 H     1 <1>   0.1500 
 43 H        2.2120    -4.9790    -1.5460 H     1 <1>   0.1500 
 44 H        1.2300    -5.8160     0.5440 H     1 <1>   0.1500 
 45 H        4.8940     0.7860    -0.3850 H     1 <1>   0.4570 
 46 H        2.0740     4.6380     1.4000 H     1 <1>   0.1500 
 47 H        8.1500     2.3210    -0.9260 H     1 <1>   0.0800 
 48 H        7.0970     1.2370    -1.7920 H     1 <1>   0.0800 
 49 H        7.5480     0.8930    -0.1300 H     1 <1>   0.0800 
 50 H        6.8540     6.3620     0.1730 H     1 <1>   0.0800 
 51 H        6.1840     7.0270     1.6550 H     1 <1>   0.0800 
 52 H        5.5670     7.5560     0.1010 H     1 <1>   0.0800 
@<TRIPOS>BOND
  1   1   2  1   
  2   1   3  1   
  3   2   4  1   
  4   2   5  1   
  5   2  27  1   
  6   3   6  1   
  7   3   7  1   
  8   3  28  1   
  9   4   8  ar  
 10   4   9  ar  
 11   5  10  1   
 12   5  29  1   
 13   5  30  1   
 14   6  11  1   
 15   6  12  1   
 16   6  31  1   
 17   7  10  1   
 18   7  32  1   
 19   7  33  1   
 20   8  13  ar  
 21   8  34  1   
 22   9  14  ar  
 23   9  35  1   
 24  10  15  1   
 25  11  36  1   
 26  11  37  1   
 27  11  38  1   
 28  12  39  1   
 29  12  40  1   
 30  12  41  1   
 31  13  16  ar  
 32  13  42  1   
 33  14  16  ar  
 34  14  43  1   
 35  15  17  ar  
 36  15  18  ar  
 37  16  44  1   
 38  17  19  ar  
 39  17  45  1   
 40  18  20  ar  
 41  18  21  1   
 42  19  22  ar  
 43  19  23  1   
 44  20  22  ar  
 45  20  24  1   
 46  21  25  2   
 47  21  46  1   
 48  23  47  1   
 49  23  48  1   
 50  23  49  1   
 51  24  25  1   
 52  24  26  1   
 53  26  50  1   
 54  26  51  1   
 55  26  52  1   
@<TRIPOS>SUBSTRUCTURE
  1 ****  10 GROUP 4 **** **** 0

# MOE 2024.06 (io_trps.svl 2023.06)
