@<TRIPOS>MOLECULE
NONAME
58 60 1 0 0 
SMALL
USER_CHARGES


@<TRIPOS>ATOM
  1 O       -0.8720     0.2250     0.9250 O.2   1 <1>  -0.5700 
  2 C       -1.6030     0.8910     0.2300 C.2   1 <1>   0.5690 
  3 N       -2.5780     0.2890    -0.5270 N.am  1 <1>  -0.6600 
  4 C       -1.4470     2.4040     0.2290 C.3   1 <1>  -0.0990 
  5 C       -2.6610    -1.1950    -0.6060 C.3   1 <1>   0.1400 
  6 C       -3.7560     0.9890    -1.1110 C.3   1 <1>   0.1400 
  7 C       -0.1440     2.8980     0.8740 C.3   1 <1>  -0.0160 
  8 C       -3.9090    -1.6770     0.1660 C.3   1 <1>   0.4230 
  9 C       -5.0070     0.5350    -0.3480 C.3   1 <1>  -0.1600 
 10 C       -0.0630     4.4190     0.7870 C.ar  1 <1>  -0.1440 
 11 N       -4.0010    -3.1910     0.3100 N.4   1 <1>  -0.9590 
 12 C       -5.2170    -1.0080    -0.3580 C.3   1 <1>   0.0000 
 13 C        0.5610     5.0810    -0.2670 C.ar  1 <1>  -0.1430 
 14 C       -0.6460     5.1600     1.8040 C.ar  1 <1>  -0.1500 
 15 C       -5.3680    -3.6900     0.6730 C.3   1 <1>   0.3430 
 16 C       -3.4570    -3.9850    -0.8410 C.3   1 <1>   0.2630 
 17 C       -6.3910    -1.3570     0.6040 C.3   1 <1>  -0.1600 
 18 C       -5.5320    -1.5010    -1.8000 C.3   1 <1>   0.1200 
 19 C        0.5850     6.4680    -0.2800 C.ar  1 <1>  -0.1500 
 20 C        1.2270     4.3330    -1.4140 C.3   1 <1>  -0.0970 
 21 C       -0.6160     6.5420     1.7800 C.ar  1 <1>  -0.1500 
 22 C       -6.1530    -2.6280     1.4430 C.3   1 <1>  -0.1600 
 23 O       -6.5570    -0.7710    -2.3780 O.3   1 <1>  -0.6800 
 24 C        0.0010     7.2050     0.7350 C.ar  1 <1>  -0.1430 
 25 C        0.0460     8.7220     0.6920 C.3   1 <1>  -0.0970 
 26 H       -1.4770     2.7520    -0.7860 H     1 <1>   0.0800 
 27 H       -2.2780     2.8340     0.7570 H     1 <1>   0.0800 
 28 H       -2.7040    -1.4780    -1.6410 H     1 <1>   0.0800 
 29 H       -1.7810    -1.6400    -0.1760 H     1 <1>   0.0800 
 30 H       -3.6580     2.0580    -1.0310 H     1 <1>   0.0800 
 31 H       -3.8410     0.7480    -2.1580 H     1 <1>   0.0800 
 32 H        0.7020     2.4410     0.3930 H     1 <1>   0.0800 
 33 H       -0.1160     2.5960     1.9070 H     1 <1>   0.0800 
 34 H       -3.7780    -1.2900     1.1630 H     1 <1>   0.0800 
 35 H       -4.9070     0.8850     0.6660 H     1 <1>   0.0800 
 36 H       -5.8640     1.0390    -0.7600 H     1 <1>   0.0800 
 37 H       -3.4000    -3.4030     1.1210 H     1 <1>   0.4500 
 38 H       -1.1300     4.6620     2.6250 H     1 <1>   0.1500 
 39 H       -5.9160    -3.9360    -0.2210 H     1 <1>   0.0800 
 40 H       -5.2850    -4.5860     1.2680 H     1 <1>   0.0800 
 41 H       -4.0140    -3.7800    -1.7400 H     1 <1>   0.0800 
 42 H       -3.5250    -5.0410    -0.6300 H     1 <1>   0.0800 
 43 H       -2.4210    -3.7430    -1.0130 H     1 <1>   0.0800 
 44 H       -6.5700    -0.5490     1.2940 H     1 <1>   0.0800 
 45 H       -7.3030    -1.4750     0.0450 H     1 <1>   0.0800 
 46 H       -5.8300    -2.5340    -1.8100 H     1 <1>   0.0800 
 47 H       -4.6820    -1.3870    -2.4480 H     1 <1>   0.0800 
 48 H        1.0670     6.9870    -1.0900 H     1 <1>   0.1500 
 49 H        1.5480     5.0120    -2.1830 H     1 <1>   0.0800 
 50 H        0.5420     3.6310    -1.8520 H     1 <1>   0.0800 
 51 H        2.0900     3.8040    -1.0510 H     1 <1>   0.0800 
 52 H       -1.0750     7.0950     2.5800 H     1 <1>   0.1500 
 53 H       -7.1030    -3.0370     1.7400 H     1 <1>   0.0800 
 54 H       -5.6200    -2.3830     2.3460 H     1 <1>   0.0800 
 55 H       -7.4090    -0.8900    -1.9120 H     1 <1>   0.4000 
 56 H       -0.4440     9.1460     1.5490 H     1 <1>   0.0800 
 57 H       -0.4470     9.0760    -0.1950 H     1 <1>   0.0800 
 58 H        1.0670     9.0570     0.6800 H     1 <1>   0.0800 
@<TRIPOS>BOND
  1   1   2  2   
  2   2   3  am  
  3   2   4  1   
  4   3   5  1   
  5   3   6  1   
  6   4   7  1   
  7   4  26  1   
  8   4  27  1   
  9   5   8  1   
 10   5  28  1   
 11   5  29  1   
 12   6   9  1   
 13   6  30  1   
 14   6  31  1   
 15   7  10  1   
 16   7  32  1   
 17   7  33  1   
 18   8  11  1   
 19   8  12  1   
 20   8  34  1   
 21   9  12  1   
 22   9  35  1   
 23   9  36  1   
 24  10  13  ar  
 25  10  14  ar  
 26  11  15  1   
 27  11  16  1   
 28  11  37  1   
 29  12  17  1   
 30  12  18  1   
 31  13  19  ar  
 32  13  20  1   
 33  14  21  ar  
 34  14  38  1   
 35  15  22  1   
 36  15  39  1   
 37  15  40  1   
 38  16  41  1   
 39  16  42  1   
 40  16  43  1   
 41  17  22  1   
 42  17  44  1   
 43  17  45  1   
 44  18  23  1   
 45  18  46  1   
 46  18  47  1   
 47  19  24  ar  
 48  19  48  1   
 49  20  49  1   
 50  20  50  1   
 51  20  51  1   
 52  21  24  ar  
 53  21  52  1   
 54  22  53  1   
 55  22  54  1   
 56  23  55  1   
 57  24  25  1   
 58  25  56  1   
 59  25  57  1   
 60  25  58  1   
@<TRIPOS>SUBSTRUCTURE
  1 ****   2 GROUP 4 **** **** 0

# MOE 2024.06 (io_trps.svl 2023.06)
