@<TRIPOS>MOLECULE
NONAME
50 52 1 0 0 
SMALL
USER_CHARGES


@<TRIPOS>ATOM
  1 O       -1.3160    -0.6620    -1.6330 O.3   1 <1>  -0.5600 
  2 C       -0.7100    -1.6160    -0.8390 C.3   1 <1>   0.2000 
  3 C       -2.4020    -0.0840    -0.9740 C.3   1 <1>   0.1200 
  4 C       -0.8460    -1.0610     0.5750 C.3   1 <1>  -0.1600 
  5 C        0.7340    -1.7970    -1.3410 C.3   1 <1>   0.3430 
  6 C       -2.1760    -0.3280     0.5170 C.3   1 <1>  -0.1600 
  7 N        1.5780    -2.6660    -0.4480 N.4   1 <1>  -0.9590 
  8 C        3.0130    -2.5370    -0.8510 C.3   1 <1>   0.4860 
  9 C        1.1120    -4.0990    -0.4480 C.3   1 <1>   0.3430 
 10 C        3.8730    -3.3130     0.1240 C.ar  1 <1>  -0.1430 
 11 C        1.0960    -4.7200     0.9560 C.3   1 <1>   0.0960 
 12 C        4.4890    -4.4890    -0.2800 C.ar  1 <1>  -0.1500 
 13 C        4.0430    -2.8620     1.4260 C.ar  1 <1>  -0.1500 
 14 N        0.4540    -6.0390     0.8660 N.pl3 1 <1>   0.0480 
 15 C        5.2540    -5.2230     0.6120 C.ar  1 <1>  -0.1430 
 16 C        4.8020    -3.5960     2.3180 C.ar  1 <1>  -0.1500 
 17 C        1.0000    -7.2410     0.6570 C.2   1 <1>   0.0060 
 18 C       -0.8520    -6.3100     0.9000 C.2   1 <1>   0.0360 
 19 C        5.4020    -4.7740     1.9120 C.ar  1 <1>  -0.1500 
 20 C        5.9480    -6.5030     0.1770 C.3   1 <1>  -0.0970 
 21 N        0.0980    -8.1530     0.5570 N.2   1 <1>  -0.3380 
 22 C        2.4870    -7.5200     0.5480 C.3   1 <1>  -0.0600 
 23 N       -1.0850    -7.5590     0.7130 N.2   1 <1>  -0.3380 
 24 H       -1.2810    -2.5220    -0.9510 H     1 <1>   0.0800 
 25 H       -3.3050    -0.5580    -1.3200 H     1 <1>   0.0800 
 26 H       -2.4260     0.9660    -1.2130 H     1 <1>   0.0800 
 27 H       -0.0570    -0.3560     0.7750 H     1 <1>   0.0800 
 28 H       -0.8440    -1.8310     1.3250 H     1 <1>   0.0800 
 29 H        1.1760    -0.8160    -1.4030 H     1 <1>   0.0800 
 30 H        0.7020    -2.2130    -2.3350 H     1 <1>   0.0800 
 31 H       -2.9740    -0.9380     0.9030 H     1 <1>   0.0800 
 32 H       -2.1530     0.5980     1.0650 H     1 <1>   0.0800 
 33 H        1.5170    -2.2900     0.5070 H     1 <1>   0.4500 
 34 H        3.3120    -1.5010    -0.8400 H     1 <1>   0.0800 
 35 H        3.1570    -2.9200    -1.8490 H     1 <1>   0.0800 
 36 H        1.7450    -4.6910    -1.0900 H     1 <1>   0.0800 
 37 H        0.1100    -4.1490    -0.8430 H     1 <1>   0.0800 
 38 H        0.5260    -4.1130     1.6350 H     1 <1>   0.0800 
 39 H        2.0910    -4.8470     1.3410 H     1 <1>   0.0800 
 40 H        4.3880    -4.8420    -1.2920 H     1 <1>   0.1500 
 41 H        3.6000    -1.9400     1.7630 H     1 <1>   0.1500 
 42 H        4.9380    -3.2510     3.3300 H     1 <1>   0.1500 
 43 H       -1.6170    -5.5720     1.0630 H     1 <1>   0.1500 
 44 H        5.9980    -5.3350     2.6130 H     1 <1>   0.1500 
 45 H        5.5670    -6.8550    -0.7640 H     1 <1>   0.0800 
 46 H        5.8030    -7.2740     0.9130 H     1 <1>   0.0800 
 47 H        7.0040    -6.3250     0.0730 H     1 <1>   0.0800 
 48 H        3.0010    -7.1530     1.4170 H     1 <1>   0.0800 
 49 H        2.8890    -7.0580    -0.3330 H     1 <1>   0.0800 
 50 H        2.6510    -8.5810     0.4810 H     1 <1>   0.0800 
@<TRIPOS>BOND
  1   1   2  1   
  2   1   3  1   
  3   2   4  1   
  4   2   5  1   
  5   2  24  1   
  6   3   6  1   
  7   3  25  1   
  8   3  26  1   
  9   4   6  1   
 10   4  27  1   
 11   4  28  1   
 12   5   7  1   
 13   5  29  1   
 14   5  30  1   
 15   6  31  1   
 16   6  32  1   
 17   7   8  1   
 18   7   9  1   
 19   7  33  1   
 20   8  10  1   
 21   8  34  1   
 22   8  35  1   
 23   9  11  1   
 24   9  36  1   
 25   9  37  1   
 26  10  12  ar  
 27  10  13  ar  
 28  11  14  1   
 29  11  38  1   
 30  11  39  1   
 31  12  15  ar  
 32  12  40  1   
 33  13  16  ar  
 34  13  41  1   
 35  14  17  1   
 36  14  18  1   
 37  15  19  ar  
 38  15  20  1   
 39  16  19  ar  
 40  16  42  1   
 41  17  21  2   
 42  17  22  1   
 43  18  23  2   
 44  18  43  1   
 45  19  44  1   
 46  20  45  1   
 47  20  46  1   
 48  20  47  1   
 49  21  23  1   
 50  22  48  1   
 51  22  49  1   
 52  22  50  1   
@<TRIPOS>SUBSTRUCTURE
  1 ****   9 GROUP 4 **** **** 0

# MOE 2024.06 (io_trps.svl 2023.06)
