@<TRIPOS>MOLECULE
NONAME
49 52 1 0 0 
SMALL
USER_CHARGES


@<TRIPOS>ATOM
  1 O        0.7810     2.2420    -0.8540 O.3   1 <1>  -0.0190 
  2 N        1.6510     1.4020    -1.3380 N.2   1 <1>  -0.4100 
  3 C        1.2260     3.4700    -0.8830 C.2   1 <1>  -0.0400 
  4 C        2.6710     2.1050    -1.6820 C.2   1 <1>   0.1080 
  5 C        2.4570     3.4530    -1.4120 C.2   1 <1>  -0.1500 
  6 C        0.3840     4.6140    -0.3560 C.3   1 <1>   0.0200 
  7 C        3.9320     1.5390    -2.2930 C.3   1 <1>  -0.0590 
  8 C        0.2410     4.5490     1.1780 C.3   1 <1>  -0.0800 
  9 C       -0.5370     5.7500     1.7080 C.3   1 <1>   0.2000 
 10 C        1.5980     4.6740     1.8830 C.3   1 <1>   0.2090 
 11 O       -1.0220     5.4260     2.9670 O.3   1 <1>  -0.6800 
 12 C        0.5240     6.8410     1.8630 C.3   1 <1>   0.2090 
 13 N        1.8020     6.1270     2.1540 N.pl3 1 <1>  -0.8380 
 14 C        2.9360     6.6840     1.6080 C.ar  1 <1>   0.4100 
 15 N        3.0470     6.6970     0.3120 N.ar  1 <1>  -0.6200 
 16 C        3.9120     7.2090     2.4680 C.ar  1 <1>  -0.1500 
 17 C        4.1630     7.2530    -0.2320 C.ar  1 <1>   0.3100 
 18 C        5.0450     7.7720     1.9720 C.ar  1 <1>  -0.1430 
 19 C        4.3040     7.2860    -1.6470 C.ar  1 <1>   0.0820 
 20 C        5.1970     7.8060     0.5660 C.ar  1 <1>   0.0000 
 21 C        6.1000     8.3400     2.9120 C.3   1 <1>  -0.0970 
 22 O        3.2970     6.7500    -2.3980 O.3   1 <1>  -0.3630 
 23 C        5.4240     7.8420    -2.2290 C.ar  1 <1>  -0.1500 
 24 C        6.3230     8.3640    -0.0740 C.ar  1 <1>  -0.1500 
 25 C        3.3000     6.7780    -3.8080 C.3   1 <1>   0.0400 
 26 C        6.4350     8.3820    -1.4370 C.ar  1 <1>  -0.1500 
 27 H        3.1340     4.2690    -1.5850 H     1 <1>   0.1500 
 28 H        0.8440     5.5400    -0.6510 H     1 <1>   0.0800 
 29 H       -0.5870     4.5680    -0.8150 H     1 <1>   0.0800 
 30 H        4.7910     1.9020    -1.7600 H     1 <1>   0.0800 
 31 H        4.0010     1.8370    -3.3230 H     1 <1>   0.0800 
 32 H        3.9160     0.4650    -2.2400 H     1 <1>   0.0800 
 33 H       -0.2420     3.6240     1.4360 H     1 <1>   0.0800 
 34 H       -1.3660     6.0440     1.0880 H     1 <1>   0.0800 
 35 H        2.4050     4.2680     1.2950 H     1 <1>   0.0800 
 36 H        1.5700     4.1510     2.8220 H     1 <1>   0.0800 
 37 H       -0.2570     5.3470     3.5730 H     1 <1>   0.4000 
 38 H        0.2730     7.5270     2.6530 H     1 <1>   0.0800 
 39 H        0.6150     7.3900     0.9410 H     1 <1>   0.0800 
 40 H        3.7160     7.1420     3.5200 H     1 <1>   0.1500 
 41 H        5.8020     8.2200     3.9380 H     1 <1>   0.0800 
 42 H        6.2370     9.3890     2.7210 H     1 <1>   0.0800 
 43 H        7.0350     7.8280     2.7700 H     1 <1>   0.0800 
 44 H        5.5560     7.8790    -3.2930 H     1 <1>   0.1500 
 45 H        7.1120     8.7860     0.5200 H     1 <1>   0.1500 
 46 H        2.3930     6.3140    -4.1510 H     1 <1>   0.0800 
 47 H        4.1510     6.2280    -4.1670 H     1 <1>   0.0800 
 48 H        3.3330     7.8020    -4.1360 H     1 <1>   0.0800 
 49 H        7.3010     8.8130    -1.9110 H     1 <1>   0.1500 
@<TRIPOS>BOND
  1   1   2  1   
  2   1   3  1   
  3   2   4  2   
  4   3   5  2   
  5   3   6  1   
  6   4   5  1   
  7   4   7  1   
  8   5  27  1   
  9   6   8  1   
 10   6  28  1   
 11   6  29  1   
 12   7  30  1   
 13   7  31  1   
 14   7  32  1   
 15   8   9  1   
 16   8  10  1   
 17   8  33  1   
 18   9  11  1   
 19   9  12  1   
 20   9  34  1   
 21  10  13  1   
 22  10  35  1   
 23  10  36  1   
 24  11  37  1   
 25  12  13  1   
 26  12  38  1   
 27  12  39  1   
 28  13  14  1   
 29  14  15  ar  
 30  14  16  ar  
 31  15  17  ar  
 32  16  18  ar  
 33  16  40  1   
 34  17  19  ar  
 35  17  20  ar  
 36  18  20  ar  
 37  18  21  1   
 38  19  22  1   
 39  19  23  ar  
 40  20  24  ar  
 41  21  41  1   
 42  21  42  1   
 43  21  43  1   
 44  22  25  1   
 45  23  26  ar  
 46  23  44  1   
 47  24  26  ar  
 48  24  45  1   
 49  25  46  1   
 50  25  47  1   
 51  25  48  1   
 52  26  49  1   
@<TRIPOS>SUBSTRUCTURE
  1 ****  15 GROUP 4 **** **** 0

# MOE 2024.06 (io_trps.svl 2023.06)
