@<TRIPOS>MOLECULE
NONAME
44 46 1 0 0 
SMALL
USER_CHARGES


@<TRIPOS>ATOM
  1 F       -0.8290     1.5350     0.1600 F     1 <1>  -0.3400 
  2 C        0.4610     1.2690    -0.0110 C.3   1 <1>   1.1640 
  3 F        0.6190    -0.0100     0.3070 F     1 <1>  -0.3400 
  4 F        0.6850     1.3570    -1.3180 F     1 <1>  -0.3400 
  5 C        1.3570     2.1870     0.8320 C.ar  1 <1>  -0.1440 
  6 C        2.3960     2.9150     0.2640 C.ar  1 <1>  -0.1500 
  7 C        1.1380     2.3000     2.2020 C.ar  1 <1>  -0.1500 
  8 C        3.2050     3.7420     1.0300 C.ar  1 <1>   0.1000 
  9 C        1.9380     3.1220     2.9790 C.ar  1 <1>  -0.1500 
 10 N        4.2280     4.4510     0.4170 N.pl3 1 <1>  -0.8380 
 11 C        2.9640     3.8380     2.3950 C.ar  1 <1>  -0.1500 
 12 C        4.0570     5.9310     0.3490 C.3   1 <1>   0.2090 
 13 C        5.6190     4.0710     0.7990 C.3   1 <1>   0.2090 
 14 C        5.1240     6.5730    -0.5590 C.3   1 <1>   0.1100 
 15 C        6.6510     4.7490    -0.1220 C.3   1 <1>   0.1100 
 16 N        6.5060     6.2230    -0.1390 N.3   1 <1>  -0.8100 
 17 C        7.5060     6.8350    -1.0360 C.3   1 <1>   0.2480 
 18 C        7.5550     8.3450    -0.8340 C.2   1 <1>  -0.0380 
 19 N        7.4110     8.8190     0.4410 N.pl3 1 <1>  -0.5500 
 20 C        7.7260     9.2690    -1.8050 C.2   1 <1>  -0.1360 
 21 C        7.4410    10.1510     0.7220 C.2   1 <1>   0.4390 
 22 C        7.7560    10.6490    -1.4700 C.2   1 <1>   0.7670 
 23 N        7.6060    11.0560    -0.1700 N.2   1 <1>  -0.6610 
 24 C        7.2610    10.5420     2.1670 C.3   1 <1>  -0.1790 
 25 O        7.9120    11.4930    -2.3380 O.2   1 <1>  -0.5700 
 26 H        2.6060     2.8590    -0.7890 H     1 <1>   0.1500 
 27 H        0.3420     1.7470     2.6720 H     1 <1>   0.1500 
 28 H        1.7590     3.2030     4.0370 H     1 <1>   0.1500 
 29 H        3.5850     4.4770     2.9950 H     1 <1>   0.1500 
 30 H        4.1350     6.3500     1.3370 H     1 <1>   0.0800 
 31 H        3.0770     6.1560    -0.0350 H     1 <1>   0.0800 
 32 H        5.7240     3.0020     0.7320 H     1 <1>   0.0800 
 33 H        5.8070     4.3630     1.8170 H     1 <1>   0.0800 
 34 H        4.9950     7.6410    -0.5330 H     1 <1>   0.0800 
 35 H        4.9530     6.2420    -1.5690 H     1 <1>   0.0800 
 36 H        6.5290     4.3560    -1.1170 H     1 <1>   0.0800 
 37 H        7.6380     4.4900     0.2210 H     1 <1>   0.0800 
 38 H        7.2850     6.5980    -2.0630 H     1 <1>   0.0800 
 39 H        8.4780     6.4380    -0.7990 H     1 <1>   0.0800 
 40 H        7.2060     8.1280     1.1730 H     1 <1>   0.4000 
 41 H        7.8470     9.0240    -2.8410 H     1 <1>   0.1500 
 42 H        8.0430    10.1100     2.7620 H     1 <1>   0.0800 
 43 H        6.3070    10.2000     2.5220 H     1 <1>   0.0800 
 44 H        7.3030    11.6120     2.2660 H     1 <1>   0.0800 
@<TRIPOS>BOND
  1   1   2  1   
  2   2   3  1   
  3   2   4  1   
  4   2   5  1   
  5   5   6  ar  
  6   5   7  ar  
  7   6   8  ar  
  8   6  26  1   
  9   7   9  ar  
 10   7  27  1   
 11   8  10  1   
 12   8  11  ar  
 13   9  11  ar  
 14   9  28  1   
 15  10  12  1   
 16  10  13  1   
 17  11  29  1   
 18  12  14  1   
 19  12  30  1   
 20  12  31  1   
 21  13  15  1   
 22  13  32  1   
 23  13  33  1   
 24  14  16  1   
 25  14  34  1   
 26  14  35  1   
 27  15  16  1   
 28  15  36  1   
 29  15  37  1   
 30  16  17  1   
 31  17  18  1   
 32  17  38  1   
 33  17  39  1   
 34  18  19  1   
 35  18  20  2   
 36  19  21  1   
 37  19  40  1   
 38  20  22  1   
 39  20  41  1   
 40  21  23  2   
 41  21  24  1   
 42  22  23  1   
 43  22  25  2   
 44  24  42  1   
 45  24  43  1   
 46  24  44  1   
@<TRIPOS>SUBSTRUCTURE
  1 ****  12 GROUP 4 **** **** 0

# MOE 2024.06 (io_trps.svl 2023.06)
