@<TRIPOS>MOLECULE
NONAME
43 46 1 0 0 
SMALL
USER_CHARGES


@<TRIPOS>ATOM
  1 O        0.5010    -0.3300     0.4530 O.3   1 <1>  -0.6800 
  2 C        1.2650    -0.3650    -0.7120 C.3   1 <1>   0.2000 
  3 C        2.2980    -1.4890    -0.6440 C.3   1 <1>  -0.0800 
  4 C        2.1090     0.9120    -0.8020 C.3   1 <1>   0.2090 
  5 C        3.4880    -0.8700     0.0890 C.3   1 <1>   0.2090 
  6 C        1.8200    -2.8100    -0.0150 C.3   1 <1>   0.0210 
  7 N        3.4490     0.5890    -0.2230 N.pl3 1 <1>  -0.8220 
  8 C        2.9100    -3.8590    -0.0790 C.2   1 <1>   0.1080 
  9 C        4.5780     1.2160    -0.7860 C.2   1 <1>   0.2700 
 10 N        3.2590    -4.4320    -1.1870 N.2   1 <1>  -0.7070 
 11 C        3.6520    -4.3120     1.0070 C.2   1 <1>  -0.1500 
 12 N        5.5700     0.5880    -1.3130 N.2   1 <1>  -0.3380 
 13 N        4.7950     2.5450    -0.8820 N.pl3 1 <1>   0.5930 
 14 N        4.2490    -5.2750    -0.8360 N.pl3 1 <1>   0.3000 
 15 C        4.5040    -5.2200     0.4880 C.2   1 <1>  -0.3320 
 16 N        6.4060     1.5220    -1.7560 N.2   1 <1>   0.0000 
 17 N        5.9600     2.6950    -1.5150 N.2   1 <1>  -0.4180 
 18 C        3.9950     3.6400    -0.4400 C.ar  1 <1>  -0.0230 
 19 C        5.5650    -6.0510     1.1860 C.3   1 <1>  -0.0600 
 20 C        3.8180     4.7600    -1.2490 C.ar  1 <1>  -0.1500 
 21 C        3.3710     3.6170     0.8060 C.ar  1 <1>  -0.1500 
 22 C        3.0350     5.8210    -0.8300 C.ar  1 <1>  -0.1500 
 23 C        2.5880     4.6770     1.2250 C.ar  1 <1>  -0.1500 
 24 C        2.4180     5.7790     0.4070 C.ar  1 <1>  -0.1500 
 25 H       -0.0990    -1.0990     0.4940 H     1 <1>   0.4000 
 26 H        0.5970    -0.4600    -1.5510 H     1 <1>   0.0800 
 27 H        2.6250    -1.6950    -1.6490 H     1 <1>   0.0800 
 28 H        1.6400     1.7200    -0.2680 H     1 <1>   0.0800 
 29 H        2.2290     1.1890    -1.8350 H     1 <1>   0.0800 
 30 H        4.4100    -1.3350    -0.2160 H     1 <1>   0.0800 
 31 H        3.3740    -0.9910     1.1520 H     1 <1>   0.0800 
 32 H        0.9640    -3.1780    -0.5520 H     1 <1>   0.0800 
 33 H        1.5390    -2.6610     1.0120 H     1 <1>   0.0800 
 34 H        3.5490    -3.9890     2.0270 H     1 <1>   0.1500 
 35 H        4.7280    -5.8710    -1.5220 H     1 <1>   0.2700 
 36 H        5.5760    -5.8300     2.2390 H     1 <1>   0.0800 
 37 H        6.5370    -5.8310     0.7810 H     1 <1>   0.0800 
 38 H        5.3600    -7.1000     1.0590 H     1 <1>   0.0800 
 39 H        4.2990     4.8050    -2.2130 H     1 <1>   0.1500 
 40 H        3.4960     2.7630     1.4520 H     1 <1>   0.1500 
 41 H        2.9080     6.6800    -1.4650 H     1 <1>   0.1500 
 42 H        2.1100     4.6440     2.1900 H     1 <1>   0.1500 
 43 H        1.8080     6.6040     0.7340 H     1 <1>   0.1500 
@<TRIPOS>BOND
  1   1   2  1   
  2   1  25  1   
  3   2   3  1   
  4   2   4  1   
  5   2  26  1   
  6   3   5  1   
  7   3   6  1   
  8   3  27  1   
  9   4   7  1   
 10   4  28  1   
 11   4  29  1   
 12   5   7  1   
 13   5  30  1   
 14   5  31  1   
 15   6   8  1   
 16   6  32  1   
 17   6  33  1   
 18   7   9  1   
 19   8  10  2   
 20   8  11  1   
 21   9  12  2   
 22   9  13  1   
 23  10  14  1   
 24  11  15  2   
 25  11  34  1   
 26  12  16  1   
 27  13  17  1   
 28  13  18  1   
 29  14  15  1   
 30  14  35  1   
 31  15  19  1   
 32  16  17  2   
 33  18  20  ar  
 34  18  21  ar  
 35  19  36  1   
 36  19  37  1   
 37  19  38  1   
 38  20  22  ar  
 39  20  39  1   
 40  21  23  ar  
 41  21  40  1   
 42  22  24  ar  
 43  22  41  1   
 44  23  24  ar  
 45  23  42  1   
 46  24  43  1   
@<TRIPOS>SUBSTRUCTURE
  1 ****   7 GROUP 4 **** **** 0

# MOE 2024.06 (io_trps.svl 2023.06)
