@<TRIPOS>MOLECULE
NONAME
48 50 1 0 0 
SMALL
USER_CHARGES


@<TRIPOS>ATOM
  1 S        0.1770     0.6450    -1.8230 S.o2  1 <1>   1.4470 
  2 O        1.2410    -0.0460    -2.5200 O.2   1 <1>  -0.6500 
  3 O       -0.7080     1.5170    -2.5650 O.2   1 <1>  -0.6500 
  4 N        0.9170     1.6010    -0.6360 N.am  1 <1>  -0.8490 
  5 C       -0.8080    -0.5290    -0.8510 C.ar  1 <1>  -0.0090 
  6 C        1.5220     2.8080    -1.2340 C.3   1 <1>   0.1960 
  7 C        1.9420     0.8550     0.1250 C.3   1 <1>   0.1960 
  8 C       -1.8090    -0.0820     0.0030 C.ar  1 <1>  -0.1500 
  9 C       -0.5830    -1.8980    -0.9240 C.ar  1 <1>  -0.1500 
 10 C        2.1780     3.7220    -0.1820 C.3   1 <1>   0.2090 
 11 C        2.5960     1.7150     1.2220 C.3   1 <1>   0.2090 
 12 C       -2.5580    -0.9680     0.7590 C.ar  1 <1>  -0.1500 
 13 C       -1.3270    -2.7900    -0.1700 C.ar  1 <1>  -0.1500 
 14 N        3.1790     2.9620     0.6340 N.pl3 1 <1>  -0.8380 
 15 C       -2.3180    -2.3280     0.6780 C.ar  1 <1>  -0.1430 
 16 C        4.5090     3.2900     0.7080 C.ar  1 <1>   0.7200 
 17 C       -3.1400    -3.3020     1.5030 C.3   1 <1>  -0.0970 
 18 N        4.9090     4.3910     0.0740 N.ar  1 <1>  -0.6200 
 19 N        5.3060     2.4850     1.4060 N.ar  1 <1>  -0.6200 
 20 C        6.1790     4.6990     0.1300 C.ar  1 <1>   0.1670 
 21 C        6.5730     2.8060     1.4420 C.ar  1 <1>   0.1600 
 22 C        7.1110     3.9030     0.7920 C.ar  1 <1>   0.0860 
 23 C        6.5510     6.0030    -0.5560 C.3   1 <1>  -0.0970 
 24 C        8.5300     4.1180     0.8510 C.2   1 <1>   0.4230 
 25 O        9.1640     3.9670     1.8620 O.2   1 <1>  -0.5700 
 26 C        9.3160     4.4820    -0.3940 C.3   1 <1>  -0.1790 
 27 H        0.7630     3.3740    -1.7470 H     1 <1>   0.0800 
 28 H        2.2670     2.5230    -1.9590 H     1 <1>   0.0800 
 29 H        2.7160     0.5060    -0.5390 H     1 <1>   0.0800 
 30 H        1.4910    -0.0050     0.5890 H     1 <1>   0.0800 
 31 H       -2.0040     0.9750     0.0740 H     1 <1>   0.1500 
 32 H        0.1850    -2.2740    -1.5800 H     1 <1>   0.1500 
 33 H        1.4150     4.1080     0.4710 H     1 <1>   0.0800 
 34 H        2.6280     4.5590    -0.6840 H     1 <1>   0.0800 
 35 H        3.3420     1.1260     1.7250 H     1 <1>   0.0800 
 36 H        1.8520     1.9850     1.9510 H     1 <1>   0.0800 
 37 H       -3.3290    -0.5920     1.4090 H     1 <1>   0.1500 
 38 H       -1.1320    -3.8450    -0.2500 H     1 <1>   0.1500 
 39 H       -3.4340    -2.8520     2.4340 H     1 <1>   0.0800 
 40 H       -2.5700    -4.1880     1.7210 H     1 <1>   0.0800 
 41 H       -4.0240    -3.5840     0.9590 H     1 <1>   0.0800 
 42 H        7.2350     2.1700     2.0080 H     1 <1>   0.1500 
 43 H        5.6960     6.6560    -0.5910 H     1 <1>   0.0800 
 44 H        6.8690     5.8120    -1.5650 H     1 <1>   0.0800 
 45 H        7.3290     6.5130    -0.0190 H     1 <1>   0.0800 
 46 H        8.7670     4.2310    -1.2820 H     1 <1>   0.0800 
 47 H       10.2410     3.9340    -0.4000 H     1 <1>   0.0800 
 48 H        9.5430     5.5310    -0.3890 H     1 <1>   0.0800 
@<TRIPOS>BOND
  1   1   2  2   
  2   1   3  2   
  3   1   4  am  
  4   1   5  1   
  5   4   6  1   
  6   4   7  1   
  7   5   8  ar  
  8   5   9  ar  
  9   6  10  1   
 10   6  27  1   
 11   6  28  1   
 12   7  11  1   
 13   7  29  1   
 14   7  30  1   
 15   8  12  ar  
 16   8  31  1   
 17   9  13  ar  
 18   9  32  1   
 19  10  14  1   
 20  10  33  1   
 21  10  34  1   
 22  11  14  1   
 23  11  35  1   
 24  11  36  1   
 25  12  15  ar  
 26  12  37  1   
 27  13  15  ar  
 28  13  38  1   
 29  14  16  1   
 30  15  17  1   
 31  16  18  ar  
 32  16  19  ar  
 33  17  39  1   
 34  17  40  1   
 35  17  41  1   
 36  18  20  ar  
 37  19  21  ar  
 38  20  22  ar  
 39  20  23  1   
 40  21  22  ar  
 41  21  42  1   
 42  22  24  1   
 43  23  43  1   
 44  23  44  1   
 45  23  45  1   
 46  24  25  2   
 47  24  26  1   
 48  26  46  1   
 49  26  47  1   
 50  26  48  1   
@<TRIPOS>SUBSTRUCTURE
  1 ****   7 GROUP 4 **** **** 0

# MOE 2024.06 (io_trps.svl 2023.06)
