@<TRIPOS>MOLECULE
NONAME
44 46 1 0 0 
SMALL
USER_CHARGES


@<TRIPOS>ATOM
  1 F        1.3430     0.2540    -1.7430 F     1 <1>  -0.1900 
  2 C        1.8480    -0.6790    -0.9800 C.ar  1 <1>   0.1900 
  3 C        2.3710    -0.3390     0.2580 C.ar  1 <1>  -0.1440 
  4 C        1.8300    -1.9780    -1.4510 C.ar  1 <1>  -0.1500 
  5 C        2.8950    -1.3590     1.0370 C.ar  1 <1>  -0.1500 
  6 C        2.3810     1.1010     0.7480 C.3   1 <1>  -0.0960 
  7 C        2.3470    -2.9930    -0.6580 C.ar  1 <1>  -0.1430 
  8 C        2.8840    -2.6690     0.5840 C.ar  1 <1>  -0.1500 
  9 C        2.3030    -4.4410    -1.1480 C.3   1 <1>   0.4600 
 10 N        1.2420    -5.1890    -0.3560 N.4   1 <1>  -0.9590 
 11 C        3.6810    -5.1410    -1.0680 C.2   1 <1>   0.9060 
 12 C        1.1250    -6.5840    -0.8660 C.3   1 <1>   0.3430 
 13 C       -0.0470    -4.4620    -0.2150 C.3   1 <1>   0.3430 
 14 O        3.9720    -5.6840     0.0100 O.co2 1 <1>  -0.9000 
 15 O        4.3510    -5.2790    -2.0940 O.co2 1 <1>  -0.9000 
 16 C        0.1750    -7.3810     0.0190 C.3   1 <1>  -0.1600 
 17 C       -1.0150    -5.2640     0.6480 C.3   1 <1>  -0.1600 
 18 C       -1.1860    -6.6920     0.1240 C.3   1 <1>   0.2800 
 19 O       -1.9290    -7.3730     1.0790 O.3   1 <1>  -0.5600 
 20 C       -2.0060    -6.7580    -1.1740 C.3   1 <1>  -0.1600 
 21 C       -3.1510    -7.8290     0.5870 C.3   1 <1>   0.1200 
 22 C       -3.4110    -7.0360    -0.6820 C.3   1 <1>  -0.1600 
 23 H        1.4190    -2.1760    -2.4250 H     1 <1>   0.1500 
 24 H        3.3220    -1.1400     2.0010 H     1 <1>   0.1500 
 25 H        2.9530     1.7120     0.0720 H     1 <1>   0.0800 
 26 H        2.8180     1.1740     1.7270 H     1 <1>   0.0800 
 27 H        1.3760     1.4820     0.7900 H     1 <1>   0.0800 
 28 H        3.3110    -3.4400     1.2080 H     1 <1>   0.1500 
 29 H        2.0310    -4.4380    -2.1880 H     1 <1>   0.0800 
 30 H        1.7050    -5.2810     0.5650 H     1 <1>   0.4500 
 31 H        2.0950    -7.0600    -0.8620 H     1 <1>   0.0800 
 32 H        0.7580    -6.5730    -1.8790 H     1 <1>   0.0800 
 33 H       -0.4770    -4.3020    -1.1900 H     1 <1>   0.0800 
 34 H        0.1210    -3.4990     0.2410 H     1 <1>   0.0800 
 35 H        0.6120    -7.4750     0.9980 H     1 <1>   0.0800 
 36 H        0.0590    -8.3700    -0.3850 H     1 <1>   0.0800 
 37 H       -1.9670    -4.7650     0.6690 H     1 <1>   0.0800 
 38 H       -0.6360    -5.2940     1.6540 H     1 <1>   0.0800 
 39 H       -1.6750    -7.5830    -1.7800 H     1 <1>   0.0800 
 40 H       -1.9540    -5.8600    -1.7620 H     1 <1>   0.0800 
 41 H       -3.9120    -7.6790     1.3330 H     1 <1>   0.0800 
 42 H       -3.0460    -8.8790     0.3730 H     1 <1>   0.0800 
 43 H       -4.0010    -7.5910    -1.3900 H     1 <1>   0.0800 
 44 H       -3.9190    -6.1210    -0.4320 H     1 <1>   0.0800 
@<TRIPOS>BOND
  1   1   2  1   
  2   2   3  ar  
  3   2   4  ar  
  4   3   5  ar  
  5   3   6  1   
  6   4   7  ar  
  7   4  23  1   
  8   5   8  ar  
  9   5  24  1   
 10   6  25  1   
 11   6  26  1   
 12   6  27  1   
 13   7   8  ar  
 14   7   9  1   
 15   8  28  1   
 16   9  10  1   
 17   9  11  1   
 18   9  29  1   
 19  10  12  1   
 20  10  13  1   
 21  10  30  1   
 22  11  14  ar  
 23  11  15  ar  
 24  12  16  1   
 25  12  31  1   
 26  12  32  1   
 27  13  17  1   
 28  13  33  1   
 29  13  34  1   
 30  16  18  1   
 31  16  35  1   
 32  16  36  1   
 33  17  18  1   
 34  17  37  1   
 35  17  38  1   
 36  18  19  1   
 37  18  20  1   
 38  19  21  1   
 39  20  22  1   
 40  20  39  1   
 41  20  40  1   
 42  21  22  1   
 43  21  41  1   
 44  21  42  1   
 45  22  43  1   
 46  22  44  1   
@<TRIPOS>SUBSTRUCTURE
  1 ****  10 GROUP 4 **** **** 0

# MOE 2024.06 (io_trps.svl 2023.06)
