@<TRIPOS>MOLECULE
NONAME
49 52 1 0 0 
SMALL
USER_CHARGES


@<TRIPOS>ATOM
  1 O       -0.6660     0.1610     1.0000 O.2   1 <1>  -0.5700 
  2 C       -1.5090     0.1320     0.1180 C.2   1 <1>   0.7160 
  3 N       -2.4290    -0.8910     0.1530 N.am  1 <1>  -0.6600 
  4 C       -1.4910     1.1660    -0.9050 C.2   1 <1>   0.1410 
  5 C       -2.5060    -1.9780     1.1280 C.3   1 <1>   0.2200 
  6 C       -3.7580    -0.9960    -0.4180 C.3   1 <1>   0.2200 
  7 N       -2.1440     1.1050    -2.0910 N.2   1 <1>  -0.2270 
  8 C       -0.8220     2.3450    -0.8820 C.2   1 <1>  -0.3020 
  9 C       -2.8570    -3.1880     0.2090 C.3   1 <1>   0.0610 
 10 C       -3.7210    -1.4650     1.9300 C.3   1 <1>  -0.1600 
 11 C       -3.7700    -2.4720    -0.8380 C.3   1 <1>  -0.1600 
 12 C       -4.6080    -0.8300     0.8440 C.3   1 <1>  -0.1600 
 13 N       -1.9060     2.1750    -2.7600 N.2   1 <1>  -0.4180 
 14 N       -1.0950     2.9440    -2.0340 N.pl3 1 <1>   0.3000 
 15 C       -3.5490    -4.3230     1.0080 C.2   1 <1>   0.5690 
 16 C       -1.5800    -3.8230    -0.4300 C.3   1 <1>  -0.1600 
 17 O       -3.2260    -4.4510     2.1690 O.2   1 <1>  -0.5700 
 18 N       -4.4560    -5.2050     0.4520 N.am  1 <1>  -0.6600 
 19 C       -0.6060    -2.9130    -1.2000 C.3   1 <1>  -0.2400 
 20 C       -4.5910    -5.5380    -0.9970 C.3   1 <1>   0.1400 
 21 C       -5.2620    -6.1050     1.3280 C.3   1 <1>   0.1400 
 22 C       -4.1500    -6.9860    -1.2380 C.3   1 <1>  -0.1600 
 23 C       -4.8220    -7.5580     1.1220 C.3   1 <1>  -0.1600 
 24 C       -4.9220    -7.9720    -0.3520 C.3   1 <1>  -0.1600 
 25 H       -1.6140    -2.1100     1.7170 H     1 <1>   0.0800 
 26 H       -3.9920    -0.3010    -1.2050 H     1 <1>   0.0800 
 27 H       -0.1870     2.7490    -0.1160 H     1 <1>   0.1500 
 28 H       -4.2370    -2.2260     2.4840 H     1 <1>   0.0800 
 29 H       -3.3870    -0.7140     2.6250 H     1 <1>   0.0800 
 30 H       -4.7800    -2.8360    -0.8320 H     1 <1>   0.0800 
 31 H       -3.3820    -2.5650    -1.8350 H     1 <1>   0.0800 
 32 H       -4.7680     0.2140     1.0470 H     1 <1>   0.0800 
 33 H       -5.5610    -1.3220     0.7550 H     1 <1>   0.0800 
 34 H       -0.7570     3.8550    -2.3630 H     1 <1>   0.2700 
 35 H       -1.0180    -4.2940     0.3600 H     1 <1>   0.0800 
 36 H       -1.8800    -4.6100    -1.0960 H     1 <1>   0.0800 
 37 H       -0.1210    -2.2260    -0.5290 H     1 <1>   0.0800 
 38 H       -1.1080    -2.3540    -1.9680 H     1 <1>   0.0800 
 39 H        0.1590    -3.5100    -1.6630 H     1 <1>   0.0800 
 40 H       -5.6200    -5.4160    -1.2890 H     1 <1>   0.0800 
 41 H       -3.9930    -4.8920    -1.6090 H     1 <1>   0.0800 
 42 H       -5.1490    -5.8360     2.3640 H     1 <1>   0.0800 
 43 H       -6.3030    -6.0000     1.0740 H     1 <1>   0.0800 
 44 H       -4.3010    -7.2370    -2.2730 H     1 <1>   0.0800 
 45 H       -3.0960    -7.0660    -1.0320 H     1 <1>   0.0800 
 46 H       -3.8070    -7.6600     1.4640 H     1 <1>   0.0800 
 47 H       -5.4370    -8.2040     1.7230 H     1 <1>   0.0800 
 48 H       -4.5260    -8.9640    -0.4790 H     1 <1>   0.0800 
 49 H       -5.9570    -7.9850    -0.6490 H     1 <1>   0.0800 
@<TRIPOS>BOND
  1   1   2  2   
  2   2   3  am  
  3   2   4  1   
  4   3   5  1   
  5   3   6  1   
  6   4   7  1   
  7   4   8  2   
  8   5   9  1   
  9   5  10  1   
 10   5  25  1   
 11   6  11  1   
 12   6  12  1   
 13   6  26  1   
 14   7  13  2   
 15   8  14  1   
 16   8  27  1   
 17   9  11  1   
 18   9  15  1   
 19   9  16  1   
 20  10  12  1   
 21  10  28  1   
 22  10  29  1   
 23  11  30  1   
 24  11  31  1   
 25  12  32  1   
 26  12  33  1   
 27  13  14  1   
 28  14  34  1   
 29  15  17  2   
 30  15  18  am  
 31  16  19  1   
 32  16  35  1   
 33  16  36  1   
 34  18  20  1   
 35  18  21  1   
 36  19  37  1   
 37  19  38  1   
 38  19  39  1   
 39  20  22  1   
 40  20  40  1   
 41  20  41  1   
 42  21  23  1   
 43  21  42  1   
 44  21  43  1   
 45  22  24  1   
 46  22  44  1   
 47  22  45  1   
 48  23  24  1   
 49  23  46  1   
 50  23  47  1   
 51  24  48  1   
 52  24  49  1   
@<TRIPOS>SUBSTRUCTURE
  1 ****   9 GROUP 4 **** **** 0

# MOE 2024.06 (io_trps.svl 2023.06)
