@<TRIPOS>MOLECULE
NONAME
41 42 1 0 0 
SMALL
USER_CHARGES


@<TRIPOS>ATOM
  1 S        0.3640     0.3920    -1.2560 S.o2  1 <1>   1.3330 
  2 O       -0.6380     1.3220    -1.7240 O.2   1 <1>  -0.6500 
  3 O        0.5380    -0.8720    -1.9370 O.2   1 <1>  -0.6500 
  4 N        0.0120     0.0580     0.3710 N.am  1 <1>  -0.8490 
  5 C        1.9560     1.2180    -1.2020 C.3   1 <1>  -0.0550 
  6 C       -1.0000    -0.9930     0.5040 C.3   1 <1>   0.1160 
  7 C       -0.4000     1.2430     1.1340 C.3   1 <1>   0.1160 
  8 C        3.1400     0.3120    -0.7960 C.3   1 <1>  -0.0800 
  9 C        4.4990     0.9960    -0.8120 C.3   1 <1>   0.2200 
 10 C        3.0710    -0.2490     0.6290 C.3   1 <1>   0.1200 
 11 N        4.4000     2.3400    -0.1970 N.am  1 <1>  -0.7300 
 12 C        5.2880     0.0820     0.1150 C.3   1 <1>   0.1200 
 13 O        4.3860    -0.3200     1.1010 O.3   1 <1>  -0.5600 
 14 C        4.3800     3.5300    -0.8610 C.2   1 <1>   0.6160 
 15 O        4.6580     3.5210    -2.0460 O.2   1 <1>  -0.5700 
 16 C        4.0420     4.7650    -0.2030 C.2   1 <1>   0.0290 
 17 C        3.1580     4.7530     0.9280 C.2   1 <1>   0.6160 
 18 C        4.5310     5.9770    -0.6320 C.2   1 <1>  -0.1500 
 19 O        2.6210     3.7520     1.3860 O.2   1 <1>  -0.5700 
 20 N        2.8690     5.9400     1.5480 N.am  1 <1>  -0.5390 
 21 C        4.1940     7.1740     0.0340 C.2   1 <1>  -0.1500 
 22 C        3.3700     7.1400     1.1160 C.2   1 <1>  -0.0410 
 23 H        2.1630     1.6120    -2.1790 H     1 <1>   0.0800 
 24 H        1.8850     2.0530    -0.5350 H     1 <1>   0.0800 
 25 H       -1.1870    -1.2020     1.5430 H     1 <1>   0.0800 
 26 H       -0.6540    -1.8990     0.0350 H     1 <1>   0.0800 
 27 H       -1.9190    -0.6890     0.0310 H     1 <1>   0.0800 
 28 H       -0.5530     0.9820     2.1670 H     1 <1>   0.0800 
 29 H       -1.3160     1.6500     0.7370 H     1 <1>   0.0800 
 30 H        0.3620     2.0020     1.0910 H     1 <1>   0.0800 
 31 H        3.1770    -0.5240    -1.4720 H     1 <1>   0.0800 
 32 H        4.9320     1.0520    -1.7970 H     1 <1>   0.0800 
 33 H        2.6320    -1.2320     0.6550 H     1 <1>   0.0800 
 34 H        2.5310     0.4080     1.2890 H     1 <1>   0.0800 
 35 H        4.0540     2.3230     0.7710 H     1 <1>   0.3700 
 36 H        6.1280     0.5750     0.5690 H     1 <1>   0.0800 
 37 H        5.6160    -0.7990    -0.4090 H     1 <1>   0.0800 
 38 H        5.1840     6.0320    -1.4880 H     1 <1>   0.1500 
 39 H        2.2420     5.8640     2.3520 H     1 <1>   0.3700 
 40 H        4.6010     8.1030    -0.3300 H     1 <1>   0.1500 
 41 H        3.0900     8.0320     1.6550 H     1 <1>   0.1500 
@<TRIPOS>BOND
  1   1   2  2   
  2   1   3  2   
  3   1   4  am  
  4   1   5  1   
  5   4   6  1   
  6   4   7  1   
  7   5   8  1   
  8   5  23  1   
  9   5  24  1   
 10   6  25  1   
 11   6  26  1   
 12   6  27  1   
 13   7  28  1   
 14   7  29  1   
 15   7  30  1   
 16   8   9  1   
 17   8  10  1   
 18   8  31  1   
 19   9  11  1   
 20   9  12  1   
 21   9  32  1   
 22  10  13  1   
 23  10  33  1   
 24  10  34  1   
 25  11  14  am  
 26  11  35  1   
 27  12  13  1   
 28  12  36  1   
 29  12  37  1   
 30  14  15  2   
 31  14  16  1   
 32  16  17  1   
 33  16  18  2   
 34  17  19  2   
 35  17  20  am  
 36  18  21  1   
 37  18  38  1   
 38  20  22  1   
 39  20  39  1   
 40  21  22  2   
 41  21  40  1   
 42  22  41  1   
@<TRIPOS>SUBSTRUCTURE
  1 ****  11 GROUP 4 **** **** 0

# MOE 2024.06 (io_trps.svl 2023.06)
