@<TRIPOS>MOLECULE
NONAME
58 62 1 0 0 
SMALL
USER_CHARGES


@<TRIPOS>ATOM
  1 O       -0.5330    -0.6750    -1.0210 O.2   1 <1>  -0.5700 
  2 C        0.4960    -0.0680    -1.2090 C.2   1 <1>   0.5690 
  3 N        1.6640    -0.4030    -0.5720 N.am  1 <1>  -0.6600 
  4 C        0.4600     1.0760    -2.2090 C.3   1 <1>  -0.0990 
  5 C        2.9450     0.3380    -0.7330 C.3   1 <1>   0.1400 
  6 C        1.6890    -1.4990     0.4320 C.3   1 <1>   0.1400 
  7 C        1.6610     2.0250    -2.1030 C.3   1 <1>  -0.1600 
  8 C        2.9500     1.2070    -1.9940 C.3   1 <1>  -0.1600 
  9 C        1.9590    -2.8300    -0.2660 C.3   1 <1>  -0.0990 
 10 C        1.7620    -3.9710     0.7080 C.2   1 <1>   0.5690 
 11 O        2.7600    -4.4490     1.1920 O.2   1 <1>  -0.5700 
 12 N        0.5070    -4.4290     1.0260 N.am  1 <1>  -0.6600 
 13 C       -0.7800    -3.8990     0.4860 C.3   1 <1>   0.1400 
 14 C        0.3140    -5.5530     1.9850 C.3   1 <1>   0.1400 
 15 C       -1.5040    -5.0230    -0.2550 C.3   1 <1>  -0.1600 
 16 C       -0.4060    -6.7000     1.2740 C.3   1 <1>  -0.1600 
 17 C       -1.7290    -6.2390     0.6540 C.3   1 <1>   0.4600 
 18 O       -2.5600    -5.8650     1.7320 O.3   1 <1>  -0.5600 
 19 C       -2.3840    -7.3840    -0.1100 C.2   1 <1>  -0.3320 
 20 C       -3.9500    -5.8160     1.5120 C.3   1 <1>   0.1200 
 21 N       -1.8200    -8.1140    -1.1190 N.pl3 1 <1>   0.0330 
 22 C       -3.6340    -7.8330     0.1200 C.2   1 <1>  -0.1810 
 23 C       -4.5090    -7.2100     1.1790 C.3   1 <1>   0.0210 
 24 C       -2.7390    -9.0500    -1.5300 C.ar  1 <1>  -0.1520 
 25 C       -3.8930    -8.9000    -0.7650 C.ar  1 <1>   0.0000 
 26 C       -2.6590   -10.0320    -2.5200 C.ar  1 <1>  -0.1500 
 27 C       -4.9860    -9.7430    -0.9880 C.ar  1 <1>  -0.1500 
 28 C       -3.7420   -10.8550    -2.7300 C.ar  1 <1>  -0.1500 
 29 C       -4.9060   -10.7100    -1.9640 C.ar  1 <1>  -0.1500 
 30 H       -0.4510     1.6300    -2.0710 H     1 <1>   0.0800 
 31 H        0.4340     0.6420    -3.1910 H     1 <1>   0.0800 
 32 H        3.7620    -0.3620    -0.7810 H     1 <1>   0.0800 
 33 H        3.0870     0.9620     0.1320 H     1 <1>   0.0800 
 34 H        0.7390    -1.5360     0.9390 H     1 <1>   0.0800 
 35 H        2.4460    -1.3110     1.1730 H     1 <1>   0.0800 
 36 H        1.5540     2.6440    -1.2280 H     1 <1>   0.0800 
 37 H        1.6970     2.6670    -2.9670 H     1 <1>   0.0800 
 38 H        3.0580     0.5760    -2.8590 H     1 <1>   0.0800 
 39 H        3.8000     1.8660    -1.9630 H     1 <1>   0.0800 
 40 H        2.9730    -2.8470    -0.6200 H     1 <1>   0.0800 
 41 H        1.3110    -2.9590    -1.1110 H     1 <1>   0.0800 
 42 H       -0.6270    -3.0730    -0.1820 H     1 <1>   0.0800 
 43 H       -1.3880    -3.5500     1.3040 H     1 <1>   0.0800 
 44 H       -0.2760    -5.2090     2.8180 H     1 <1>   0.0800 
 45 H        1.2590    -5.9000     2.3670 H     1 <1>   0.0800 
 46 H       -0.9060    -5.3150    -1.0990 H     1 <1>   0.0800 
 47 H       -2.4410    -4.6680    -0.6400 H     1 <1>   0.0800 
 48 H       -0.6010    -7.4970     1.9670 H     1 <1>   0.0800 
 49 H        0.2430    -7.0830     0.5090 H     1 <1>   0.0800 
 50 H       -4.1460    -5.1320     0.7050 H     1 <1>   0.0800 
 51 H       -4.4100    -5.4350     2.4060 H     1 <1>   0.0800 
 52 H       -0.8780    -8.0030    -1.5040 H     1 <1>   0.2700 
 53 H       -5.5180    -7.1190     0.8200 H     1 <1>   0.0800 
 54 H       -4.5080    -7.8260     2.0590 H     1 <1>   0.0800 
 55 H       -1.7620   -10.1370    -3.1030 H     1 <1>   0.1500 
 56 H       -5.8710    -9.6210    -0.3930 H     1 <1>   0.1500 
 57 H       -3.7060   -11.6190    -3.4860 H     1 <1>   0.1500 
 58 H       -5.7380   -11.3660    -2.1480 H     1 <1>   0.1500 
@<TRIPOS>BOND
  1   1   2  2   
  2   2   3  am  
  3   2   4  1   
  4   3   5  1   
  5   3   6  1   
  6   4   7  1   
  7   4  30  1   
  8   4  31  1   
  9   5   8  1   
 10   5  32  1   
 11   5  33  1   
 12   6   9  1   
 13   6  34  1   
 14   6  35  1   
 15   7   8  1   
 16   7  36  1   
 17   7  37  1   
 18   8  38  1   
 19   8  39  1   
 20   9  10  1   
 21   9  40  1   
 22   9  41  1   
 23  10  11  2   
 24  10  12  am  
 25  12  13  1   
 26  12  14  1   
 27  13  15  1   
 28  13  42  1   
 29  13  43  1   
 30  14  16  1   
 31  14  44  1   
 32  14  45  1   
 33  15  17  1   
 34  15  46  1   
 35  15  47  1   
 36  16  17  1   
 37  16  48  1   
 38  16  49  1   
 39  17  18  1   
 40  17  19  1   
 41  18  20  1   
 42  19  21  1   
 43  19  22  2   
 44  20  23  1   
 45  20  50  1   
 46  20  51  1   
 47  21  24  1   
 48  21  52  1   
 49  22  23  1   
 50  22  25  1   
 51  23  53  1   
 52  23  54  1   
 53  24  25  ar  
 54  24  26  ar  
 55  25  27  ar  
 56  26  28  ar  
 57  26  55  1   
 58  27  29  ar  
 59  27  56  1   
 60  28  29  ar  
 61  28  57  1   
 62  29  58  1   
@<TRIPOS>SUBSTRUCTURE
  1 ****  15 GROUP 4 **** **** 0

# MOE 2024.06 (io_trps.svl 2023.06)
