@<TRIPOS>MOLECULE
NONAME
52 55 1 0 0 
SMALL
USER_CHARGES


@<TRIPOS>ATOM
  1 O       -1.5360     0.4020     1.8770 O.2   1 <1>  -0.5700 
  2 C       -2.0540     0.9070     0.8960 C.2   1 <1>   0.5440 
  3 N       -2.5060     0.0570    -0.0990 N.am  1 <1>  -0.6600 
  4 C       -2.2170     2.3550     0.8590 C.ar  1 <1>   0.3960 
  5 C       -3.9000     0.0310    -0.6290 C.3   1 <1>   0.2200 
  6 C       -1.7260    -1.1760    -0.3970 C.3   1 <1>   0.0600 
  7 N       -1.8400     3.0800    -0.1720 N.ar  1 <1>  -0.6200 
  8 C       -2.8180     2.9570     1.9940 C.ar  1 <1>   0.1600 
  9 C       -4.1680     1.0860    -1.7050 C.3   1 <1>  -0.1600 
 10 C       -4.9650     0.2260     0.4500 C.3   1 <1>  -0.1600 
 11 C       -2.0240     4.4140    -0.0440 C.ar  1 <1>   0.3100 
 12 N       -3.0860     4.2210     2.1270 N.ar  1 <1>  -0.6200 
 13 C       -5.5560     1.6840    -1.4130 C.3   1 <1>  -0.0800 
 14 C       -6.1580     0.8590    -0.2730 C.3   1 <1>  -0.0800 
 15 C       -2.6290     4.9870     1.1020 C.ar  1 <1>   0.3100 
 16 C       -1.6200     5.2640    -1.0850 C.ar  1 <1>  -0.1500 
 17 C       -5.5510     3.1490    -0.9320 C.3   1 <1>  -0.1600 
 18 C       -6.9340     1.8490     0.5940 C.3   1 <1>  -0.1600 
 19 C       -2.7670     6.3810     1.1710 C.ar  1 <1>  -0.1500 
 20 C       -1.7850     6.6220    -1.0020 C.ar  1 <1>  -0.1500 
 21 C       -6.1310     3.1410     0.4880 C.3   1 <1>   0.4230 
 22 C       -2.3600     7.1880     0.1390 C.ar  1 <1>  -0.1500 
 23 N       -6.9400     4.3430     0.8520 N.4   1 <1>  -0.9590 
 24 C       -8.0760     4.6640    -0.0730 C.3   1 <1>   0.2630 
 25 C       -6.0500     5.5300     1.0220 C.3   1 <1>   0.2630 
 26 H       -4.0830    -0.9320    -1.0780 H     1 <1>   0.0800 
 27 H       -1.6910    -1.3410    -1.4600 H     1 <1>   0.0800 
 28 H       -2.1830    -2.0230     0.0840 H     1 <1>   0.0800 
 29 H       -0.7170    -1.0760    -0.0330 H     1 <1>   0.0800 
 30 H       -3.0790     2.2920     2.8010 H     1 <1>   0.1500 
 31 H       -3.4000     1.8330    -1.7450 H     1 <1>   0.0800 
 32 H       -4.1870     0.5960    -2.6620 H     1 <1>   0.0800 
 33 H       -5.2360    -0.7180     0.8900 H     1 <1>   0.0800 
 34 H       -4.6170     0.8760     1.2280 H     1 <1>   0.0800 
 35 H       -6.1800     1.6020    -2.2890 H     1 <1>   0.0800 
 36 H       -6.7970     0.0830    -0.6630 H     1 <1>   0.0800 
 37 H       -1.1680     4.8150    -1.9520 H     1 <1>   0.1500 
 38 H       -6.1470     3.7270    -1.6120 H     1 <1>   0.0800 
 39 H       -4.5600     3.5600    -0.9190 H     1 <1>   0.0800 
 40 H       -7.0150     1.5060     1.6110 H     1 <1>   0.0800 
 41 H       -7.9160     1.9620     0.1740 H     1 <1>   0.0800 
 42 H       -3.1910     6.8040     2.0640 H     1 <1>   0.1500 
 43 H       -1.4670     7.2660    -1.8060 H     1 <1>   0.1500 
 44 H       -5.3040     3.0580     1.1740 H     1 <1>   0.0800 
 45 H       -2.4650     8.2590     0.1970 H     1 <1>   0.1500 
 46 H       -7.3450     4.1350     1.7770 H     1 <1>   0.4500 
 47 H       -7.7060     4.9370    -1.0470 H     1 <1>   0.0800 
 48 H       -8.6490     5.4910     0.3150 H     1 <1>   0.0800 
 49 H       -8.7330     3.8170    -0.1790 H     1 <1>   0.0800 
 50 H       -5.5530     5.7630     0.0940 H     1 <1>   0.0800 
 51 H       -5.3010     5.3280     1.7710 H     1 <1>   0.0800 
 52 H       -6.6220     6.3880     1.3340 H     1 <1>   0.0800 
@<TRIPOS>BOND
  1   1   2  2   
  2   2   3  am  
  3   2   4  1   
  4   3   5  1   
  5   3   6  1   
  6   4   7  ar  
  7   4   8  ar  
  8   5   9  1   
  9   5  10  1   
 10   5  26  1   
 11   6  27  1   
 12   6  28  1   
 13   6  29  1   
 14   7  11  ar  
 15   8  12  ar  
 16   8  30  1   
 17   9  13  1   
 18   9  31  1   
 19   9  32  1   
 20  10  14  1   
 21  10  33  1   
 22  10  34  1   
 23  11  15  ar  
 24  11  16  ar  
 25  12  15  ar  
 26  13  14  1   
 27  13  17  1   
 28  13  35  1   
 29  14  18  1   
 30  14  36  1   
 31  15  19  ar  
 32  16  20  ar  
 33  16  37  1   
 34  17  21  1   
 35  17  38  1   
 36  17  39  1   
 37  18  21  1   
 38  18  40  1   
 39  18  41  1   
 40  19  22  ar  
 41  19  42  1   
 42  20  22  ar  
 43  20  43  1   
 44  21  23  1   
 45  21  44  1   
 46  22  45  1   
 47  23  24  1   
 48  23  25  1   
 49  23  46  1   
 50  24  47  1   
 51  24  48  1   
 52  24  49  1   
 53  25  50  1   
 54  25  51  1   
 55  25  52  1   
@<TRIPOS>SUBSTRUCTURE
  1 ****   4 GROUP 4 **** **** 0

# MOE 2024.06 (io_trps.svl 2023.06)
