@<TRIPOS>MOLECULE
NONAME
47 49 1 0 0 
SMALL
USER_CHARGES


@<TRIPOS>ATOM
  1 F       -3.6870    -0.1960     1.5500 F     1 <1>  -0.1900 
  2 C       -3.1890     0.6080     0.6500 C.ar  1 <1>   0.1900 
  3 C       -2.7250     0.0800    -0.5550 C.ar  1 <1>   0.0860 
  4 C       -3.1560     1.9550     0.9530 C.ar  1 <1>  -0.1500 
  5 C       -2.7710    -1.3320    -0.8540 C.2   1 <1>   0.5440 
  6 C       -2.1960     0.9910    -1.4720 C.ar  1 <1>  -0.1500 
  7 C       -2.6330     2.8270     0.0140 C.ar  1 <1>   0.0830 
  8 O       -1.7230    -1.9330    -1.0000 O.2   1 <1>  -0.5700 
  9 N       -3.9570    -2.0170    -1.0110 N.am  1 <1>  -0.6600 
 10 C       -2.1530     2.3470    -1.1940 C.ar  1 <1>  -0.1500 
 11 O       -2.5820     4.1410     0.2600 O.3   1 <1>  -0.5330 
 12 C       -5.3170    -1.3970    -0.9910 C.3   1 <1>   0.1400 
 13 C       -4.0090    -3.5090    -1.1150 C.3   1 <1>   0.1400 
 14 C       -6.2090    -2.0900     0.0550 C.3   1 <1>   0.2950 
 15 C       -4.9950    -4.1000    -0.0820 C.3   1 <1>   0.2000 
 16 O       -6.2410    -3.4680    -0.1810 O.3   1 <1>  -0.5600 
 17 C       -7.6500    -1.5750    -0.0040 C.3   1 <1>  -0.1950 
 18 C       -5.2450    -5.6010    -0.2780 C.3   1 <1>  -0.1600 
 19 C       -8.0600    -0.3440     0.7430 C.3   1 <1>  -0.2000 
 20 C       -8.5640    -1.6930     1.1740 C.3   1 <1>  -0.2000 
 21 C       -3.9890    -6.4570    -0.0480 C.3   1 <1>  -0.1600 
 22 C       -4.3150    -7.9510    -0.1630 C.3   1 <1>  -0.1600 
 23 C       -3.0650    -8.8060     0.0630 C.3   1 <1>  -0.2400 
 24 H       -3.5280     2.3040     1.8980 H     1 <1>   0.1500 
 25 H       -1.8130     0.6210    -2.4080 H     1 <1>   0.1500 
 26 H       -1.7440     3.0400    -1.9090 H     1 <1>   0.1500 
 27 H       -2.9150     4.4000     1.1380 H     1 <1>   0.4500 
 28 H       -5.2650    -0.3470    -0.7720 H     1 <1>   0.0800 
 29 H       -5.7670    -1.5080    -1.9610 H     1 <1>   0.0800 
 30 H       -4.3220    -3.7820    -2.1070 H     1 <1>   0.0800 
 31 H       -3.0320    -3.9270    -0.9510 H     1 <1>   0.0800 
 32 H       -5.8090    -1.9270     1.0420 H     1 <1>   0.0800 
 33 H       -4.6150    -3.9320     0.9120 H     1 <1>   0.0800 
 34 H       -8.0890    -1.7260    -0.9760 H     1 <1>   0.1000 
 35 H       -6.0050    -5.9060     0.4210 H     1 <1>   0.0800 
 36 H       -5.6180    -5.7690    -1.2730 H     1 <1>   0.0800 
 37 H       -7.3490     0.1570     1.3770 H     1 <1>   0.1000 
 38 H       -8.7520     0.3380     0.2800 H     1 <1>   0.1000 
 39 H       -9.5940    -1.9500     0.9960 H     1 <1>   0.1000 
 40 H       -8.1820    -2.1340     2.0790 H     1 <1>   0.1000 
 41 H       -3.2350    -6.2080    -0.7740 H     1 <1>   0.0800 
 42 H       -3.5920    -6.2540     0.9330 H     1 <1>   0.0800 
 43 H       -5.0620    -8.2160     0.5660 H     1 <1>   0.0800 
 44 H       -4.7150    -8.1600    -1.1410 H     1 <1>   0.0800 
 45 H       -2.6600    -8.6290     1.0440 H     1 <1>   0.0800 
 46 H       -2.3120    -8.5740    -0.6700 H     1 <1>   0.0800 
 47 H       -3.3130    -9.8490    -0.0210 H     1 <1>   0.0800 
@<TRIPOS>BOND
  1   1   2  1   
  2   2   3  ar  
  3   2   4  ar  
  4   3   5  1   
  5   3   6  ar  
  6   4   7  ar  
  7   4  24  1   
  8   5   8  2   
  9   5   9  am  
 10   6  10  ar  
 11   6  25  1   
 12   7  10  ar  
 13   7  11  1   
 14   9  12  1   
 15   9  13  1   
 16  10  26  1   
 17  11  27  1   
 18  12  14  1   
 19  12  28  1   
 20  12  29  1   
 21  13  15  1   
 22  13  30  1   
 23  13  31  1   
 24  14  16  1   
 25  14  17  1   
 26  14  32  1   
 27  15  16  1   
 28  15  18  1   
 29  15  33  1   
 30  17  19  1   
 31  17  20  1   
 32  17  34  1   
 33  18  21  1   
 34  18  35  1   
 35  18  36  1   
 36  19  20  1   
 37  19  37  1   
 38  19  38  1   
 39  20  39  1   
 40  20  40  1   
 41  21  22  1   
 42  21  41  1   
 43  21  42  1   
 44  22  23  1   
 45  22  43  1   
 46  22  44  1   
 47  23  45  1   
 48  23  46  1   
 49  23  47  1   
@<TRIPOS>SUBSTRUCTURE
  1 ****   9 GROUP 4 **** **** 0

# MOE 2024.06 (io_trps.svl 2023.06)
