@<TRIPOS>MOLECULE
NONAME
52 53 1 0 0 
SMALL
USER_CHARGES


@<TRIPOS>ATOM
  1 O       -0.6030    -0.3460     1.3250 O.2   1 <1>  -0.5700 
  2 C       -1.1990     0.2900     0.4910 C.2   1 <1>   0.5690 
  3 N       -1.8690    -0.3090    -0.5290 N.am  1 <1>  -0.7300 
  4 C       -1.2110     1.8140     0.5950 C.3   1 <1>  -0.0190 
  5 C       -1.9710    -1.7660    -0.7370 C.3   1 <1>   0.1400 
  6 C       -2.6430     2.3720     0.7120 C.3   1 <1>  -0.1600 
  7 C       -0.4370     2.4810    -0.5680 C.3   1 <1>  -0.1600 
  8 C       -3.4240    -2.1890    -0.5410 C.3   1 <1>  -0.1600 
  9 C       -2.6550     3.8920     0.9770 C.3   1 <1>   0.2000 
 10 C       -0.8490     3.9440    -0.8280 C.3   1 <1>  -0.1600 
 11 C       -3.5700    -3.7110    -0.6610 C.3   1 <1>   0.0960 
 12 O       -3.7940     4.4300     0.3520 O.3   1 <1>  -0.5600 
 13 C       -1.3890     4.6110     0.4390 C.3   1 <1>   0.2000 
 14 N       -4.9840    -4.1080    -0.5230 N.pl3 1 <1>   0.3140 
 15 C       -4.9800     4.3060     1.0750 C.3   1 <1>   0.0400 
 16 O       -1.7060     5.9180     0.1310 O.3   1 <1>  -0.6800 
 17 N       -5.7820    -4.1700    -1.6010 N.2   1 <1>  -0.7070 
 18 C       -5.6510    -4.4350     0.6100 C.2   1 <1>  -0.3320 
 19 C       -6.9350    -4.5340    -1.1400 C.2   1 <1>   0.1080 
 20 C       -6.9200    -4.7180     0.2400 C.2   1 <1>  -0.1810 
 21 C       -5.0130    -4.4530     1.9920 C.3   1 <1>  -0.0600 
 22 C       -8.1350    -4.7270    -2.0390 C.3   1 <1>  -0.0590 
 23 C       -8.1070    -5.1460     1.0840 C.3   1 <1>  -0.0590 
 24 H       -2.3750     0.2730    -1.1990 H     1 <1>   0.3700 
 25 H       -0.6990     2.0610     1.5100 H     1 <1>   0.0800 
 26 H       -1.6390    -2.0080    -1.7320 H     1 <1>   0.0800 
 27 H       -1.3380    -2.2800    -0.0320 H     1 <1>   0.0800 
 28 H       -3.1560     1.8700     1.5140 H     1 <1>   0.0800 
 29 H       -3.1680     2.1690    -0.2050 H     1 <1>   0.0800 
 30 H        0.6140     2.4430    -0.3360 H     1 <1>   0.0800 
 31 H       -0.5780     1.9260    -1.4800 H     1 <1>   0.0800 
 32 H       -4.0390    -1.7190    -1.2890 H     1 <1>   0.0800 
 33 H       -3.7540    -1.8800     0.4350 H     1 <1>   0.0800 
 34 H       -2.7140     4.0850     2.0350 H     1 <1>   0.0800 
 35 H       -1.6220     3.9630    -1.5780 H     1 <1>   0.0800 
 36 H       -0.0040     4.4960    -1.2010 H     1 <1>   0.0800 
 37 H       -2.9930    -4.2090     0.0950 H     1 <1>   0.0800 
 38 H       -3.2290    -4.0400    -1.6260 H     1 <1>   0.0800 
 39 H       -0.6190     4.6260     1.1900 H     1 <1>   0.0800 
 40 H       -5.7700     4.7550     0.4990 H     1 <1>   0.0800 
 41 H       -4.8790     4.8230     2.0140 H     1 <1>   0.0800 
 42 H       -5.1980     3.2650     1.2360 H     1 <1>   0.0800 
 43 H       -2.6540     5.9070    -0.1350 H     1 <1>   0.4000 
 44 H       -5.7340    -4.7060     2.7460 H     1 <1>   0.0800 
 45 H       -4.6090    -3.4840     2.2260 H     1 <1>   0.0800 
 46 H       -4.2220    -5.1800     2.0240 H     1 <1>   0.0800 
 47 H       -8.9540    -4.1300    -1.6870 H     1 <1>   0.0800 
 48 H       -8.4200    -5.7620    -2.0430 H     1 <1>   0.0800 
 49 H       -7.8910    -4.4290    -3.0420 H     1 <1>   0.0800 
 50 H       -8.4920    -6.0810     0.7210 H     1 <1>   0.0800 
 51 H       -8.8810    -4.4020     1.0240 H     1 <1>   0.0800 
 52 H       -7.8270    -5.2680     2.1120 H     1 <1>   0.0800 
@<TRIPOS>BOND
  1   1   2  2   
  2   2   3  am  
  3   2   4  1   
  4   3   5  1   
  5   3  24  1   
  6   4   6  1   
  7   4   7  1   
  8   4  25  1   
  9   5   8  1   
 10   5  26  1   
 11   5  27  1   
 12   6   9  1   
 13   6  28  1   
 14   6  29  1   
 15   7  10  1   
 16   7  30  1   
 17   7  31  1   
 18   8  11  1   
 19   8  32  1   
 20   8  33  1   
 21   9  12  1   
 22   9  13  1   
 23   9  34  1   
 24  10  13  1   
 25  10  35  1   
 26  10  36  1   
 27  11  14  1   
 28  11  37  1   
 29  11  38  1   
 30  12  15  1   
 31  13  16  1   
 32  13  39  1   
 33  14  17  1   
 34  14  18  1   
 35  15  40  1   
 36  15  41  1   
 37  15  42  1   
 38  16  43  1   
 39  17  19  2   
 40  18  20  2   
 41  18  21  1   
 42  19  20  1   
 43  19  22  1   
 44  20  23  1   
 45  21  44  1   
 46  21  45  1   
 47  21  46  1   
 48  22  47  1   
 49  22  48  1   
 50  22  49  1   
 51  23  50  1   
 52  23  51  1   
 53  23  52  1   
@<TRIPOS>SUBSTRUCTURE
  1 ****   8 GROUP 4 **** **** 0

# MOE 2024.06 (io_trps.svl 2023.06)
