@<TRIPOS>MOLECULE
NONAME
48 50 1 0 0 
SMALL
USER_CHARGES


@<TRIPOS>ATOM
  1 O       -2.7580     1.7820    -2.8050 O.2   1 <1>  -0.5700 
  2 C       -1.8920     1.3800    -2.0670 C.2   1 <1>   0.5690 
  3 N       -1.6720     0.0570    -1.8720 N.am  1 <1>  -0.7300 
  4 C       -1.0370     2.3700    -1.2970 C.3   1 <1>   0.0440 
  5 C       -2.5370    -1.0470    -2.3370 C.3   1 <1>   0.2200 
  6 C       -0.9360     1.9680     0.1760 C.ar  1 <1>  -0.1440 
  7 C       -3.3190    -1.6400    -1.1710 C.3   1 <1>  -0.0800 
  8 C       -1.6580    -2.2320    -2.7110 C.3   1 <1>   0.1200 
  9 C       -1.9260     2.2940     1.0990 C.ar  1 <1>  -0.1440 
 10 C        0.1630     1.2270     0.5880 C.ar  1 <1>  -0.1500 
 11 C       -2.3050    -2.5980    -0.5370 C.3   1 <1>   0.1200 
 12 C       -3.9300    -0.6280    -0.1830 C.3   1 <1>  -0.0160 
 13 O       -1.3210    -2.8420    -1.5000 O.3   1 <1>  -0.5600 
 14 C       -1.7970     1.8700     2.4120 C.ar  1 <1>  -0.1500 
 15 C       -3.1600     3.0980     0.7080 C.3   1 <1>  -0.0970 
 16 C        0.2860     0.8010     1.8980 C.ar  1 <1>  -0.1440 
 17 C       -4.6380    -1.3280     0.9640 C.ar  1 <1>  -0.1440 
 18 C       -0.7020     1.1260     2.8100 C.ar  1 <1>  -0.1500 
 19 C        1.4920    -0.0170     2.3220 C.3   1 <1>  -0.0970 
 20 C       -4.0710    -1.4090     2.2200 C.ar  1 <1>  -0.1500 
 21 C       -5.8770    -1.9160     0.8140 C.ar  1 <1>  -0.1500 
 22 C       -4.7500    -2.0610     3.2360 C.ar  1 <1>   0.1600 
 23 C       -6.4710    -2.5440     1.8970 C.ar  1 <1>   0.1600 
 24 N       -5.9360    -2.6330     3.1040 N.ar  1 <1>  -0.6200 
 25 H       -0.9900    -0.2290    -1.1630 H     1 <1>   0.3700 
 26 H       -0.0610     2.3950    -1.7450 H     1 <1>   0.0800 
 27 H       -1.4560     3.3530    -1.3930 H     1 <1>   0.0800 
 28 H       -3.1670    -0.7240    -3.1490 H     1 <1>   0.0800 
 29 H       -4.1160    -2.2390    -1.5760 H     1 <1>   0.0800 
 30 H       -0.7640    -1.9390    -3.2330 H     1 <1>   0.0800 
 31 H       -2.2090    -2.9460    -3.2980 H     1 <1>   0.0800 
 32 H        0.9350     0.9730    -0.1170 H     1 <1>   0.1500 
 33 H       -2.7590    -3.5310    -0.2500 H     1 <1>   0.0800 
 34 H       -1.8210    -2.1520     0.3150 H     1 <1>   0.0800 
 35 H       -4.6240     0.0090    -0.7020 H     1 <1>   0.0800 
 36 H       -3.1620     0.0000     0.2280 H     1 <1>   0.0800 
 37 H       -2.5530     2.1160     3.1370 H     1 <1>   0.1500 
 38 H       -3.8700     3.1310     1.5150 H     1 <1>   0.0800 
 39 H       -3.6460     2.6550    -0.1430 H     1 <1>   0.0800 
 40 H       -2.8790     4.1070     0.4650 H     1 <1>   0.0800 
 41 H       -0.6220     0.8060     3.8340 H     1 <1>   0.1500 
 42 H        1.6070    -0.0010     3.3910 H     1 <1>   0.0800 
 43 H        2.3860     0.3840     1.8800 H     1 <1>   0.0800 
 44 H        1.3730    -1.0360     2.0010 H     1 <1>   0.0800 
 45 H       -3.1090    -0.9700     2.4170 H     1 <1>   0.1500 
 46 H       -6.3860    -1.8900    -0.1320 H     1 <1>   0.1500 
 47 H       -4.2920    -2.1150     4.2090 H     1 <1>   0.1500 
 48 H       -7.4380    -2.9980     1.7620 H     1 <1>   0.1500 
@<TRIPOS>BOND
  1   1   2  2   
  2   2   3  am  
  3   2   4  1   
  4   3   5  1   
  5   3  25  1   
  6   4   6  1   
  7   4  26  1   
  8   4  27  1   
  9   5   7  1   
 10   5   8  1   
 11   5  28  1   
 12   6   9  ar  
 13   6  10  ar  
 14   7  11  1   
 15   7  12  1   
 16   7  29  1   
 17   8  13  1   
 18   8  30  1   
 19   8  31  1   
 20   9  14  ar  
 21   9  15  1   
 22  10  16  ar  
 23  10  32  1   
 24  11  13  1   
 25  11  33  1   
 26  11  34  1   
 27  12  17  1   
 28  12  35  1   
 29  12  36  1   
 30  14  18  ar  
 31  14  37  1   
 32  15  38  1   
 33  15  39  1   
 34  15  40  1   
 35  16  18  ar  
 36  16  19  1   
 37  17  20  ar  
 38  17  21  ar  
 39  18  41  1   
 40  19  42  1   
 41  19  43  1   
 42  19  44  1   
 43  20  22  ar  
 44  20  45  1   
 45  21  23  ar  
 46  21  46  1   
 47  22  24  ar  
 48  22  47  1   
 49  23  24  ar  
 50  23  48  1   
@<TRIPOS>SUBSTRUCTURE
  1 ****  12 GROUP 4 **** **** 0

# MOE 2024.06 (io_trps.svl 2023.06)
