@<TRIPOS>MOLECULE
NONAME
46 48 1 0 0 
SMALL
USER_CHARGES


@<TRIPOS>ATOM
  1 O       -4.0390     1.7250     2.0400 O.2   1 <1>  -0.5700 
  2 C       -3.1560     1.7300     1.2010 C.2   1 <1>   0.7160 
  3 N       -2.8930     0.5620     0.5130 N.am  1 <1>  -0.6600 
  4 C       -2.4320     2.9560     0.9590 C.2   1 <1>  -0.0860 
  5 C       -3.4420    -0.7340     1.0160 C.3   1 <1>   0.1400 
  6 C       -2.1840     0.5380    -0.7990 C.3   1 <1>   0.1400 
  7 C       -2.9820     4.2310     1.1130 C.2   1 <1>   0.1390 
  8 C       -1.1490     3.2200     0.5750 C.2   1 <1>  -0.3020 
  9 C       -4.8810    -0.9780     0.5330 C.3   1 <1>   0.1400 
 10 C       -2.8760    -0.3290    -1.8590 C.3   1 <1>  -0.1600 
 11 N       -2.1470     5.1840     0.8390 N.2   1 <1>  -0.7070 
 12 N       -1.0080     4.5530     0.5110 N.pl3 1 <1>   0.3000 
 13 N       -4.9590    -1.2870    -0.9350 N.am  1 <1>  -0.6600 
 14 C       -4.4050    -0.2380    -1.8360 C.3   1 <1>   0.1400 
 15 C       -5.5800    -2.3980    -1.4640 C.2   1 <1>   0.5690 
 16 O       -5.5600    -2.6210    -2.6540 O.2   1 <1>  -0.5700 
 17 C       -6.3000    -3.4210    -0.6100 C.3   1 <1>   0.1570 
 18 N       -7.5010    -2.8400     0.0080 N.pl3 1 <1>   0.3140 
 19 N       -7.6130    -2.7680     1.3500 N.2   1 <1>  -0.7070 
 20 C       -8.6100    -2.3530    -0.6000 C.2   1 <1>  -0.3320 
 21 C       -8.7730    -2.2340     1.5620 C.2   1 <1>   0.1080 
 22 C       -9.4460    -1.9520     0.3810 C.2   1 <1>  -0.1500 
 23 C       -8.8320    -2.2880    -2.1030 C.3   1 <1>  -0.0600 
 24 C       -9.2970    -1.9630     2.9520 C.3   1 <1>  -0.0590 
 25 H       -3.4480    -0.7110     2.0930 H     1 <1>   0.0800 
 26 H       -2.8090    -1.5510     0.7170 H     1 <1>   0.0800 
 27 H       -1.1760     0.1890    -0.6500 H     1 <1>   0.0800 
 28 H       -2.1320     1.5390    -1.1890 H     1 <1>   0.0800 
 29 H       -3.9990     4.4030     1.4290 H     1 <1>   0.1500 
 30 H       -0.3520     2.5330     0.3600 H     1 <1>   0.1500 
 31 H       -5.4880    -0.1170     0.7530 H     1 <1>   0.0800 
 32 H       -5.2690    -1.7930     1.1100 H     1 <1>   0.0800 
 33 H       -2.5700    -1.3560    -1.7640 H     1 <1>   0.0800 
 34 H       -2.5320     0.0050    -2.8210 H     1 <1>   0.0800 
 35 H       -0.1550     5.0700     0.2580 H     1 <1>   0.2700 
 36 H       -4.7790    -0.3810    -2.8350 H     1 <1>   0.0800 
 37 H       -4.7280     0.7360    -1.5100 H     1 <1>   0.0800 
 38 H       -5.6470    -3.7820     0.1590 H     1 <1>   0.0800 
 39 H       -6.6030    -4.2500    -1.2190 H     1 <1>   0.0800 
 40 H      -10.4220    -1.5110     0.2960 H     1 <1>   0.1500 
 41 H       -8.6990    -3.2590    -2.5450 H     1 <1>   0.0800 
 42 H       -8.1380    -1.6020    -2.5540 H     1 <1>   0.0800 
 43 H       -9.8300    -1.9490    -2.3150 H     1 <1>   0.0800 
 44 H       -8.6380    -1.2830     3.4570 H     1 <1>   0.0800 
 45 H       -9.3390    -2.8840     3.5040 H     1 <1>   0.0800 
 46 H      -10.2810    -1.5340     2.9060 H     1 <1>   0.0800 
@<TRIPOS>BOND
  1   1   2  2   
  2   2   3  am  
  3   2   4  1   
  4   3   5  1   
  5   3   6  1   
  6   4   7  1   
  7   4   8  2   
  8   5   9  1   
  9   5  25  1   
 10   5  26  1   
 11   6  10  1   
 12   6  27  1   
 13   6  28  1   
 14   7  11  2   
 15   7  29  1   
 16   8  12  1   
 17   8  30  1   
 18   9  13  1   
 19   9  31  1   
 20   9  32  1   
 21  10  14  1   
 22  10  33  1   
 23  10  34  1   
 24  11  12  1   
 25  12  35  1   
 26  13  14  1   
 27  13  15  am  
 28  14  36  1   
 29  14  37  1   
 30  15  16  2   
 31  15  17  1   
 32  17  18  1   
 33  17  38  1   
 34  17  39  1   
 35  18  19  1   
 36  18  20  1   
 37  19  21  2   
 38  20  22  2   
 39  20  23  1   
 40  21  22  1   
 41  21  24  1   
 42  22  40  1   
 43  23  41  1   
 44  23  42  1   
 45  23  43  1   
 46  24  44  1   
 47  24  45  1   
 48  24  46  1   
@<TRIPOS>SUBSTRUCTURE
  1 ****   9 GROUP 4 **** **** 0

# MOE 2024.06 (io_trps.svl 2023.06)
