@<TRIPOS>MOLECULE
NONAME
52 54 1 0 0 
SMALL
USER_CHARGES


@<TRIPOS>ATOM
  1 CL      -5.9310     0.6630    -0.7680 Cl    1 <1>  -0.1770 
  2 C       -4.1980     0.7900    -0.9850 C.ar  1 <1>   0.1770 
  3 C       -3.3540    -0.2190    -0.5340 C.ar  1 <1>   0.0830 
  4 C       -3.6910     1.9180    -1.6040 C.ar  1 <1>  -0.1500 
  5 O       -3.8540    -1.3220     0.0660 O.3   1 <1>  -0.3630 
  6 C       -1.9840    -0.0930    -0.7230 C.ar  1 <1>  -0.1500 
  7 C       -2.3220     2.0410    -1.7810 C.ar  1 <1>  -0.1500 
  8 C       -3.5690    -1.4810     1.4500 C.3   1 <1>   0.1810 
  9 C       -1.4720     1.0360    -1.3420 C.ar  1 <1>  -0.1500 
 10 C       -4.0900    -2.8090     2.0020 C.2   1 <1>   0.5690 
 11 O       -3.2720    -3.5110     2.5530 O.2   1 <1>  -0.5700 
 12 N       -5.4170    -3.1840     1.9200 N.am  1 <1>  -0.6600 
 13 C       -6.4530    -2.3370     1.2580 C.3   1 <1>   0.2200 
 14 C       -5.8420    -4.5140     2.4610 C.3   1 <1>   0.0600 
 15 C       -7.7900    -2.2470     1.9950 C.3   1 <1>  -0.1600 
 16 C       -6.8230    -2.8480    -0.1320 C.3   1 <1>  -0.1600 
 17 C       -8.7630    -1.7510     0.9170 C.3   1 <1>  -0.0800 
 18 C       -8.1720    -2.1840    -0.4310 C.3   1 <1>  -0.0800 
 19 C      -10.1760    -2.3530     0.9700 C.3   1 <1>  -0.1600 
 20 C       -9.2300    -3.0890    -1.0740 C.3   1 <1>  -0.1600 
 21 C      -10.5640    -2.6120    -0.4910 C.3   1 <1>   0.4230 
 22 N      -11.0070    -1.3410    -1.1520 N.4   1 <1>  -0.9590 
 23 C      -12.2450    -0.7660    -0.5330 C.3   1 <1>   0.2630 
 24 C      -11.2420    -1.5010    -2.6240 C.3   1 <1>   0.2630 
 25 H       -4.3580     2.6900    -1.9430 H     1 <1>   0.1500 
 26 H       -1.3230    -0.8760    -0.3960 H     1 <1>   0.1500 
 27 H       -1.9170     2.9150    -2.2610 H     1 <1>   0.1500 
 28 H       -2.5040    -1.4420     1.5840 H     1 <1>   0.0800 
 29 H       -4.0190    -0.6650     1.9840 H     1 <1>   0.0800 
 30 H       -0.4090     1.1330    -1.4860 H     1 <1>   0.1500 
 31 H       -6.0930    -1.3290     1.1580 H     1 <1>   0.0800 
 32 H       -6.5550    -4.9810     1.8060 H     1 <1>   0.0800 
 33 H       -6.2840    -4.3820     3.4330 H     1 <1>   0.0800 
 34 H       -4.9980    -5.1750     2.5570 H     1 <1>   0.0800 
 35 H       -8.0940    -3.2140     2.3480 H     1 <1>   0.0800 
 36 H       -7.7330    -1.5640     2.8240 H     1 <1>   0.0800 
 37 H       -6.0780    -2.5670    -0.8570 H     1 <1>   0.0800 
 38 H       -6.9150    -3.9180    -0.1200 H     1 <1>   0.0800 
 39 H       -8.8090    -0.6740     0.9450 H     1 <1>   0.0800 
 40 H       -8.0140    -1.3100    -1.0410 H     1 <1>   0.0800 
 41 H      -10.8620    -1.7360     1.5190 H     1 <1>   0.0800 
 42 H      -10.1420    -3.3080     1.4640 H     1 <1>   0.0800 
 43 H       -9.0800    -4.1030    -0.7450 H     1 <1>   0.0800 
 44 H       -9.1740    -3.0900    -2.1460 H     1 <1>   0.0800 
 45 H      -11.3280    -3.3690    -0.5720 H     1 <1>   0.0800 
 46 H      -10.2330    -0.6730    -1.0190 H     1 <1>   0.4500 
 47 H      -13.0510    -1.4800    -0.5750 H     1 <1>   0.0800 
 48 H      -12.5460     0.1240    -1.0610 H     1 <1>   0.0800 
 49 H      -12.0710    -0.5000     0.4960 H     1 <1>   0.0800 
 50 H      -11.9760    -2.2700    -2.8050 H     1 <1>   0.0800 
 51 H      -10.3290    -1.7680    -3.1290 H     1 <1>   0.0800 
 52 H      -11.5990    -0.5760    -3.0470 H     1 <1>   0.0800 
@<TRIPOS>BOND
  1   1   2  1   
  2   2   3  ar  
  3   2   4  ar  
  4   3   5  1   
  5   3   6  ar  
  6   4   7  ar  
  7   4  25  1   
  8   5   8  1   
  9   6   9  ar  
 10   6  26  1   
 11   7   9  ar  
 12   7  27  1   
 13   8  10  1   
 14   8  28  1   
 15   8  29  1   
 16   9  30  1   
 17  10  11  2   
 18  10  12  am  
 19  12  13  1   
 20  12  14  1   
 21  13  15  1   
 22  13  16  1   
 23  13  31  1   
 24  14  32  1   
 25  14  33  1   
 26  14  34  1   
 27  15  17  1   
 28  15  35  1   
 29  15  36  1   
 30  16  18  1   
 31  16  37  1   
 32  16  38  1   
 33  17  18  1   
 34  17  19  1   
 35  17  39  1   
 36  18  20  1   
 37  18  40  1   
 38  19  21  1   
 39  19  41  1   
 40  19  42  1   
 41  20  21  1   
 42  20  43  1   
 43  20  44  1   
 44  21  22  1   
 45  21  45  1   
 46  22  23  1   
 47  22  24  1   
 48  22  46  1   
 49  23  47  1   
 50  23  48  1   
 51  23  49  1   
 52  24  50  1   
 53  24  51  1   
 54  24  52  1   
@<TRIPOS>SUBSTRUCTURE
  1 ****  13 GROUP 4 **** **** 0

# MOE 2024.06 (io_trps.svl 2023.06)
