@<TRIPOS>MOLECULE
NONAME
43 44 1 0 0 
SMALL
USER_CHARGES


@<TRIPOS>ATOM
  1 CL       0.1840    -0.3840     0.9200 Cl    1 <1>  -0.1230 
  2 C       -0.2630    -2.0720     0.8210 C.2   1 <1>   0.4120 
  3 N       -0.0500    -2.9260     1.7540 N.2   1 <1>  -0.4100 
  4 C       -0.8910    -2.6340    -0.2830 C.2   1 <1>  -0.1500 
  5 O       -0.5240    -4.0510     1.2930 O.3   1 <1>  -0.0190 
  6 C       -1.0310    -3.9170     0.0910 C.2   1 <1>  -0.0400 
  7 C       -1.6350    -5.1150    -0.6180 C.3   1 <1>   0.0200 
  8 C       -2.8580    -5.6420     0.1420 C.3   1 <1>  -0.0990 
  9 C       -3.4730    -6.8270    -0.5680 C.2   1 <1>   0.5690 
 10 O       -3.9110    -6.6770    -1.6810 O.2   1 <1>  -0.5700 
 11 N       -3.5120    -8.0250     0.0630 N.am  1 <1>  -0.7300 
 12 C       -4.1030    -9.2580    -0.5060 C.3   1 <1>   0.2200 
 13 C       -5.3110    -9.6620     0.3210 C.3   1 <1>  -0.0800 
 14 C       -3.1590   -10.4330    -0.2800 C.3   1 <1>   0.1200 
 15 C       -4.6630   -10.4390     1.4730 C.3   1 <1>   0.1200 
 16 C       -6.2770   -10.5420    -0.4980 C.3   1 <1>  -0.0550 
 17 O       -3.4340   -10.9130     1.0030 O.3   1 <1>  -0.5600 
 18 S       -7.8490   -10.8340     0.3150 S.o2  1 <1>   1.3330 
 19 O       -8.4980    -9.5540     0.4830 O.2   1 <1>  -0.6500 
 20 O       -7.6550   -11.6910     1.4630 O.2   1 <1>  -0.6500 
 21 N       -8.7080   -11.7190    -0.8520 N.am  1 <1>  -0.8490 
 22 C      -10.1540   -11.4900    -0.7700 C.3   1 <1>   0.1160 
 23 C       -8.4270   -13.1580    -0.8150 C.3   1 <1>   0.1160 
 24 H       -1.1720    -2.1250    -1.1840 H     1 <1>   0.1500 
 25 H       -1.9250    -4.8280    -1.6140 H     1 <1>   0.0800 
 26 H       -0.8920    -5.8890    -0.6980 H     1 <1>   0.0800 
 27 H       -3.6000    -4.8670     0.2080 H     1 <1>   0.0800 
 28 H       -2.5750    -5.9200     1.1400 H     1 <1>   0.0800 
 29 H       -3.1120    -8.1400     0.9970 H     1 <1>   0.3700 
 30 H       -4.3300    -9.1180    -1.5510 H     1 <1>   0.0800 
 31 H       -5.8450    -8.7980     0.6780 H     1 <1>   0.0800 
 32 H       -2.1230   -10.1530    -0.3480 H     1 <1>   0.0800 
 33 H       -3.3680   -11.2270    -0.9750 H     1 <1>   0.0800 
 34 H       -5.2470   -11.2750     1.8160 H     1 <1>   0.0800 
 35 H       -4.4610    -9.7870     2.3050 H     1 <1>   0.0800 
 36 H       -5.8100   -11.4810    -0.7220 H     1 <1>   0.0800 
 37 H       -6.4790   -10.0470    -1.4290 H     1 <1>   0.0800 
 38 H      -10.6650   -12.0530    -1.5320 H     1 <1>   0.0800 
 39 H      -10.3720   -10.4460    -0.9220 H     1 <1>   0.0800 
 40 H      -10.5250   -11.7830     0.1980 H     1 <1>   0.0800 
 41 H       -8.9230   -13.6530    -1.6330 H     1 <1>   0.0800 
 42 H       -8.7700   -13.5850     0.1130 H     1 <1>   0.0800 
 43 H       -7.3690   -13.3330    -0.9040 H     1 <1>   0.0800 
@<TRIPOS>BOND
  1   1   2  1   
  2   2   3  2   
  3   2   4  1   
  4   3   5  1   
  5   4   6  2   
  6   4  24  1   
  7   5   6  1   
  8   6   7  1   
  9   7   8  1   
 10   7  25  1   
 11   7  26  1   
 12   8   9  1   
 13   8  27  1   
 14   8  28  1   
 15   9  10  2   
 16   9  11  am  
 17  11  12  1   
 18  11  29  1   
 19  12  13  1   
 20  12  14  1   
 21  12  30  1   
 22  13  15  1   
 23  13  16  1   
 24  13  31  1   
 25  14  17  1   
 26  14  32  1   
 27  14  33  1   
 28  15  17  1   
 29  15  34  1   
 30  15  35  1   
 31  16  18  1   
 32  16  36  1   
 33  16  37  1   
 34  18  19  2   
 35  18  20  2   
 36  18  21  am  
 37  21  22  1   
 38  21  23  1   
 39  22  38  1   
 40  22  39  1   
 41  22  40  1   
 42  23  41  1   
 43  23  42  1   
 44  23  43  1   
@<TRIPOS>SUBSTRUCTURE
  1 ****  11 GROUP 4 **** **** 0

# MOE 2024.06 (io_trps.svl 2023.06)
