@<TRIPOS>MOLECULE
NONAME
48 51 1 0 0 
SMALL
USER_CHARGES


@<TRIPOS>ATOM
  1 CL      -0.4630    -0.8870     2.3060 Cl    1 <1>  -0.1770 
  2 C       -0.6600    -2.3790     1.4210 C.ar  1 <1>   0.1770 
  3 C       -1.6510    -2.4730     0.4620 C.ar  1 <1>  -0.1500 
  4 C        0.1790    -3.4420     1.6940 C.ar  1 <1>  -0.1500 
  5 C       -1.8140    -3.6560    -0.2430 C.ar  1 <1>  -0.1440 
  6 C        0.0220    -4.6260     0.9930 C.ar  1 <1>  -0.1500 
  7 C       -0.9770    -4.7380     0.0260 C.ar  1 <1>   0.0830 
  8 C       -2.9010    -3.7600    -1.3030 C.3   1 <1>  -0.0960 
  9 O       -1.1840    -5.8770    -0.6850 O.3   1 <1>  -0.3630 
 10 C       -0.5310    -7.0930    -0.3530 C.3   1 <1>   0.1810 
 11 C       -1.0670    -8.2600    -1.1790 C.2   1 <1>   0.5690 
 12 O       -0.2650    -8.8570    -1.8610 O.2   1 <1>  -0.5700 
 13 N       -2.3890    -8.6420    -1.1230 N.am  1 <1>  -0.6600 
 14 C       -2.9160    -9.7440    -1.9770 C.3   1 <1>   0.1400 
 15 C       -3.4360    -7.9870    -0.2900 C.3   1 <1>   0.1400 
 16 C       -3.5610   -10.8090    -1.0880 C.3   1 <1>  -0.1600 
 17 C       -4.0800    -9.0340     0.6200 C.3   1 <1>  -0.1600 
 18 C       -4.6460   -10.2130    -0.1850 C.3   1 <1>   0.4610 
 19 O       -5.6580    -9.7350    -1.0550 O.3   1 <1>  -0.5600 
 20 C       -5.2200   -11.2880     0.7410 C.2   1 <1>  -0.1810 
 21 C       -6.9460    -9.5090    -0.5330 C.3   1 <1>   0.1200 
 22 C       -6.5360   -11.5360     0.7770 C.2   1 <1>  -0.1400 
 23 C       -4.4700   -12.1210     1.6380 C.2   1 <1>  -0.1500 
 24 C       -7.5810   -10.8160    -0.0310 C.3   1 <1>   0.0200 
 25 S       -6.9290   -12.8200     1.9000 S.3   1 <1>  -0.0800 
 26 C       -5.2330   -12.9910     2.3270 C.2   1 <1>  -0.1100 
 27 H       -2.2820    -1.6230     0.2770 H     1 <1>   0.1500 
 28 H        0.9430    -3.3390     2.4430 H     1 <1>   0.1500 
 29 H        0.6880    -5.4390     1.2120 H     1 <1>   0.1500 
 30 H       -3.4370    -2.8340    -1.4040 H     1 <1>   0.0800 
 31 H       -3.5980    -4.5340    -1.0370 H     1 <1>   0.0800 
 32 H       -2.4610    -4.0070    -2.2530 H     1 <1>   0.0800 
 33 H       -0.6880    -7.2950     0.6900 H     1 <1>   0.0800 
 34 H        0.5190    -6.9720    -0.5480 H     1 <1>   0.0800 
 35 H       -2.1270   -10.1900    -2.5590 H     1 <1>   0.0800 
 36 H       -3.6450    -9.3430    -2.6600 H     1 <1>   0.0800 
 37 H       -4.1800    -7.5550    -0.9390 H     1 <1>   0.0800 
 38 H       -3.0260    -7.1980     0.3140 H     1 <1>   0.0800 
 39 H       -2.7920   -11.2590    -0.4890 H     1 <1>   0.0800 
 40 H       -3.9930   -11.5810    -1.6970 H     1 <1>   0.0800 
 41 H       -4.8540    -8.5850     1.2120 H     1 <1>   0.0800 
 42 H       -3.3340    -9.4000     1.3010 H     1 <1>   0.0800 
 43 H       -7.5480    -9.0810    -1.3160 H     1 <1>   0.0800 
 44 H       -6.8700    -8.7970     0.2690 H     1 <1>   0.0800 
 45 H       -3.4020   -12.0310     1.7240 H     1 <1>   0.1500 
 46 H       -7.8870   -11.4250    -0.8620 H     1 <1>   0.0800 
 47 H       -8.4400   -10.5950     0.5750 H     1 <1>   0.0800 
 48 H       -4.9840   -13.7380     3.0600 H     1 <1>   0.1500 
@<TRIPOS>BOND
  1   1   2  1   
  2   2   3  ar  
  3   2   4  ar  
  4   3   5  ar  
  5   3  27  1   
  6   4   6  ar  
  7   4  28  1   
  8   5   7  ar  
  9   5   8  1   
 10   6   7  ar  
 11   6  29  1   
 12   7   9  1   
 13   8  30  1   
 14   8  31  1   
 15   8  32  1   
 16   9  10  1   
 17  10  11  1   
 18  10  33  1   
 19  10  34  1   
 20  11  12  2   
 21  11  13  am  
 22  13  14  1   
 23  13  15  1   
 24  14  16  1   
 25  14  35  1   
 26  14  36  1   
 27  15  17  1   
 28  15  37  1   
 29  15  38  1   
 30  16  18  1   
 31  16  39  1   
 32  16  40  1   
 33  17  18  1   
 34  17  41  1   
 35  17  42  1   
 36  18  19  1   
 37  18  20  1   
 38  19  21  1   
 39  20  22  2   
 40  20  23  1   
 41  21  24  1   
 42  21  43  1   
 43  21  44  1   
 44  22  24  1   
 45  22  25  1   
 46  23  26  2   
 47  23  45  1   
 48  24  46  1   
 49  24  47  1   
 50  25  26  1   
 51  26  48  1   
@<TRIPOS>SUBSTRUCTURE
  1 ****  15 GROUP 4 **** **** 0

# MOE 2024.06 (io_trps.svl 2023.06)
