@<TRIPOS>MOLECULE
NONAME
68 69 1 0 0 
SMALL
USER_CHARGES


@<TRIPOS>ATOM
  1 O       -1.8650    -1.7890     1.3570 O.2   1 <1>  -0.5700 
  2 C       -1.0740    -2.0150     0.4630 C.2   1 <1>   0.5690 
  3 N       -1.5060    -2.1380    -0.8380 N.am  1 <1>  -0.6600 
  4 C        0.4260    -2.0590     0.8340 C.3   1 <1>   0.2810 
  5 C       -2.9520    -1.8790    -1.1750 C.3   1 <1>   0.2010 
  6 C       -0.5960    -2.2500    -2.0140 C.3   1 <1>   0.0600 
  7 N        0.8890    -0.6770     1.1720 N.am  1 <1>  -0.7300 
  8 C        0.7280    -3.0180     2.0120 C.3   1 <1>  -0.0800 
  9 C       -3.2660    -0.3830    -1.1670 C.2   1 <1>   0.5690 
 10 C        1.7320     0.0690     0.4100 C.2   1 <1>   0.5690 
 11 C        2.2220    -3.0270     2.3880 C.3   1 <1>  -0.2400 
 12 C        0.2970    -4.4580     1.6840 C.3   1 <1>  -0.2400 
 13 O       -3.4520     0.2050    -2.2090 O.2   1 <1>  -0.5700 
 14 N       -3.2520     0.2690     0.0230 N.am  1 <1>  -0.7300 
 15 O        2.2420    -0.3780    -0.5940 O.2   1 <1>  -0.5700 
 16 C        2.0780     1.5300     0.7910 C.3   1 <1>   0.4840 
 17 C       -3.1540     1.7240     0.1390 C.3   1 <1>   0.2810 
 18 N        2.6080     2.2950    -0.3800 N.4   1 <1>  -0.9060 
 19 C        3.1590     1.5710     1.8700 C.3   1 <1>  -0.2400 
 20 C       -1.7690     2.2280    -0.3490 C.2   1 <1>   0.5690 
 21 C       -3.4910     2.1550     1.5720 C.3   1 <1>  -0.0170 
 22 C        1.5720     3.1180    -1.0530 C.3   1 <1>   0.3430 
 23 O       -0.8330     2.3980     0.4350 O.2   1 <1>  -0.5700 
 24 N       -1.6150     2.4030    -1.6930 N.am  1 <1>  -0.7300 
 25 C       -3.5780     3.6600     1.7490 C.ar  1 <1>  -0.1440 
 26 C        0.8430     2.3050    -2.1250 C.3   1 <1>  -0.1600 
 27 C       -0.4960     2.9510    -2.4940 C.3   1 <1>   0.1400 
 28 C       -2.5150     4.3730     2.3370 C.ar  1 <1>  -0.1500 
 29 C       -4.7240     4.3530     1.3120 C.ar  1 <1>  -0.1500 
 30 C       -2.5970     5.7690     2.4850 C.ar  1 <1>  -0.1500 
 31 C       -4.8040     5.7490     1.4580 C.ar  1 <1>  -0.1500 
 32 C       -3.7400     6.4570     2.0440 C.ar  1 <1>  -0.1500 
 33 H        0.9840    -2.4170    -0.0110 H     1 <1>   0.0800 
 34 H       -3.1880    -2.2870    -2.1420 H     1 <1>   0.0800 
 35 H       -3.5810    -2.3670    -0.4520 H     1 <1>   0.0800 
 36 H       -1.1220    -2.0250    -2.9260 H     1 <1>   0.0800 
 37 H       -0.2060    -3.2520    -2.0790 H     1 <1>   0.0800 
 38 H        0.2220    -1.5560    -1.9220 H     1 <1>   0.0800 
 39 H        0.3690    -0.2710     1.9560 H     1 <1>   0.3700 
 40 H        0.1620    -2.6950     2.8700 H     1 <1>   0.0800 
 41 H        2.8240    -3.3100     1.5420 H     1 <1>   0.0800 
 42 H        2.4020    -3.7290     3.1840 H     1 <1>   0.0800 
 43 H        2.5410    -2.0590     2.7280 H     1 <1>   0.0800 
 44 H        0.8180    -4.8260     0.8170 H     1 <1>   0.0800 
 45 H       -0.7610    -4.5110     1.4990 H     1 <1>   0.0800 
 46 H        0.5150    -5.1100     2.5120 H     1 <1>   0.0800 
 47 H       -2.9800    -0.2890     0.8280 H     1 <1>   0.3700 
 48 H        1.1950     2.0090     1.1740 H     1 <1>   0.0800 
 49 H       -3.9060     2.1690    -0.5150 H     1 <1>   0.0800 
 50 H        3.3980     2.8700    -0.0780 H     1 <1>   0.4500 
 51 H        2.9570     1.5740    -1.0330 H     1 <1>   0.4500 
 52 H        4.0600     1.0920     1.5280 H     1 <1>   0.0800 
 53 H        2.8150     1.0420     2.7420 H     1 <1>   0.0800 
 54 H        3.3700     2.5840     2.1620 H     1 <1>   0.0800 
 55 H       -4.4530     1.7220     1.8490 H     1 <1>   0.0800 
 56 H       -2.7410     1.7510     2.2530 H     1 <1>   0.0800 
 57 H        0.8750     3.4970    -0.3240 H     1 <1>   0.0800 
 58 H        2.0340     3.9700    -1.5260 H     1 <1>   0.0800 
 59 H       -2.3720     1.9930    -2.2660 H     1 <1>   0.3700 
 60 H        1.4620     2.2790    -3.0040 H     1 <1>   0.0800 
 61 H        0.6560     1.2930    -1.8170 H     1 <1>   0.0800 
 62 H       -0.7050     2.7420    -3.5300 H     1 <1>   0.0800 
 63 H       -0.4600     4.0220    -2.3780 H     1 <1>   0.0800 
 64 H       -1.6320     3.8510     2.6750 H     1 <1>   0.1500 
 65 H       -5.5480     3.8170     0.8620 H     1 <1>   0.1500 
 66 H       -1.7820     6.3130     2.9390 H     1 <1>   0.1500 
 67 H       -5.6840     6.2780     1.1220 H     1 <1>   0.1500 
 68 H       -3.8030     7.5300     2.1570 H     1 <1>   0.1500 
@<TRIPOS>BOND
  1   1   2  2   
  2   2   3  am  
  3   2   4  1   
  4   3   5  1   
  5   3   6  1   
  6   4   7  1   
  7   4   8  1   
  8   4  33  1   
  9   5   9  1   
 10   5  34  1   
 11   5  35  1   
 12   6  36  1   
 13   6  37  1   
 14   6  38  1   
 15   7  10  am  
 16   7  39  1   
 17   8  11  1   
 18   8  12  1   
 19   8  40  1   
 20   9  13  2   
 21   9  14  am  
 22  10  15  2   
 23  10  16  1   
 24  11  41  1   
 25  11  42  1   
 26  11  43  1   
 27  12  44  1   
 28  12  45  1   
 29  12  46  1   
 30  14  17  1   
 31  14  47  1   
 32  16  18  1   
 33  16  19  1   
 34  16  48  1   
 35  17  20  1   
 36  17  21  1   
 37  17  49  1   
 38  18  22  1   
 39  18  50  1   
 40  18  51  1   
 41  19  52  1   
 42  19  53  1   
 43  19  54  1   
 44  20  23  2   
 45  20  24  am  
 46  21  25  1   
 47  21  55  1   
 48  21  56  1   
 49  22  26  1   
 50  22  57  1   
 51  22  58  1   
 52  24  27  1   
 53  24  59  1   
 54  25  28  ar  
 55  25  29  ar  
 56  26  27  1   
 57  26  60  1   
 58  26  61  1   
 59  27  62  1   
 60  27  63  1   
 61  28  30  ar  
 62  28  64  1   
 63  29  31  ar  
 64  29  65  1   
 65  30  32  ar  
 66  30  66  1   
 67  31  32  ar  
 68  31  67  1   
 69  32  68  1   
@<TRIPOS>SUBSTRUCTURE
  1 ****  23 GROUP 4 **** **** 0

# MOE 2024.06 (io_trps.svl 2023.06)
