@<TRIPOS>MOLECULE
NONAME
48 50 1 0 0 
SMALL
USER_CHARGES


@<TRIPOS>ATOM
  1 S        0.8120     0.4390    -1.3660 S.o2  1 <1>   1.3330 
  2 O        1.0250    -0.9180    -1.8190 O.2   1 <1>  -0.6500 
  3 O        0.2220     1.4070    -2.2620 O.2   1 <1>  -0.6500 
  4 N       -0.1690     0.3750     0.0190 N.am  1 <1>  -0.8490 
  5 C        2.3760     1.0700    -0.7550 C.3   1 <1>  -0.0550 
  6 C       -1.2370    -0.6230    -0.1080 C.3   1 <1>   0.1160 
  7 C       -0.7480     1.6740     0.3810 C.3   1 <1>   0.1160 
  8 C        3.1430     0.0910     0.1600 C.3   1 <1>  -0.0800 
  9 C        4.5420     0.5410     0.5520 C.3   1 <1>   0.2200 
 10 C        2.4860    -0.1860     1.5180 C.3   1 <1>   0.1200 
 11 N        4.5500     1.9780     0.9130 N.am  1 <1>  -0.7300 
 12 C        4.7580    -0.2840     1.8120 C.3   1 <1>   0.1200 
 13 O        3.5200    -0.2960     2.4540 O.3   1 <1>  -0.5600 
 14 C        4.9720     3.0050     0.1230 C.2   1 <1>   0.7150 
 15 O        5.3420     2.7340    -1.0040 O.2   1 <1>  -0.5700 
 16 C        4.9430     4.3620     0.6150 C.2   1 <1>  -0.0450 
 17 S        4.2720     4.6470     2.2300 S.3   1 <1>  -0.0800 
 18 C        5.3270     5.5610     0.0970 C.2   1 <1>  -0.1810 
 19 C        4.5430     6.3700     2.1290 C.2   1 <1>  -0.1100 
 20 C        5.1000     6.6830     0.9470 C.2   1 <1>  -0.1810 
 21 C        5.9660     5.8400    -1.2550 C.3   1 <1>   0.0210 
 22 C        5.5070     8.0570     0.4510 C.3   1 <1>   0.0210 
 23 C        7.1630     6.7950    -1.0990 C.3   1 <1>  -0.1600 
 24 C        6.9220     7.9940    -0.1470 C.3   1 <1>  -0.1600 
 25 H        3.0010     1.2890    -1.6000 H     1 <1>   0.0800 
 26 H        2.2060     1.9950    -0.2400 H     1 <1>   0.0800 
 27 H       -1.8330    -0.6490     0.7870 H     1 <1>   0.0800 
 28 H       -0.8120    -1.6010    -0.2570 H     1 <1>   0.0800 
 29 H       -1.8680    -0.3890    -0.9500 H     1 <1>   0.0800 
 30 H       -1.2870     1.5930     1.3100 H     1 <1>   0.0800 
 31 H       -1.4240     2.0130    -0.3880 H     1 <1>   0.0800 
 32 H        0.0300     2.4080     0.5030 H     1 <1>   0.0800 
 33 H        3.2340    -0.8520    -0.3530 H     1 <1>   0.0800 
 34 H        5.2780     0.3320    -0.2070 H     1 <1>   0.0800 
 35 H        1.9190    -1.1020     1.5100 H     1 <1>   0.0800 
 36 H        1.8550     0.6280     1.8300 H     1 <1>   0.0800 
 37 H        4.2160     2.1860     1.8570 H     1 <1>   0.3700 
 38 H        5.5040     0.1340     2.4650 H     1 <1>   0.0800 
 39 H        5.0120    -1.3000     1.5650 H     1 <1>   0.0800 
 40 H        4.2570     6.9730     2.9720 H     1 <1>   0.1500 
 41 H        6.2920     4.9320    -1.7290 H     1 <1>   0.0800 
 42 H        5.2280     6.2950    -1.8930 H     1 <1>   0.0800 
 43 H        4.8110     8.3720    -0.3070 H     1 <1>   0.0800 
 44 H        5.4740     8.7710     1.2550 H     1 <1>   0.0800 
 45 H        7.9920     6.2250    -0.7150 H     1 <1>   0.0800 
 46 H        7.4500     7.1570    -2.0710 H     1 <1>   0.0800 
 47 H        7.1300     8.9150    -0.6630 H     1 <1>   0.0800 
 48 H        7.6210     7.9200     0.6680 H     1 <1>   0.0800 
@<TRIPOS>BOND
  1   1   2  2   
  2   1   3  2   
  3   1   4  am  
  4   1   5  1   
  5   4   6  1   
  6   4   7  1   
  7   5   8  1   
  8   5  25  1   
  9   5  26  1   
 10   6  27  1   
 11   6  28  1   
 12   6  29  1   
 13   7  30  1   
 14   7  31  1   
 15   7  32  1   
 16   8   9  1   
 17   8  10  1   
 18   8  33  1   
 19   9  11  1   
 20   9  12  1   
 21   9  34  1   
 22  10  13  1   
 23  10  35  1   
 24  10  36  1   
 25  11  14  am  
 26  11  37  1   
 27  12  13  1   
 28  12  38  1   
 29  12  39  1   
 30  14  15  2   
 31  14  16  1   
 32  16  17  1   
 33  16  18  2   
 34  17  19  1   
 35  18  20  1   
 36  18  21  1   
 37  19  20  2   
 38  19  40  1   
 39  20  22  1   
 40  21  23  1   
 41  21  41  1   
 42  21  42  1   
 43  22  24  1   
 44  22  43  1   
 45  22  44  1   
 46  23  24  1   
 47  23  45  1   
 48  23  46  1   
 49  24  47  1   
 50  24  48  1   
@<TRIPOS>SUBSTRUCTURE
  1 ****  14 GROUP 4 **** **** 0

# MOE 2024.06 (io_trps.svl 2023.06)
