@<TRIPOS>MOLECULE
NONAME
61 65 1 0 0 
SMALL
USER_CHARGES


@<TRIPOS>ATOM
  1 O       -2.8630    -0.0870     1.9900 O.2   1 <1>  -0.5700 
  2 C       -2.9980     0.3650     0.8680 C.2   1 <1>   0.5440 
  3 N       -2.2030     1.4260     0.4840 N.am  1 <1>  -0.6600 
  4 C       -3.9890    -0.2240    -0.0030 C.ar  1 <1>   0.0860 
  5 C       -0.9660     1.7960     1.2400 C.3   1 <1>   0.1400 
  6 C       -2.6300     2.4800    -0.4850 C.3   1 <1>   0.1400 
  7 C       -5.1930    -0.6920     0.5230 C.ar  1 <1>   0.1600 
  8 C       -3.8030    -0.3850    -1.3740 C.ar  1 <1>  -0.1500 
  9 C       -1.0870     3.2150     1.8160 C.3   1 <1>   0.1200 
 10 C       -2.6400     3.8660     0.1860 C.3   1 <1>   0.1200 
 11 N       -6.1800    -1.2580    -0.1570 N.ar  1 <1>  -0.6200 
 12 C       -4.8120    -0.9700    -2.1000 C.ar  1 <1>  -0.1500 
 13 O       -1.4140     4.1280     0.8060 O.3   1 <1>  -0.5600 
 14 C       -5.9750    -1.3890    -1.4620 C.ar  1 <1>   0.4100 
 15 N       -6.9750    -2.0020    -2.1740 N.pl3 1 <1>  -0.8380 
 16 C       -7.0030    -3.4890    -2.0900 C.3   1 <1>   0.2090 
 17 C       -8.3260    -1.3720    -2.1130 C.3   1 <1>   0.2090 
 18 C       -7.8160    -3.9590    -0.8640 C.3   1 <1>   0.3430 
 19 C       -9.1390    -1.8860    -0.9020 C.3   1 <1>   0.3430 
 20 N       -9.2260    -3.3990    -0.8310 N.4   1 <1>  -0.9590 
 21 C      -10.0040    -3.8590     0.3710 C.3   1 <1>   0.4230 
 22 C       -9.9450    -5.3910     0.5350 C.3   1 <1>  -0.0170 
 23 C      -11.4700    -3.4180     0.2500 C.3   1 <1>  -0.1600 
 24 C      -10.9300    -5.9200     1.5660 C.ar  1 <1>  -0.1430 
 25 C      -12.2280    -3.7300     1.5440 C.3   1 <1>  -0.0170 
 26 C      -11.9940    -5.1530     2.0250 C.ar  1 <1>  -0.1430 
 27 C      -10.7600    -7.2110     2.0450 C.ar  1 <1>  -0.1500 
 28 C      -12.8690    -5.6860     2.9590 C.ar  1 <1>  -0.1500 
 29 C      -11.6370    -7.7360     2.9760 C.ar  1 <1>  -0.1500 
 30 C      -12.6930    -6.9720     3.4340 C.ar  1 <1>  -0.1500 
 31 H       -0.1220     1.7560     0.5750 H     1 <1>   0.0800 
 32 H       -0.7850     1.1000     2.0410 H     1 <1>   0.0800 
 33 H       -3.6150     2.2730    -0.8620 H     1 <1>   0.0800 
 34 H       -1.9460     2.4970    -1.3150 H     1 <1>   0.0800 
 35 H       -5.3340    -0.5840     1.5860 H     1 <1>   0.1500 
 36 H       -2.8880    -0.0660    -1.8430 H     1 <1>   0.1500 
 37 H       -0.1510     3.5220     2.2470 H     1 <1>   0.0800 
 38 H       -1.8470     3.2500     2.5770 H     1 <1>   0.0800 
 39 H       -3.4180     3.9220     0.9270 H     1 <1>   0.0800 
 40 H       -2.8060     4.6330    -0.5490 H     1 <1>   0.0800 
 41 H       -4.7220    -1.1170    -3.1600 H     1 <1>   0.1500 
 42 H       -5.9950    -3.8610    -2.0070 H     1 <1>   0.0800 
 43 H       -7.4260    -3.8920    -2.9940 H     1 <1>   0.0800 
 44 H       -8.8570    -1.5760    -3.0260 H     1 <1>   0.0800 
 45 H       -8.2160    -0.3040    -2.0320 H     1 <1>   0.0800 
 46 H       -7.2870    -3.6460     0.0220 H     1 <1>   0.0800 
 47 H       -7.8440    -5.0350    -0.8700 H     1 <1>   0.0800 
 48 H      -10.1230    -1.4560    -0.9540 H     1 <1>   0.0800 
 49 H       -8.6660    -1.5150    -0.0070 H     1 <1>   0.0800 
 50 H       -9.7160    -3.7270    -1.6710 H     1 <1>   0.4500 
 51 H       -9.5840    -3.4110     1.2580 H     1 <1>   0.0800 
 52 H       -8.9600    -5.6820     0.8500 H     1 <1>   0.0800 
 53 H      -10.1690    -5.8670    -0.4020 H     1 <1>   0.0800 
 54 H      -11.9430    -3.9460    -0.5600 H     1 <1>   0.0800 
 55 H      -11.5620    -2.3640     0.0760 H     1 <1>   0.0800 
 56 H      -13.2820    -3.5740     1.3850 H     1 <1>   0.0800 
 57 H      -11.9120    -3.0550     2.3220 H     1 <1>   0.0800 
 58 H       -9.9450    -7.8220     1.6980 H     1 <1>   0.1500 
 59 H      -13.6960    -5.1020     3.3260 H     1 <1>   0.1500 
 60 H      -11.5000    -8.7390     3.3440 H     1 <1>   0.1500 
 61 H      -13.3780    -7.3790     4.1580 H     1 <1>   0.1500 
@<TRIPOS>BOND
  1   1   2  2   
  2   2   3  am  
  3   2   4  1   
  4   3   5  1   
  5   3   6  1   
  6   4   7  ar  
  7   4   8  ar  
  8   5   9  1   
  9   5  31  1   
 10   5  32  1   
 11   6  10  1   
 12   6  33  1   
 13   6  34  1   
 14   7  11  ar  
 15   7  35  1   
 16   8  12  ar  
 17   8  36  1   
 18   9  13  1   
 19   9  37  1   
 20   9  38  1   
 21  10  13  1   
 22  10  39  1   
 23  10  40  1   
 24  11  14  ar  
 25  12  14  ar  
 26  12  41  1   
 27  14  15  1   
 28  15  16  1   
 29  15  17  1   
 30  16  18  1   
 31  16  42  1   
 32  16  43  1   
 33  17  19  1   
 34  17  44  1   
 35  17  45  1   
 36  18  20  1   
 37  18  46  1   
 38  18  47  1   
 39  19  20  1   
 40  19  48  1   
 41  19  49  1   
 42  20  21  1   
 43  20  50  1   
 44  21  22  1   
 45  21  23  1   
 46  21  51  1   
 47  22  24  1   
 48  22  52  1   
 49  22  53  1   
 50  23  25  1   
 51  23  54  1   
 52  23  55  1   
 53  24  26  ar  
 54  24  27  ar  
 55  25  26  1   
 56  25  56  1   
 57  25  57  1   
 58  26  28  ar  
 59  27  29  ar  
 60  27  58  1   
 61  28  30  ar  
 62  28  59  1   
 63  29  30  ar  
 64  29  60  1   
 65  30  61  1   
@<TRIPOS>SUBSTRUCTURE
  1 ****  11 GROUP 4 **** **** 0

# MOE 2024.06 (io_trps.svl 2023.06)
