@<TRIPOS>MOLECULE
NONAME
53 57 1 0 0 
SMALL
USER_CHARGES


@<TRIPOS>ATOM
  1 O        1.8080     0.2310    -2.1240 O.2   1 <1>  -0.5700 
  2 C        1.6550    -0.8060    -1.5240 C.2   1 <1>   0.5690 
  3 N        0.4900    -1.2120    -0.9570 N.am  1 <1>  -0.6600 
  4 C        2.7520    -1.8400    -1.4100 C.3   1 <1>  -0.0190 
  5 C       -0.7470    -0.3890    -0.8930 C.3   1 <1>   0.2200 
  6 C        0.6170    -2.5610    -0.3540 C.3   1 <1>   0.1400 
  7 C        2.1250    -2.8070    -0.4060 C.3   1 <1>   0.4180 
  8 C        4.1570    -1.6000    -0.7610 C.3   1 <1>  -0.0190 
  9 C       -1.1350    -0.0970     0.5550 C.3   1 <1>  -0.1600 
 10 C       -1.9450    -1.1380    -1.4710 C.3   1 <1>  -0.1600 
 11 O        2.7350    -2.3770     0.7630 O.3   1 <1>  -0.5600 
 12 C        2.7780    -4.1600    -0.5380 C.2   1 <1>  -0.2880 
 13 C        4.6140    -0.2330    -0.2520 C.2   1 <1>   0.5690 
 14 C        4.0660    -2.5530     0.4410 C.3   1 <1>   0.3380 
 15 C       -2.1740    -1.1480     0.9700 C.3   1 <1>  -0.1600 
 16 C       -2.5930    -1.8890    -0.3050 C.3   1 <1>  -0.1600 
 17 C        3.9940    -3.9960    -0.0310 C.2   1 <1>  -0.2880 
 18 O        5.6100    -0.2270     0.4340 O.2   1 <1>  -0.5700 
 19 N        3.9810     0.9220    -0.5920 N.am  1 <1>  -0.4930 
 20 C        4.2780     2.2540    -0.2100 C.2   1 <1>   0.0630 
 21 C        5.2830     2.7480     0.6220 C.2   1 <1>   0.1390 
 22 C        3.6010     3.3500    -0.6080 C.2   1 <1>  -0.3020 
 23 N        5.2400     4.0440     0.7340 N.2   1 <1>  -0.7070 
 24 N        4.1930     4.4200    -0.0310 N.pl3 1 <1>   0.3140 
 25 C        3.7750     5.8410    -0.2060 C.3   1 <1>   0.1760 
 26 C        4.8750     6.6420    -0.9190 C.3   1 <1>  -0.2400 
 27 C        3.4250     6.4790     1.1460 C.3   1 <1>  -0.2400 
 28 H        2.8500    -2.3210    -2.3650 H     1 <1>   0.0800 
 29 H       -0.5850     0.5310    -1.4310 H     1 <1>   0.0800 
 30 H        0.2630    -2.5880     0.6610 H     1 <1>   0.0800 
 31 H        0.0950    -3.2790    -0.9600 H     1 <1>   0.0800 
 32 H        4.9270    -1.9580    -1.4190 H     1 <1>   0.0800 
 33 H       -0.2790    -0.0840     1.2070 H     1 <1>   0.0800 
 34 H       -1.5990     0.8730     0.5890 H     1 <1>   0.0800 
 35 H       -2.6480    -0.4100    -1.8370 H     1 <1>   0.0800 
 36 H       -1.6700    -1.7850    -2.2850 H     1 <1>   0.0800 
 37 H        2.2760    -4.9980    -0.9880 H     1 <1>   0.1500 
 38 H        4.6960    -2.3670     1.2950 H     1 <1>   0.0800 
 39 H       -1.7510    -1.8380     1.6790 H     1 <1>   0.0800 
 40 H       -3.0240    -0.6690     1.4260 H     1 <1>   0.0800 
 41 H       -3.6640    -1.9190    -0.4090 H     1 <1>   0.0800 
 42 H       -2.2260    -2.9000    -0.2720 H     1 <1>   0.0800 
 43 H        4.8350    -4.6590     0.0770 H     1 <1>   0.1500 
 44 H        3.1730     0.8490    -1.2220 H     1 <1>   0.3700 
 45 H        6.0140     2.1320     1.1170 H     1 <1>   0.1500 
 46 H        2.7500     3.4220    -1.2570 H     1 <1>   0.1500 
 47 H        2.8950     5.8450    -0.8240 H     1 <1>   0.0800 
 48 H        5.7700     6.6580    -0.3210 H     1 <1>   0.0800 
 49 H        4.5520     7.6540    -1.0820 H     1 <1>   0.0800 
 50 H        5.0980     6.1950    -1.8710 H     1 <1>   0.0800 
 51 H        4.2900     6.4960     1.7850 H     1 <1>   0.0800 
 52 H        2.6450     5.9170     1.6280 H     1 <1>   0.0800 
 53 H        3.0830     7.4880     1.0050 H     1 <1>   0.0800 
@<TRIPOS>BOND
  1   1   2  2   
  2   2   3  am  
  3   2   4  1   
  4   3   5  1   
  5   3   6  1   
  6   4   7  1   
  7   4   8  1   
  8   4  28  1   
  9   5   9  1   
 10   5  10  1   
 11   5  29  1   
 12   6   7  1   
 13   6  30  1   
 14   6  31  1   
 15   7  11  1   
 16   7  12  1   
 17   8  13  1   
 18   8  14  1   
 19   8  32  1   
 20   9  15  1   
 21   9  33  1   
 22   9  34  1   
 23  10  16  1   
 24  10  35  1   
 25  10  36  1   
 26  11  14  1   
 27  12  17  2   
 28  12  37  1   
 29  13  18  2   
 30  13  19  am  
 31  14  17  1   
 32  14  38  1   
 33  15  16  1   
 34  15  39  1   
 35  15  40  1   
 36  16  41  1   
 37  16  42  1   
 38  17  43  1   
 39  19  20  1   
 40  19  44  1   
 41  20  21  1   
 42  20  22  2   
 43  21  23  2   
 44  21  45  1   
 45  22  24  1   
 46  22  46  1   
 47  23  24  1   
 48  24  25  1   
 49  25  26  1   
 50  25  27  1   
 51  25  47  1   
 52  26  48  1   
 53  26  49  1   
 54  26  50  1   
 55  27  51  1   
 56  27  52  1   
 57  27  53  1   
@<TRIPOS>SUBSTRUCTURE
  1 ****  19 GROUP 4 **** **** 0

# MOE 2024.06 (io_trps.svl 2023.06)
