@<TRIPOS>MOLECULE
NONAME
48 50 1 0 0 
SMALL
USER_CHARGES


@<TRIPOS>ATOM
  1 F       -0.7830    -0.0420    -0.9160 F     1 <1>  -0.3400 
  2 C       -1.6760     0.7830    -0.3820 C.3   1 <1>   1.1640 
  3 F       -1.8920     1.7300    -1.2900 F     1 <1>  -0.3400 
  4 F       -1.0720     1.3780     0.6380 F     1 <1>  -0.3400 
  5 C       -2.9640     0.0660     0.0500 C.ar  1 <1>  -0.1440 
  6 C       -4.2040     0.6900    -0.0530 C.ar  1 <1>  -0.1500 
  7 C       -2.9120    -1.2260     0.5640 C.ar  1 <1>  -0.1500 
  8 C       -5.3770     0.0560     0.3390 C.ar  1 <1>   0.1170 
  9 C       -4.0700    -1.8720     0.9570 C.ar  1 <1>  -0.1500 
 10 N       -6.5930     0.7380     0.1920 N.am  1 <1>  -0.5470 
 11 C       -5.2910    -1.2360     0.8430 C.ar  1 <1>  -0.1500 
 12 C       -7.7890     0.6160     0.8450 C.2   1 <1>   0.6900 
 13 O       -7.9260    -0.1790     1.7570 O.2   1 <1>  -0.5700 
 14 N       -8.8410     1.4100     0.4600 N.am  1 <1>  -0.6600 
 15 C      -10.2130     1.1320     1.0000 C.3   1 <1>   0.1400 
 16 C       -8.7080     2.5690    -0.4720 C.3   1 <1>   0.1400 
 17 C      -11.3310     1.4980    -0.0060 C.3   1 <1>   0.0000 
 18 C       -9.8140     3.5970    -0.2250 C.3   1 <1>  -0.1600 
 19 C      -12.6990     1.1230     0.6030 C.3   1 <1>   0.2000 
 20 C      -11.2280     3.0050    -0.3740 C.3   1 <1>  -0.1600 
 21 C      -11.2650     0.5740    -1.2390 C.3   1 <1>  -0.1600 
 22 O      -13.7170     1.7740    -0.1050 O.3   1 <1>  -0.5600 
 23 C      -12.8420    -0.3870     0.3740 C.3   1 <1>  -0.1600 
 24 C      -11.9550    -0.7310    -0.8290 C.3   1 <1>  -0.1600 
 25 C      -14.9040     1.9550     0.6000 C.3   1 <1>   0.0400 
 26 H       -4.2680     1.6920    -0.4400 H     1 <1>   0.1500 
 27 H       -1.9690    -1.7380     0.6640 H     1 <1>   0.1500 
 28 H       -4.0240    -2.8710     1.3540 H     1 <1>   0.1500 
 29 H       -6.6050     1.4690    -0.5070 H     1 <1>   0.3700 
 30 H       -6.1830    -1.7540     1.1470 H     1 <1>   0.1500 
 31 H      -10.2870     0.0900     1.2620 H     1 <1>   0.0800 
 32 H      -10.3420     1.7020     1.9030 H     1 <1>   0.0800 
 33 H       -7.7550     3.0470    -0.3270 H     1 <1>   0.0800 
 34 H       -8.7660     2.2150    -1.4870 H     1 <1>   0.0800 
 35 H       -9.6930     3.9840     0.7720 H     1 <1>   0.0800 
 36 H       -9.7000     4.4230    -0.9040 H     1 <1>   0.0800 
 37 H      -12.7590     1.3970     1.6430 H     1 <1>   0.0800 
 38 H      -11.5770     3.1530    -1.3800 H     1 <1>   0.0800 
 39 H      -11.8830     3.5740     0.2630 H     1 <1>   0.0800 
 40 H      -11.8320     1.0100    -2.0440 H     1 <1>   0.0800 
 41 H      -10.2630     0.3960    -1.5870 H     1 <1>   0.0800 
 42 H      -12.4780    -0.9120     1.2400 H     1 <1>   0.0800 
 43 H      -13.8640    -0.6740     0.2050 H     1 <1>   0.0800 
 44 H      -11.2190    -1.4650    -0.5440 H     1 <1>   0.0800 
 45 H      -12.5390    -1.1210    -1.6450 H     1 <1>   0.0800 
 46 H      -15.6110     2.4320    -0.0550 H     1 <1>   0.0800 
 47 H      -14.7160     2.5860     1.4510 H     1 <1>   0.0800 
 48 H      -15.2880     1.0000     0.9140 H     1 <1>   0.0800 
@<TRIPOS>BOND
  1   1   2  1   
  2   2   3  1   
  3   2   4  1   
  4   2   5  1   
  5   5   6  ar  
  6   5   7  ar  
  7   6   8  ar  
  8   6  26  1   
  9   7   9  ar  
 10   7  27  1   
 11   8  10  1   
 12   8  11  ar  
 13   9  11  ar  
 14   9  28  1   
 15  10  12  am  
 16  10  29  1   
 17  11  30  1   
 18  12  13  2   
 19  12  14  am  
 20  14  15  1   
 21  14  16  1   
 22  15  17  1   
 23  15  31  1   
 24  15  32  1   
 25  16  18  1   
 26  16  33  1   
 27  16  34  1   
 28  17  19  1   
 29  17  20  1   
 30  17  21  1   
 31  18  20  1   
 32  18  35  1   
 33  18  36  1   
 34  19  22  1   
 35  19  23  1   
 36  19  37  1   
 37  20  38  1   
 38  20  39  1   
 39  21  24  1   
 40  21  40  1   
 41  21  41  1   
 42  22  25  1   
 43  23  24  1   
 44  23  42  1   
 45  23  43  1   
 46  24  44  1   
 47  24  45  1   
 48  25  46  1   
 49  25  47  1   
 50  25  48  1   
@<TRIPOS>SUBSTRUCTURE
  1 ****  12 GROUP 4 **** **** 0

# MOE 2024.06 (io_trps.svl 2023.06)
