@<TRIPOS>MOLECULE
NONAME
36 38 1 0 0 
SMALL
USER_CHARGES


@<TRIPOS>ATOM
  1 CL       0.9330     0.7070    -1.1910 Cl    1 <1>  -0.1770 
  2 C        2.0180    -0.3560    -0.3170 C.ar  1 <1>   0.1770 
  3 C        1.9290    -1.7260    -0.5170 C.ar  1 <1>   0.1770 
  4 C        2.9580     0.1680     0.5620 C.ar  1 <1>  -0.1440 
  5 CL       0.7500    -2.3930    -1.6230 Cl    1 <1>  -0.1770 
  6 C        2.7720    -2.5930     0.1530 C.ar  1 <1>  -0.1500 
  7 C        3.8040    -0.7110     1.2280 C.ar  1 <1>  -0.1500 
  8 C        3.0910     1.6650     0.8180 C.3   1 <1>   0.2540 
  9 C        3.7140    -2.0800     1.0280 C.ar  1 <1>  -0.1500 
 10 N        4.4490     2.1260     0.4800 N.3   1 <1>  -0.8100 
 11 C        4.7030     3.4640     1.0620 C.3   1 <1>   0.1100 
 12 C        4.6730     2.0780    -0.9830 C.3   1 <1>   0.1100 
 13 C        6.1720     3.9390     0.9840 C.3   1 <1>   0.2200 
 14 C        6.1440     2.2510    -1.3960 C.3   1 <1>  -0.0190 
 15 N        6.4680     4.4800    -0.3660 N.am  1 <1>  -0.7300 
 16 C        7.1670     2.8290     1.4200 C.3   1 <1>   0.1200 
 17 C        6.5070     3.7210    -1.4800 C.2   1 <1>   0.5690 
 18 C        7.1210     1.4360    -0.5230 C.3   1 <1>   0.1200 
 19 O        7.8650     2.2280     0.3600 O.3   1 <1>  -0.5600 
 20 O        6.7980     4.2120    -2.5430 O.2   1 <1>  -0.5700 
 21 H        2.6900    -3.6530    -0.0120 H     1 <1>   0.1500 
 22 H        4.5450    -0.3200     1.9060 H     1 <1>   0.1500 
 23 H        2.9050     1.8350     1.8650 H     1 <1>   0.0800 
 24 H        2.3670     2.2370     0.2630 H     1 <1>   0.0800 
 25 H        4.3790    -2.7440     1.5540 H     1 <1>   0.1500 
 26 H        4.0670     4.1980     0.5960 H     1 <1>   0.0800 
 27 H        4.4430     3.4270     2.1060 H     1 <1>   0.0800 
 28 H        4.3590     1.1170    -1.3510 H     1 <1>   0.0800 
 29 H        4.0680     2.8220    -1.4740 H     1 <1>   0.0800 
 30 H        6.2670     4.7510     1.6830 H     1 <1>   0.0800 
 31 H        6.2170     1.8630    -2.3950 H     1 <1>   0.0800 
 32 H        6.8400     5.4260    -0.4430 H     1 <1>   0.3700 
 33 H        6.6680     2.0590     1.9820 H     1 <1>   0.0800 
 34 H        7.9110     3.2690     2.0600 H     1 <1>   0.0800 
 35 H        7.8370     0.9520    -1.1640 H     1 <1>   0.0800 
 36 H        6.6090     0.6750     0.0400 H     1 <1>   0.0800 
@<TRIPOS>BOND
  1   1   2  1   
  2   2   3  ar  
  3   2   4  ar  
  4   3   5  1   
  5   3   6  ar  
  6   4   7  ar  
  7   4   8  1   
  8   6   9  ar  
  9   6  21  1   
 10   7   9  ar  
 11   7  22  1   
 12   8  10  1   
 13   8  23  1   
 14   8  24  1   
 15   9  25  1   
 16  10  11  1   
 17  10  12  1   
 18  11  13  1   
 19  11  26  1   
 20  11  27  1   
 21  12  14  1   
 22  12  28  1   
 23  12  29  1   
 24  13  15  1   
 25  13  16  1   
 26  13  30  1   
 27  14  17  1   
 28  14  18  1   
 29  14  31  1   
 30  15  17  am  
 31  15  32  1   
 32  16  19  1   
 33  16  33  1   
 34  16  34  1   
 35  17  20  2   
 36  18  19  1   
 37  18  35  1   
 38  18  36  1   
@<TRIPOS>SUBSTRUCTURE
  1 ****  10 GROUP 4 **** **** 0

# MOE 2024.06 (io_trps.svl 2023.06)
