@<TRIPOS>MOLECULE
NONAME
40 40 1 0 0 
SMALL
USER_CHARGES


@<TRIPOS>ATOM
  1 O        0.0430     0.5050     0.9040 O.2   1 <1>  -0.5700 
  2 C        1.0370     1.0530     0.4600 C.2   1 <1>   0.7800 
  3 O        1.9090     0.3770    -0.2890 O.3   1 <1>  -0.4300 
  4 N        1.3180     2.3700     0.6910 N.am  1 <1>  -0.6600 
  5 C        2.0480    -1.0160    -0.4050 C.3   1 <1>   0.2800 
  6 C        2.6840     2.9440     0.3530 C.3   1 <1>   0.1140 
  7 C        0.5050     3.2000     1.6020 C.3   1 <1>   0.1400 
  8 C        2.2580    -1.6350     0.9810 C.3   1 <1>  -0.2400 
  9 C        3.3120    -1.2140    -1.2420 C.3   1 <1>  -0.2400 
 10 C        0.8440    -1.6110    -1.1430 C.3   1 <1>  -0.2400 
 11 C        3.8680     2.3440     1.1520 C.2   1 <1>   0.9060 
 12 C        2.6710     4.4870     0.4710 C.3   1 <1>  -0.1600 
 13 C        0.1790     4.5460     0.9340 C.3   1 <1>  -0.1600 
 14 O        3.8520     2.3670     2.3930 O.co2 1 <1>  -0.9000 
 15 O        4.8450     1.9020     0.5300 O.co2 1 <1>  -0.9000 
 16 C        1.3270     5.1300     0.0690 C.3   1 <1>   0.0000 
 17 C        1.0480     4.8770    -1.4240 C.3   1 <1>  -0.2400 
 18 C        1.4160     6.6500     0.2810 C.3   1 <1>  -0.2400 
 19 H        2.8800     2.7030    -0.6750 H     1 <1>   0.0800 
 20 H        1.0790     3.3650     2.5000 H     1 <1>   0.0800 
 21 H       -0.4030     2.6930     1.8770 H     1 <1>   0.0800 
 22 H        3.0610    -1.1270     1.4890 H     1 <1>   0.0800 
 23 H        2.5130    -2.6740     0.8890 H     1 <1>   0.0800 
 24 H        1.3670    -1.5630     1.5760 H     1 <1>   0.0800 
 25 H        4.1500    -0.7500    -0.7490 H     1 <1>   0.0800 
 26 H        3.1920    -0.7640    -2.2110 H     1 <1>   0.0800 
 27 H        3.5230    -2.2590    -1.3690 H     1 <1>   0.0800 
 28 H       -0.0460    -1.5400    -0.5450 H     1 <1>   0.0800 
 29 H        1.0180    -2.6510    -1.3490 H     1 <1>   0.0800 
 30 H        0.6880    -1.0960    -2.0730 H     1 <1>   0.0800 
 31 H        3.4740     4.8790    -0.1260 H     1 <1>   0.0800 
 32 H        2.8940     4.7440     1.4930 H     1 <1>   0.0800 
 33 H       -0.0770     5.2300     1.7230 H     1 <1>   0.0800 
 34 H       -0.7060     4.4230     0.3360 H     1 <1>   0.0800 
 35 H        0.9160     3.8260    -1.6140 H     1 <1>   0.0800 
 36 H        1.8670     5.2280    -2.0250 H     1 <1>   0.0800 
 37 H        0.1530     5.3860    -1.7340 H     1 <1>   0.0800 
 38 H        1.6380     6.8730     1.3090 H     1 <1>   0.0800 
 39 H        0.4860     7.1220     0.0210 H     1 <1>   0.0800 
 40 H        2.1950     7.0690    -0.3310 H     1 <1>   0.0800 
@<TRIPOS>BOND
  1   1   2  2   
  2   2   3  1   
  3   2   4  am  
  4   3   5  1   
  5   4   6  1   
  6   4   7  1   
  7   5   8  1   
  8   5   9  1   
  9   5  10  1   
 10   6  11  1   
 11   6  12  1   
 12   6  19  1   
 13   7  13  1   
 14   7  20  1   
 15   7  21  1   
 16   8  22  1   
 17   8  23  1   
 18   8  24  1   
 19   9  25  1   
 20   9  26  1   
 21   9  27  1   
 22  10  28  1   
 23  10  29  1   
 24  10  30  1   
 25  11  14  ar  
 26  11  15  ar  
 27  12  16  1   
 28  12  31  1   
 29  12  32  1   
 30  13  16  1   
 31  13  33  1   
 32  13  34  1   
 33  16  17  1   
 34  16  18  1   
 35  17  35  1   
 36  17  36  1   
 37  17  37  1   
 38  18  38  1   
 39  18  39  1   
 40  18  40  1   
@<TRIPOS>SUBSTRUCTURE
  1 ****   4 GROUP 4 **** **** 0

# MOE 2024.06 (io_trps.svl 2023.06)
