@<TRIPOS>MOLECULE
NONAME
36 38 1 0 0 
SMALL
USER_CHARGES


@<TRIPOS>ATOM
  1 CL      -3.2870     1.5830    -2.0090 Cl    1 <1>  -0.1230 
  2 C       -2.9170     0.9800    -0.4020 C.2   1 <1>   0.1230 
  3 C       -2.9990    -0.3430     0.0490 C.2   1 <1>   0.2030 
  4 C       -2.4940     1.7320     0.6280 C.2   1 <1>  -0.3020 
  5 N       -2.6330    -0.3870     1.3250 N.2   1 <1>  -0.7070 
  6 C       -3.4150    -1.4950    -0.7330 C.2   1 <1>   0.7160 
  7 N       -2.3300     0.8810     1.6590 N.pl3 1 <1>   0.3000 
  8 O       -3.8150    -1.4150    -1.8810 O.2   1 <1>  -0.5700 
  9 N       -3.3740    -2.7310    -0.1570 N.am  1 <1>  -0.7300 
 10 C       -3.8160    -4.0010    -0.7720 C.3   1 <1>   0.2200 
 11 C       -5.1920    -4.3580    -0.2390 C.3   1 <1>  -0.0800 
 12 C       -2.9610    -5.1580    -0.2560 C.3   1 <1>   0.1200 
 13 C       -4.8430    -5.0570     1.0760 C.3   1 <1>   0.1200 
 14 C       -5.9510    -5.2830    -1.2090 C.3   1 <1>  -0.0160 
 15 O       -3.5890    -5.6450     0.8950 O.3   1 <1>  -0.5600 
 16 C       -7.3410    -5.6120    -0.6860 C.ar  1 <1>  -0.1430 
 17 C       -7.6470    -6.8400    -0.1350 C.ar  1 <1>  -0.1500 
 18 C       -8.3690    -4.6920    -0.7340 C.ar  1 <1>  -0.1500 
 19 C       -8.9290    -7.0810     0.3310 C.ar  1 <1>   0.1600 
 20 C       -9.6170    -5.0340    -0.2390 C.ar  1 <1>   0.1600 
 21 N       -9.9210    -6.2060     0.2940 N.ar  1 <1>  -0.6200 
 22 H       -2.3070     2.7880     0.6800 H     1 <1>   0.1500 
 23 H       -2.0100     1.1410     2.6030 H     1 <1>   0.2700 
 24 H       -3.0770    -2.7690     0.8230 H     1 <1>   0.3700 
 25 H       -3.7830    -3.9240    -1.8460 H     1 <1>   0.0800 
 26 H       -5.7850    -3.4770    -0.0640 H     1 <1>   0.0800 
 27 H       -1.9560    -4.8540    -0.0180 H     1 <1>   0.0800 
 28 H       -2.9370    -5.9590    -0.9730 H     1 <1>   0.0800 
 29 H       -5.5520    -5.8140     1.3600 H     1 <1>   0.0800 
 30 H       -4.7510    -4.3380     1.8720 H     1 <1>   0.0800 
 31 H       -5.4000    -6.1940    -1.3660 H     1 <1>   0.0800 
 32 H       -6.0510    -4.7950    -2.1630 H     1 <1>   0.0800 
 33 H       -6.9020    -7.6110    -0.0620 H     1 <1>   0.1500 
 34 H       -8.2120    -3.7140    -1.1510 H     1 <1>   0.1500 
 35 H       -9.1490    -8.0440     0.7580 H     1 <1>   0.1500 
 36 H      -10.4060    -4.3030    -0.2840 H     1 <1>   0.1500 
@<TRIPOS>BOND
  1   1   2  1   
  2   2   3  1   
  3   2   4  2   
  4   3   5  2   
  5   3   6  1   
  6   4   7  1   
  7   4  22  1   
  8   5   7  1   
  9   6   8  2   
 10   6   9  am  
 11   7  23  1   
 12   9  10  1   
 13   9  24  1   
 14  10  11  1   
 15  10  12  1   
 16  10  25  1   
 17  11  13  1   
 18  11  14  1   
 19  11  26  1   
 20  12  15  1   
 21  12  27  1   
 22  12  28  1   
 23  13  15  1   
 24  13  29  1   
 25  13  30  1   
 26  14  16  1   
 27  14  31  1   
 28  14  32  1   
 29  16  17  ar  
 30  16  18  ar  
 31  17  19  ar  
 32  17  33  1   
 33  18  20  ar  
 34  18  34  1   
 35  19  21  ar  
 36  19  35  1   
 37  20  21  ar  
 38  20  36  1   
@<TRIPOS>SUBSTRUCTURE
  1 ****  11 GROUP 4 **** **** 0

# MOE 2024.06 (io_trps.svl 2023.06)
