@<TRIPOS>MOLECULE
NONAME
52 53 1 0 0 
SMALL
USER_CHARGES


@<TRIPOS>ATOM
  1 O        1.8690     1.2220    -1.9030 O.2   1 <1>  -0.5700 
  2 C        2.0090     0.4830    -0.9640 C.2   1 <1>   0.5690 
  3 N        1.0890    -0.4620    -0.7050 N.am  1 <1>  -0.8000 
  4 C        3.2390     0.6310    -0.0730 C.3   1 <1>  -0.0190 
  5 C        3.2460     2.0110     0.6110 C.3   1 <1>  -0.1600 
  6 C        4.5280     0.4290    -0.8930 C.3   1 <1>  -0.1600 
  7 C        4.5370     2.2710     1.3830 C.3   1 <1>   0.3430 
  8 C        5.7860     0.7290    -0.0800 C.3   1 <1>   0.3430 
  9 N        5.7020     2.1110     0.4660 N.4   1 <1>  -0.9590 
 10 C        6.9930     2.5180     1.0890 C.3   1 <1>   0.3430 
 11 C        7.0120     4.0240     1.3220 C.3   1 <1>  -0.1600 
 12 C        8.4280     4.5050     1.6340 C.3   1 <1>   0.2090 
 13 N        8.4430     5.9750     1.5300 N.pl3 1 <1>  -0.8690 
 14 C        8.7090     6.6400     0.3530 C.ar  1 <1>   0.4100 
 15 N        8.6390     5.9550    -0.7750 N.ar  1 <1>  -0.6200 
 16 C        9.0300     7.9750     0.3600 C.ar  1 <1>  -0.1500 
 17 C        8.9000     6.6510    -1.8650 C.ar  1 <1>   0.4700 
 18 C        9.2890     8.5960    -0.8390 C.ar  1 <1>   0.4100 
 19 N        9.2190     7.9240    -1.9750 N.ar  1 <1>  -0.6200 
 20 N        9.6330     9.9350    -0.8980 N.pl3 1 <1>  -0.8380 
 21 C       10.7430    10.4390    -0.0550 C.3   1 <1>   0.2090 
 22 C        9.4020    10.7000    -2.1560 C.3   1 <1>   0.1290 
 23 C       10.1930    11.4740     0.9210 C.3   1 <1>  -0.2400 
 24 H        0.2760    -0.5360    -1.3210 H     1 <1>   0.3700 
 25 H        1.1230    -1.1300     0.0640 H     1 <1>   0.3700 
 26 H        3.1980    -0.1270     0.6900 H     1 <1>   0.0800 
 27 H        2.4110     2.0790     1.2860 H     1 <1>   0.0800 
 28 H        3.1200     2.7860    -0.1270 H     1 <1>   0.0800 
 29 H        4.5150     1.0660    -1.7610 H     1 <1>   0.0800 
 30 H        4.5700    -0.5870    -1.2460 H     1 <1>   0.0800 
 31 H        4.6180     1.5770     2.2050 H     1 <1>   0.0800 
 32 H        4.5120     3.2720     1.7840 H     1 <1>   0.0800 
 33 H        6.6510     0.6330    -0.7170 H     1 <1>   0.0800 
 34 H        5.8760     0.0200     0.7270 H     1 <1>   0.0800 
 35 H        5.5420     2.7420    -0.3350 H     1 <1>   0.4500 
 36 H        7.8020     2.2660     0.4200 H     1 <1>   0.0800 
 37 H        7.1470     1.9930     2.0180 H     1 <1>   0.0800 
 38 H        6.3700     4.2950     2.1400 H     1 <1>   0.0800 
 39 H        6.6760     4.5200     0.4280 H     1 <1>   0.0800 
 40 H        9.1350     4.0940     0.9310 H     1 <1>   0.0800 
 41 H        8.7250     4.2080     2.6260 H     1 <1>   0.0800 
 42 H        8.6830     6.4740     2.3900 H     1 <1>   0.4000 
 43 H        9.0710     8.5280     1.2720 H     1 <1>   0.1500 
 44 H        8.8460     6.1080    -2.7930 H     1 <1>   0.1500 
 45 H       11.5020    10.8820    -0.6780 H     1 <1>   0.0800 
 46 H       11.1940     9.6260     0.4880 H     1 <1>   0.0800 
 47 H        8.4850    10.3770    -2.6180 H     1 <1>   0.0800 
 48 H       10.2150    10.5290    -2.8410 H     1 <1>   0.0800 
 49 H        9.3260    11.7510    -1.9440 H     1 <1>   0.0800 
 50 H        9.7800    12.3090     0.3860 H     1 <1>   0.0800 
 51 H       10.9840    11.8300     1.5550 H     1 <1>   0.0800 
 52 H        9.4290    11.0340     1.5350 H     1 <1>   0.0800 
@<TRIPOS>BOND
  1   1   2  2   
  2   2   3  am  
  3   2   4  1   
  4   3  24  1   
  5   3  25  1   
  6   4   5  1   
  7   4   6  1   
  8   4  26  1   
  9   5   7  1   
 10   5  27  1   
 11   5  28  1   
 12   6   8  1   
 13   6  29  1   
 14   6  30  1   
 15   7   9  1   
 16   7  31  1   
 17   7  32  1   
 18   8   9  1   
 19   8  33  1   
 20   8  34  1   
 21   9  10  1   
 22   9  35  1   
 23  10  11  1   
 24  10  36  1   
 25  10  37  1   
 26  11  12  1   
 27  11  38  1   
 28  11  39  1   
 29  12  13  1   
 30  12  40  1   
 31  12  41  1   
 32  13  14  1   
 33  13  42  1   
 34  14  15  ar  
 35  14  16  ar  
 36  15  17  ar  
 37  16  18  ar  
 38  16  43  1   
 39  17  19  ar  
 40  17  44  1   
 41  18  19  ar  
 42  18  20  1   
 43  20  21  1   
 44  20  22  1   
 45  21  23  1   
 46  21  45  1   
 47  21  46  1   
 48  22  47  1   
 49  22  48  1   
 50  22  49  1   
 51  23  50  1   
 52  23  51  1   
 53  23  52  1   
@<TRIPOS>SUBSTRUCTURE
  1 ****  11 GROUP 4 **** **** 0

# MOE 2024.06 (io_trps.svl 2023.06)
