@<TRIPOS>MOLECULE
NONAME
48 50 1 0 0 
SMALL
USER_CHARGES


@<TRIPOS>ATOM
  1 S       -2.7790     1.5190     0.1280 S.3   1 <1>  -0.0800 
  2 C       -2.8840    -0.2010     0.3050 C.2   1 <1>   0.4420 
  3 C       -1.0580     1.3410     0.1320 C.2   1 <1>   0.1980 
  4 N       -1.7280    -0.7560     0.3630 N.2   1 <1>  -0.3380 
  5 N       -4.1520    -0.7330     0.3560 N.am  1 <1>  -0.4940 
  6 N       -0.6900     0.1300     0.2630 N.2   1 <1>  -0.3380 
  7 C       -0.1990     2.5880     0.0060 C.3   1 <1>   0.3000 
  8 C       -4.5780    -2.0190     0.5350 C.2   1 <1>   0.5690 
  9 O       -0.6290     3.3730    -1.0700 O.3   1 <1>  -0.5600 
 10 O       -3.8280    -2.9420     0.7220 O.2   1 <1>  -0.5700 
 11 C       -6.0890    -2.3150     0.5030 C.3   1 <1>   0.1710 
 12 C        0.1520     4.5020    -1.2990 C.3   1 <1>   0.0400 
 13 N       -7.0220    -1.1840     0.2010 N.3   1 <1>  -0.8100 
 14 C       -7.0920    -0.1880     1.2940 C.3   1 <1>   0.1100 
 15 C       -6.8820    -0.6810    -1.1840 C.3   1 <1>   0.1100 
 16 C       -8.0480     0.9530     0.9550 C.3   1 <1>  -0.1600 
 17 C       -7.8550     0.4600    -1.4630 C.3   1 <1>  -0.1600 
 18 C       -7.7260     1.5590    -0.4080 C.3   1 <1>   0.4180 
 19 O       -6.3880     2.0070    -0.3500 O.3   1 <1>  -0.5600 
 20 C       -8.6710     2.7220    -0.6970 C.2   1 <1>  -0.2880 
 21 C       -5.9900     2.9430    -1.3150 C.3   1 <1>   0.1200 
 22 C       -8.2640     3.9510    -1.0240 C.2   1 <1>  -0.2760 
 23 C       -6.7810     4.2490    -1.1590 C.3   1 <1>  -0.0220 
 24 C       -9.1910     5.1260    -1.2740 C.3   1 <1>  -0.1020 
 25 H       -4.9140    -0.0640     0.2180 H     1 <1>   0.3700 
 26 H        0.8240     2.3010    -0.1620 H     1 <1>   0.0800 
 27 H       -0.2710     3.1700     0.9060 H     1 <1>   0.0800 
 28 H       -6.3560    -2.7330     1.4570 H     1 <1>   0.0800 
 29 H       -6.2470    -3.0890    -0.2270 H     1 <1>   0.0800 
 30 H       -0.2650     5.0330    -2.1360 H     1 <1>   0.0800 
 31 H        1.1590     4.1980    -1.5310 H     1 <1>   0.0800 
 32 H        0.1360     5.1320    -0.4260 H     1 <1>   0.0800 
 33 H       -6.1270     0.2350     1.5020 H     1 <1>   0.0800 
 34 H       -7.4330    -0.6740     2.1920 H     1 <1>   0.0800 
 35 H       -7.0790    -1.4860    -1.8730 H     1 <1>   0.0800 
 36 H       -5.8850    -0.3280    -1.3730 H     1 <1>   0.0800 
 37 H       -7.9840     1.7180     1.7070 H     1 <1>   0.0800 
 38 H       -9.0540     0.5770     0.9570 H     1 <1>   0.0800 
 39 H       -8.8570     0.0720    -1.4540 H     1 <1>   0.0800 
 40 H       -7.6820     0.8640    -2.4420 H     1 <1>   0.0800 
 41 H       -9.7070     2.4510    -0.6010 H     1 <1>   0.1500 
 42 H       -6.1500     2.5200    -2.2900 H     1 <1>   0.0800 
 43 H       -4.9390     3.1290    -1.1860 H     1 <1>   0.0800 
 44 H       -6.6010     4.8620    -2.0240 H     1 <1>   0.0800 
 45 H       -6.4360     4.7820    -0.2910 H     1 <1>   0.0800 
 46 H       -8.9740     5.9220    -0.5840 H     1 <1>   0.0800 
 47 H      -10.2170     4.8320    -1.1440 H     1 <1>   0.0800 
 48 H       -9.0660     5.4920    -2.2780 H     1 <1>   0.0800 
@<TRIPOS>BOND
  1   1   2  1   
  2   1   3  1   
  3   2   4  2   
  4   2   5  1   
  5   3   6  2   
  6   3   7  1   
  7   4   6  1   
  8   5   8  am  
  9   5  25  1   
 10   7   9  1   
 11   7  26  1   
 12   7  27  1   
 13   8  10  2   
 14   8  11  1   
 15   9  12  1   
 16  11  13  1   
 17  11  28  1   
 18  11  29  1   
 19  12  30  1   
 20  12  31  1   
 21  12  32  1   
 22  13  14  1   
 23  13  15  1   
 24  14  16  1   
 25  14  33  1   
 26  14  34  1   
 27  15  17  1   
 28  15  35  1   
 29  15  36  1   
 30  16  18  1   
 31  16  37  1   
 32  16  38  1   
 33  17  18  1   
 34  17  39  1   
 35  17  40  1   
 36  18  19  1   
 37  18  20  1   
 38  19  21  1   
 39  20  22  2   
 40  20  41  1   
 41  21  23  1   
 42  21  42  1   
 43  21  43  1   
 44  22  23  1   
 45  22  24  1   
 46  23  44  1   
 47  23  45  1   
 48  24  46  1   
 49  24  47  1   
 50  24  48  1   
@<TRIPOS>SUBSTRUCTURE
  1 ****  19 GROUP 4 **** **** 0

# MOE 2024.06 (io_trps.svl 2023.06)
