@<TRIPOS>MOLECULE
NONAME
42 44 1 0 0 
SMALL
USER_CHARGES


@<TRIPOS>ATOM
  1 O       -1.1670    -0.4360    -0.0610 O.2   1 <1>  -0.5700 
  2 C       -2.3310    -0.7390    -0.1180 C.2   1 <1>   0.4230 
  3 C       -3.4010     0.2120     0.0660 C.ar  1 <1>   0.0860 
  4 C       -2.6310    -2.1990    -0.3990 C.3   1 <1>  -0.1790 
  5 C       -4.7530    -0.1360     0.0140 C.ar  1 <1>   0.1600 
  6 C       -3.1310     1.5550     0.3150 C.ar  1 <1>  -0.1500 
  7 N       -5.7780     0.6790     0.1690 N.ar  1 <1>  -0.6200 
  8 C       -4.1850     2.4190     0.4780 C.ar  1 <1>  -0.1500 
  9 C       -5.5000     1.9620     0.3890 C.ar  1 <1>   0.4100 
 10 N       -6.5690     2.8240     0.5310 N.pl3 1 <1>  -0.8380 
 11 C       -7.8720     2.3770     1.1160 C.3   1 <1>   0.2090 
 12 C       -6.5460     4.2300     0.0490 C.3   1 <1>   0.2090 
 13 C       -9.0580     2.5900     0.1410 C.3   1 <1>   0.0000 
 14 C       -7.6980     4.4650    -0.9320 C.3   1 <1>  -0.1600 
 15 C      -10.3580     2.1730     0.8610 C.3   1 <1>   0.2000 
 16 C       -9.0570     4.0620    -0.3390 C.3   1 <1>  -0.1600 
 17 C       -8.9840     1.5910    -1.0320 C.3   1 <1>  -0.1600 
 18 O      -11.4640     2.6670     0.1910 O.3   1 <1>  -0.6800 
 19 C      -10.4090     0.6500     0.7420 C.3   1 <1>  -0.1600 
 20 C       -9.6450     0.2950    -0.5420 C.3   1 <1>  -0.1600 
 21 H       -3.1990    -2.2930    -1.3060 H     1 <1>   0.0800 
 22 H       -3.1770    -2.6290     0.4200 H     1 <1>   0.0800 
 23 H       -1.7110    -2.7440    -0.5170 H     1 <1>   0.0800 
 24 H       -5.0120    -1.1630    -0.1680 H     1 <1>   0.1500 
 25 H       -2.1120     1.8990     0.3790 H     1 <1>   0.1500 
 26 H       -4.0010     3.4540     0.6860 H     1 <1>   0.1500 
 27 H       -7.8120     1.3430     1.4070 H     1 <1>   0.0800 
 28 H       -8.0470     2.9480     2.0100 H     1 <1>   0.0800 
 29 H       -6.6430     4.8920     0.8920 H     1 <1>   0.0800 
 30 H       -5.6180     4.4440    -0.4500 H     1 <1>   0.0800 
 31 H       -7.7200     5.5040    -1.2050 H     1 <1>   0.0800 
 32 H       -7.5070     3.8990    -1.8270 H     1 <1>   0.0800 
 33 H      -10.4080     2.5150     1.8810 H     1 <1>   0.0800 
 34 H       -9.8230     4.2200    -1.0780 H     1 <1>   0.0800 
 35 H       -9.2800     4.7020     0.4980 H     1 <1>   0.0800 
 36 H       -9.5410     1.9710    -1.8700 H     1 <1>   0.0800 
 37 H       -7.9720     1.4190    -1.3550 H     1 <1>   0.0800 
 38 H      -11.4380     2.3420    -0.7290 H     1 <1>   0.4000 
 39 H       -9.8950     0.2190     1.5820 H     1 <1>   0.0800 
 40 H      -11.4190     0.2770     0.7380 H     1 <1>   0.0800 
 41 H       -8.8910    -0.4440    -0.3270 H     1 <1>   0.0800 
 42 H      -10.3100    -0.0950    -1.2930 H     1 <1>   0.0800 
@<TRIPOS>BOND
  1   1   2  2   
  2   2   3  1   
  3   2   4  1   
  4   3   5  ar  
  5   3   6  ar  
  6   4  21  1   
  7   4  22  1   
  8   4  23  1   
  9   5   7  ar  
 10   5  24  1   
 11   6   8  ar  
 12   6  25  1   
 13   7   9  ar  
 14   8   9  ar  
 15   8  26  1   
 16   9  10  1   
 17  10  11  1   
 18  10  12  1   
 19  11  13  1   
 20  11  27  1   
 21  11  28  1   
 22  12  14  1   
 23  12  29  1   
 24  12  30  1   
 25  13  15  1   
 26  13  16  1   
 27  13  17  1   
 28  14  16  1   
 29  14  31  1   
 30  14  32  1   
 31  15  18  1   
 32  15  19  1   
 33  15  33  1   
 34  16  34  1   
 35  16  35  1   
 36  17  20  1   
 37  17  36  1   
 38  17  37  1   
 39  18  38  1   
 40  19  20  1   
 41  19  39  1   
 42  19  40  1   
 43  20  41  1   
 44  20  42  1   
@<TRIPOS>SUBSTRUCTURE
  1 ****   9 GROUP 4 **** **** 0

# MOE 2024.06 (io_trps.svl 2023.06)
