@<TRIPOS>MOLECULE
NONAME
47 50 1 0 0 
SMALL
USER_CHARGES


@<TRIPOS>ATOM
  1 O       -0.7120     0.4110    -0.7380 O.2   1 <1>  -0.5700 
  2 C       -1.6290     1.0190    -0.2060 C.2   1 <1>   0.7160 
  3 N       -2.7310     0.2740     0.1840 N.am  1 <1>  -0.6600 
  4 C       -1.5140     2.4680    -0.0260 C.2   1 <1>   0.2030 
  5 C       -2.6790    -1.2160     0.3390 C.3   1 <1>   0.1400 
  6 C       -4.1000     0.8400     0.3970 C.3   1 <1>   0.1400 
  7 N       -2.2630     3.2590     0.7270 N.2   1 <1>  -0.7070 
  8 C       -0.5240     3.2310    -0.6590 C.2   1 <1>  -0.1500 
  9 C       -3.8180    -1.9000    -0.4370 C.3   1 <1>   0.3440 
 10 C       -5.1720     0.0200    -0.3500 C.3   1 <1>   0.2950 
 11 N       -1.7640     4.4900     0.5800 N.pl3 1 <1>   0.3140 
 12 C       -0.7080     4.5030    -0.2590 C.2   1 <1>  -0.3320 
 13 O       -5.0510    -1.3430    -0.0650 O.3   1 <1>  -0.5600 
 14 C       -3.8300    -3.4020    -0.1630 C.ar  1 <1>  -0.1430 
 15 C       -6.5870     0.4490     0.0510 C.3   1 <1>  -0.1950 
 16 C       -2.3430     5.6410     1.2850 C.3   1 <1>   0.0160 
 17 C        0.0900     5.7380    -0.6420 C.3   1 <1>  -0.0600 
 18 C       -4.5430    -3.9410     0.8990 C.ar  1 <1>  -0.1500 
 19 C       -3.1010    -4.2510    -0.9840 C.ar  1 <1>  -0.1500 
 20 C       -7.7590     0.1870    -0.8420 C.3   1 <1>  -0.2000 
 21 C       -7.2710     1.5930    -0.6310 C.3   1 <1>  -0.2000 
 22 C       -4.5280    -5.3050     1.1370 C.ar  1 <1>  -0.1500 
 23 C       -3.0840    -5.6150    -0.7480 C.ar  1 <1>  -0.1500 
 24 C       -3.7980    -6.1430     0.3140 C.ar  1 <1>  -0.1500 
 25 H       -1.7380    -1.6060    -0.0070 H     1 <1>   0.0800 
 26 H       -2.7700    -1.4640     1.3810 H     1 <1>   0.0800 
 27 H       -4.3180     0.8480     1.4500 H     1 <1>   0.0800 
 28 H       -4.1550     1.8510     0.0390 H     1 <1>   0.0800 
 29 H        0.2210     2.8330    -1.3260 H     1 <1>   0.1500 
 30 H       -3.6850    -1.7360    -1.4920 H     1 <1>   0.0800 
 31 H       -5.0480     0.1500    -1.4120 H     1 <1>   0.0800 
 32 H       -6.7500     0.3470     1.1100 H     1 <1>   0.1000 
 33 H       -1.5980     6.0700     1.9270 H     1 <1>   0.0800 
 34 H       -3.1780     5.3100     1.8730 H     1 <1>   0.0800 
 35 H       -2.6720     6.3660     0.5650 H     1 <1>   0.0800 
 36 H        0.8790     5.4720    -1.3220 H     1 <1>   0.0800 
 37 H        0.5300     6.1840     0.2330 H     1 <1>   0.0800 
 38 H       -0.5460     6.4590    -1.1230 H     1 <1>   0.0800 
 39 H       -5.1170    -3.2970     1.5440 H     1 <1>   0.1500 
 40 H       -2.5400    -3.8560    -1.8130 H     1 <1>   0.1500 
 41 H       -7.5860    -0.2940    -1.7900 H     1 <1>   0.1000 
 42 H       -8.6850    -0.1210    -0.3890 H     1 <1>   0.1000 
 43 H       -7.8720     2.2630    -0.0400 H     1 <1>   0.1000 
 44 H       -6.7840     2.0920    -1.4510 H     1 <1>   0.1000 
 45 H       -5.0860    -5.7110     1.9620 H     1 <1>   0.1500 
 46 H       -2.5170    -6.2660    -1.3890 H     1 <1>   0.1500 
 47 H       -3.7860    -7.2030     0.4980 H     1 <1>   0.1500 
@<TRIPOS>BOND
  1   1   2  2   
  2   2   3  am  
  3   2   4  1   
  4   3   5  1   
  5   3   6  1   
  6   4   7  2   
  7   4   8  1   
  8   5   9  1   
  9   5  25  1   
 10   5  26  1   
 11   6  10  1   
 12   6  27  1   
 13   6  28  1   
 14   7  11  1   
 15   8  12  2   
 16   8  29  1   
 17   9  13  1   
 18   9  14  1   
 19   9  30  1   
 20  10  13  1   
 21  10  15  1   
 22  10  31  1   
 23  11  12  1   
 24  11  16  1   
 25  12  17  1   
 26  14  18  ar  
 27  14  19  ar  
 28  15  20  1   
 29  15  21  1   
 30  15  32  1   
 31  16  33  1   
 32  16  34  1   
 33  16  35  1   
 34  17  36  1   
 35  17  37  1   
 36  17  38  1   
 37  18  22  ar  
 38  18  39  1   
 39  19  23  ar  
 40  19  40  1   
 41  20  21  1   
 42  20  41  1   
 43  20  42  1   
 44  21  43  1   
 45  21  44  1   
 46  22  24  ar  
 47  22  45  1   
 48  23  24  ar  
 49  23  46  1   
 50  24  47  1   
@<TRIPOS>SUBSTRUCTURE
  1 ****   3 GROUP 4 **** **** 0

# MOE 2024.06 (io_trps.svl 2023.06)
