@<TRIPOS>MOLECULE
NONAME
51 54 1 0 0 
SMALL
USER_CHARGES


@<TRIPOS>ATOM
  1 S        0.5360     0.0000    -0.2180 S.3   1 <1>  -0.0800 
  2 C       -0.0290    -1.6180    -0.5650 C.ar  1 <1>   0.0400 
  3 C        1.3280    -0.6090     1.2320 C.2   1 <1>   0.1980 
  4 C        0.4290    -2.4560     0.4320 C.ar  1 <1>   0.2270 
  5 C       -0.7960    -2.0560    -1.6270 C.ar  1 <1>  -0.1500 
  6 N        1.1900    -1.8550     1.4310 N.2   1 <1>  -0.5650 
  7 C        2.0780     0.3960     2.0750 C.3   1 <1>  -0.0600 
  8 C        0.1030    -3.8000     0.3660 C.ar  1 <1>  -0.1500 
  9 C       -1.1130    -3.4020    -1.6700 C.ar  1 <1>  -0.1500 
 10 C       -0.6800    -4.2960    -0.6770 C.ar  1 <1>   0.0860 
 11 C       -1.0380    -5.7020    -0.7270 C.2   1 <1>   0.5440 
 12 O       -0.2490    -6.5560    -0.3630 O.2   1 <1>  -0.5700 
 13 N       -2.2830    -6.1280    -1.1390 N.am  1 <1>  -0.6600 
 14 C       -2.4800    -7.5610    -1.4740 C.3   1 <1>   0.1400 
 15 C       -3.5140    -5.4630    -0.6310 C.3   1 <1>   0.1400 
 16 C       -2.8790    -8.3140    -0.1850 C.3   1 <1>   0.4230 
 17 C       -3.9510    -6.1870     0.6510 C.3   1 <1>  -0.1600 
 18 N       -2.8960    -9.8290    -0.3310 N.4   1 <1>  -0.9590 
 19 C       -4.1680    -7.7190     0.4620 C.3   1 <1>   0.0000 
 20 C       -3.6550   -10.5380     0.7490 C.3   1 <1>   0.3430 
 21 C       -3.3100   -10.3460    -1.6770 C.3   1 <1>   0.2630 
 22 C       -4.3870    -8.3680     1.8610 C.3   1 <1>  -0.1600 
 23 C       -5.3970    -7.9810    -0.4540 C.3   1 <1>   0.1200 
 24 C       -3.6680    -9.7200     2.0390 C.3   1 <1>  -0.1600 
 25 O       -6.5150    -7.2880    -0.0220 O.3   1 <1>  -0.6800 
 26 H       -1.1270    -1.3680    -2.3850 H     1 <1>   0.1500 
 27 H        2.5130    -0.0980     2.9250 H     1 <1>   0.0800 
 28 H        1.4040     1.1570     2.4200 H     1 <1>   0.0800 
 29 H        2.8600     0.8480     1.4940 H     1 <1>   0.0800 
 30 H        0.4660    -4.4570     1.1350 H     1 <1>   0.1500 
 31 H       -1.7040    -3.7770    -2.4880 H     1 <1>   0.1500 
 32 H       -3.2330    -7.6400    -2.2360 H     1 <1>   0.0800 
 33 H       -1.5600    -7.9640    -1.8620 H     1 <1>   0.0800 
 34 H       -3.3240    -4.4260    -0.4100 H     1 <1>   0.0800 
 35 H       -4.2890    -5.5050    -1.3780 H     1 <1>   0.0800 
 36 H       -2.0880    -8.0920     0.5130 H     1 <1>   0.0800 
 37 H       -3.1860    -6.0160     1.3890 H     1 <1>   0.0800 
 38 H       -4.8440    -5.7180     1.0250 H     1 <1>   0.0800 
 39 H       -1.9070   -10.0950    -0.2030 H     1 <1>   0.4500 
 40 H       -4.6740   -10.6960     0.4350 H     1 <1>   0.0800 
 41 H       -3.2120   -11.5040     0.9340 H     1 <1>   0.0800 
 42 H       -4.3240   -10.0580    -1.8970 H     1 <1>   0.0800 
 43 H       -3.2470   -11.4220    -1.6970 H     1 <1>   0.0800 
 44 H       -2.6640    -9.9570    -2.4470 H     1 <1>   0.0800 
 45 H       -4.0340    -7.7150     2.6430 H     1 <1>   0.0800 
 46 H       -5.4380    -8.5060     2.0450 H     1 <1>   0.0800 
 47 H       -5.6560    -9.0240    -0.4800 H     1 <1>   0.0800 
 48 H       -5.2140    -7.6530    -1.4610 H     1 <1>   0.0800 
 49 H       -4.1640   -10.2830     2.8110 H     1 <1>   0.0800 
 50 H       -2.6550    -9.5610     2.3670 H     1 <1>   0.0800 
 51 H       -6.8140    -7.5790     0.8620 H     1 <1>   0.4000 
@<TRIPOS>BOND
  1   1   2  1   
  2   1   3  1   
  3   2   4  ar  
  4   2   5  ar  
  5   3   6  2   
  6   3   7  1   
  7   4   6  1   
  8   4   8  ar  
  9   5   9  ar  
 10   5  26  1   
 11   7  27  1   
 12   7  28  1   
 13   7  29  1   
 14   8  10  ar  
 15   8  30  1   
 16   9  10  ar  
 17   9  31  1   
 18  10  11  1   
 19  11  12  2   
 20  11  13  am  
 21  13  14  1   
 22  13  15  1   
 23  14  16  1   
 24  14  32  1   
 25  14  33  1   
 26  15  17  1   
 27  15  34  1   
 28  15  35  1   
 29  16  18  1   
 30  16  19  1   
 31  16  36  1   
 32  17  19  1   
 33  17  37  1   
 34  17  38  1   
 35  18  20  1   
 36  18  21  1   
 37  18  39  1   
 38  19  22  1   
 39  19  23  1   
 40  20  24  1   
 41  20  40  1   
 42  20  41  1   
 43  21  42  1   
 44  21  43  1   
 45  21  44  1   
 46  22  24  1   
 47  22  45  1   
 48  22  46  1   
 49  23  25  1   
 50  23  47  1   
 51  23  48  1   
 52  24  49  1   
 53  24  50  1   
 54  25  51  1   
@<TRIPOS>SUBSTRUCTURE
  1 ****  11 GROUP 4 **** **** 0

# MOE 2024.06 (io_trps.svl 2023.06)
