@<TRIPOS>MOLECULE
NONAME
53 56 1 0 0 
SMALL
USER_CHARGES


@<TRIPOS>ATOM
  1 O        0.6010     0.0270    -0.1980 O.3   1 <1>  -0.6800 
  2 C        1.8500    -0.2000    -0.7600 C.3   1 <1>   0.2000 
  3 C        2.5350    -1.3850    -0.0840 C.3   1 <1>  -0.0800 
  4 C        2.7910     0.9780    -0.5170 C.3   1 <1>   0.2090 
  5 C        4.0270    -1.1070    -0.2830 C.3   1 <1>   0.2090 
  6 C        2.0830    -2.7510    -0.6310 C.3   1 <1>  -0.0170 
  7 N        4.1500     0.3700    -0.4030 N.pl3 1 <1>  -0.8380 
  8 C        2.7910    -3.9080     0.0600 C.ar  1 <1>   0.1660 
  9 C        5.2960     1.0950    -0.3940 C.ar  1 <1>   0.4100 
 10 N        4.0150    -4.1910    -0.3600 N.ar  1 <1>  -0.6200 
 11 C        2.1440    -4.6130     1.0740 C.ar  1 <1>   0.1600 
 12 N        5.1870     2.4090    -0.4450 N.ar  1 <1>  -0.6200 
 13 C        6.5550     0.4690    -0.3340 C.ar  1 <1>  -0.1500 
 14 C        4.5350    -5.2210     0.2870 C.ar  1 <1>   0.1600 
 15 N        2.6670    -5.6380     1.7260 N.ar  1 <1>  -0.6200 
 16 C        6.2900     3.1420    -0.4310 C.ar  1 <1>   0.7710 
 17 C        7.6740     1.2310    -0.3150 C.ar  1 <1>   0.2180 
 18 C        3.8840    -5.9200     1.2960 C.ar  1 <1>   0.1600 
 19 N        7.5060     2.5730    -0.3620 N.ar  1 <1>  -0.1790 
 20 N        6.2000     4.5000    -0.4790 N.pl3 1 <1>  -0.8380 
 21 C        9.0810     0.6640    -0.2450 C.3   1 <1>  -0.0970 
 22 C        7.3200     5.4780    -0.6430 C.3   1 <1>   0.2090 
 23 C        4.8810     5.2050    -0.3450 C.3   1 <1>   0.2090 
 24 C        7.4100     6.3510     0.6120 C.3   1 <1>  -0.1600 
 25 C        4.9130     6.0910     0.9040 C.3   1 <1>  -0.1600 
 26 C        6.0860     7.0820     0.8770 C.3   1 <1>  -0.1600 
 27 H       -0.0300    -0.6710    -0.4540 H     1 <1>   0.4000 
 28 H        1.7350    -0.3560    -1.8200 H     1 <1>   0.0800 
 29 H        2.3430    -1.3390     0.9750 H     1 <1>   0.0800 
 30 H        2.5460     1.4700     0.4080 H     1 <1>   0.0800 
 31 H        2.7510     1.6780    -1.3330 H     1 <1>   0.0800 
 32 H        4.3780    -1.5640    -1.1930 H     1 <1>   0.0800 
 33 H        4.5970    -1.4800     0.5510 H     1 <1>   0.0800 
 34 H        2.2810    -2.8060    -1.6870 H     1 <1>   0.0800 
 35 H        1.0210    -2.8530    -0.4960 H     1 <1>   0.0800 
 36 H        1.1510    -4.3170     1.3620 H     1 <1>   0.1500 
 37 H        6.6050    -0.6030    -0.3040 H     1 <1>   0.1500 
 38 H        5.5260    -5.5310     0.0060 H     1 <1>   0.1500 
 39 H        4.3910    -6.7460     1.7640 H     1 <1>   0.1500 
 40 H        8.2820     3.2170    -0.3220 H     1 <1>   0.4570 
 41 H        9.0500    -0.4120    -0.2120 H     1 <1>   0.0800 
 42 H        9.5830     1.0120     0.6410 H     1 <1>   0.0800 
 43 H        9.6480     0.9560    -1.1110 H     1 <1>   0.0800 
 44 H        8.2620     4.9920    -0.8180 H     1 <1>   0.0800 
 45 H        7.1160     6.1040    -1.4970 H     1 <1>   0.0800 
 46 H        4.7110     5.8120    -1.2190 H     1 <1>   0.0800 
 47 H        4.0560     4.5180    -0.2640 H     1 <1>   0.0800 
 48 H        7.6610     5.7380     1.4600 H     1 <1>   0.0800 
 49 H        8.1950     7.0770     0.4870 H     1 <1>   0.0800 
 50 H        3.9860     6.6340     0.9760 H     1 <1>   0.0800 
 51 H        4.9860     5.4610     1.7740 H     1 <1>   0.0800 
 52 H        5.9170     7.8080     0.1000 H     1 <1>   0.0800 
 53 H        6.1390     7.6100     1.8140 H     1 <1>   0.0800 
@<TRIPOS>BOND
  1   1   2  1   
  2   1  27  1   
  3   2   3  1   
  4   2   4  1   
  5   2  28  1   
  6   3   5  1   
  7   3   6  1   
  8   3  29  1   
  9   4   7  1   
 10   4  30  1   
 11   4  31  1   
 12   5   7  1   
 13   5  32  1   
 14   5  33  1   
 15   6   8  1   
 16   6  34  1   
 17   6  35  1   
 18   7   9  1   
 19   8  10  ar  
 20   8  11  ar  
 21   9  12  ar  
 22   9  13  ar  
 23  10  14  ar  
 24  11  15  ar  
 25  11  36  1   
 26  12  16  ar  
 27  13  17  ar  
 28  13  37  1   
 29  14  18  ar  
 30  14  38  1   
 31  15  18  ar  
 32  16  19  ar  
 33  16  20  1   
 34  17  19  ar  
 35  17  21  1   
 36  18  39  1   
 37  19  40  1   
 38  20  22  1   
 39  20  23  1   
 40  21  41  1   
 41  21  42  1   
 42  21  43  1   
 43  22  24  1   
 44  22  44  1   
 45  22  45  1   
 46  23  25  1   
 47  23  46  1   
 48  23  47  1   
 49  24  26  1   
 50  24  48  1   
 51  24  49  1   
 52  25  26  1   
 53  25  50  1   
 54  25  51  1   
 55  26  52  1   
 56  26  53  1   
@<TRIPOS>SUBSTRUCTURE
  1 ****   7 GROUP 4 **** **** 0

# MOE 2024.06 (io_trps.svl 2023.06)
