@<TRIPOS>MOLECULE
NONAME
61 64 1 0 0 
SMALL
USER_CHARGES


@<TRIPOS>ATOM
  1 O       -1.3950    -0.5040     0.1610 O.2   1 <1>  -0.5700 
  2 C       -2.1210     0.4510     0.3750 C.2   1 <1>   0.7160 
  3 N       -3.3650     0.1950     0.8660 N.am  1 <1>  -0.7300 
  4 C       -1.7030     1.8000     0.1350 C.2   1 <1>  -0.0860 
  5 C       -3.7910    -1.0620     1.4770 C.3   1 <1>   0.2200 
  6 C       -2.3970     2.9560     0.5180 C.2   1 <1>   0.3720 
  7 C       -0.5830     2.3000    -0.4590 C.2   1 <1>   0.0870 
  8 C       -4.1770    -2.0430     0.3650 C.3   1 <1>  -0.1600 
  9 C       -4.9490    -0.7600     2.4250 C.3   1 <1>  -0.2400 
 10 N       -1.7530     4.0200     0.1950 N.2   1 <1>  -0.4100 
 11 N       -3.6310     2.9890     1.1830 N.pl3 1 <1>  -0.8210 
 12 O       -0.6630     3.6050    -0.3890 O.3   1 <1>  -0.0190 
 13 C        0.5630     1.7000    -1.0940 C.ar  1 <1>   0.0530 
 14 C       -4.1740    -3.4750     0.8930 C.3   1 <1>   0.3430 
 15 C       -3.5120     3.4960     2.5860 C.3   1 <1>   0.2090 
 16 C       -4.6670     3.7920     0.4600 C.3   1 <1>   0.2090 
 17 C        1.8450     2.1900    -0.8470 C.ar  1 <1>  -0.1500 
 18 C        0.4420     0.6340    -1.9840 C.ar  1 <1>  -0.1500 
 19 N       -4.3100    -4.4440    -0.2270 N.4   1 <1>  -0.9590 
 20 C       -4.8840     3.5060     3.2850 C.3   1 <1>   0.1200 
 21 C       -5.9990     3.7900     1.2320 C.3   1 <1>   0.1200 
 22 C        2.9580     1.6370    -1.4540 C.ar  1 <1>  -0.1500 
 23 C        1.5490     0.0760    -2.5950 C.ar  1 <1>  -0.1500 
 24 C       -4.7260    -5.8100     0.2370 C.3   1 <1>   0.3430 
 25 C       -3.0770    -4.5450    -1.0890 C.3   1 <1>   0.3430 
 26 O       -5.8180     4.2430     2.5460 O.3   1 <1>  -0.5600 
 27 C        2.8120     0.5770    -2.3310 C.ar  1 <1>  -0.1500 
 28 C       -4.8610    -6.7950    -0.9480 C.3   1 <1>   0.1200 
 29 C       -3.2340    -5.6250    -2.1850 C.3   1 <1>   0.1200 
 30 O       -4.5200    -6.1850    -2.1640 O.3   1 <1>  -0.5600 
 31 H       -3.8940     1.0430     1.1220 H     1 <1>   0.3700 
 32 H       -2.9590    -1.4570     2.0400 H     1 <1>   0.0800 
 33 H       -3.4530    -1.9560    -0.4240 H     1 <1>   0.0800 
 34 H       -5.1460    -1.7900    -0.0270 H     1 <1>   0.0800 
 35 H       -5.7810    -0.3360     1.8900 H     1 <1>   0.0800 
 36 H       -4.6290    -0.0660     3.1830 H     1 <1>   0.0800 
 37 H       -5.2790    -1.6560     2.9180 H     1 <1>   0.0800 
 38 H       -4.9930    -3.5940     1.5840 H     1 <1>   0.0800 
 39 H       -3.2540    -3.6640     1.4240 H     1 <1>   0.0800 
 40 H       -3.1100     4.4960     2.5810 H     1 <1>   0.0800 
 41 H       -2.8330     2.8680     3.1380 H     1 <1>   0.0800 
 42 H       -4.8200     3.3790    -0.5220 H     1 <1>   0.0800 
 43 H       -4.3300     4.8090     0.3440 H     1 <1>   0.0800 
 44 H        1.9690     3.0150    -0.1680 H     1 <1>   0.1500 
 45 H       -0.5340     0.2390    -2.2010 H     1 <1>   0.1500 
 46 H       -5.0600    -4.1370    -0.8660 H     1 <1>   0.4500 
 47 H       -4.8010     3.9630     4.2540 H     1 <1>   0.0800 
 48 H       -5.2550     2.5040     3.4040 H     1 <1>   0.0800 
 49 H       -6.4150     2.7990     1.2650 H     1 <1>   0.0800 
 50 H       -6.7040     4.4470     0.7550 H     1 <1>   0.0800 
 51 H        3.9370     2.0300    -1.2460 H     1 <1>   0.1500 
 52 H        1.4320    -0.7470    -3.2780 H     1 <1>   0.1500 
 53 H       -5.6690    -5.7540     0.7540 H     1 <1>   0.0800 
 54 H       -3.9980    -6.1990     0.9300 H     1 <1>   0.0800 
 55 H       -2.2200    -4.7850    -0.4830 H     1 <1>   0.0800 
 56 H       -2.8780    -3.5990    -1.5640 H     1 <1>   0.0800 
 57 H        3.6760     0.1450    -2.8050 H     1 <1>   0.1500 
 58 H       -5.8770    -7.1400    -1.0300 H     1 <1>   0.0800 
 59 H       -4.2270    -7.6540    -0.8040 H     1 <1>   0.0800 
 60 H       -2.5130    -6.4130    -2.0510 H     1 <1>   0.0800 
 61 H       -3.0800    -5.1910    -3.1580 H     1 <1>   0.0800 
@<TRIPOS>BOND
  1   1   2  2   
  2   2   3  am  
  3   2   4  1   
  4   3   5  1   
  5   3  31  1   
  6   4   6  1   
  7   4   7  2   
  8   5   8  1   
  9   5   9  1   
 10   5  32  1   
 11   6  10  2   
 12   6  11  1   
 13   7  12  1   
 14   7  13  1   
 15   8  14  1   
 16   8  33  1   
 17   8  34  1   
 18   9  35  1   
 19   9  36  1   
 20   9  37  1   
 21  10  12  1   
 22  11  15  1   
 23  11  16  1   
 24  13  17  ar  
 25  13  18  ar  
 26  14  19  1   
 27  14  38  1   
 28  14  39  1   
 29  15  20  1   
 30  15  40  1   
 31  15  41  1   
 32  16  21  1   
 33  16  42  1   
 34  16  43  1   
 35  17  22  ar  
 36  17  44  1   
 37  18  23  ar  
 38  18  45  1   
 39  19  24  1   
 40  19  25  1   
 41  19  46  1   
 42  20  26  1   
 43  20  47  1   
 44  20  48  1   
 45  21  26  1   
 46  21  49  1   
 47  21  50  1   
 48  22  27  ar  
 49  22  51  1   
 50  23  27  ar  
 51  23  52  1   
 52  24  28  1   
 53  24  53  1   
 54  24  54  1   
 55  25  29  1   
 56  25  55  1   
 57  25  56  1   
 58  27  57  1   
 59  28  30  1   
 60  28  58  1   
 61  28  59  1   
 62  29  30  1   
 63  29  60  1   
 64  29  61  1   
@<TRIPOS>SUBSTRUCTURE
  1 ****   2 GROUP 4 **** **** 0

# MOE 2024.06 (io_trps.svl 2023.06)
