@<TRIPOS>MOLECULE
NONAME
45 46 1 0 0 
SMALL
USER_CHARGES


@<TRIPOS>ATOM
  1 S        0.5360     0.9220    -0.4960 S.o2  1 <1>   1.3330 
  2 O        0.5060    -0.4420    -0.9740 O.2   1 <1>  -0.6500 
  3 O       -0.5290     1.8310    -0.8550 O.2   1 <1>  -0.6500 
  4 N        0.6020     0.8760     1.2020 N.am  1 <1>  -0.8490 
  5 C        2.1100     1.6420    -0.9670 C.3   1 <1>  -0.0550 
  6 C       -0.2670    -0.1660     1.7580 C.3   1 <1>   0.1160 
  7 C        0.2930     2.1650     1.8310 C.3   1 <1>   0.1160 
  8 C        3.3320     0.7360    -0.6980 C.3   1 <1>  -0.0800 
  9 C        4.6510     1.2680    -1.2370 C.3   1 <1>   0.2200 
 10 C        3.6470     0.4870     0.7820 C.3   1 <1>   0.1200 
 11 N        4.7820     2.7190    -0.9700 N.am  1 <1>  -0.7300 
 12 C        5.6380     0.5120    -0.3580 C.3   1 <1>   0.1200 
 13 O        5.0410     0.4640     0.9020 O.3   1 <1>  -0.5600 
 14 C        4.5950     3.7140    -1.8750 C.2   1 <1>   0.5690 
 15 O        4.2780     3.4750    -3.0140 O.2   1 <1>  -0.5700 
 16 C        4.7690     5.1670    -1.4500 C.3   1 <1>   0.1810 
 17 O        4.7540     5.2970    -0.0330 O.3   1 <1>  -0.3630 
 18 C        4.8890     6.5070     0.5630 C.ar  1 <1>   0.0820 
 19 C        4.9090     6.5190     1.9480 C.ar  1 <1>  -0.1500 
 20 C        5.0060     7.7090    -0.1380 C.ar  1 <1>  -0.1500 
 21 C        5.0440     7.7260     2.6020 C.ar  1 <1>   0.1900 
 22 C        5.1410     8.9110     0.5420 C.ar  1 <1>  -0.1500 
 23 F        5.0620     7.7370     3.9080 F     1 <1>  -0.1900 
 24 C        5.1600     8.9270     1.9270 C.ar  1 <1>  -0.1500 
 25 H        2.0810     1.8510    -2.0190 H     1 <1>   0.0800 
 26 H        2.2330     2.5790    -0.4620 H     1 <1>   0.0800 
 27 H       -0.1940    -0.1800     2.8320 H     1 <1>   0.0800 
 28 H        0.0330    -1.1330     1.3880 H     1 <1>   0.0800 
 29 H       -1.2910     0.0100     1.4730 H     1 <1>   0.0800 
 30 H        0.4330     2.1000     2.8960 H     1 <1>   0.0800 
 31 H       -0.7280     2.4490     1.6290 H     1 <1>   0.0800 
 32 H        0.9450     2.9320     1.4500 H     1 <1>   0.0800 
 33 H        3.1520    -0.2210    -1.1560 H     1 <1>   0.0800 
 34 H        4.7900     1.0590    -2.2850 H     1 <1>   0.0800 
 35 H        3.2480    -0.4530     1.1240 H     1 <1>   0.0800 
 36 H        3.2850     1.2840     1.4080 H     1 <1>   0.0800 
 37 H        5.0100     2.9610     0.0000 H     1 <1>   0.3700 
 38 H        6.5960     0.9970    -0.2900 H     1 <1>   0.0800 
 39 H        5.7600    -0.5000    -0.7040 H     1 <1>   0.0800 
 40 H        3.9620     5.7500    -1.8540 H     1 <1>   0.0800 
 41 H        5.7100     5.5340    -1.8160 H     1 <1>   0.0800 
 42 H        4.8220     5.6050     2.5050 H     1 <1>   0.1500 
 43 H        4.9940     7.7360    -1.2110 H     1 <1>   0.1500 
 44 H        5.2300     9.8340    -0.0050 H     1 <1>   0.1500 
 45 H        5.2640     9.8460     2.4750 H     1 <1>   0.1500 
@<TRIPOS>BOND
  1   1   2  2   
  2   1   3  2   
  3   1   4  am  
  4   1   5  1   
  5   4   6  1   
  6   4   7  1   
  7   5   8  1   
  8   5  25  1   
  9   5  26  1   
 10   6  27  1   
 11   6  28  1   
 12   6  29  1   
 13   7  30  1   
 14   7  31  1   
 15   7  32  1   
 16   8   9  1   
 17   8  10  1   
 18   8  33  1   
 19   9  11  1   
 20   9  12  1   
 21   9  34  1   
 22  10  13  1   
 23  10  35  1   
 24  10  36  1   
 25  11  14  am  
 26  11  37  1   
 27  12  13  1   
 28  12  38  1   
 29  12  39  1   
 30  14  15  2   
 31  14  16  1   
 32  16  17  1   
 33  16  40  1   
 34  16  41  1   
 35  17  18  1   
 36  18  19  ar  
 37  18  20  ar  
 38  19  21  ar  
 39  19  42  1   
 40  20  22  ar  
 41  20  43  1   
 42  21  23  1   
 43  21  24  ar  
 44  22  24  ar  
 45  22  44  1   
 46  24  45  1   
@<TRIPOS>SUBSTRUCTURE
  1 ****  11 GROUP 4 **** **** 0

# MOE 2024.06 (io_trps.svl 2023.06)
