@<TRIPOS>MOLECULE
NONAME
61 63 1 0 0 
SMALL
USER_CHARGES


@<TRIPOS>ATOM
  1 O        3.8920    -0.8970     0.7170 O.co2 1 <1>  -0.9000 
  2 C        2.9660    -0.6440    -0.0670 C.2   1 <1>   0.9060 
  3 O        2.8890    -1.1970    -1.1620 O.co2 1 <1>  -0.9000 
  4 C        2.0740     0.5790     0.1920 C.3   1 <1>  -0.1060 
  5 C        2.4240     1.5460    -0.9640 C.3   1 <1>   0.2000 
  6 C        2.4530     1.2930     1.5340 C.3   1 <1>  -0.1600 
  7 C        0.6020     0.0820     0.1830 C.3   1 <1>  -0.0160 
  8 O        1.7850     2.7720    -0.7730 O.3   1 <1>  -0.6800 
  9 C        3.9560     1.8020    -1.0010 C.3   1 <1>   0.3430 
 10 C        3.7170     2.1730     1.4370 C.3   1 <1>   0.3430 
 11 C       -0.4660     1.1720     0.1730 C.ar  1 <1>  -0.1440 
 12 N        4.6060     1.6720     0.3590 N.4   1 <1>  -0.9590 
 13 C       -0.9560     1.7000     1.3580 C.ar  1 <1>  -0.1500 
 14 C       -0.9680     1.6370    -1.0330 C.ar  1 <1>  -0.1500 
 15 C        6.0010     2.1590     0.4140 C.3   1 <1>   0.4860 
 16 C       -1.9130     2.6990     1.3370 C.ar  1 <1>  -0.1500 
 17 C       -1.9250     2.6370    -1.0570 C.ar  1 <1>  -0.1500 
 18 C        6.0750     3.6340     0.0500 C.ar  1 <1>  -0.1430 
 19 C       -2.3950     3.1720     0.1290 C.ar  1 <1>  -0.1500 
 20 C        5.7910     4.6060     0.9970 C.ar  1 <1>  -0.1500 
 21 C        6.4310     4.0250    -1.2310 C.ar  1 <1>  -0.1500 
 22 C        5.8390     5.9540     0.6780 C.ar  1 <1>  -0.1430 
 23 C        6.4850     5.3660    -1.5620 C.ar  1 <1>  -0.1500 
 24 C        6.1840     6.3410    -0.6140 C.ar  1 <1>   0.0830 
 25 C        5.4950     6.9870     1.7450 C.3   1 <1>   0.2630 
 26 O        6.2080     7.6730    -0.8840 O.3   1 <1>  -0.3630 
 27 O        6.1880     6.6770     2.9030 O.3   1 <1>  -0.6800 
 28 C        6.3710     8.2160    -2.1760 C.3   1 <1>   0.2000 
 29 C        6.7490     9.6850    -1.9970 C.3   1 <1>  -0.2400 
 30 C        5.0540     8.0780    -2.9440 C.3   1 <1>  -0.2400 
 31 H        2.0990     1.1510    -1.9120 H     1 <1>   0.0800 
 32 H        2.5870     0.5600     2.3110 H     1 <1>   0.0800 
 33 H        1.6590     1.9380     1.8540 H     1 <1>   0.0800 
 34 H        0.4490    -0.5390    -0.6850 H     1 <1>   0.0800 
 35 H        0.4470    -0.5560     1.0350 H     1 <1>   0.0800 
 36 H        0.8270     2.6080    -0.6000 H     1 <1>   0.4000 
 37 H        4.1250     2.7830    -1.4110 H     1 <1>   0.0800 
 38 H        4.3990     1.0730    -1.6600 H     1 <1>   0.0800 
 39 H        4.2310     2.1690     2.3840 H     1 <1>   0.0800 
 40 H        3.4270     3.1860     1.2050 H     1 <1>   0.0800 
 41 H        4.6330     0.6340     0.5390 H     1 <1>   0.4500 
 42 H       -0.5960     1.3340     2.3030 H     1 <1>   0.1500 
 43 H       -0.6160     1.2220    -1.9630 H     1 <1>   0.1500 
 44 H        6.3970     2.0100     1.4050 H     1 <1>   0.0800 
 45 H        6.6040     1.5900    -0.2740 H     1 <1>   0.0800 
 46 H       -2.2860     3.1080     2.2600 H     1 <1>   0.1500 
 47 H       -2.3050     2.9970    -1.9970 H     1 <1>   0.1500 
 48 H       -3.1390     3.9490     0.1130 H     1 <1>   0.1500 
 49 H        5.5260     4.3220     2.0010 H     1 <1>   0.1500 
 50 H        6.6680     3.2900    -1.9820 H     1 <1>   0.1500 
 51 H        6.7630     5.6320    -2.5640 H     1 <1>   0.1500 
 52 H        4.4430     6.9640     1.9670 H     1 <1>   0.0800 
 53 H        5.7700     7.9860     1.4530 H     1 <1>   0.0800 
 54 H        7.1450     6.6840     2.7050 H     1 <1>   0.4000 
 55 H        7.1770     7.7060    -2.6730 H     1 <1>   0.0800 
 56 H        5.9710    10.2100    -1.4710 H     1 <1>   0.0800 
 57 H        6.8910    10.1490    -2.9560 H     1 <1>   0.0800 
 58 H        7.6670     9.7610    -1.4430 H     1 <1>   0.0800 
 59 H        4.2630     8.5860    -2.4200 H     1 <1>   0.0800 
 60 H        4.7880     7.0440    -3.0640 H     1 <1>   0.0800 
 61 H        5.1520     8.5160    -3.9200 H     1 <1>   0.0800 
@<TRIPOS>BOND
  1   1   2  ar  
  2   2   3  ar  
  3   2   4  1   
  4   4   5  1   
  5   4   6  1   
  6   4   7  1   
  7   5   8  1   
  8   5   9  1   
  9   5  31  1   
 10   6  10  1   
 11   6  32  1   
 12   6  33  1   
 13   7  11  1   
 14   7  34  1   
 15   7  35  1   
 16   8  36  1   
 17   9  12  1   
 18   9  37  1   
 19   9  38  1   
 20  10  12  1   
 21  10  39  1   
 22  10  40  1   
 23  11  13  ar  
 24  11  14  ar  
 25  12  15  1   
 26  12  41  1   
 27  13  16  ar  
 28  13  42  1   
 29  14  17  ar  
 30  14  43  1   
 31  15  18  1   
 32  15  44  1   
 33  15  45  1   
 34  16  19  ar  
 35  16  46  1   
 36  17  19  ar  
 37  17  47  1   
 38  18  20  ar  
 39  18  21  ar  
 40  19  48  1   
 41  20  22  ar  
 42  20  49  1   
 43  21  23  ar  
 44  21  50  1   
 45  22  24  ar  
 46  22  25  1   
 47  23  24  ar  
 48  23  51  1   
 49  24  26  1   
 50  25  27  1   
 51  25  52  1   
 52  25  53  1   
 53  26  28  1   
 54  27  54  1   
 55  28  29  1   
 56  28  30  1   
 57  28  55  1   
 58  29  56  1   
 59  29  57  1   
 60  29  58  1   
 61  30  59  1   
 62  30  60  1   
 63  30  61  1   
@<TRIPOS>SUBSTRUCTURE
  1 ****   8 GROUP 4 **** **** 0

# MOE 2024.06 (io_trps.svl 2023.06)
