@<TRIPOS>MOLECULE
NONAME
41 42 1 0 0 
SMALL
USER_CHARGES


@<TRIPOS>ATOM
  1 O       -0.4240    -0.8600     1.9240 O.2   1 <1>  -0.5700 
  2 C       -0.4370    -1.5970     0.9620 C.2   1 <1>   0.5690 
  3 N        0.7170    -1.9800     0.3240 N.am  1 <1>  -0.6600 
  4 C       -1.7990    -2.0920     0.4210 C.3   1 <1>   0.3500 
  5 C        0.6490    -2.9550    -0.7990 C.3   1 <1>   0.1400 
  6 C        2.0560    -1.4390     0.6910 C.3   1 <1>   0.1400 
  7 N       -1.7750    -3.4750    -0.1930 N.pl3 1 <1>  -0.8380 
  8 C       -2.3380    -1.1230    -0.6380 C.3   1 <1>  -0.2400 
  9 C       -0.4250    -4.0290    -0.5510 C.3   1 <1>   0.2090 
 10 C        2.6030    -0.4890    -0.3920 C.3   1 <1>  -0.0800 
 11 C       -2.8500    -4.3240    -0.0480 C.ar  1 <1>   0.7200 
 12 C        3.9980     0.0090     0.0050 C.3   1 <1>  -0.2400 
 13 C        1.6760     0.7150    -0.6230 C.3   1 <1>  -0.2400 
 14 N       -3.9950    -3.7960     0.3640 N.ar  1 <1>  -0.6200 
 15 N       -2.6450    -5.6100    -0.3380 N.ar  1 <1>  -0.6200 
 16 C       -5.0050    -4.6150     0.5000 C.ar  1 <1>   0.4100 
 17 C       -3.6750    -6.4100    -0.1910 C.ar  1 <1>   0.1600 
 18 N       -6.1480    -4.0080     0.9250 N.pl3 1 <1>  -0.9000 
 19 C       -4.9030    -5.9730     0.2340 C.ar  1 <1>   0.0730 
 20 C       -6.0020    -6.8620     0.3960 C.1   1 <1>   0.4840 
 21 N       -6.8770    -7.5780     0.5410 N.1   1 <1>  -0.5570 
 22 H       -2.4700    -2.0860     1.2620 H     1 <1>   0.0800 
 23 H        1.6020    -3.4400    -0.9160 H     1 <1>   0.0800 
 24 H        0.4270    -2.4290    -1.7110 H     1 <1>   0.0800 
 25 H        2.7360    -2.2610     0.8350 H     1 <1>   0.0800 
 26 H        1.9880    -0.9080     1.6250 H     1 <1>   0.0800 
 27 H       -1.6830    -1.0980    -1.4890 H     1 <1>   0.0800 
 28 H       -2.4010    -0.1340    -0.2220 H     1 <1>   0.0800 
 29 H       -3.3200    -1.4260    -0.9510 H     1 <1>   0.0800 
 30 H       -0.0930    -4.6700     0.2480 H     1 <1>   0.0800 
 31 H       -0.5150    -4.6330    -1.4370 H     1 <1>   0.0800 
 32 H        2.6990    -1.0350    -1.3150 H     1 <1>   0.0800 
 33 H        3.9520     0.5700     0.9230 H     1 <1>   0.0800 
 34 H        4.4020     0.6440    -0.7630 H     1 <1>   0.0800 
 35 H        4.6690    -0.8210     0.1430 H     1 <1>   0.0800 
 36 H        1.5250     1.2540     0.2960 H     1 <1>   0.0800 
 37 H        0.7170     0.3900    -0.9850 H     1 <1>   0.0800 
 38 H        2.0990     1.3830    -1.3510 H     1 <1>   0.0800 
 39 H       -3.5300    -7.4530    -0.4180 H     1 <1>   0.1500 
 40 H       -6.9300    -4.5190     1.3420 H     1 <1>   0.4000 
 41 H       -6.0660    -3.0250     1.1970 H     1 <1>   0.4000 
@<TRIPOS>BOND
  1   1   2  2   
  2   2   3  am  
  3   2   4  1   
  4   3   5  1   
  5   3   6  1   
  6   4   7  1   
  7   4   8  1   
  8   4  22  1   
  9   5   9  1   
 10   5  23  1   
 11   5  24  1   
 12   6  10  1   
 13   6  25  1   
 14   6  26  1   
 15   7   9  1   
 16   7  11  1   
 17   8  27  1   
 18   8  28  1   
 19   8  29  1   
 20   9  30  1   
 21   9  31  1   
 22  10  12  1   
 23  10  13  1   
 24  10  32  1   
 25  11  14  ar  
 26  11  15  ar  
 27  12  33  1   
 28  12  34  1   
 29  12  35  1   
 30  13  36  1   
 31  13  37  1   
 32  13  38  1   
 33  14  16  ar  
 34  15  17  ar  
 35  16  18  1   
 36  16  19  ar  
 37  17  19  ar  
 38  17  39  1   
 39  18  40  1   
 40  18  41  1   
 41  19  20  1   
 42  20  21  3   
@<TRIPOS>SUBSTRUCTURE
  1 ****   7 GROUP 4 **** **** 0

# MOE 2024.06 (io_trps.svl 2023.06)
