@<TRIPOS>MOLECULE
NONAME
47 49 1 0 0 
SMALL
USER_CHARGES


@<TRIPOS>ATOM
  1 S       -0.4890     0.4040    -1.1420 S.o2  1 <1>   1.4470 
  2 O       -1.7770    -0.2200    -1.3710 O.2   1 <1>  -0.6500 
  3 O        0.1690     1.0480    -2.2540 O.2   1 <1>  -0.6500 
  4 N       -0.7280     1.5590     0.0780 N.am  1 <1>  -0.8490 
  5 C        0.6640    -0.7700    -0.3820 C.ar  1 <1>  -0.0090 
  6 C       -1.2240     2.8470    -0.4220 C.3   1 <1>   0.1960 
  7 C       -1.4220     1.0480     1.2770 C.3   1 <1>   0.1960 
  8 C        1.9240    -0.3600     0.0600 C.ar  1 <1>   0.0730 
  9 C        0.3010    -2.1050    -0.2300 C.ar  1 <1>  -0.1500 
 10 C       -2.7340     2.7650    -0.6470 C.3   1 <1>  -0.1600 
 11 C       -2.5390     1.9750     1.7710 C.3   1 <1>  -0.1600 
 12 C        2.3760     1.0010    -0.0500 C.1   1 <1>   0.4840 
 13 C        2.7780    -1.2950     0.6380 C.ar  1 <1>  -0.1500 
 14 C        1.1580    -3.0240     0.3460 C.ar  1 <1>  -0.1500 
 15 C       -3.5060     2.4040     0.6460 C.3   1 <1>   0.2800 
 16 N        2.7680     2.0700    -0.0980 N.1   1 <1>  -0.5570 
 17 C        2.4030    -2.6160     0.7820 C.ar  1 <1>  -0.1500 
 18 O       -4.0620     3.6190     1.1010 O.3   1 <1>  -0.5600 
 19 C       -4.6230     1.3320     0.4310 C.3   1 <1>   0.2000 
 20 C       -5.4490     3.8330     1.0290 C.3   1 <1>   0.1200 
 21 O       -4.1420     0.0710     0.0420 O.3   1 <1>  -0.6800 
 22 C       -5.7890     1.8290    -0.4740 C.3   1 <1>   0.2800 
 23 C       -5.9980     3.3430    -0.3140 C.3   1 <1>  -0.1600 
 24 O       -6.9330     1.2100    -0.0140 O.3   1 <1>  -0.6800 
 25 C       -5.7060     1.4510    -1.9610 C.3   1 <1>  -0.2400 
 26 H       -1.0050     3.6180     0.2980 H     1 <1>   0.0800 
 27 H       -0.7230     3.1190    -1.3360 H     1 <1>   0.0800 
 28 H       -1.8410     0.0750     1.0870 H     1 <1>   0.0800 
 29 H       -0.6970     0.9280     2.0650 H     1 <1>   0.0800 
 30 H       -0.6690    -2.4350    -0.5690 H     1 <1>   0.1500 
 31 H       -2.9120     2.0400    -1.4130 H     1 <1>   0.0800 
 32 H       -3.0750     3.7090    -1.0310 H     1 <1>   0.0800 
 33 H       -2.0800     2.8460     2.2050 H     1 <1>   0.0800 
 34 H       -3.0830     1.4810     2.5560 H     1 <1>   0.0800 
 35 H        3.7530    -0.9860     0.9800 H     1 <1>   0.1500 
 36 H        0.8580    -4.0530     0.4540 H     1 <1>   0.1500 
 37 H        3.0770    -3.3270     1.2300 H     1 <1>   0.1500 
 38 H       -5.0460     1.1690     1.4070 H     1 <1>   0.0800 
 39 H       -5.9190     3.3150     1.8480 H     1 <1>   0.0800 
 40 H       -5.6210     4.8890     1.1460 H     1 <1>   0.0800 
 41 H       -3.4570     0.1340    -0.6690 H     1 <1>   0.4000 
 42 H       -5.4860     3.8790    -1.0920 H     1 <1>   0.0800 
 43 H       -7.0430     3.5850    -0.3970 H     1 <1>   0.0800 
 44 H       -6.7870     0.2440    -0.0480 H     1 <1>   0.4000 
 45 H       -4.8730     1.9300    -2.4350 H     1 <1>   0.0800 
 46 H       -6.5990     1.7700    -2.4700 H     1 <1>   0.0800 
 47 H       -5.6000     0.3880    -2.0840 H     1 <1>   0.0800 
@<TRIPOS>BOND
  1   1   2  2   
  2   1   3  2   
  3   1   4  am  
  4   1   5  1   
  5   4   6  1   
  6   4   7  1   
  7   5   8  ar  
  8   5   9  ar  
  9   6  10  1   
 10   6  26  1   
 11   6  27  1   
 12   7  11  1   
 13   7  28  1   
 14   7  29  1   
 15   8  12  1   
 16   8  13  ar  
 17   9  14  ar  
 18   9  30  1   
 19  10  15  1   
 20  10  31  1   
 21  10  32  1   
 22  11  15  1   
 23  11  33  1   
 24  11  34  1   
 25  12  16  3   
 26  13  17  ar  
 27  13  35  1   
 28  14  17  ar  
 29  14  36  1   
 30  15  18  1   
 31  15  19  1   
 32  17  37  1   
 33  18  20  1   
 34  19  21  1   
 35  19  22  1   
 36  19  38  1   
 37  20  23  1   
 38  20  39  1   
 39  20  40  1   
 40  21  41  1   
 41  22  23  1   
 42  22  24  1   
 43  22  25  1   
 44  23  42  1   
 45  23  43  1   
 46  24  44  1   
 47  25  45  1   
 48  25  46  1   
 49  25  47  1   
@<TRIPOS>SUBSTRUCTURE
  1 ****   4 GROUP 4 **** **** 0

# MOE 2024.06 (io_trps.svl 2023.06)
