@<TRIPOS>MOLECULE
NONAME
55 58 1 0 0 
SMALL
USER_CHARGES


@<TRIPOS>ATOM
  1 O       -2.1780     1.0930    -1.4350 O.2   1 <1>  -0.5700 
  2 C       -1.4260     2.0170    -1.1420 C.2   1 <1>   0.6160 
  3 N       -0.0740     1.7480    -0.9110 N.am  1 <1>  -0.4690 
  4 C       -1.9020     3.3620    -1.0190 C.2   1 <1>   0.0290 
  5 C        0.7990     2.7740    -0.5950 C.2   1 <1>  -0.0290 
  6 C        0.4290     0.3440    -1.0400 C.3   1 <1>   0.0600 
  7 C       -3.2930     3.6510    -1.2410 C.2   1 <1>   0.6160 
  8 C       -1.0090     4.3550    -0.7110 C.2   1 <1>  -0.1500 
  9 C        0.3470     4.0540    -0.4960 C.2   1 <1>  -0.1500 
 10 C        2.2720     2.4660    -0.3620 C.3   1 <1>  -0.1020 
 11 O       -3.5800     4.5120    -2.0550 O.2   1 <1>  -0.5700 
 12 N       -4.3180     3.0700    -0.5190 N.am  1 <1>  -0.6600 
 13 C       -5.7540     3.2190    -0.9200 C.3   1 <1>   0.1400 
 14 C       -4.1220     2.2650     0.7180 C.3   1 <1>   0.1400 
 15 C       -6.5700     3.8860     0.2030 C.3   1 <1>   0.1430 
 16 C       -4.9120     2.8940     1.8740 C.3   1 <1>  -0.1600 
 17 C       -8.0210     3.9720    -0.2330 C.ar  1 <1>   0.1670 
 18 C       -6.3970     3.0880     1.5150 C.3   1 <1>  -0.1600 
 19 C       -6.1860     5.3810     0.3690 C.3   1 <1>  -0.1600 
 20 N       -8.8650     2.9710    -0.2780 N.ar  1 <1>  -0.6200 
 21 C       -8.3580     5.2420    -0.5940 C.ar  1 <1>  -0.1430 
 22 C       -7.1950     6.1920    -0.4620 C.3   1 <1>  -0.0170 
 23 C      -10.0960     3.2800    -0.6940 C.ar  1 <1>   0.7200 
 24 C       -9.6450     5.4650    -1.0130 C.ar  1 <1>   0.1600 
 25 N      -10.5240     4.4920    -1.0640 N.ar  1 <1>  -0.6200 
 26 N      -11.0140     2.2480    -0.7480 N.pl3 1 <1>  -0.8380 
 27 C      -12.4750     2.4950    -0.8930 C.3   1 <1>   0.1290 
 28 C      -10.5980     0.8210    -0.6780 C.3   1 <1>   0.1290 
 29 H       -0.3710    -0.3530    -1.2180 H     1 <1>   0.0800 
 30 H        0.9280     0.0510    -0.1350 H     1 <1>   0.0800 
 31 H        1.1170     0.2840    -1.8650 H     1 <1>   0.0800 
 32 H       -1.3330     5.3790    -0.6350 H     1 <1>   0.1500 
 33 H        1.0110     4.8670    -0.2550 H     1 <1>   0.1500 
 34 H        2.3860     1.7960     0.4700 H     1 <1>   0.0800 
 35 H        2.8190     3.3650    -0.1430 H     1 <1>   0.0800 
 36 H        2.7030     2.0200    -1.2400 H     1 <1>   0.0800 
 37 H       -6.1600     2.2430    -1.1200 H     1 <1>   0.0800 
 38 H       -5.8430     3.7960    -1.8240 H     1 <1>   0.0800 
 39 H       -3.0830     2.2150     0.9860 H     1 <1>   0.0800 
 40 H       -4.4680     1.2610     0.5360 H     1 <1>   0.0800 
 41 H       -4.4670     3.8400     2.1240 H     1 <1>   0.0800 
 42 H       -4.8340     2.2590     2.7390 H     1 <1>   0.0800 
 43 H       -6.8500     2.1200     1.3920 H     1 <1>   0.0800 
 44 H       -6.9130     3.5820     2.3190 H     1 <1>   0.0800 
 45 H       -5.1740     5.5850     0.0680 H     1 <1>   0.0800 
 46 H       -6.2960     5.6670     1.4000 H     1 <1>   0.0800 
 47 H       -6.7910     6.4090    -1.4360 H     1 <1>   0.0800 
 48 H       -7.4750     7.1050     0.0340 H     1 <1>   0.0800 
 49 H       -9.9580     6.4520    -1.3080 H     1 <1>   0.1500 
 50 H      -12.7410     3.4470    -0.4670 H     1 <1>   0.0800 
 51 H      -13.0320     1.7290    -0.3840 H     1 <1>   0.0800 
 52 H      -12.7370     2.4950    -1.9370 H     1 <1>   0.0800 
 53 H       -9.6190     0.6940    -1.1090 H     1 <1>   0.0800 
 54 H      -11.2900     0.2050    -1.2240 H     1 <1>   0.0800 
 55 H      -10.5710     0.5050     0.3500 H     1 <1>   0.0800 
@<TRIPOS>BOND
  1   1   2  2   
  2   2   3  am  
  3   2   4  1   
  4   3   5  1   
  5   3   6  1   
  6   4   7  1   
  7   4   8  2   
  8   5   9  2   
  9   5  10  1   
 10   6  29  1   
 11   6  30  1   
 12   6  31  1   
 13   7  11  2   
 14   7  12  am  
 15   8   9  1   
 16   8  32  1   
 17   9  33  1   
 18  10  34  1   
 19  10  35  1   
 20  10  36  1   
 21  12  13  1   
 22  12  14  1   
 23  13  15  1   
 24  13  37  1   
 25  13  38  1   
 26  14  16  1   
 27  14  39  1   
 28  14  40  1   
 29  15  17  1   
 30  15  18  1   
 31  15  19  1   
 32  16  18  1   
 33  16  41  1   
 34  16  42  1   
 35  17  20  ar  
 36  17  21  ar  
 37  18  43  1   
 38  18  44  1   
 39  19  22  1   
 40  19  45  1   
 41  19  46  1   
 42  20  23  ar  
 43  21  22  1   
 44  21  24  ar  
 45  22  47  1   
 46  22  48  1   
 47  23  25  ar  
 48  23  26  1   
 49  24  25  ar  
 50  24  49  1   
 51  26  27  1   
 52  26  28  1   
 53  27  50  1   
 54  27  51  1   
 55  27  52  1   
 56  28  53  1   
 57  28  54  1   
 58  28  55  1   
@<TRIPOS>SUBSTRUCTURE
  1 ****  13 GROUP 4 **** **** 0

# MOE 2024.06 (io_trps.svl 2023.06)
