@<TRIPOS>MOLECULE
NONAME
51 54 1 0 0 
SMALL
USER_CHARGES


@<TRIPOS>ATOM
  1 O       -1.3250    -0.4330     2.3600 O.2   1 <1>  -0.5700 
  2 C       -2.0090     0.2770     1.6380 C.2   1 <1>   0.7160 
  3 N       -3.2330    -0.2350     1.2420 N.am  1 <1>  -0.6600 
  4 C       -1.5080     1.5940     1.2410 C.2   1 <1>   0.2030 
  5 C       -4.1790     0.4130     0.2960 C.3   1 <1>   0.1400 
  6 C       -3.6540    -1.6330     1.5110 C.3   1 <1>   0.1400 
  7 N       -2.0480     2.4510     0.3850 N.2   1 <1>  -0.7070 
  8 C       -0.3180     2.1320     1.7490 C.2   1 <1>  -0.1500 
  9 C       -5.3300    -0.5840     0.1430 C.3   1 <1>   0.2000 
 10 C       -4.6990    -1.9470     0.4330 C.3   1 <1>  -0.0800 
 11 N       -1.2260     3.5110     0.3500 N.pl3 1 <1>   0.3140 
 12 C       -0.1720     3.3370     1.1680 C.2   1 <1>  -0.3020 
 13 O       -6.2720    -0.3280     1.1270 O.3   1 <1>  -0.6800 
 14 C       -4.0510    -2.5320    -0.8390 C.3   1 <1>  -0.0170 
 15 C       -1.5070     4.6960    -0.5090 C.3   1 <1>   0.1760 
 16 C       -3.4240    -3.9000    -0.5860 C.ar  1 <1>  -0.1430 
 17 C       -0.3890     4.8990    -1.5410 C.3   1 <1>  -0.2400 
 18 C       -1.7030     5.9550     0.3480 C.3   1 <1>  -0.2400 
 19 C       -4.1930    -5.0830    -0.4790 C.ar  1 <1>   0.0000 
 20 C       -2.0710    -4.0140    -0.4510 C.ar  1 <1>  -0.1500 
 21 C       -3.5040    -6.2940    -0.2280 C.ar  1 <1>   0.3100 
 22 C       -5.6010    -5.1370    -0.6080 C.ar  1 <1>  -0.1500 
 23 C       -1.4880    -5.2620    -0.2070 C.ar  1 <1>   0.1600 
 24 N       -2.1550    -6.3670    -0.0950 N.ar  1 <1>  -0.6200 
 25 C       -4.2400    -7.4840    -0.1090 C.ar  1 <1>  -0.1500 
 26 C       -6.2890    -6.3140    -0.4880 C.ar  1 <1>  -0.1500 
 27 C       -5.6030    -7.5040    -0.2340 C.ar  1 <1>  -0.1500 
 28 H       -4.5190     1.3650     0.6650 H     1 <1>   0.0800 
 29 H       -3.6850     0.5540    -0.6500 H     1 <1>   0.0800 
 30 H       -2.8140    -2.3060     1.4870 H     1 <1>   0.0800 
 31 H       -4.1020    -1.6780     2.4880 H     1 <1>   0.0800 
 32 H        0.3230     1.6440     2.4620 H     1 <1>   0.1500 
 33 H       -5.8190    -0.5220    -0.8140 H     1 <1>   0.0800 
 34 H       -5.4320    -2.6410     0.8060 H     1 <1>   0.0800 
 35 H        0.6070     4.0670     1.2880 H     1 <1>   0.1500 
 36 H       -5.8130    -0.2000     1.9810 H     1 <1>   0.4000 
 37 H       -3.2920    -1.8580    -1.1980 H     1 <1>   0.0800 
 38 H       -4.7840    -2.6170    -1.6220 H     1 <1>   0.0800 
 39 H       -2.4250     4.4940    -1.0340 H     1 <1>   0.0800 
 40 H        0.5440     5.1240    -1.0560 H     1 <1>   0.0800 
 41 H       -0.6380     5.7140    -2.1960 H     1 <1>   0.0800 
 42 H       -0.2730     4.0100    -2.1360 H     1 <1>   0.0800 
 43 H       -0.8000     6.2010     0.8780 H     1 <1>   0.0800 
 44 H       -2.4970     5.7960     1.0560 H     1 <1>   0.0800 
 45 H       -1.9700     6.7870    -0.2780 H     1 <1>   0.0800 
 46 H       -1.4220    -3.1590    -0.5210 H     1 <1>   0.1500 
 47 H       -6.1490    -4.2360    -0.8060 H     1 <1>   0.1500 
 48 H       -0.4170    -5.3050    -0.1040 H     1 <1>   0.1500 
 49 H       -3.6910    -8.3860     0.0850 H     1 <1>   0.1500 
 50 H       -7.3610    -6.3410    -0.5880 H     1 <1>   0.1500 
 51 H       -6.1540    -8.4230    -0.1410 H     1 <1>   0.1500 
@<TRIPOS>BOND
  1   1   2  2   
  2   2   3  am  
  3   2   4  1   
  4   3   5  1   
  5   3   6  1   
  6   4   7  2   
  7   4   8  1   
  8   5   9  1   
  9   5  28  1   
 10   5  29  1   
 11   6  10  1   
 12   6  30  1   
 13   6  31  1   
 14   7  11  1   
 15   8  12  2   
 16   8  32  1   
 17   9  10  1   
 18   9  13  1   
 19   9  33  1   
 20  10  14  1   
 21  10  34  1   
 22  11  12  1   
 23  11  15  1   
 24  12  35  1   
 25  13  36  1   
 26  14  16  1   
 27  14  37  1   
 28  14  38  1   
 29  15  17  1   
 30  15  18  1   
 31  15  39  1   
 32  16  19  ar  
 33  16  20  ar  
 34  17  40  1   
 35  17  41  1   
 36  17  42  1   
 37  18  43  1   
 38  18  44  1   
 39  18  45  1   
 40  19  21  ar  
 41  19  22  ar  
 42  20  23  ar  
 43  20  46  1   
 44  21  24  ar  
 45  21  25  ar  
 46  22  26  ar  
 47  22  47  1   
 48  23  24  ar  
 49  23  48  1   
 50  25  27  ar  
 51  25  49  1   
 52  26  27  ar  
 53  26  50  1   
 54  27  51  1   
@<TRIPOS>SUBSTRUCTURE
  1 ****   6 GROUP 4 **** **** 0

# MOE 2024.06 (io_trps.svl 2023.06)
