@<TRIPOS>MOLECULE
NONAME
48 50 1 0 0 
SMALL
USER_CHARGES


@<TRIPOS>ATOM
  1 O        0.2160     0.8870    -0.3250 O.2   1 <1>  -0.5700 
  2 C        0.1390     2.0720    -0.1240 C.2   1 <1>   0.5690 
  3 N       -0.9920     2.6150     0.3760 N.am  1 <1>  -0.7300 
  4 C        1.3160     2.9870    -0.4750 C.3   1 <1>   0.1810 
  5 C       -1.1630     4.0650     0.6400 C.3   1 <1>   0.3640 
  6 O        1.2390     4.2520     0.1460 O.3   1 <1>  -0.5600 
  7 C       -2.5150     4.5040     0.0790 C.ar  1 <1>  -0.1440 
  8 C       -0.0160     4.9070     0.0180 C.3   1 <1>   0.2610 
  9 C       -2.9430     4.0980    -1.1790 C.ar  1 <1>  -0.1500 
 10 C       -3.3320     5.3380     0.8290 C.ar  1 <1>  -0.1500 
 11 C        0.0510     6.3250     0.6140 C.2   1 <1>   0.5690 
 12 C       -4.1660     4.5160    -1.6750 C.ar  1 <1>  -0.1500 
 13 C       -4.5550     5.7570     0.3340 C.ar  1 <1>  -0.1500 
 14 O       -0.4950     6.5330     1.6770 O.2   1 <1>  -0.5700 
 15 N        0.7190     7.3390    -0.0410 N.am  1 <1>  -0.6600 
 16 C       -4.9720     5.3470    -0.9190 C.ar  1 <1>  -0.1500 
 17 C        0.7730     8.7180     0.5220 C.3   1 <1>   0.1400 
 18 C        1.5870     7.1520    -1.2370 C.3   1 <1>   0.1400 
 19 C        2.2130     9.0370     0.9310 C.3   1 <1>  -0.1600 
 20 C        3.0370     7.4440    -0.8500 C.3   1 <1>  -0.1600 
 21 C        3.1650     8.8450    -0.2510 C.3   1 <1>   0.2200 
 22 N        4.5480     9.0450     0.2080 N.am  1 <1>  -0.7300 
 23 C        5.4330     9.9030    -0.3510 C.2   1 <1>   0.5690 
 24 O        5.1590    10.5910    -1.3020 O.2   1 <1>  -0.5700 
 25 C        6.8120     9.9880     0.2470 C.3   1 <1>  -0.1790 
 26 H       -1.7800     2.0050     0.6010 H     1 <1>   0.3700 
 27 H        1.3510     3.1320    -1.5380 H     1 <1>   0.0800 
 28 H        2.2320     2.5230    -0.1570 H     1 <1>   0.0800 
 29 H       -1.1610     4.2000     1.7080 H     1 <1>   0.0800 
 30 H       -0.2200     5.0070    -1.0320 H     1 <1>   0.0800 
 31 H       -2.3310     3.4490    -1.7830 H     1 <1>   0.1500 
 32 H       -3.0190     5.6730     1.8040 H     1 <1>   0.1500 
 33 H       -4.4900     4.1950    -2.6500 H     1 <1>   0.1500 
 34 H       -5.1790     6.4050     0.9250 H     1 <1>   0.1500 
 35 H       -5.9230     5.6730    -1.3040 H     1 <1>   0.1500 
 36 H        0.4360     9.4170    -0.2240 H     1 <1>   0.0800 
 37 H        0.1250     8.8120     1.3780 H     1 <1>   0.0800 
 38 H        1.5200     6.1520    -1.6250 H     1 <1>   0.0800 
 39 H        1.2710     7.8310    -2.0110 H     1 <1>   0.0800 
 40 H        2.4880     8.3880     1.7430 H     1 <1>   0.0800 
 41 H        2.2640    10.0550     1.2720 H     1 <1>   0.0800 
 42 H        3.6580     7.3730    -1.7250 H     1 <1>   0.0800 
 43 H        3.3590     6.7030    -0.1390 H     1 <1>   0.0800 
 44 H        2.9290     9.5730    -1.0110 H     1 <1>   0.0800 
 45 H        4.8290     8.4710     1.0030 H     1 <1>   0.3700 
 46 H        6.7420    10.2710     1.2800 H     1 <1>   0.0800 
 47 H        7.3890    10.7270    -0.2780 H     1 <1>   0.0800 
 48 H        7.3020     9.0370     0.1630 H     1 <1>   0.0800 
@<TRIPOS>BOND
  1   1   2  2   
  2   2   3  am  
  3   2   4  1   
  4   3   5  1   
  5   3  26  1   
  6   4   6  1   
  7   4  27  1   
  8   4  28  1   
  9   5   7  1   
 10   5   8  1   
 11   5  29  1   
 12   6   8  1   
 13   7   9  ar  
 14   7  10  ar  
 15   8  11  1   
 16   8  30  1   
 17   9  12  ar  
 18   9  31  1   
 19  10  13  ar  
 20  10  32  1   
 21  11  14  2   
 22  11  15  am  
 23  12  16  ar  
 24  12  33  1   
 25  13  16  ar  
 26  13  34  1   
 27  15  17  1   
 28  15  18  1   
 29  16  35  1   
 30  17  19  1   
 31  17  36  1   
 32  17  37  1   
 33  18  20  1   
 34  18  38  1   
 35  18  39  1   
 36  19  21  1   
 37  19  40  1   
 38  19  41  1   
 39  20  21  1   
 40  20  42  1   
 41  20  43  1   
 42  21  22  1   
 43  21  44  1   
 44  22  23  am  
 45  22  45  1   
 46  23  24  2   
 47  23  25  1   
 48  25  46  1   
 49  25  47  1   
 50  25  48  1   
@<TRIPOS>SUBSTRUCTURE
  1 ****  11 GROUP 4 **** **** 0

# MOE 2024.06 (io_trps.svl 2023.06)
