@<TRIPOS>MOLECULE
NONAME
42 43 1 0 0 
SMALL
USER_CHARGES


@<TRIPOS>ATOM
  1 O        0.7370     1.7400     0.2210 O.3   1 <1>  -0.6800 
  2 C        0.0750     2.7750     0.8770 C.3   1 <1>   0.2000 
  3 C       -1.3370     2.9380     0.2830 C.3   1 <1>  -0.0800 
  4 C        0.8940     4.0720     0.6760 C.3   1 <1>   0.3430 
  5 C       -1.2680     3.2960    -1.2260 C.3   1 <1>  -0.1600 
  6 C       -2.2220     1.7080     0.5440 C.3   1 <1>   0.1200 
  7 N        0.5960     4.8030    -0.6170 N.4   1 <1>  -0.9590 
  8 C        0.0690     3.8990    -1.6760 C.3   1 <1>   0.3430 
  9 O       -3.4830     1.9410     0.0280 O.3   1 <1>  -0.6800 
 10 C        1.7860     5.5620    -1.0890 C.3   1 <1>   0.4860 
 11 C        2.2120     6.5290     0.0020 C.ar  1 <1>  -0.1440 
 12 C        3.4060     6.3660     0.7040 C.ar  1 <1>  -0.1440 
 13 C        1.3770     7.5990     0.3030 C.ar  1 <1>  -0.1500 
 14 C        3.7270     7.2700     1.7060 C.ar  1 <1>  -0.1500 
 15 C        4.4020     5.2450     0.4130 C.3   1 <1>  -0.0170 
 16 C        1.7100     8.4900     1.3050 C.ar  1 <1>  -0.1500 
 17 C        2.8850     8.3230     2.0100 C.ar  1 <1>  -0.1500 
 18 C        5.3040     5.6180    -0.7660 C.3   1 <1>  -0.2400 
 19 H        0.3370     0.8700     0.4300 H     1 <1>   0.4000 
 20 H        0.0390     2.5260     1.9250 H     1 <1>   0.0800 
 21 H       -1.7900     3.7650     0.8030 H     1 <1>   0.0800 
 22 H        1.9370     3.8090     0.7240 H     1 <1>   0.0800 
 23 H        0.6960     4.7410     1.4980 H     1 <1>   0.0800 
 24 H       -2.0710     3.9710    -1.4700 H     1 <1>   0.0800 
 25 H       -1.4270     2.4090    -1.8150 H     1 <1>   0.0800 
 26 H       -2.3190     1.4980     1.5960 H     1 <1>   0.0800 
 27 H       -1.8270     0.8380     0.0450 H     1 <1>   0.0800 
 28 H       -0.1300     5.4960    -0.4100 H     1 <1>   0.4500 
 29 H       -0.0660     4.4320    -2.6040 H     1 <1>   0.0800 
 30 H        0.7760     3.1010    -1.8420 H     1 <1>   0.0800 
 31 H       -4.0290     2.4800     0.6340 H     1 <1>   0.4000 
 32 H        2.5880     4.8840    -1.3250 H     1 <1>   0.0800 
 33 H        1.5420     6.1190    -1.9790 H     1 <1>   0.0800 
 34 H        0.4620     7.7590    -0.2390 H     1 <1>   0.1500 
 35 H        4.6460     7.1650     2.2590 H     1 <1>   0.1500 
 36 H        5.0210     5.0780     1.2790 H     1 <1>   0.0800 
 37 H        3.9010     4.3180     0.2090 H     1 <1>   0.0800 
 38 H        1.0610     9.3180     1.5370 H     1 <1>   0.1500 
 39 H        3.1500     9.0160     2.7910 H     1 <1>   0.1500 
 40 H        5.8420     6.5230    -0.5450 H     1 <1>   0.0800 
 41 H        4.7290     5.7740    -1.6600 H     1 <1>   0.0800 
 42 H        6.0190     4.8340    -0.9480 H     1 <1>   0.0800 
@<TRIPOS>BOND
  1   1   2  1   
  2   1  19  1   
  3   2   3  1   
  4   2   4  1   
  5   2  20  1   
  6   3   5  1   
  7   3   6  1   
  8   3  21  1   
  9   4   7  1   
 10   4  22  1   
 11   4  23  1   
 12   5   8  1   
 13   5  24  1   
 14   5  25  1   
 15   6   9  1   
 16   6  26  1   
 17   6  27  1   
 18   7   8  1   
 19   7  10  1   
 20   7  28  1   
 21   8  29  1   
 22   8  30  1   
 23   9  31  1   
 24  10  11  1   
 25  10  32  1   
 26  10  33  1   
 27  11  12  ar  
 28  11  13  ar  
 29  12  14  ar  
 30  12  15  1   
 31  13  16  ar  
 32  13  34  1   
 33  14  17  ar  
 34  14  35  1   
 35  15  18  1   
 36  15  36  1   
 37  15  37  1   
 38  16  17  ar  
 39  16  38  1   
 40  17  39  1   
 41  18  40  1   
 42  18  41  1   
 43  18  42  1   
@<TRIPOS>SUBSTRUCTURE
  1 ****   4 GROUP 4 **** **** 0

# MOE 2024.06 (io_trps.svl 2023.06)
