@<TRIPOS>MOLECULE
NONAME
33 34 1 0 0 
SMALL
USER_CHARGES


@<TRIPOS>ATOM
  1 O        0.2080    -0.1280    -0.5860 O.2   1 <1>  -0.5700 
  2 C        1.2670    -0.5990    -0.2270 C.2   1 <1>   0.7160 
  3 N        2.3240     0.2110     0.0880 N.am  1 <1>  -0.4940 
  4 C        1.4320    -2.0210    -0.0780 C.2   1 <1>  -0.0860 
  5 C        2.4970     1.5830    -0.1110 C.2   1 <1>   0.2040 
  6 C        2.4750    -2.8420    -0.3340 C.2   1 <1>  -0.0400 
  7 C        0.4950    -2.9230     0.4050 C.2   1 <1>   0.1080 
  8 O        1.6770     2.2950    -0.8470 O.3   1 <1>  -0.0190 
  9 C        3.4650     2.4070     0.3360 C.2   1 <1>  -0.1810 
 10 O        2.2150    -4.0870    -0.0150 O.3   1 <1>  -0.0190 
 11 C        3.8380    -2.5520    -0.9370 C.3   1 <1>  -0.0600 
 12 N        0.9830    -4.1040     0.4360 N.2   1 <1>  -0.4100 
 13 C       -0.9160    -2.5900     0.8460 C.3   1 <1>  -0.0590 
 14 N        2.0490     3.5480    -0.9170 N.2   1 <1>  -0.4100 
 15 C        3.1190     3.6410    -0.2140 C.2   1 <1>   0.1080 
 16 C        4.6570     2.0970     1.2260 C.3   1 <1>   0.0210 
 17 C        3.8760     4.9390    -0.0290 C.3   1 <1>  -0.0590 
 18 C        5.8910     1.7810     0.3800 C.3   1 <1>  -0.2400 
 19 H        3.0920    -0.2640     0.5520 H     1 <1>   0.3700 
 20 H        3.9070    -1.5380    -1.2850 H     1 <1>   0.0800 
 21 H        4.0030    -3.2070    -1.7740 H     1 <1>   0.0800 
 22 H        4.6070    -2.7310    -0.2060 H     1 <1>   0.0800 
 23 H       -0.8980    -1.8170     1.5920 H     1 <1>   0.0800 
 24 H       -1.3900    -3.4620     1.2590 H     1 <1>   0.0800 
 25 H       -1.4890    -2.2500     0.0030 H     1 <1>   0.0800 
 26 H        4.4270     1.2550     1.8550 H     1 <1>   0.0800 
 27 H        4.8580     2.9370     1.8680 H     1 <1>   0.0800 
 28 H        4.8840     4.8310    -0.3830 H     1 <1>   0.0800 
 29 H        3.8880     5.2110     1.0100 H     1 <1>   0.0800 
 30 H        3.3970     5.7250    -0.5860 H     1 <1>   0.0800 
 31 H        5.7020     0.9350    -0.2570 H     1 <1>   0.0800 
 32 H        6.7290     1.5550     1.0160 H     1 <1>   0.0800 
 33 H        6.1460     2.6230    -0.2380 H     1 <1>   0.0800 
@<TRIPOS>BOND
  1   1   2  2   
  2   2   3  am  
  3   2   4  1   
  4   3   5  1   
  5   3  19  1   
  6   4   6  2   
  7   4   7  1   
  8   5   8  1   
  9   5   9  2   
 10   6  10  1   
 11   6  11  1   
 12   7  12  2   
 13   7  13  1   
 14   8  14  1   
 15   9  15  1   
 16   9  16  1   
 17  10  12  1   
 18  11  20  1   
 19  11  21  1   
 20  11  22  1   
 21  13  23  1   
 22  13  24  1   
 23  13  25  1   
 24  14  15  2   
 25  15  17  1   
 26  16  18  1   
 27  16  26  1   
 28  16  27  1   
 29  17  28  1   
 30  17  29  1   
 31  17  30  1   
 32  18  31  1   
 33  18  32  1   
 34  18  33  1   
@<TRIPOS>SUBSTRUCTURE
  1 ****   3 GROUP 4 **** **** 0

# MOE 2024.06 (io_trps.svl 2023.06)
