@<TRIPOS>MOLECULE
NONAME
57 60 1 0 0 
SMALL
USER_CHARGES


@<TRIPOS>ATOM
  1 O       -1.8960     2.0330     2.0550 O.2   1 <1>  -0.5700 
  2 C       -1.8700     1.3830     1.0290 C.2   1 <1>   0.7160 
  3 N       -1.9730     0.0370     1.1590 N.am  1 <1>  -0.7300 
  4 C       -1.6950     2.0070    -0.2390 C.2   1 <1>  -0.0860 
  5 C       -2.1070    -0.9560     0.0780 C.3   1 <1>   0.2200 
  6 C       -2.7090     2.5010    -1.0610 C.2   1 <1>   0.3720 
  7 C       -0.5670     2.2010    -0.9690 C.2   1 <1>   0.0870 
  8 C       -3.4370    -1.7310     0.2410 C.3   1 <1>  -0.0800 
  9 C       -0.8600    -1.8380     0.1460 C.3   1 <1>  -0.2400 
 10 N       -2.2290     2.9410    -2.1720 N.2   1 <1>  -0.4100 
 11 N       -4.0720     2.4880    -0.7460 N.pl3 1 <1>  -0.8210 
 12 O       -0.9370     2.7560    -2.0950 O.3   1 <1>  -0.0190 
 13 C        0.8170     1.8890    -0.7140 C.ar  1 <1>   0.0530 
 14 C       -3.6080    -2.8210    -0.8390 C.3   1 <1>  -0.1600 
 15 C       -4.6480    -0.7700     0.1980 C.3   1 <1>  -0.1600 
 16 C       -5.0130     2.5790    -1.9040 C.3   1 <1>   0.2090 
 17 C       -4.4810     3.4410     0.3290 C.3   1 <1>   0.2090 
 18 C        1.6850     1.5890    -1.7640 C.ar  1 <1>  -0.1500 
 19 C        1.3400     1.8660     0.5790 C.ar  1 <1>  -0.1500 
 20 C       -4.9490    -3.5580    -0.7120 C.3   1 <1>  -0.1600 
 21 C       -5.9840    -1.5100     0.3320 C.3   1 <1>  -0.1600 
 22 C       -6.4690     2.4090    -1.4350 C.3   1 <1>   0.1200 
 23 C       -5.9590     3.2310     0.7030 C.3   1 <1>   0.1200 
 24 C        3.0110     1.2710    -1.5350 C.ar  1 <1>  -0.1500 
 25 C        2.6640     1.5470     0.8150 C.ar  1 <1>  -0.1500 
 26 C       -6.1290    -2.5820    -0.7520 C.3   1 <1>  -0.1600 
 27 O       -6.7840     3.3300    -0.4260 O.3   1 <1>  -0.5600 
 28 C        3.5040     1.2470    -0.2430 C.ar  1 <1>  -0.1500 
 29 H       -2.1000    -0.3090     2.1090 H     1 <1>   0.3700 
 30 H       -2.1190    -0.4530    -0.8750 H     1 <1>   0.0800 
 31 H       -3.4260    -2.2200     1.2000 H     1 <1>   0.0800 
 32 H       -0.8630    -2.4330     1.0420 H     1 <1>   0.0800 
 33 H        0.0250    -1.2270     0.1290 H     1 <1>   0.0800 
 34 H       -0.8150    -2.4930    -0.7040 H     1 <1>   0.0800 
 35 H       -3.5460    -2.3700    -1.8150 H     1 <1>   0.0800 
 36 H       -2.8220    -3.5500    -0.7610 H     1 <1>   0.0800 
 37 H       -4.5810    -0.0440     0.9890 H     1 <1>   0.0800 
 38 H       -4.6360    -0.2330    -0.7340 H     1 <1>   0.0800 
 39 H       -4.9040     3.5350    -2.3880 H     1 <1>   0.0800 
 40 H       -4.7740     1.8120    -2.6190 H     1 <1>   0.0800 
 41 H       -3.8750     3.2970     1.2040 H     1 <1>   0.0800 
 42 H       -4.3390     4.4530    -0.0120 H     1 <1>   0.0800 
 43 H        1.3150     1.6040    -2.7740 H     1 <1>   0.1500 
 44 H        0.7090     2.1080     1.4160 H     1 <1>   0.1500 
 45 H       -5.0460    -4.2710    -1.5120 H     1 <1>   0.0800 
 46 H       -4.9690    -4.1020     0.2170 H     1 <1>   0.0800 
 47 H       -6.0400    -1.9720     1.3020 H     1 <1>   0.0800 
 48 H       -6.7950    -0.8060     0.2550 H     1 <1>   0.0800 
 49 H       -6.6260     1.4150    -1.0550 H     1 <1>   0.0800 
 50 H       -7.1440     2.5770    -2.2550 H     1 <1>   0.0800 
 51 H       -6.2730     3.9820     1.4060 H     1 <1>   0.0800 
 52 H       -6.0970     2.2600     1.1470 H     1 <1>   0.0800 
 53 H        3.6620     1.0420    -2.3620 H     1 <1>   0.1500 
 54 H        3.0440     1.5340     1.8220 H     1 <1>   0.1500 
 55 H       -7.0490    -3.1210    -0.6070 H     1 <1>   0.0800 
 56 H       -6.1710    -2.1100    -1.7190 H     1 <1>   0.0800 
 57 H        4.5350     0.9990    -0.0610 H     1 <1>   0.1500 
@<TRIPOS>BOND
  1   1   2  2   
  2   2   3  am  
  3   2   4  1   
  4   3   5  1   
  5   3  29  1   
  6   4   6  1   
  7   4   7  2   
  8   5   8  1   
  9   5   9  1   
 10   5  30  1   
 11   6  10  2   
 12   6  11  1   
 13   7  12  1   
 14   7  13  1   
 15   8  14  1   
 16   8  15  1   
 17   8  31  1   
 18   9  32  1   
 19   9  33  1   
 20   9  34  1   
 21  10  12  1   
 22  11  16  1   
 23  11  17  1   
 24  13  18  ar  
 25  13  19  ar  
 26  14  20  1   
 27  14  35  1   
 28  14  36  1   
 29  15  21  1   
 30  15  37  1   
 31  15  38  1   
 32  16  22  1   
 33  16  39  1   
 34  16  40  1   
 35  17  23  1   
 36  17  41  1   
 37  17  42  1   
 38  18  24  ar  
 39  18  43  1   
 40  19  25  ar  
 41  19  44  1   
 42  20  26  1   
 43  20  45  1   
 44  20  46  1   
 45  21  26  1   
 46  21  47  1   
 47  21  48  1   
 48  22  27  1   
 49  22  49  1   
 50  22  50  1   
 51  23  27  1   
 52  23  51  1   
 53  23  52  1   
 54  24  28  ar  
 55  24  53  1   
 56  25  28  ar  
 57  25  54  1   
 58  26  55  1   
 59  26  56  1   
 60  28  57  1   
@<TRIPOS>SUBSTRUCTURE
  1 ****   4 GROUP 4 **** **** 0

# MOE 2024.06 (io_trps.svl 2023.06)
