@<TRIPOS>MOLECULE
NONAME
44 46 1 0 0 
SMALL
USER_CHARGES


@<TRIPOS>ATOM
  1 S       -1.8860    -0.0060     0.0860 S.3   1 <1>  -0.0800 
  2 C       -1.2120    -1.3940     0.8740 C.2   1 <1>   0.4420 
  3 C       -0.7350     0.9570     0.9510 C.2   1 <1>   0.1980 
  4 N       -0.2460    -1.0830     1.6610 N.2   1 <1>  -0.3380 
  5 N       -1.7880    -2.6030     0.5620 N.am  1 <1>  -0.4940 
  6 N        0.0200     0.2590     1.7010 N.2   1 <1>  -0.3380 
  7 C       -0.7270     2.4660     0.7390 C.3   1 <1>   0.3800 
  8 C       -1.5170    -3.8860     0.9510 C.2   1 <1>   0.5440 
  9 O       -2.0390     2.9530     0.8000 O.3   1 <1>  -0.5600 
 10 C       -0.1370     2.8400    -0.6230 C.3   1 <1>  -0.2400 
 11 O       -0.5620    -4.0860     1.6770 O.2   1 <1>  -0.5700 
 12 C       -2.3560    -4.9860     0.4980 C.ar  1 <1>   0.0860 
 13 C       -2.1740     4.2570     1.2740 C.3   1 <1>   0.0400 
 14 C       -3.4770    -4.8350    -0.3560 C.ar  1 <1>   0.1000 
 15 C       -2.0480    -6.2840     0.9240 C.ar  1 <1>  -0.1500 
 16 N       -3.9060    -3.6050    -0.8620 N.pl3 1 <1>  -0.8380 
 17 C       -4.2110    -5.9620    -0.7250 C.ar  1 <1>  -0.1500 
 18 C       -2.7870    -7.3860     0.5460 C.ar  1 <1>  -0.1500 
 19 C       -5.2000    -3.0620    -0.3370 C.3   1 <1>   0.2090 
 20 C       -3.7670    -3.3830    -2.3370 C.3   1 <1>   0.2090 
 21 C       -3.8780    -7.2240    -0.2850 C.ar  1 <1>  -0.1500 
 22 C       -5.4270    -1.6150    -0.8120 C.3   1 <1>   0.1200 
 23 C       -4.0660    -1.9180    -2.7050 C.3   1 <1>   0.1200 
 24 O       -5.3140    -1.5230    -2.2060 O.3   1 <1>  -0.5600 
 25 H       -2.5990    -2.5720    -0.0650 H     1 <1>   0.3700 
 26 H       -0.1500     2.9110     1.5320 H     1 <1>   0.0800 
 27 H       -0.7500     2.4460    -1.4140 H     1 <1>   0.0800 
 28 H        0.8490     2.4230    -0.7130 H     1 <1>   0.0800 
 29 H       -0.0640     3.9070    -0.7250 H     1 <1>   0.0800 
 30 H       -3.2200     4.5070     1.2670 H     1 <1>   0.0800 
 31 H       -1.6380     4.9340     0.6330 H     1 <1>   0.0800 
 32 H       -1.7990     4.3090     2.2820 H     1 <1>   0.0800 
 33 H       -1.2010    -6.4340     1.5730 H     1 <1>   0.1500 
 34 H       -5.0620    -5.8430    -1.3700 H     1 <1>   0.1500 
 35 H       -2.5160    -8.3680     0.8970 H     1 <1>   0.1500 
 36 H       -5.1910    -3.0900     0.7390 H     1 <1>   0.0800 
 37 H       -6.0160    -3.6740    -0.6800 H     1 <1>   0.0800 
 38 H       -4.4520    -4.0220    -2.8670 H     1 <1>   0.0800 
 39 H       -2.7670    -3.6350    -2.6460 H     1 <1>   0.0800 
 40 H       -4.4600    -8.0790    -0.5840 H     1 <1>   0.1500 
 41 H       -4.7100    -0.9500    -0.3630 H     1 <1>   0.0800 
 42 H       -6.4150    -1.2870    -0.5410 H     1 <1>   0.0800 
 43 H       -4.0900    -1.8020    -3.7740 H     1 <1>   0.0800 
 44 H       -3.3120    -1.2640    -2.3050 H     1 <1>   0.0800 
@<TRIPOS>BOND
  1   1   2  1   
  2   1   3  1   
  3   2   4  2   
  4   2   5  1   
  5   3   6  2   
  6   3   7  1   
  7   4   6  1   
  8   5   8  am  
  9   5  25  1   
 10   7   9  1   
 11   7  10  1   
 12   7  26  1   
 13   8  11  2   
 14   8  12  1   
 15   9  13  1   
 16  10  27  1   
 17  10  28  1   
 18  10  29  1   
 19  12  14  ar  
 20  12  15  ar  
 21  13  30  1   
 22  13  31  1   
 23  13  32  1   
 24  14  16  1   
 25  14  17  ar  
 26  15  18  ar  
 27  15  33  1   
 28  16  19  1   
 29  16  20  1   
 30  17  21  ar  
 31  17  34  1   
 32  18  21  ar  
 33  18  35  1   
 34  19  22  1   
 35  19  36  1   
 36  19  37  1   
 37  20  23  1   
 38  20  38  1   
 39  20  39  1   
 40  21  40  1   
 41  22  24  1   
 42  22  41  1   
 43  22  42  1   
 44  23  24  1   
 45  23  43  1   
 46  23  44  1   
@<TRIPOS>SUBSTRUCTURE
  1 ****   5 GROUP 4 **** **** 0

# MOE 2024.06 (io_trps.svl 2023.06)
