@<TRIPOS>MOLECULE
NONAME
57 59 1 0 0 
SMALL
USER_CHARGES


@<TRIPOS>ATOM
  1 O        0.2380     0.8680    -1.8540 O.co2 1 <1>  -0.9000 
  2 C       -0.5280     0.8950    -0.8860 C.2   1 <1>   0.9060 
  3 O       -1.1320    -0.1010    -0.4780 O.co2 1 <1>  -0.9000 
  4 C       -0.7970     2.2270    -0.2100 C.3   1 <1>  -0.1060 
  5 C       -2.3210     2.4440    -0.2140 C.3   1 <1>   0.2000 
  6 C       -0.1730     3.2830    -1.1160 C.3   1 <1>   0.3430 
  7 C       -0.1820     2.2450     1.2190 C.3   1 <1>  -0.0650 
  8 O       -2.9150     1.5740     0.6690 O.3   1 <1>  -0.6800 
  9 C       -2.7290     3.8640     0.1790 C.3   1 <1>  -0.1600 
 10 N       -0.5410     4.6580    -0.6680 N.4   1 <1>  -0.9590 
 11 C        1.3530     2.2560     1.2350 C.3   1 <1>  -0.1950 
 12 C       -2.0120     4.8910    -0.6900 C.3   1 <1>   0.3430 
 13 C        0.2030     5.6830    -1.4350 C.3   1 <1>   0.4810 
 14 C        2.0660     2.5770     2.5080 C.3   1 <1>  -0.2000 
 15 C        2.1470     3.5200     1.3440 C.3   1 <1>  -0.2000 
 16 C        0.7870     6.6740    -0.4410 C.2   1 <1>  -0.1670 
 17 C       -0.2340     7.3850     0.2930 C.ar  1 <1>   0.0280 
 18 C        2.0960     6.9050    -0.2150 C.2   1 <1>  -0.2880 
 19 C       -0.3800     7.1940     1.6640 C.ar  1 <1>  -0.1500 
 20 C       -1.1120     8.2540    -0.3480 C.ar  1 <1>  -0.1500 
 21 C        3.4070     6.3620    -0.7900 C.3   1 <1>   0.0580 
 22 C       -1.3890     7.8250     2.3670 C.ar  1 <1>  -0.1500 
 23 C       -2.1220     8.8890     0.3520 C.ar  1 <1>  -0.1500 
 24 C        4.1930     7.5320    -1.3850 C.3   1 <1>  -0.2400 
 25 C        3.2930     5.2520    -1.8380 C.3   1 <1>  -0.2400 
 26 C       -2.2650     8.6700     1.7110 C.ar  1 <1>  -0.1500 
 27 H       -2.7120     2.2120    -1.1930 H     1 <1>   0.0800 
 28 H       -0.5130     3.1200    -2.1260 H     1 <1>   0.0800 
 29 H        0.8970     3.1540    -1.1100 H     1 <1>   0.0800 
 30 H       -0.5420     3.0860     1.7810 H     1 <1>   0.0800 
 31 H       -0.5080     1.3610     1.7420 H     1 <1>   0.0800 
 32 H       -2.5320     0.6720     0.4700 H     1 <1>   0.4000 
 33 H       -3.7900     3.9730     0.0440 H     1 <1>   0.0800 
 34 H       -2.5090     4.0520     1.2140 H     1 <1>   0.0800 
 35 H       -0.2140     4.7420     0.3030 H     1 <1>   0.4500 
 36 H        1.7710     1.4460     0.6560 H     1 <1>   0.1000 
 37 H       -2.2380     5.8810    -0.3270 H     1 <1>   0.0800 
 38 H       -2.3740     4.8100    -1.7030 H     1 <1>   0.0800 
 39 H        0.9760     5.2150    -2.0100 H     1 <1>   0.0800 
 40 H       -0.4560     6.1910    -2.1190 H     1 <1>   0.0800 
 41 H        1.4890     2.8600     3.3720 H     1 <1>   0.1000 
 42 H        2.9310     1.9900     2.7670 H     1 <1>   0.1000 
 43 H        3.0880     3.5900     0.8260 H     1 <1>   0.1000 
 44 H        1.6630     4.4730     1.4500 H     1 <1>   0.1000 
 45 H        2.3440     7.6410     0.5340 H     1 <1>   0.1500 
 46 H        0.3030     6.5480     2.1870 H     1 <1>   0.1500 
 47 H       -1.0020     8.4470    -1.4000 H     1 <1>   0.1500 
 48 H        3.9790     5.9670     0.0350 H     1 <1>   0.0800 
 49 H       -1.4920     7.6660     3.4270 H     1 <1>   0.1500 
 50 H       -2.7950     9.5610    -0.1540 H     1 <1>   0.1500 
 51 H        3.6510     7.9750    -2.2010 H     1 <1>   0.0800 
 52 H        5.1500     7.1990    -1.7460 H     1 <1>   0.0800 
 53 H        4.3630     8.2880    -0.6380 H     1 <1>   0.0800 
 54 H        2.8070     5.6110    -2.7270 H     1 <1>   0.0800 
 55 H        2.7660     4.4040    -1.4430 H     1 <1>   0.0800 
 56 H        4.2770     4.9160    -2.1160 H     1 <1>   0.0800 
 57 H       -3.0500     9.1660     2.2580 H     1 <1>   0.1500 
@<TRIPOS>BOND
  1   1   2  ar  
  2   2   3  ar  
  3   2   4  1   
  4   4   5  1   
  5   4   6  1   
  6   4   7  1   
  7   5   8  1   
  8   5   9  1   
  9   5  27  1   
 10   6  10  1   
 11   6  28  1   
 12   6  29  1   
 13   7  11  1   
 14   7  30  1   
 15   7  31  1   
 16   8  32  1   
 17   9  12  1   
 18   9  33  1   
 19   9  34  1   
 20  10  12  1   
 21  10  13  1   
 22  10  35  1   
 23  11  14  1   
 24  11  15  1   
 25  11  36  1   
 26  12  37  1   
 27  12  38  1   
 28  13  16  1   
 29  13  39  1   
 30  13  40  1   
 31  14  15  1   
 32  14  41  1   
 33  14  42  1   
 34  15  43  1   
 35  15  44  1   
 36  16  17  1   
 37  16  18  2   
 38  17  19  ar  
 39  17  20  ar  
 40  18  21  1   
 41  18  45  1   
 42  19  22  ar  
 43  19  46  1   
 44  20  23  ar  
 45  20  47  1   
 46  21  24  1   
 47  21  25  1   
 48  21  48  1   
 49  22  26  ar  
 50  22  49  1   
 51  23  26  ar  
 52  23  50  1   
 53  24  51  1   
 54  24  52  1   
 55  24  53  1   
 56  25  54  1   
 57  25  55  1   
 58  25  56  1   
 59  26  57  1   
@<TRIPOS>SUBSTRUCTURE
  1 ****  10 GROUP 4 **** **** 0

# MOE 2024.06 (io_trps.svl 2023.06)
