@<TRIPOS>MOLECULE
NONAME
38 39 1 0 0 
SMALL
USER_CHARGES


@<TRIPOS>ATOM
  1 F       -0.3420     0.3150     1.2230 F     1 <1>  -0.3400 
  2 C       -1.2150     0.8290     0.3650 C.3   1 <1>   1.3000 
  3 F       -0.7280     0.6860    -0.8620 F     1 <1>  -0.3400 
  4 F       -1.3130     2.1270     0.6150 F     1 <1>  -0.3400 
  5 O       -2.4820     0.2140     0.4900 O.3   1 <1>  -0.3620 
  6 C       -2.5540    -1.1140     0.2640 C.ar  1 <1>   0.0830 
  7 C       -2.3800    -2.0040     1.3120 C.ar  1 <1>  -0.1500 
  8 C       -2.8220    -1.5840    -1.0110 C.ar  1 <1>  -0.1500 
  9 C       -2.4640    -3.3660     1.0800 C.ar  1 <1>  -0.1500 
 10 C       -2.9050    -2.9460    -1.2420 C.ar  1 <1>  -0.1500 
 11 C       -2.7300    -3.8440    -0.1970 C.ar  1 <1>  -0.1430 
 12 C       -2.8340    -5.3390    -0.4490 C.3   1 <1>   0.4870 
 13 N       -4.2660    -5.7030    -0.5860 N.4   1 <1>  -0.9590 
 14 C       -4.3880    -7.1020    -1.1260 C.3   1 <1>   0.3430 
 15 C       -4.9970    -5.4730     0.7110 C.3   1 <1>   0.3430 
 16 C       -4.5280    -8.0950     0.0090 C.3   1 <1>  -0.1860 
 17 C       -6.2320    -6.3610     0.7950 C.3   1 <1>  -0.1600 
 18 C       -4.5650    -9.4780    -0.5540 C.2   1 <1>   0.9060 
 19 C       -5.8110    -7.8330     0.8010 C.3   1 <1>   0.2000 
 20 O       -4.4340    -9.6120    -1.7730 O.co2 1 <1>  -0.9000 
 21 O       -4.7300   -10.4080     0.2340 O.co2 1 <1>  -0.9000 
 22 O       -5.5420    -8.1980     2.0970 O.3   1 <1>  -0.6800 
 23 H       -2.1790    -1.6300     2.3020 H     1 <1>   0.1500 
 24 H       -2.9620    -0.8850    -1.8190 H     1 <1>   0.1500 
 25 H       -2.3180    -4.0440     1.9050 H     1 <1>   0.1500 
 26 H       -3.1020    -3.2920    -2.2420 H     1 <1>   0.1500 
 27 H       -2.3890    -5.8880     0.3650 H     1 <1>   0.0800 
 28 H       -2.3030    -5.5850    -1.3540 H     1 <1>   0.0800 
 29 H       -4.6660    -5.0670    -1.2840 H     1 <1>   0.4500 
 30 H       -5.2620    -7.1840    -1.7520 H     1 <1>   0.0800 
 31 H       -3.5330    -7.3620    -1.7320 H     1 <1>   0.0800 
 32 H       -4.3550    -5.7250     1.5400 H     1 <1>   0.0800 
 33 H       -5.2730    -4.4350     0.8010 H     1 <1>   0.0800 
 34 H       -3.6580    -8.0340     0.6340 H     1 <1>   0.0800 
 35 H       -6.8680    -6.1660    -0.0500 H     1 <1>   0.0800 
 36 H       -6.7970    -6.1390     1.6830 H     1 <1>   0.0800 
 37 H       -6.6230    -8.4520     0.4500 H     1 <1>   0.0800 
 38 H       -5.3020    -9.1580     2.0760 H     1 <1>   0.4000 
@<TRIPOS>BOND
  1   1   2  1   
  2   2   3  1   
  3   2   4  1   
  4   2   5  1   
  5   5   6  1   
  6   6   7  ar  
  7   6   8  ar  
  8   7   9  ar  
  9   7  23  1   
 10   8  10  ar  
 11   8  24  1   
 12   9  11  ar  
 13   9  25  1   
 14  10  11  ar  
 15  10  26  1   
 16  11  12  1   
 17  12  13  1   
 18  12  27  1   
 19  12  28  1   
 20  13  14  1   
 21  13  15  1   
 22  13  29  1   
 23  14  16  1   
 24  14  30  1   
 25  14  31  1   
 26  15  17  1   
 27  15  32  1   
 28  15  33  1   
 29  16  18  1   
 30  16  19  1   
 31  16  34  1   
 32  17  19  1   
 33  17  35  1   
 34  17  36  1   
 35  18  20  ar  
 36  18  21  ar  
 37  19  22  1   
 38  19  37  1   
 39  22  38  1   
@<TRIPOS>SUBSTRUCTURE
  1 ****  11 GROUP 4 **** **** 0

# MOE 2024.06 (io_trps.svl 2023.06)
