@<TRIPOS>MOLECULE
NONAME
57 59 1 0 0 
SMALL
USER_CHARGES


@<TRIPOS>ATOM
  1 O       -1.6070     0.4560     2.4430 O.2   1 <1>  -0.5700 
  2 C       -1.7740     0.9510     1.3440 C.2   1 <1>   0.5440 
  3 N       -2.0940     0.1390     0.2810 N.am  1 <1>  -0.6600 
  4 C       -1.6570     2.3840     1.1980 C.ar  1 <1>   0.0860 
  5 C       -2.0800    -1.3570     0.4140 C.3   1 <1>   0.3640 
  6 C       -2.5010     0.6950    -1.0470 C.3   1 <1>   0.1400 
  7 C       -0.6140     2.9760     0.4780 C.ar  1 <1>   0.0830 
  8 C       -2.6020     3.2220     1.7890 C.ar  1 <1>  -0.1500 
  9 C       -0.7260    -1.9580     0.0020 C.ar  1 <1>  -0.1440 
 10 C       -3.2490    -2.0370    -0.3680 C.3   1 <1>   0.2000 
 11 C       -2.8800    -0.4030    -2.0500 C.3   1 <1>   0.1200 
 12 O        0.3290     2.1970    -0.1020 O.3   1 <1>  -0.3630 
 13 C       -0.5370     4.3630     0.3330 C.ar  1 <1>   0.0830 
 14 C       -2.5310     4.5940     1.6550 C.ar  1 <1>  -0.1500 
 15 C       -0.4390    -3.2520     0.4210 C.ar  1 <1>  -0.1500 
 16 C        0.2260    -1.2840    -0.7570 C.ar  1 <1>  -0.1500 
 17 O       -3.7680    -1.2910    -1.4480 O.3   1 <1>  -0.5600 
 18 C       -4.4330    -2.3410     0.5580 C.3   1 <1>   0.1200 
 19 C        1.3650     1.7350     0.7370 C.3   1 <1>   0.0400 
 20 O        0.5010     4.8720    -0.3910 O.3   1 <1>  -0.3630 
 21 C       -1.5030     5.1680     0.9260 C.ar  1 <1>  -0.1500 
 22 C        0.7510    -3.8720     0.0800 C.ar  1 <1>   0.0830 
 23 C        1.4280    -1.8860    -1.0880 C.ar  1 <1>  -0.1500 
 24 O       -4.1100    -3.3780     1.4300 O.3   1 <1>  -0.6800 
 25 C        0.6540     6.2590    -0.5960 C.3   1 <1>   0.0400 
 26 O        0.9250    -5.1530     0.4910 O.3   1 <1>  -0.3630 
 27 C        1.7080    -3.1710    -0.6620 C.ar  1 <1>   0.0830 
 28 C        1.0380    -6.1290    -0.5220 C.3   1 <1>   0.0400 
 29 O        2.9190    -3.6880    -0.9830 O.3   1 <1>  -0.3630 
 30 C        3.7990    -3.9240     0.0940 C.3   1 <1>   0.0400 
 31 H       -2.2050    -1.6090     1.4540 H     1 <1>   0.0800 
 32 H       -3.3480     1.3450    -0.9090 H     1 <1>   0.0800 
 33 H       -1.6980     1.2810    -1.4580 H     1 <1>   0.0800 
 34 H       -3.3990     2.7780     2.3610 H     1 <1>   0.1500 
 35 H       -2.9030    -2.9650    -0.7840 H     1 <1>   0.0800 
 36 H       -2.0150    -0.9470    -2.3870 H     1 <1>   0.0800 
 37 H       -3.3700     0.0280    -2.9050 H     1 <1>   0.0800 
 38 H       -3.2750     5.2200     2.1190 H     1 <1>   0.1500 
 39 H       -1.1450    -3.7990     1.0210 H     1 <1>   0.1500 
 40 H        0.0520    -0.2800    -1.0950 H     1 <1>   0.1500 
 41 H       -5.2940    -2.6410    -0.0120 H     1 <1>   0.0800 
 42 H       -4.6740    -1.4730     1.1470 H     1 <1>   0.0800 
 43 H        2.0660     1.1860     0.1350 H     1 <1>   0.0800 
 44 H        0.9500     1.0900     1.4920 H     1 <1>   0.0800 
 45 H        1.8490     2.5820     1.1890 H     1 <1>   0.0800 
 46 H       -1.4760     6.2370     0.8380 H     1 <1>   0.1500 
 47 H        2.1580    -1.3550    -1.6710 H     1 <1>   0.1500 
 48 H       -4.1490    -4.2410     0.9730 H     1 <1>   0.4000 
 49 H        1.5340     6.4120    -1.1940 H     1 <1>   0.0800 
 50 H        0.7730     6.7420     0.3580 H     1 <1>   0.0800 
 51 H       -0.2100     6.6330    -1.1160 H     1 <1>   0.0800 
 52 H        1.0290    -7.0980    -0.0560 H     1 <1>   0.0800 
 53 H        1.9610    -5.9880    -1.0530 H     1 <1>   0.0800 
 54 H        0.2030    -6.0330    -1.1920 H     1 <1>   0.0800 
 55 H        4.7440    -4.2410    -0.3070 H     1 <1>   0.0800 
 56 H        3.3920    -4.6940     0.7250 H     1 <1>   0.0800 
 57 H        3.9190    -3.0110     0.6490 H     1 <1>   0.0800 
@<TRIPOS>BOND
  1   1   2  2   
  2   2   3  am  
  3   2   4  1   
  4   3   5  1   
  5   3   6  1   
  6   4   7  ar  
  7   4   8  ar  
  8   5   9  1   
  9   5  10  1   
 10   5  31  1   
 11   6  11  1   
 12   6  32  1   
 13   6  33  1   
 14   7  12  1   
 15   7  13  ar  
 16   8  14  ar  
 17   8  34  1   
 18   9  15  ar  
 19   9  16  ar  
 20  10  17  1   
 21  10  18  1   
 22  10  35  1   
 23  11  17  1   
 24  11  36  1   
 25  11  37  1   
 26  12  19  1   
 27  13  20  1   
 28  13  21  ar  
 29  14  21  ar  
 30  14  38  1   
 31  15  22  ar  
 32  15  39  1   
 33  16  23  ar  
 34  16  40  1   
 35  18  24  1   
 36  18  41  1   
 37  18  42  1   
 38  19  43  1   
 39  19  44  1   
 40  19  45  1   
 41  20  25  1   
 42  21  46  1   
 43  22  26  1   
 44  22  27  ar  
 45  23  27  ar  
 46  23  47  1   
 47  24  48  1   
 48  25  49  1   
 49  25  50  1   
 50  25  51  1   
 51  26  28  1   
 52  27  29  1   
 53  28  52  1   
 54  28  53  1   
 55  28  54  1   
 56  29  30  1   
 57  30  55  1   
 58  30  56  1   
 59  30  57  1   
@<TRIPOS>SUBSTRUCTURE
  1 ****   3 GROUP 4 **** **** 0

# MOE 2024.06 (io_trps.svl 2023.06)
