@<TRIPOS>MOLECULE
NONAME
56 58 1 0 0 
SMALL
USER_CHARGES


@<TRIPOS>ATOM
  1 O       -0.7280    -0.4820     1.1550 O.2   1 <1>  -0.5700 
  2 C       -0.3780    -1.4150     0.4710 C.2   1 <1>   0.5690 
  3 N        0.9350    -1.7210     0.3160 N.am  1 <1>  -0.7300 
  4 C       -1.4630    -2.2460    -0.2390 C.3   1 <1>   0.4040 
  5 C        2.0320    -1.0400     1.0270 C.3   1 <1>   0.2840 
  6 N       -2.7530    -1.4980    -0.4750 N.4   1 <1>  -0.9590 
  7 C        3.2450    -1.9500     0.9420 C.ar  1 <1>  -0.1430 
  8 C       -3.9030    -2.3420    -0.8760 C.3   1 <1>   0.3430 
  9 C       -2.5900    -0.2880    -1.3310 C.3   1 <1>   0.3430 
 10 C        4.1650    -1.8700    -0.1010 C.ar  1 <1>  -0.1430 
 11 C        3.4210    -2.9010     1.9380 C.ar  1 <1>  -0.1500 
 12 C       -5.2130    -1.5630    -0.6900 C.3   1 <1>  -0.1600 
 13 C       -3.9420     0.3910    -1.5890 C.3   1 <1>  -0.1600 
 14 C        5.2420    -2.7430    -0.1270 C.ar  1 <1>  -0.1500 
 15 C        4.0300    -0.8460    -1.2200 C.3   1 <1>  -0.0970 
 16 C        4.4980    -3.7670     1.9040 C.ar  1 <1>  -0.1500 
 17 C       -5.0350    -0.0330    -0.5960 C.3   1 <1>   0.2800 
 18 C        5.4100    -3.6880     0.8690 C.ar  1 <1>  -0.1500 
 19 O       -4.5250     0.2280     0.6900 O.3   1 <1>  -0.5600 
 20 C       -6.3500     0.7300    -0.8740 C.3   1 <1>  -0.1600 
 21 C       -5.2650     0.9970     1.5990 C.3   1 <1>   0.1200 
 22 C       -7.3750     0.6470     0.2720 C.3   1 <1>   0.2800 
 23 C       -6.7030     0.4840     1.6400 C.3   1 <1>  -0.1600 
 24 O       -8.0430     1.8470     0.2840 O.3   1 <1>  -0.6800 
 25 C       -8.4510    -0.4140     0.0410 C.3   1 <1>  -0.2400 
 26 H        1.2720    -2.5330    -0.2100 H     1 <1>   0.3700 
 27 H       -1.6620    -3.1060     0.3760 H     1 <1>   0.0800 
 28 H       -1.0700    -2.5910    -1.1790 H     1 <1>   0.0800 
 29 H        1.7570    -0.8740     2.0560 H     1 <1>   0.0800 
 30 H        2.2260    -0.0830     0.5750 H     1 <1>   0.0800 
 31 H       -3.0240    -1.0750     0.4400 H     1 <1>   0.4500 
 32 H       -3.9370    -3.2390    -0.2790 H     1 <1>   0.0800 
 33 H       -3.7950    -2.6250    -1.9100 H     1 <1>   0.0800 
 34 H       -2.1300    -0.5470    -2.2710 H     1 <1>   0.0800 
 35 H       -1.9450     0.4120    -0.8210 H     1 <1>   0.0800 
 36 H        2.7190    -2.9730     2.7500 H     1 <1>   0.1500 
 37 H       -5.7090    -1.9220     0.1930 H     1 <1>   0.0800 
 38 H       -5.8500    -1.8030    -1.5210 H     1 <1>   0.0800 
 39 H       -4.2620     0.1530    -2.5880 H     1 <1>   0.0800 
 40 H       -3.8060     1.4570    -1.5540 H     1 <1>   0.0800 
 41 H        5.9640    -2.6940    -0.9230 H     1 <1>   0.1500 
 42 H        3.0530    -0.9000    -1.6650 H     1 <1>   0.0800 
 43 H        4.7580    -1.0220    -1.9920 H     1 <1>   0.0800 
 44 H        4.1870     0.1440    -0.8310 H     1 <1>   0.0800 
 45 H        4.6270    -4.5010     2.6810 H     1 <1>   0.1500 
 46 H        6.2510    -4.3600     0.8390 H     1 <1>   0.1500 
 47 H       -6.7930     0.3750    -1.7870 H     1 <1>   0.0800 
 48 H       -6.0930     1.7610    -1.0430 H     1 <1>   0.0800 
 49 H       -5.2220     2.0290     1.2940 H     1 <1>   0.0800 
 50 H       -4.8000     0.9010     2.5650 H     1 <1>   0.0800 
 51 H       -7.2650     0.9980     2.4010 H     1 <1>   0.0800 
 52 H       -6.6740    -0.5530     1.9210 H     1 <1>   0.0800 
 53 H       -7.4370     2.5730     0.5160 H     1 <1>   0.4000 
 54 H       -8.0220    -1.3970     0.0080 H     1 <1>   0.0800 
 55 H       -8.9620    -0.2340    -0.8880 H     1 <1>   0.0800 
 56 H       -9.1700    -0.3890     0.8410 H     1 <1>   0.0800 
@<TRIPOS>BOND
  1   1   2  2   
  2   2   3  am  
  3   2   4  1   
  4   3   5  1   
  5   3  26  1   
  6   4   6  1   
  7   4  27  1   
  8   4  28  1   
  9   5   7  1   
 10   5  29  1   
 11   5  30  1   
 12   6   8  1   
 13   6   9  1   
 14   6  31  1   
 15   7  10  ar  
 16   7  11  ar  
 17   8  12  1   
 18   8  32  1   
 19   8  33  1   
 20   9  13  1   
 21   9  34  1   
 22   9  35  1   
 23  10  14  ar  
 24  10  15  1   
 25  11  16  ar  
 26  11  36  1   
 27  12  17  1   
 28  12  37  1   
 29  12  38  1   
 30  13  17  1   
 31  13  39  1   
 32  13  40  1   
 33  14  18  ar  
 34  14  41  1   
 35  15  42  1   
 36  15  43  1   
 37  15  44  1   
 38  16  18  ar  
 39  16  45  1   
 40  17  19  1   
 41  17  20  1   
 42  18  46  1   
 43  19  21  1   
 44  20  22  1   
 45  20  47  1   
 46  20  48  1   
 47  21  23  1   
 48  21  49  1   
 49  21  50  1   
 50  22  23  1   
 51  22  24  1   
 52  22  25  1   
 53  23  51  1   
 54  23  52  1   
 55  24  53  1   
 56  25  54  1   
 57  25  55  1   
 58  25  56  1   
@<TRIPOS>SUBSTRUCTURE
  1 ****   2 GROUP 4 **** **** 0

# MOE 2024.06 (io_trps.svl 2023.06)
