@<TRIPOS>MOLECULE
NONAME
38 39 1 0 0 
SMALL
USER_CHARGES


@<TRIPOS>ATOM
  1 O       -0.6390     0.3740    -0.5940 O.3   1 <1>  -0.5600 
  2 C       -1.3580     0.5500     0.5890 C.3   1 <1>   0.3440 
  3 C        0.7440     0.4160    -0.4670 C.3   1 <1>   0.1200 
  4 C       -2.6900    -0.1870     0.4770 C.ar  1 <1>  -0.1440 
  5 C       -1.5890     2.0460     0.7970 C.3   1 <1>  -0.2400 
  6 C        1.3340     0.2170    -1.8570 C.3   1 <1>  -0.2400 
  7 C       -3.4010    -0.2160    -0.7140 C.ar  1 <1>  -0.1500 
  8 C       -3.2210    -0.8340     1.5840 C.ar  1 <1>  -0.1500 
  9 C       -4.6130    -0.8760    -0.7960 C.ar  1 <1>  -0.1500 
 10 C       -4.4340    -1.4930     1.4980 C.ar  1 <1>  -0.1500 
 11 C       -5.1530    -1.5270     0.3080 C.ar  1 <1>   0.0000 
 12 C       -6.4220    -2.2130     0.2210 C.ar  1 <1>   0.0000 
 13 C       -6.5370    -3.5670     0.5310 C.ar  1 <1>   0.1600 
 14 C       -7.5710    -1.5490    -0.1740 C.ar  1 <1>  -0.1500 
 15 N       -7.6530    -4.2800     0.4880 N.ar  1 <1>  -0.6200 
 16 C       -8.7500    -2.2590    -0.2340 C.ar  1 <1>   0.0820 
 17 C       -8.7310    -3.6120     0.1070 C.ar  1 <1>   0.1600 
 18 O       -9.8600    -1.5800    -0.6250 O.3   1 <1>  -0.3620 
 19 C      -11.1160    -2.2170    -0.7070 C.3   1 <1>   0.0400 
 20 H       -0.7910     0.1360     1.4060 H     1 <1>   0.0800 
 21 H        1.0570    -0.3760     0.1930 H     1 <1>   0.0800 
 22 H        1.0350     1.3710    -0.0670 H     1 <1>   0.0800 
 23 H       -2.1080     2.4570    -0.0500 H     1 <1>   0.0800 
 24 H       -0.6570     2.5620     0.9330 H     1 <1>   0.0800 
 25 H       -2.1930     2.1980     1.6720 H     1 <1>   0.0800 
 26 H        1.0270    -0.7340    -2.2550 H     1 <1>   0.0800 
 27 H        2.4070     0.2390    -1.8050 H     1 <1>   0.0800 
 28 H        1.0040     1.0030    -2.5130 H     1 <1>   0.0800 
 29 H       -3.0010     0.2780    -1.5840 H     1 <1>   0.1500 
 30 H       -2.6910    -0.8250     2.5200 H     1 <1>   0.1500 
 31 H       -5.1460    -0.8900    -1.7310 H     1 <1>   0.1500 
 32 H       -4.8330    -1.9840     2.3680 H     1 <1>   0.1500 
 33 H       -5.6440    -4.0880     0.8300 H     1 <1>   0.1500 
 34 H       -7.5510    -0.5040    -0.4250 H     1 <1>   0.1500 
 35 H       -9.6420    -4.1790     0.0680 H     1 <1>   0.1500 
 36 H      -11.8380    -1.4890    -1.0320 H     1 <1>   0.0800 
 37 H      -11.3850    -2.5880     0.2660 H     1 <1>   0.0800 
 38 H      -11.0570    -3.0170    -1.4240 H     1 <1>   0.0800 
@<TRIPOS>BOND
  1   1   2  1   
  2   1   3  1   
  3   2   4  1   
  4   2   5  1   
  5   2  20  1   
  6   3   6  1   
  7   3  21  1   
  8   3  22  1   
  9   4   7  ar  
 10   4   8  ar  
 11   5  23  1   
 12   5  24  1   
 13   5  25  1   
 14   6  26  1   
 15   6  27  1   
 16   6  28  1   
 17   7   9  ar  
 18   7  29  1   
 19   8  10  ar  
 20   8  30  1   
 21   9  11  ar  
 22   9  31  1   
 23  10  11  ar  
 24  10  32  1   
 25  11  12  1   
 26  12  13  ar  
 27  12  14  ar  
 28  13  15  ar  
 29  13  33  1   
 30  14  16  ar  
 31  14  34  1   
 32  15  17  ar  
 33  16  17  ar  
 34  16  18  1   
 35  17  35  1   
 36  18  19  1   
 37  19  36  1   
 38  19  37  1   
 39  19  38  1   
@<TRIPOS>SUBSTRUCTURE
  1 ****  11 GROUP 4 **** **** 0

# MOE 2024.06 (io_trps.svl 2023.06)
