@<TRIPOS>MOLECULE
NONAME
48 51 1 0 0 
SMALL
USER_CHARGES


@<TRIPOS>ATOM
  1 F        0.9710     0.4790    -2.2770 F     1 <1>  -0.1900 
  2 C        1.5780    -0.3690    -1.4900 C.ar  1 <1>   0.1900 
  3 C        1.4880    -1.7160    -1.7710 C.ar  1 <1>  -0.1500 
  4 C        2.2800     0.1200    -0.4060 C.ar  1 <1>  -0.1500 
  5 C        2.1150    -2.6470    -0.9400 C.ar  1 <1>   0.0860 
  6 C        2.9220    -0.7860     0.4170 C.ar  1 <1>  -0.1500 
  7 C        2.8510    -2.1470     0.1470 C.ar  1 <1>   0.0830 
  8 C        1.9770    -4.0630    -1.2240 C.2   1 <1>   0.5440 
  9 O        3.5070    -2.9760     0.9820 O.3   1 <1>  -0.3630 
 10 O        2.0600    -4.4540    -2.3710 O.2   1 <1>  -0.5700 
 11 N        1.6730    -5.0030    -0.2600 N.am  1 <1>  -0.6600 
 12 C        4.7840    -3.4090     0.5650 C.3   1 <1>   0.0400 
 13 C        0.8900    -4.6840     0.9700 C.3   1 <1>   0.1400 
 14 C        1.7600    -6.4640    -0.5470 C.3   1 <1>   0.1400 
 15 C       -0.5340    -5.2820     0.8810 C.3   1 <1>   0.4230 
 16 C        0.3460    -7.0510    -0.6830 C.3   1 <1>   0.3430 
 17 N       -0.5150    -6.7620     0.5300 N.4   1 <1>  -0.9590 
 18 C       -1.3910    -4.4870    -0.1330 C.3   1 <1>   0.1200 
 19 C       -1.9250    -7.2490     0.3760 C.3   1 <1>   0.5180 
 20 O       -2.6820    -5.0250    -0.2100 O.3   1 <1>  -0.5600 
 21 C       -1.9260    -8.7260    -0.0340 C.3   1 <1>  -0.1950 
 22 C       -2.7380    -6.3690    -0.6010 C.3   1 <1>   0.1200 
 23 C       -2.9450    -9.6630     0.5380 C.3   1 <1>  -0.2000 
 24 C       -1.4980    -9.8070     0.9130 C.3   1 <1>  -0.2000 
 25 H        0.9350    -2.0440    -2.6330 H     1 <1>   0.1500 
 26 H        2.3220     1.1780    -0.2190 H     1 <1>   0.1500 
 27 H        3.4840    -0.4430     1.2690 H     1 <1>   0.1500 
 28 H        5.1990    -4.0310     1.3380 H     1 <1>   0.0800 
 29 H        5.4110    -2.5490     0.4080 H     1 <1>   0.0800 
 30 H        4.6870    -3.9720    -0.3470 H     1 <1>   0.0800 
 31 H        1.4030    -5.0860     1.8270 H     1 <1>   0.0800 
 32 H        0.8190    -3.6200     1.1130 H     1 <1>   0.0800 
 33 H        2.3100    -6.6410    -1.4570 H     1 <1>   0.0800 
 34 H        2.2910    -6.9560     0.2490 H     1 <1>   0.0800 
 35 H       -0.9980    -5.1570     1.8460 H     1 <1>   0.0800 
 36 H        0.4250    -8.1150    -0.8330 H     1 <1>   0.0800 
 37 H       -0.1070    -6.6260    -1.5630 H     1 <1>   0.0800 
 38 H       -0.1120    -7.2760     1.3200 H     1 <1>   0.4500 
 39 H       -0.9520    -4.4960    -1.1160 H     1 <1>   0.0800 
 40 H       -1.4880    -3.4630     0.1840 H     1 <1>   0.0800 
 41 H       -2.4120    -7.1810     1.3360 H     1 <1>   0.0800 
 42 H       -1.7260    -8.8670    -1.0830 H     1 <1>   0.1000 
 43 H       -3.7710    -6.6690    -0.5910 H     1 <1>   0.0800 
 44 H       -2.3690    -6.4530    -1.6080 H     1 <1>   0.0800 
 45 H       -3.6330    -9.3240     1.2950 H     1 <1>   0.1000 
 46 H       -3.3820   -10.4160    -0.0970 H     1 <1>   0.1000 
 47 H       -0.9650   -10.6630     0.5330 H     1 <1>   0.1000 
 48 H       -1.2300    -9.5820     1.9310 H     1 <1>   0.1000 
@<TRIPOS>BOND
  1   1   2  1   
  2   2   3  ar  
  3   2   4  ar  
  4   3   5  ar  
  5   3  25  1   
  6   4   6  ar  
  7   4  26  1   
  8   5   7  ar  
  9   5   8  1   
 10   6   7  ar  
 11   6  27  1   
 12   7   9  1   
 13   8  10  2   
 14   8  11  am  
 15   9  12  1   
 16  11  13  1   
 17  11  14  1   
 18  12  28  1   
 19  12  29  1   
 20  12  30  1   
 21  13  15  1   
 22  13  31  1   
 23  13  32  1   
 24  14  16  1   
 25  14  33  1   
 26  14  34  1   
 27  15  17  1   
 28  15  18  1   
 29  15  35  1   
 30  16  17  1   
 31  16  36  1   
 32  16  37  1   
 33  17  19  1   
 34  17  38  1   
 35  18  20  1   
 36  18  39  1   
 37  18  40  1   
 38  19  21  1   
 39  19  22  1   
 40  19  41  1   
 41  20  22  1   
 42  21  23  1   
 43  21  24  1   
 44  21  42  1   
 45  22  43  1   
 46  22  44  1   
 47  23  24  1   
 48  23  45  1   
 49  23  46  1   
 50  24  47  1   
 51  24  48  1   
@<TRIPOS>SUBSTRUCTURE
  1 ****  11 GROUP 4 **** **** 0

# MOE 2024.06 (io_trps.svl 2023.06)
