@<TRIPOS>MOLECULE
NONAME
53 55 1 0 0 
SMALL
USER_CHARGES


@<TRIPOS>ATOM
  1 CL      -2.0910    -1.6330    -1.8660 Cl    1 <1>  -0.1770 
  2 C       -2.9200    -0.4600    -0.8630 C.ar  1 <1>   0.1770 
  3 C       -3.7130    -0.8830     0.1970 C.ar  1 <1>   0.0830 
  4 C       -2.7720     0.8820    -1.1620 C.ar  1 <1>  -0.1500 
  5 O       -3.8140    -2.2170     0.4330 O.3   1 <1>  -0.3630 
  6 C       -4.3670     0.0760     0.9680 C.ar  1 <1>  -0.1500 
  7 C       -3.4280     1.8270    -0.3910 C.ar  1 <1>  -0.1500 
  8 C       -4.8850    -2.7500     1.1990 C.3   1 <1>   0.1810 
  9 C       -4.2220     1.4220     0.6700 C.ar  1 <1>  -0.1500 
 10 C       -4.8970    -4.2780     1.1670 C.2   1 <1>   0.5690 
 11 O       -4.9330    -4.8430     2.2340 O.2   1 <1>  -0.5700 
 12 N       -4.9010    -4.9740    -0.0160 N.am  1 <1>  -0.6600 
 13 C       -4.8870    -6.4760    -0.0210 C.3   1 <1>   0.3640 
 14 C       -4.9220    -4.3180    -1.3650 C.3   1 <1>   0.1400 
 15 C       -3.4700    -7.0410    -0.2330 C.ar  1 <1>  -0.1430 
 16 C       -5.8960    -7.0430    -1.0730 C.3   1 <1>   0.2000 
 17 C       -5.0880    -5.3310    -2.5080 C.3   1 <1>   0.1200 
 18 C       -3.2930    -8.4180    -0.1470 C.ar  1 <1>  -0.1500 
 19 C       -2.3510    -6.2510    -0.4880 C.ar  1 <1>  -0.1500 
 20 O       -6.1170    -6.2160    -2.1970 O.3   1 <1>  -0.5600 
 21 C       -7.2710    -7.2930    -0.4430 C.3   1 <1>   0.1200 
 22 C       -2.0530    -9.0020    -0.3420 C.ar  1 <1>   0.0830 
 23 C       -1.1030    -6.8210    -0.6660 C.ar  1 <1>  -0.1500 
 24 O       -7.2130    -8.3790     0.4270 O.3   1 <1>  -0.6800 
 25 O       -1.9900   -10.3560    -0.2890 O.3   1 <1>  -0.3630 
 26 C       -0.9400    -8.1920    -0.5830 C.ar  1 <1>   0.0830 
 27 C       -1.5720   -11.0190    -1.4630 C.3   1 <1>   0.0400 
 28 O        0.3140    -8.6850    -0.7260 O.3   1 <1>  -0.3630 
 29 C        0.8950    -9.2300     0.4380 C.3   1 <1>   0.0400 
 30 H       -2.1520     1.1800    -1.9880 H     1 <1>   0.1500 
 31 H       -4.9830    -0.2020     1.8030 H     1 <1>   0.1500 
 32 H       -3.3200     2.8750    -0.6140 H     1 <1>   0.1500 
 33 H       -4.7640    -2.4240     2.2150 H     1 <1>   0.0800 
 34 H       -5.8100    -2.3770     0.8020 H     1 <1>   0.0800 
 35 H       -4.7280     2.1610     1.2680 H     1 <1>   0.1500 
 36 H       -5.1980    -6.8310     0.9470 H     1 <1>   0.0800 
 37 H       -5.7360    -3.6160    -1.4060 H     1 <1>   0.0800 
 38 H       -4.0070    -3.7750    -1.5200 H     1 <1>   0.0800 
 39 H       -5.5320    -7.9770    -1.4590 H     1 <1>   0.0800 
 40 H       -4.1820    -5.8890    -2.6730 H     1 <1>   0.0800 
 41 H       -5.3490    -4.8230    -3.4200 H     1 <1>   0.0800 
 42 H       -4.1250    -9.0630     0.0740 H     1 <1>   0.1500 
 43 H       -2.4260    -5.1800    -0.5400 H     1 <1>   0.1500 
 44 H       -8.0030    -7.5110    -1.2010 H     1 <1>   0.0800 
 45 H       -7.5820    -6.4310     0.1230 H     1 <1>   0.0800 
 46 H       -0.2470    -6.2000    -0.8600 H     1 <1>   0.1500 
 47 H       -7.2250    -9.2230    -0.0680 H     1 <1>   0.4000 
 48 H       -1.7450   -12.0720    -1.3340 H     1 <1>   0.0800 
 49 H       -0.5240   -10.8390    -1.6220 H     1 <1>   0.0800 
 50 H       -2.1450   -10.6490    -2.2950 H     1 <1>   0.0800 
 51 H        1.9020    -9.5240     0.2060 H     1 <1>   0.0800 
 52 H        0.3250   -10.0850     0.7530 H     1 <1>   0.0800 
 53 H        0.8960    -8.4790     1.2080 H     1 <1>   0.0800 
@<TRIPOS>BOND
  1   1   2  1   
  2   2   3  ar  
  3   2   4  ar  
  4   3   5  1   
  5   3   6  ar  
  6   4   7  ar  
  7   4  30  1   
  8   5   8  1   
  9   6   9  ar  
 10   6  31  1   
 11   7   9  ar  
 12   7  32  1   
 13   8  10  1   
 14   8  33  1   
 15   8  34  1   
 16   9  35  1   
 17  10  11  2   
 18  10  12  am  
 19  12  13  1   
 20  12  14  1   
 21  13  15  1   
 22  13  16  1   
 23  13  36  1   
 24  14  17  1   
 25  14  37  1   
 26  14  38  1   
 27  15  18  ar  
 28  15  19  ar  
 29  16  20  1   
 30  16  21  1   
 31  16  39  1   
 32  17  20  1   
 33  17  40  1   
 34  17  41  1   
 35  18  22  ar  
 36  18  42  1   
 37  19  23  ar  
 38  19  43  1   
 39  21  24  1   
 40  21  44  1   
 41  21  45  1   
 42  22  25  1   
 43  22  26  ar  
 44  23  26  ar  
 45  23  46  1   
 46  24  47  1   
 47  25  27  1   
 48  26  28  1   
 49  27  48  1   
 50  27  49  1   
 51  27  50  1   
 52  28  29  1   
 53  29  51  1   
 54  29  52  1   
 55  29  53  1   
@<TRIPOS>SUBSTRUCTURE
  1 ****  12 GROUP 4 **** **** 0

# MOE 2024.06 (io_trps.svl 2023.06)
