@<TRIPOS>MOLECULE
NONAME
47 50 1 0 0 
SMALL
USER_CHARGES


@<TRIPOS>ATOM
  1 O       -0.5260     0.4300     0.8590 O.2   1 <1>  -0.5700 
  2 C       -1.5490     1.0490     0.6350 C.2   1 <1>   0.5440 
  3 N       -2.7320     0.3580     0.5150 N.am  1 <1>  -0.6600 
  4 C       -1.5000     2.4910     0.4840 C.ar  1 <1>   0.0860 
  5 C       -3.8840     0.8090    -0.3090 C.3   1 <1>   0.1400 
  6 C       -2.8600    -1.0900     0.8010 C.3   1 <1>   0.1400 
  7 C       -0.5390     3.0980    -0.3220 C.ar  1 <1>  -0.1500 
  8 C       -2.3990     3.3280     1.1450 C.ar  1 <1>  -0.1500 
  9 C       -4.7870    -0.4210    -0.4790 C.3   1 <1>   0.2000 
 10 C       -3.8470    -1.6080    -0.2450 C.3   1 <1>  -0.0800 
 11 C       -0.4900     4.4700    -0.4790 C.ar  1 <1>  -0.1500 
 12 C       -2.3550     4.7010     0.9940 C.ar  1 <1>  -0.1500 
 13 O       -5.7710    -0.4180     0.5160 O.3   1 <1>  -0.5600 
 14 C       -4.5520    -2.9130     0.1650 C.3   1 <1>   0.0200 
 15 C       -1.4010     5.2980     0.1720 C.ar  1 <1>  -0.0230 
 16 C       -6.9420     0.2630     0.1930 C.3   1 <1>   0.0400 
 17 C       -3.6130    -4.1080     0.2200 C.2   1 <1>  -0.0400 
 18 N       -1.3510     6.7130     0.0030 N.pl3 1 <1>   0.5930 
 19 O       -4.0820    -5.2560     0.6330 O.3   1 <1>  -0.0190 
 20 C       -2.3170    -4.2830    -0.0830 C.2   1 <1>  -0.1500 
 21 N       -0.2590     7.4090    -0.2810 N.2   1 <1>  -0.4180 
 22 C       -2.3360     7.5990     0.0730 C.2   1 <1>   0.0360 
 23 N       -3.1710    -6.1860     0.6260 N.2   1 <1>  -0.4100 
 24 C       -2.0960    -5.6280     0.2000 C.2   1 <1>   0.1080 
 25 N       -0.6050     8.6420    -0.3640 N.2   1 <1>   0.0000 
 26 N       -1.9070     8.7800    -0.1450 N.2   1 <1>  -0.3380 
 27 C       -0.7740    -6.3430     0.0320 C.3   1 <1>  -0.0590 
 28 H       -4.4110     1.6150     0.1690 H     1 <1>   0.0800 
 29 H       -3.5200     1.1300    -1.2690 H     1 <1>   0.0800 
 30 H       -1.9090    -1.5920     0.7380 H     1 <1>   0.0800 
 31 H       -3.2620    -1.2120     1.7920 H     1 <1>   0.0800 
 32 H        0.1800     2.4730    -0.8250 H     1 <1>   0.1500 
 33 H       -3.1350     2.8830     1.7940 H     1 <1>   0.1500 
 34 H       -5.2570    -0.4650    -1.4470 H     1 <1>   0.0800 
 35 H       -3.3020    -1.7790    -1.1570 H     1 <1>   0.0800 
 36 H        0.2700     4.9000    -1.1120 H     1 <1>   0.1500 
 37 H       -3.0660     5.3040     1.5330 H     1 <1>   0.1500 
 38 H       -5.3350    -3.1310    -0.5380 H     1 <1>   0.0800 
 39 H       -5.0080    -2.7930     1.1330 H     1 <1>   0.0800 
 40 H       -7.6020     0.2100     1.0410 H     1 <1>   0.0800 
 41 H       -7.4060    -0.2110    -0.6550 H     1 <1>   0.0800 
 42 H       -6.7150     1.2920    -0.0250 H     1 <1>   0.0800 
 43 H       -1.5860    -3.5900    -0.4560 H     1 <1>   0.1500 
 44 H       -3.3540     7.3330     0.2820 H     1 <1>   0.1500 
 45 H       -0.0210    -5.8590     0.6260 H     1 <1>   0.0800 
 46 H       -0.4790    -6.3260    -1.0000 H     1 <1>   0.0800 
 47 H       -0.8670    -7.3650     0.3520 H     1 <1>   0.0800 
@<TRIPOS>BOND
  1   1   2  2   
  2   2   3  am  
  3   2   4  1   
  4   3   5  1   
  5   3   6  1   
  6   4   7  ar  
  7   4   8  ar  
  8   5   9  1   
  9   5  28  1   
 10   5  29  1   
 11   6  10  1   
 12   6  30  1   
 13   6  31  1   
 14   7  11  ar  
 15   7  32  1   
 16   8  12  ar  
 17   8  33  1   
 18   9  10  1   
 19   9  13  1   
 20   9  34  1   
 21  10  14  1   
 22  10  35  1   
 23  11  15  ar  
 24  11  36  1   
 25  12  15  ar  
 26  12  37  1   
 27  13  16  1   
 28  14  17  1   
 29  14  38  1   
 30  14  39  1   
 31  15  18  1   
 32  16  40  1   
 33  16  41  1   
 34  16  42  1   
 35  17  19  1   
 36  17  20  2   
 37  18  21  1   
 38  18  22  1   
 39  19  23  1   
 40  20  24  1   
 41  20  43  1   
 42  21  25  2   
 43  22  26  2   
 44  22  44  1   
 45  23  24  2   
 46  24  27  1   
 47  25  26  1   
 48  27  45  1   
 49  27  46  1   
 50  27  47  1   
@<TRIPOS>SUBSTRUCTURE
  1 ****   3 GROUP 4 **** **** 0

# MOE 2024.06 (io_trps.svl 2023.06)
