@<TRIPOS>MOLECULE
NONAME
48 51 1 0 0 
SMALL
USER_CHARGES


@<TRIPOS>ATOM
  1 O        0.8870     0.5670     1.2040 O.3   1 <1>  -0.6800 
  2 C        1.4800    -0.0510     0.1120 C.3   1 <1>   0.2000 
  3 C        2.3120    -1.2420     0.5990 C.3   1 <1>  -0.0800 
  4 C        2.4800     0.9000    -0.5580 C.3   1 <1>   0.1100 
  5 C        3.6890    -1.0190    -0.0350 C.3   1 <1>   0.1100 
  6 C        1.6840    -2.5940     0.2110 C.3   1 <1>  -0.0170 
  7 N        3.8350     0.4250    -0.2240 N.3   1 <1>  -0.8100 
  8 C        2.4610    -3.8450     0.6430 C.ar  1 <1>  -0.1430 
  9 C        4.3330     1.0890     1.0030 C.3   1 <1>   0.2900 
 10 C        2.2340    -5.0900     0.0020 C.ar  1 <1>   0.0000 
 11 C        3.3800    -3.8310     1.6560 C.ar  1 <1>  -0.1500 
 12 C        4.6670     2.5560     0.7690 C.2   1 <1>   0.0070 
 13 C        3.0060    -6.2030     0.4210 C.ar  1 <1>   0.3100 
 14 C        1.2820    -5.3040    -1.0240 C.ar  1 <1>  -0.1500 
 15 C        4.0780    -4.9940     2.0010 C.ar  1 <1>   0.1600 
 16 N        4.2430     3.5150     1.5160 N.2   1 <1>  -0.5650 
 17 N        5.4480     3.0210    -0.2200 N.pl3 1 <1>   0.3140 
 18 N        3.9210    -6.1370     1.4180 N.ar  1 <1>  -0.6200 
 19 C        2.8200    -7.4420    -0.2120 C.ar  1 <1>  -0.1500 
 20 C        1.1210    -6.5270    -1.6170 C.ar  1 <1>  -0.1500 
 21 C        4.7990     4.5800     0.9300 C.2   1 <1>   0.3660 
 22 N        5.5310     4.3420    -0.1070 N.2   1 <1>  -0.7070 
 23 C        6.1600     2.2990    -1.2990 C.3   1 <1>   0.0960 
 24 C        1.9020    -7.6110    -1.2120 C.ar  1 <1>  -0.1500 
 25 C        7.4500     1.6480    -0.7830 C.3   1 <1>  -0.2400 
 26 H        0.2460    -0.0290     1.6350 H     1 <1>   0.4000 
 27 H        0.7050    -0.3270    -0.5820 H     1 <1>   0.0800 
 28 H        2.4180    -1.1820     1.6680 H     1 <1>   0.0800 
 29 H        2.3170     1.9240    -0.2630 H     1 <1>   0.0800 
 30 H        2.3580     0.8320    -1.6240 H     1 <1>   0.0800 
 31 H        3.7240    -1.4900    -1.0040 H     1 <1>   0.0800 
 32 H        4.4860    -1.4260     0.5640 H     1 <1>   0.0800 
 33 H        1.5900    -2.5970    -0.8600 H     1 <1>   0.0800 
 34 H        0.6930    -2.6550     0.6260 H     1 <1>   0.0800 
 35 H        3.5980     1.0200     1.7870 H     1 <1>   0.0800 
 36 H        5.2260     0.5940     1.3410 H     1 <1>   0.0800 
 37 H        3.6060    -2.9500     2.2240 H     1 <1>   0.1500 
 38 H        0.6580    -4.4950    -1.3500 H     1 <1>   0.1500 
 39 H        4.7940    -4.9310     2.8030 H     1 <1>   0.1500 
 40 H        3.4290    -8.2620     0.1210 H     1 <1>   0.1500 
 41 H        0.3950    -6.6710    -2.3990 H     1 <1>   0.1500 
 42 H        4.6330     5.5710     1.3200 H     1 <1>   0.1500 
 43 H        5.5070     1.5590    -1.7200 H     1 <1>   0.0800 
 44 H        6.3980     3.0090    -2.0700 H     1 <1>   0.0800 
 45 H        1.7690    -8.5680    -1.6880 H     1 <1>   0.1500 
 46 H        7.2270     0.9070    -0.0380 H     1 <1>   0.0800 
 47 H        8.0980     2.3970    -0.3620 H     1 <1>   0.0800 
 48 H        7.9640     1.1690    -1.5970 H     1 <1>   0.0800 
@<TRIPOS>BOND
  1   1   2  1   
  2   1  26  1   
  3   2   3  1   
  4   2   4  1   
  5   2  27  1   
  6   3   5  1   
  7   3   6  1   
  8   3  28  1   
  9   4   7  1   
 10   4  29  1   
 11   4  30  1   
 12   5   7  1   
 13   5  31  1   
 14   5  32  1   
 15   6   8  1   
 16   6  33  1   
 17   6  34  1   
 18   7   9  1   
 19   8  10  ar  
 20   8  11  ar  
 21   9  12  1   
 22   9  35  1   
 23   9  36  1   
 24  10  13  ar  
 25  10  14  ar  
 26  11  15  ar  
 27  11  37  1   
 28  12  16  2   
 29  12  17  1   
 30  13  18  ar  
 31  13  19  ar  
 32  14  20  ar  
 33  14  38  1   
 34  15  18  ar  
 35  15  39  1   
 36  16  21  1   
 37  17  22  1   
 38  17  23  1   
 39  19  24  ar  
 40  19  40  1   
 41  20  24  ar  
 42  20  41  1   
 43  21  22  2   
 44  21  42  1   
 45  23  25  1   
 46  23  43  1   
 47  23  44  1   
 48  24  45  1   
 49  25  46  1   
 50  25  47  1   
 51  25  48  1   
@<TRIPOS>SUBSTRUCTURE
  1 ****   5 GROUP 4 **** **** 0

# MOE 2024.06 (io_trps.svl 2023.06)
