@<TRIPOS>MOLECULE
NONAME
52 55 1 0 0 
SMALL
USER_CHARGES


@<TRIPOS>ATOM
  1 O        1.4540    -1.8940    -1.7220 O.3   1 <1>  -0.6800 
  2 C        0.5650    -2.3470    -0.7690 C.3   1 <1>   0.2000 
  3 C        1.3320    -3.1360     0.2890 C.3   1 <1>  -0.1600 
  4 C       -0.4730    -3.2250    -1.4640 C.3   1 <1>  -0.1600 
  5 C        0.3620    -3.7230     1.3160 C.3   1 <1>   0.2090 
  6 C       -1.4450    -3.8200    -0.4450 C.3   1 <1>   0.2090 
  7 N       -0.6920    -4.5220     0.6300 N.pl3 1 <1>  -0.8380 
  8 C       -0.6560    -5.9050     0.6630 C.ar  1 <1>   0.4100 
  9 N        0.5270    -6.4900     0.7170 N.ar  1 <1>  -0.6200 
 10 C       -1.8110    -6.6500     0.6440 C.ar  1 <1>  -0.1500 
 11 C        0.5030    -7.8070     0.7350 C.ar  1 <1>   0.4700 
 12 C       -1.7180    -8.0230     0.6660 C.ar  1 <1>   0.4100 
 13 N       -0.5370    -8.6140     0.7120 N.ar  1 <1>  -0.6200 
 14 N       -2.8320    -8.8460     0.6560 N.pl3 1 <1>  -0.8380 
 15 C       -4.2120    -8.3830     0.3550 C.3   1 <1>   0.2090 
 16 C       -2.7280   -10.3050     0.3640 C.3   1 <1>   0.2090 
 17 C       -5.0580    -9.6490     0.4690 C.3   1 <1>   0.2000 
 18 C       -4.1310   -10.7350    -0.0790 C.3   1 <1>  -0.0800 
 19 O       -5.2890    -9.8780     1.8180 O.3   1 <1>  -0.6800 
 20 C       -4.4900   -12.1780     0.3180 C.3   1 <1>   0.0210 
 21 C       -3.5000   -13.1640    -0.2720 C.2   1 <1>   0.1080 
 22 N       -3.2890   -13.2740    -1.5470 N.2   1 <1>  -0.7070 
 23 C       -2.7120   -14.0380     0.4690 C.2   1 <1>  -0.1500 
 24 N       -2.3510   -14.2330    -1.6550 N.pl3 1 <1>   0.3000 
 25 C       -1.9840   -14.7110    -0.4470 C.2   1 <1>  -0.3320 
 26 C       -0.9450   -15.7980    -0.2400 C.3   1 <1>  -0.0600 
 27 H        2.1900    -1.4160    -1.2970 H     1 <1>   0.4000 
 28 H        0.0880    -1.4890    -0.3250 H     1 <1>   0.0800 
 29 H        1.8680    -3.9470    -0.1730 H     1 <1>   0.0800 
 30 H        2.0330    -2.4990     0.7950 H     1 <1>   0.0800 
 31 H       -1.0200    -2.6410    -2.1810 H     1 <1>   0.0800 
 32 H        0.0200    -4.0300    -1.9790 H     1 <1>   0.0800 
 33 H       -0.1110    -2.9300     1.8690 H     1 <1>   0.0800 
 34 H        0.8990    -4.3380     2.0180 H     1 <1>   0.0800 
 35 H       -2.1070    -4.5050    -0.9460 H     1 <1>   0.0800 
 36 H       -2.0380    -3.0390    -0.0020 H     1 <1>   0.0800 
 37 H       -2.7560    -6.1560     0.6260 H     1 <1>   0.1500 
 38 H        1.4650    -8.2890     0.7750 H     1 <1>   0.1500 
 39 H       -4.5410    -7.6260     1.0460 H     1 <1>   0.0800 
 40 H       -4.2460    -8.0030    -0.6520 H     1 <1>   0.0800 
 41 H       -2.0060   -10.4980    -0.4130 H     1 <1>   0.0800 
 42 H       -2.4280   -10.8200     1.2600 H     1 <1>   0.0800 
 43 H       -6.0030    -9.5850    -0.0430 H     1 <1>   0.0800 
 44 H       -4.1540   -10.6720    -1.1530 H     1 <1>   0.0800 
 45 H       -4.4380    -9.7320     2.2840 H     1 <1>   0.4000 
 46 H       -5.4730   -12.4170    -0.0480 H     1 <1>   0.0800 
 47 H       -4.4980   -12.2860     1.3870 H     1 <1>   0.0800 
 48 H       -2.7050   -14.1350     1.5400 H     1 <1>   0.1500 
 49 H       -1.9830   -14.5370    -2.5640 H     1 <1>   0.2700 
 50 H       -0.8340   -16.0080     0.8090 H     1 <1>   0.0800 
 51 H        0.0070   -15.4820    -0.6280 H     1 <1>   0.0800 
 52 H       -1.2470   -16.7010    -0.7390 H     1 <1>   0.0800 
@<TRIPOS>BOND
  1   1   2  1   
  2   1  27  1   
  3   2   3  1   
  4   2   4  1   
  5   2  28  1   
  6   3   5  1   
  7   3  29  1   
  8   3  30  1   
  9   4   6  1   
 10   4  31  1   
 11   4  32  1   
 12   5   7  1   
 13   5  33  1   
 14   5  34  1   
 15   6   7  1   
 16   6  35  1   
 17   6  36  1   
 18   7   8  1   
 19   8   9  ar  
 20   8  10  ar  
 21   9  11  ar  
 22  10  12  ar  
 23  10  37  1   
 24  11  13  ar  
 25  11  38  1   
 26  12  13  ar  
 27  12  14  1   
 28  14  15  1   
 29  14  16  1   
 30  15  17  1   
 31  15  39  1   
 32  15  40  1   
 33  16  18  1   
 34  16  41  1   
 35  16  42  1   
 36  17  18  1   
 37  17  19  1   
 38  17  43  1   
 39  18  20  1   
 40  18  44  1   
 41  19  45  1   
 42  20  21  1   
 43  20  46  1   
 44  20  47  1   
 45  21  22  2   
 46  21  23  1   
 47  22  24  1   
 48  23  25  2   
 49  23  48  1   
 50  24  25  1   
 51  24  49  1   
 52  25  26  1   
 53  26  50  1   
 54  26  51  1   
 55  26  52  1   
@<TRIPOS>SUBSTRUCTURE
  1 ****  12 GROUP 4 **** **** 0

# MOE 2024.06 (io_trps.svl 2023.06)
