@<TRIPOS>MOLECULE
NONAME
47 50 1 0 0 
SMALL
USER_CHARGES


@<TRIPOS>ATOM
  1 O       -2.4370    -1.1670    -3.0030 O.2   1 <1>  -0.5700 
  2 C       -2.4990    -1.3690    -1.8220 C.2   1 <1>   0.5690 
  3 N       -2.2840    -0.3710    -0.9480 N.am  1 <1>  -0.7300 
  4 C       -2.8650    -2.7390    -1.3190 C.3   1 <1>  -0.0190 
  5 C       -2.3350    -0.4860     0.5270 C.3   1 <1>   0.2200 
  6 C       -1.7380    -3.3500    -0.4580 C.3   1 <1>   0.1200 
  7 C       -4.2610    -2.6630    -0.6830 C.3   1 <1>   0.3430 
  8 C       -1.2900    -1.5170     1.0240 C.3   1 <1>   0.1200 
  9 C       -3.7860    -0.7920     0.9990 C.3   1 <1>   0.3430 
 10 O       -1.7100    -2.8490     0.8540 O.3   1 <1>  -0.5600 
 11 N       -4.2570    -2.2040     0.7500 N.4   1 <1>  -0.9590 
 12 C       -5.5240    -2.5210     1.4580 C.3   1 <1>   0.5240 
 13 C       -5.7510    -4.0140     1.3860 C.2   1 <1>  -0.1810 
 14 C       -4.9770    -4.9890     2.0030 C.2   1 <1>   0.1390 
 15 C       -6.6970    -4.7090     0.7170 C.2   1 <1>  -0.3020 
 16 N       -5.3910    -6.1810     1.7270 N.2   1 <1>  -0.7070 
 17 N       -6.4830    -6.0340     0.9330 N.pl3 1 <1>   0.5930 
 18 C       -7.2170    -7.1210     0.3770 C.ar  1 <1>  -0.0230 
 19 C       -6.5810    -8.3160     0.0570 C.ar  1 <1>  -0.1500 
 20 C       -8.5850    -7.0160     0.1320 C.ar  1 <1>  -0.1500 
 21 C       -7.2830    -9.3680    -0.5030 C.ar  1 <1>  -0.1500 
 22 C       -9.2870    -8.0680    -0.4290 C.ar  1 <1>  -0.1500 
 23 C       -8.6400    -9.2480    -0.7530 C.ar  1 <1>  -0.1440 
 24 C       -9.4100   -10.4030    -1.3660 C.3   1 <1>  -0.0970 
 25 H       -1.9820     0.5230    -1.3540 H     1 <1>   0.3700 
 26 H       -2.9550    -3.3570    -2.1950 H     1 <1>   0.0800 
 27 H       -2.0560     0.4760     0.9240 H     1 <1>   0.0800 
 28 H       -0.7740    -3.1870    -0.9130 H     1 <1>   0.0800 
 29 H       -1.8880    -4.4140    -0.3780 H     1 <1>   0.0800 
 30 H       -4.6830    -3.6540    -0.7310 H     1 <1>   0.0800 
 31 H       -4.8880    -2.0170    -1.2760 H     1 <1>   0.0800 
 32 H       -1.1310    -1.3790     2.0790 H     1 <1>   0.0800 
 33 H       -0.3440    -1.3790     0.5280 H     1 <1>   0.0800 
 34 H       -4.4560    -0.0950     0.5220 H     1 <1>   0.0800 
 35 H       -3.8250    -0.6040     2.0590 H     1 <1>   0.0800 
 36 H       -3.5150    -2.7950     1.1760 H     1 <1>   0.4500 
 37 H       -5.4630    -2.2180     2.4910 H     1 <1>   0.0800 
 38 H       -6.3480    -2.0030     0.9940 H     1 <1>   0.0800 
 39 H       -4.1230    -4.8050     2.6360 H     1 <1>   0.1500 
 40 H       -7.5040    -4.3660     0.0960 H     1 <1>   0.1500 
 41 H       -5.5270    -8.4270     0.2500 H     1 <1>   0.1500 
 42 H       -9.1150    -6.1150     0.3820 H     1 <1>   0.1500 
 43 H       -6.7680   -10.2830    -0.7400 H     1 <1>   0.1500 
 44 H      -10.3430    -7.9670    -0.6100 H     1 <1>   0.1500 
 45 H       -8.7720   -10.9800    -2.0120 H     1 <1>   0.0800 
 46 H      -10.2380   -10.0380    -1.9470 H     1 <1>   0.0800 
 47 H       -9.7860   -11.0430    -0.5880 H     1 <1>   0.0800 
@<TRIPOS>BOND
  1   1   2  2   
  2   2   3  am  
  3   2   4  1   
  4   3   5  1   
  5   3  25  1   
  6   4   6  1   
  7   4   7  1   
  8   4  26  1   
  9   5   8  1   
 10   5   9  1   
 11   5  27  1   
 12   6  10  1   
 13   6  28  1   
 14   6  29  1   
 15   7  11  1   
 16   7  30  1   
 17   7  31  1   
 18   8  10  1   
 19   8  32  1   
 20   8  33  1   
 21   9  11  1   
 22   9  34  1   
 23   9  35  1   
 24  11  12  1   
 25  11  36  1   
 26  12  13  1   
 27  12  37  1   
 28  12  38  1   
 29  13  14  1   
 30  13  15  2   
 31  14  16  2   
 32  14  39  1   
 33  15  17  1   
 34  15  40  1   
 35  16  17  1   
 36  17  18  1   
 37  18  19  ar  
 38  18  20  ar  
 39  19  21  ar  
 40  19  41  1   
 41  20  22  ar  
 42  20  42  1   
 43  21  23  ar  
 44  21  43  1   
 45  22  23  ar  
 46  22  44  1   
 47  23  24  1   
 48  24  45  1   
 49  24  46  1   
 50  24  47  1   
@<TRIPOS>SUBSTRUCTURE
  1 ****  13 GROUP 4 **** **** 0

# MOE 2024.06 (io_trps.svl 2023.06)
