@<TRIPOS>MOLECULE
NONAME
40 42 1 0 0 
SMALL
USER_CHARGES


@<TRIPOS>ATOM
  1 O       -2.0920     0.6500     2.8690 O.2   1 <1>  -0.5700 
  2 C       -2.3920     1.1550     1.8130 C.2   1 <1>   0.5690 
  3 N       -3.1380     0.4700     0.8910 N.am  1 <1>  -0.6600 
  4 C       -1.9280     2.5810     1.5610 C.3   1 <1>   0.0810 
  5 C       -3.6090     0.9580    -0.4290 C.3   1 <1>   0.1400 
  6 C       -3.5090    -0.9570     1.0710 C.3   1 <1>   0.1400 
  7 C       -0.9200     2.6590     0.4300 C.2   1 <1>  -0.0400 
  8 C       -4.6670    -0.0590    -0.8510 C.3   1 <1>   0.2000 
  9 C       -4.1880    -1.3800    -0.2440 C.3   1 <1>  -0.0800 
 10 O       -1.3100     2.9730    -0.7770 O.3   1 <1>  -0.0190 
 11 C        0.4050     2.4550     0.3940 C.2   1 <1>  -0.1500 
 12 O       -5.8660     0.2790    -0.2460 O.3   1 <1>  -0.6800 
 13 C       -3.2100    -2.0970    -1.1970 C.3   1 <1>  -0.0170 
 14 N       -0.3210     2.9760    -1.6210 N.2   1 <1>  -0.4100 
 15 C        0.7270     2.6700    -0.9430 C.2   1 <1>   0.1080 
 16 C       -2.8480    -3.4890    -0.7020 C.ar  1 <1>   0.1670 
 17 C        2.1170     2.5560    -1.5270 C.3   1 <1>  -0.0590 
 18 N       -1.7340    -3.6000     0.0030 N.ar  1 <1>  -0.6200 
 19 C       -3.6780    -4.5690    -1.0020 C.ar  1 <1>   0.1600 
 20 C       -1.5090    -4.8450     0.3860 C.ar  1 <1>   0.1600 
 21 N       -3.4560    -5.8150    -0.6190 N.ar  1 <1>  -0.6200 
 22 C       -2.3420    -5.9170     0.0860 C.ar  1 <1>   0.1600 
 23 H       -2.7740     3.2060     1.3480 H     1 <1>   0.0800 
 24 H       -1.4660     2.9500     2.4580 H     1 <1>   0.0800 
 25 H       -4.0100     1.9550    -0.3790 H     1 <1>   0.0800 
 26 H       -2.7890     0.9300    -1.1250 H     1 <1>   0.0800 
 27 H       -2.6350    -1.5450     1.2960 H     1 <1>   0.0800 
 28 H       -4.1990    -1.0380     1.8930 H     1 <1>   0.0800 
 29 H       -4.8230    -0.0920    -1.9160 H     1 <1>   0.0800 
 30 H       -5.0200    -2.0340    -0.0510 H     1 <1>   0.0800 
 31 H        1.0810     2.1830     1.1840 H     1 <1>   0.1500 
 32 H       -5.7050     0.4290     0.7070 H     1 <1>   0.4000 
 33 H       -2.3090    -1.5180    -1.3140 H     1 <1>   0.0800 
 34 H       -3.6610    -2.1890    -2.1680 H     1 <1>   0.0800 
 35 H        2.7770     3.2450    -1.0340 H     1 <1>   0.0800 
 36 H        2.0940     2.7860    -2.5770 H     1 <1>   0.0800 
 37 H        2.4860     1.5560    -1.3970 H     1 <1>   0.0800 
 38 H       -4.5660    -4.3930    -1.5820 H     1 <1>   0.1500 
 39 H       -0.6220    -5.0270     0.9670 H     1 <1>   0.1500 
 40 H       -2.0740    -6.8950     0.4440 H     1 <1>   0.1500 
@<TRIPOS>BOND
  1   1   2  2   
  2   2   3  am  
  3   2   4  1   
  4   3   5  1   
  5   3   6  1   
  6   4   7  1   
  7   4  23  1   
  8   4  24  1   
  9   5   8  1   
 10   5  25  1   
 11   5  26  1   
 12   6   9  1   
 13   6  27  1   
 14   6  28  1   
 15   7  10  1   
 16   7  11  2   
 17   8   9  1   
 18   8  12  1   
 19   8  29  1   
 20   9  13  1   
 21   9  30  1   
 22  10  14  1   
 23  11  15  1   
 24  11  31  1   
 25  12  32  1   
 26  13  16  1   
 27  13  33  1   
 28  13  34  1   
 29  14  15  2   
 30  15  17  1   
 31  16  18  ar  
 32  16  19  ar  
 33  17  35  1   
 34  17  36  1   
 35  17  37  1   
 36  18  20  ar  
 37  19  21  ar  
 38  19  38  1   
 39  20  22  ar  
 40  20  39  1   
 41  21  22  ar  
 42  22  40  1   
@<TRIPOS>SUBSTRUCTURE
  1 ****   3 GROUP 4 **** **** 0

# MOE 2024.06 (io_trps.svl 2023.06)
