@<TRIPOS>MOLECULE
NONAME
54 56 1 0 0 
SMALL
USER_CHARGES


@<TRIPOS>ATOM
  1 O        0.9670     1.4540    -1.2050 O.2   1 <1>  -0.5700 
  2 C        0.5080     2.5710    -1.1630 C.2   1 <1>   0.5690 
  3 N       -0.4100     2.9560    -0.2230 N.am  1 <1>  -0.6600 
  4 C        0.9700     3.5800    -2.2120 C.3   1 <1>   0.1810 
  5 C       -0.9820     4.3450    -0.2060 C.3   1 <1>   0.3640 
  6 C       -0.8670     2.0400     0.8630 C.3   1 <1>   0.0600 
  7 O        0.8400     4.9060    -1.7660 O.3   1 <1>  -0.5600 
  8 C       -2.5150     4.2570    -0.2150 C.ar  1 <1>  -0.1430 
  9 C       -0.4800     5.2460    -1.3660 C.3   1 <1>   0.2610 
 10 C       -3.3090     4.8620     0.7600 C.ar  1 <1>  -0.1430 
 11 C       -3.1310     3.5390    -1.2350 C.ar  1 <1>  -0.1500 
 12 C       -0.5270     6.7100    -0.9240 C.2   1 <1>   0.5690 
 13 C       -4.6890     4.7430     0.6880 C.ar  1 <1>  -0.1500 
 14 C       -2.7210     5.6620     1.9150 C.3   1 <1>  -0.0960 
 15 C       -4.5070     3.4250    -1.2970 C.ar  1 <1>  -0.1500 
 16 O       -1.5700     7.3160    -0.9720 O.2   1 <1>  -0.5700 
 17 N        0.6230     7.2810    -0.4760 N.am  1 <1>  -0.7300 
 18 C       -5.2880     4.0300    -0.3340 C.ar  1 <1>  -0.1500 
 19 C        0.8490     8.6350     0.0740 C.3   1 <1>   0.3000 
 20 C        2.3630     8.7490     0.3490 C.3   1 <1>  -0.1600 
 21 C        0.0790     8.7720     1.4060 C.3   1 <1>  -0.1600 
 22 C        0.3980     9.6910    -0.9710 C.3   1 <1>   0.1200 
 23 C        2.8650     7.7740     1.4310 C.3   1 <1>  -0.1600 
 24 C        0.5580     7.7850     2.4860 C.3   1 <1>  -0.1600 
 25 O        0.6380    10.9970    -0.5440 O.3   1 <1>  -0.6800 
 26 C        2.0660     7.9300     2.7310 C.3   1 <1>  -0.1600 
 27 H        0.3940     3.4590    -3.1120 H     1 <1>   0.0800 
 28 H        2.0070     3.4090    -2.4360 H     1 <1>   0.0800 
 29 H       -0.6510     4.7980     0.7100 H     1 <1>   0.0800 
 30 H       -0.7680     2.5260     1.8180 H     1 <1>   0.0800 
 31 H       -0.2780     1.1390     0.8740 H     1 <1>   0.0800 
 32 H       -1.8980     1.7730     0.7090 H     1 <1>   0.0800 
 33 H       -1.1200     5.1370    -2.2220 H     1 <1>   0.0800 
 34 H       -2.5380     3.0530    -1.9900 H     1 <1>   0.1500 
 35 H       -5.3130     5.2090     1.4290 H     1 <1>   0.1500 
 36 H       -3.4960     6.0240     2.5670 H     1 <1>   0.0800 
 37 H       -2.1850     6.5130     1.5380 H     1 <1>   0.0800 
 38 H       -2.0580     5.0490     2.4960 H     1 <1>   0.0800 
 39 H       -4.9680     2.8670    -2.0930 H     1 <1>   0.1500 
 40 H        1.4740     6.7190    -0.5560 H     1 <1>   0.3700 
 41 H       -6.3600     3.9470    -0.3770 H     1 <1>   0.1500 
 42 H        2.9100     8.5980    -0.5650 H     1 <1>   0.0800 
 43 H        2.5800     9.7500     0.6800 H     1 <1>   0.0800 
 44 H        0.2180     9.7680     1.7850 H     1 <1>   0.0800 
 45 H       -0.9750     8.6460     1.2320 H     1 <1>   0.0800 
 46 H       -0.6550     9.6050    -1.1720 H     1 <1>   0.0800 
 47 H        0.9410     9.5480    -1.8880 H     1 <1>   0.0800 
 48 H        2.7830     6.7590     1.0820 H     1 <1>   0.0800 
 49 H        3.9070     7.9650     1.6280 H     1 <1>   0.0800 
 50 H        0.0260     7.9710     3.4030 H     1 <1>   0.0800 
 51 H        0.3420     6.7770     2.1800 H     1 <1>   0.0800 
 52 H        0.0280    11.2330     0.1820 H     1 <1>   0.4000 
 53 H        2.2640     8.9010     3.1540 H     1 <1>   0.0800 
 54 H        2.3890     7.1910     3.4440 H     1 <1>   0.0800 
@<TRIPOS>BOND
  1   1   2  2   
  2   2   3  am  
  3   2   4  1   
  4   3   5  1   
  5   3   6  1   
  6   4   7  1   
  7   4  27  1   
  8   4  28  1   
  9   5   8  1   
 10   5   9  1   
 11   5  29  1   
 12   6  30  1   
 13   6  31  1   
 14   6  32  1   
 15   7   9  1   
 16   8  10  ar  
 17   8  11  ar  
 18   9  12  1   
 19   9  33  1   
 20  10  13  ar  
 21  10  14  1   
 22  11  15  ar  
 23  11  34  1   
 24  12  16  2   
 25  12  17  am  
 26  13  18  ar  
 27  13  35  1   
 28  14  36  1   
 29  14  37  1   
 30  14  38  1   
 31  15  18  ar  
 32  15  39  1   
 33  17  19  1   
 34  17  40  1   
 35  18  41  1   
 36  19  20  1   
 37  19  21  1   
 38  19  22  1   
 39  20  23  1   
 40  20  42  1   
 41  20  43  1   
 42  21  24  1   
 43  21  44  1   
 44  21  45  1   
 45  22  25  1   
 46  22  46  1   
 47  22  47  1   
 48  23  26  1   
 49  23  48  1   
 50  23  49  1   
 51  24  26  1   
 52  24  50  1   
 53  24  51  1   
 54  25  52  1   
 55  26  53  1   
 56  26  54  1   
@<TRIPOS>SUBSTRUCTURE
  1 ****  12 GROUP 4 **** **** 0

# MOE 2024.06 (io_trps.svl 2023.06)
