@<TRIPOS>MOLECULE
NONAME
44 46 1 0 0 
SMALL
USER_CHARGES


@<TRIPOS>ATOM
  1 O       -0.6490     0.8400    -0.8990 O.2   1 <1>  -0.5700 
  2 C       -1.7580     1.3110    -0.7410 C.2   1 <1>   0.7160 
  3 N       -2.8530     0.4670    -0.7470 N.am  1 <1>  -0.6600 
  4 C       -1.8900     2.7350    -0.5430 C.2   1 <1>  -0.0860 
  5 C       -2.7970    -0.8890    -1.3950 C.3   1 <1>   0.1400 
  6 C       -4.1580     0.8350    -0.1320 C.3   1 <1>   0.1400 
  7 C       -2.8550     3.5700    -1.1140 C.2   1 <1>   0.1390 
  8 C       -1.1350     3.5970     0.1930 C.2   1 <1>  -0.3020 
  9 C       -3.2370    -2.0270    -0.4410 C.3   1 <1>   0.0000 
 10 C       -4.5910    -0.2500     0.8520 C.3   1 <1>  -0.1600 
 11 N       -2.7330     4.8090    -0.7560 N.2   1 <1>  -0.7070 
 12 N       -1.6570     4.8240     0.0510 N.pl3 1 <1>   0.3000 
 13 C       -4.6080    -1.6100     0.1550 C.3   1 <1>   0.2000 
 14 C       -3.4890    -3.3160    -1.2660 C.3   1 <1>   0.1200 
 15 C       -2.1640    -2.2460     0.6760 C.3   1 <1>  -0.0160 
 16 O       -5.0790    -2.5490     1.0570 O.3   1 <1>  -0.6800 
 17 O       -2.4410    -3.5860    -2.1350 O.3   1 <1>  -0.6800 
 18 C       -0.9540    -3.0830     0.2700 C.ar  1 <1>  -0.1440 
 19 C        0.1490    -2.4970    -0.3300 C.ar  1 <1>  -0.1500 
 20 C       -0.9500    -4.4520     0.4950 C.ar  1 <1>  -0.1500 
 21 C        1.2310    -3.2670    -0.7160 C.ar  1 <1>  -0.1500 
 22 C        0.1320    -5.2250     0.1110 C.ar  1 <1>  -0.1500 
 23 C        1.2230    -4.6330    -0.4980 C.ar  1 <1>  -0.1500 
 24 H       -3.4490    -0.8760    -2.2520 H     1 <1>   0.0800 
 25 H       -1.8060    -1.0880    -1.7660 H     1 <1>   0.0800 
 26 H       -4.0850     1.7690     0.3980 H     1 <1>   0.0800 
 27 H       -4.8950     0.9430    -0.9100 H     1 <1>   0.0800 
 28 H       -3.6220     3.2240    -1.7870 H     1 <1>   0.1500 
 29 H       -0.2660     3.3820     0.7900 H     1 <1>   0.1500 
 30 H       -5.5800    -0.0160     1.2070 H     1 <1>   0.0800 
 31 H       -3.9190    -0.2520     1.6910 H     1 <1>   0.0800 
 32 H       -1.3080     5.6910     0.4790 H     1 <1>   0.2700 
 33 H       -5.3320    -1.5680    -0.6430 H     1 <1>   0.0800 
 34 H       -4.3740    -3.2120    -1.8700 H     1 <1>   0.0800 
 35 H       -3.6210    -4.1660    -0.6190 H     1 <1>   0.0800 
 36 H       -1.8130    -1.2940     1.0360 H     1 <1>   0.0800 
 37 H       -2.6100    -2.7390     1.5190 H     1 <1>   0.0800 
 38 H       -4.5750    -2.5040     1.8910 H     1 <1>   0.4000 
 39 H       -1.6060    -3.6900    -1.6210 H     1 <1>   0.4000 
 40 H        0.1770    -1.4360    -0.5030 H     1 <1>   0.1500 
 41 H       -1.7920    -4.9290     0.9680 H     1 <1>   0.1500 
 42 H        2.0800    -2.8000    -1.1850 H     1 <1>   0.1500 
 43 H        0.1240    -6.2870     0.2850 H     1 <1>   0.1500 
 44 H        2.0650    -5.2320    -0.7990 H     1 <1>   0.1500 
@<TRIPOS>BOND
  1   1   2  2   
  2   2   3  am  
  3   2   4  1   
  4   3   5  1   
  5   3   6  1   
  6   4   7  1   
  7   4   8  2   
  8   5   9  1   
  9   5  24  1   
 10   5  25  1   
 11   6  10  1   
 12   6  26  1   
 13   6  27  1   
 14   7  11  2   
 15   7  28  1   
 16   8  12  1   
 17   8  29  1   
 18   9  13  1   
 19   9  14  1   
 20   9  15  1   
 21  10  13  1   
 22  10  30  1   
 23  10  31  1   
 24  11  12  1   
 25  12  32  1   
 26  13  16  1   
 27  13  33  1   
 28  14  17  1   
 29  14  34  1   
 30  14  35  1   
 31  15  18  1   
 32  15  36  1   
 33  15  37  1   
 34  16  38  1   
 35  17  39  1   
 36  18  19  ar  
 37  18  20  ar  
 38  19  21  ar  
 39  19  40  1   
 40  20  22  ar  
 41  20  41  1   
 42  21  23  ar  
 43  21  42  1   
 44  22  23  ar  
 45  22  43  1   
 46  23  44  1   
@<TRIPOS>SUBSTRUCTURE
  1 ****   5 GROUP 4 **** **** 0

# MOE 2024.06 (io_trps.svl 2023.06)
