@<TRIPOS>MOLECULE
NONAME
54 56 1 0 0 
SMALL
USER_CHARGES


@<TRIPOS>ATOM
  1 O       -2.7130    -2.1780    -1.5660 O.2   1 <1>  -0.5700 
  2 C       -1.7220    -2.0610    -0.8800 C.2   1 <1>   0.5690 
  3 N       -1.1640    -3.1380    -0.2510 N.am  1 <1>  -0.6600 
  4 C       -1.1240    -0.6740    -0.7250 C.3   1 <1>  -0.0990 
  5 C       -0.1120    -3.0260     0.7890 C.3   1 <1>   0.1400 
  6 C       -1.6690    -4.5270    -0.5260 C.3   1 <1>   0.2010 
  7 C        0.3440    -0.5890    -1.1770 C.3   1 <1>  -0.1600 
  8 C        1.2240    -2.6230     0.1590 C.3   1 <1>  -0.1600 
  9 C       -2.9370    -4.8680     0.2570 C.2   1 <1>   0.5690 
 10 C        1.3420    -1.1190    -0.1370 C.3   1 <1>  -0.1600 
 11 O       -2.9340    -5.7950     1.0330 O.2   1 <1>  -0.5700 
 12 N       -4.0500    -4.1240     0.0450 N.am  1 <1>  -0.7300 
 13 C       -5.3320    -4.1910     0.7840 C.3   1 <1>   0.2200 
 14 C       -6.1640    -5.4300     0.3820 C.3   1 <1>   0.2000 
 15 C       -6.0960    -2.8930     0.5090 C.3   1 <1>  -0.1600 
 16 O       -5.5320    -6.5880     0.8190 O.3   1 <1>  -0.6800 
 17 C       -7.5700    -5.4020     0.9950 C.3   1 <1>   0.1400 
 18 C       -7.4630    -2.9020     1.1940 C.3   1 <1>   0.1400 
 19 N       -8.2390    -4.0880     0.7390 N.am  1 <1>  -0.6600 
 20 C       -9.4090    -3.9550     0.0150 C.2   1 <1>   0.5440 
 21 O       -9.7000    -2.8630    -0.4360 O.2   1 <1>  -0.5700 
 22 C      -10.2960    -5.0770    -0.2330 C.ar  1 <1>   0.0860 
 23 C      -10.7720    -5.8790     0.8050 C.ar  1 <1>  -0.1500 
 24 C      -10.7110    -5.3860    -1.5280 C.ar  1 <1>  -0.1500 
 25 C      -11.6100    -6.9520     0.5600 C.ar  1 <1>  -0.1500 
 26 C      -11.5490    -6.4580    -1.7800 C.ar  1 <1>  -0.1500 
 27 C      -11.9990    -7.2440    -0.7350 C.ar  1 <1>  -0.1500 
 28 H       -1.7030    -0.0010    -1.3330 H     1 <1>   0.0800 
 29 H       -1.2270    -0.3500     0.2940 H     1 <1>   0.0800 
 30 H       -0.4080    -2.3040     1.5320 H     1 <1>   0.0800 
 31 H        0.0010    -3.9740     1.2880 H     1 <1>   0.0800 
 32 H       -1.8890    -4.6190    -1.5740 H     1 <1>   0.0800 
 33 H       -0.9070    -5.2480    -0.2920 H     1 <1>   0.0800 
 34 H        0.4670    -1.1180    -2.1080 H     1 <1>   0.0800 
 35 H        0.5790     0.4450    -1.3640 H     1 <1>   0.0800 
 36 H        2.0050    -2.8790     0.8540 H     1 <1>   0.0800 
 37 H        1.3940    -3.1980    -0.7350 H     1 <1>   0.0800 
 38 H        1.2300    -0.5640     0.7790 H     1 <1>   0.0800 
 39 H        2.3380    -0.9270    -0.5010 H     1 <1>   0.0800 
 40 H       -3.9510    -3.3310    -0.6100 H     1 <1>   0.3700 
 41 H       -5.1260    -4.2490     1.8400 H     1 <1>   0.0800 
 42 H       -6.2440    -5.4800    -0.6900 H     1 <1>   0.0800 
 43 H       -5.5290    -2.0560     0.8750 H     1 <1>   0.0800 
 44 H       -6.2460    -2.7660    -0.5500 H     1 <1>   0.0800 
 45 H       -4.5520    -6.4280     0.8560 H     1 <1>   0.4000 
 46 H       -7.4980    -5.5510     2.0580 H     1 <1>   0.0800 
 47 H       -8.1360    -6.2120     0.5720 H     1 <1>   0.0800 
 48 H       -7.9890    -1.9900     0.9640 H     1 <1>   0.0800 
 49 H       -7.3420    -2.9510     2.2620 H     1 <1>   0.0800 
 50 H      -10.4800    -5.6500     1.8150 H     1 <1>   0.1500 
 51 H      -10.3680    -4.7700    -2.3410 H     1 <1>   0.1500 
 52 H      -11.9620    -7.5590     1.3770 H     1 <1>   0.1500 
 53 H      -11.8540    -6.6770    -2.7890 H     1 <1>   0.1500 
 54 H      -12.6510    -8.0790    -0.9290 H     1 <1>   0.1500 
@<TRIPOS>BOND
  1   1   2  2   
  2   2   3  am  
  3   2   4  1   
  4   3   5  1   
  5   3   6  1   
  6   4   7  1   
  7   4  28  1   
  8   4  29  1   
  9   5   8  1   
 10   5  30  1   
 11   5  31  1   
 12   6   9  1   
 13   6  32  1   
 14   6  33  1   
 15   7  10  1   
 16   7  34  1   
 17   7  35  1   
 18   8  10  1   
 19   8  36  1   
 20   8  37  1   
 21   9  11  2   
 22   9  12  am  
 23  10  38  1   
 24  10  39  1   
 25  12  13  1   
 26  12  40  1   
 27  13  14  1   
 28  13  15  1   
 29  13  41  1   
 30  14  16  1   
 31  14  17  1   
 32  14  42  1   
 33  15  18  1   
 34  15  43  1   
 35  15  44  1   
 36  16  45  1   
 37  17  19  1   
 38  17  46  1   
 39  17  47  1   
 40  18  19  1   
 41  18  48  1   
 42  18  49  1   
 43  19  20  am  
 44  20  21  2   
 45  20  22  1   
 46  22  23  ar  
 47  22  24  ar  
 48  23  25  ar  
 49  23  50  1   
 50  24  26  ar  
 51  24  51  1   
 52  25  27  ar  
 53  25  52  1   
 54  26  27  ar  
 55  26  53  1   
 56  27  54  1   
@<TRIPOS>SUBSTRUCTURE
  1 ****  13 GROUP 4 **** **** 0

# MOE 2024.06 (io_trps.svl 2023.06)
