@<TRIPOS>MOLECULE
NONAME
43 44 1 0 0 
SMALL
USER_CHARGES


@<TRIPOS>ATOM
  1 O       -0.0290    -0.9580     1.1080 O.2   1 <1>  -0.5700 
  2 C       -0.3060    -1.8960     0.3860 C.2   1 <1>   0.5440 
  3 N        0.5900    -2.2580    -0.5830 N.am  1 <1>  -0.7300 
  4 C       -1.5620    -2.5960     0.5420 C.ar  1 <1>   0.0860 
  5 C        1.9040    -1.6220    -0.8040 C.3   1 <1>   0.1400 
  6 C       -2.6370    -1.9870     1.1900 C.ar  1 <1>   0.1600 
  7 C       -1.7740    -3.8910     0.0690 C.ar  1 <1>  -0.1500 
  8 C        2.8980    -2.6950    -1.2310 C.3   1 <1>  -0.2400 
  9 N       -3.8330    -2.5160     1.3860 N.ar  1 <1>  -0.6200 
 10 C       -3.0100    -4.4570     0.2660 C.ar  1 <1>  -0.1500 
 11 C       -4.0050    -3.7430     0.9290 C.ar  1 <1>   0.4100 
 12 N       -5.2460    -4.2460     1.1620 N.pl3 1 <1>  -0.8690 
 13 C       -5.4910    -5.6430     1.5900 C.3   1 <1>   0.2090 
 14 C       -6.3980    -6.3230     0.5670 C.3   1 <1>  -0.0990 
 15 C       -6.6680    -7.7740     0.9160 C.2   1 <1>   0.5690 
 16 O       -6.0950    -8.2670     1.8600 O.2   1 <1>  -0.5700 
 17 N       -7.5410    -8.4970     0.1540 N.am  1 <1>  -0.6600 
 18 C       -8.2730    -8.0190    -1.0400 C.3   1 <1>   0.1400 
 19 C       -7.8250    -9.9240     0.4170 C.3   1 <1>   0.1400 
 20 C       -9.2200    -9.1590    -1.3980 C.3   1 <1>  -0.1600 
 21 C       -8.5560   -10.4100    -0.8290 C.3   1 <1>  -0.1600 
 22 H        0.3190    -2.9450    -1.2860 H     1 <1>   0.3700 
 23 H        2.2400    -1.1480     0.1040 H     1 <1>   0.0800 
 24 H        1.8120    -0.8700    -1.5690 H     1 <1>   0.0800 
 25 H       -2.4870    -0.9890     1.5670 H     1 <1>   0.1500 
 26 H       -0.9940    -4.4360    -0.4300 H     1 <1>   0.1500 
 27 H        2.9880    -3.4430    -0.4640 H     1 <1>   0.0800 
 28 H        3.8640    -2.2490    -1.3840 H     1 <1>   0.0800 
 29 H        2.5860    -3.1550    -2.1510 H     1 <1>   0.0800 
 30 H       -3.2240    -5.4470    -0.0880 H     1 <1>   0.1500 
 31 H       -5.8250    -3.5580     1.6510 H     1 <1>   0.4000 
 32 H       -5.9630    -5.6440     2.5580 H     1 <1>   0.0800 
 33 H       -4.5600    -6.1790     1.6750 H     1 <1>   0.0800 
 34 H       -5.9300    -6.2860    -0.3980 H     1 <1>   0.0800 
 35 H       -7.3310    -5.7950     0.5290 H     1 <1>   0.0800 
 36 H       -7.5720    -7.8500    -1.8400 H     1 <1>   0.0800 
 37 H       -8.8150    -7.1130    -0.8290 H     1 <1>   0.0800 
 38 H       -8.4580   -10.0000     1.2840 H     1 <1>   0.0800 
 39 H       -6.9130   -10.4730     0.5860 H     1 <1>   0.0800 
 40 H       -9.3830    -9.2280    -2.4600 H     1 <1>   0.0800 
 41 H      -10.1650    -8.9950    -0.9100 H     1 <1>   0.0800 
 42 H       -9.2650   -11.1850    -0.5990 H     1 <1>   0.0800 
 43 H       -7.8340   -10.7930    -1.5290 H     1 <1>   0.0800 
@<TRIPOS>BOND
  1   1   2  2   
  2   2   3  am  
  3   2   4  1   
  4   3   5  1   
  5   3  22  1   
  6   4   6  ar  
  7   4   7  ar  
  8   5   8  1   
  9   5  23  1   
 10   5  24  1   
 11   6   9  ar  
 12   6  25  1   
 13   7  10  ar  
 14   7  26  1   
 15   8  27  1   
 16   8  28  1   
 17   8  29  1   
 18   9  11  ar  
 19  10  11  ar  
 20  10  30  1   
 21  11  12  1   
 22  12  13  1   
 23  12  31  1   
 24  13  14  1   
 25  13  32  1   
 26  13  33  1   
 27  14  15  1   
 28  14  34  1   
 29  14  35  1   
 30  15  16  2   
 31  15  17  am  
 32  17  18  1   
 33  17  19  1   
 34  18  20  1   
 35  18  36  1   
 36  18  37  1   
 37  19  21  1   
 38  19  38  1   
 39  19  39  1   
 40  20  21  1   
 41  20  40  1   
 42  20  41  1   
 43  21  42  1   
 44  21  43  1   
@<TRIPOS>SUBSTRUCTURE
  1 ****  10 GROUP 4 **** **** 0

# MOE 2024.06 (io_trps.svl 2023.06)
