@<TRIPOS>MOLECULE
NONAME
51 53 1 0 0 
SMALL
USER_CHARGES


@<TRIPOS>ATOM
  1 O        0.0790    -0.4140    -0.0640 O.2   1 <1>  -0.5700 
  2 C        1.1720    -0.9330    -0.1270 C.2   1 <1>   0.9370 
  3 N        2.3120    -0.1200    -0.2080 N.pl3 1 <1>  -0.5760 
  4 C        1.3250    -2.3370    -0.1150 C.2   1 <1>  -0.1360 
  5 C        3.5370    -0.6980    -0.2690 C.cat 1 <1>   0.7390 
  6 C        2.2090     1.2530    -0.2280 C.2   1 <1>   0.1910 
  7 C        2.5510    -2.8950    -0.1700 C.2   1 <1>   0.2030 
  8 N        3.6390    -2.0480    -0.2480 N.pl3 1 <1>  -0.6450 
  9 C        4.6810     0.1090    -0.3530 C.2   1 <1>  -0.1800 
 10 C        3.3140     2.0570    -0.3090 C.2   1 <1>  -0.1380 
 11 C        2.8100    -4.4060    -0.1630 C.3   1 <1>   0.2480 
 12 C        4.5840     1.4740    -0.3740 C.2   1 <1>  -0.1500 
 13 C        3.2050     3.5740    -0.3320 C.3   1 <1>  -0.1020 
 14 N        1.6180    -5.1450     0.2630 N.3   1 <1>  -0.8100 
 15 C        1.5550    -6.4830    -0.3850 C.3   1 <1>   0.1100 
 16 C        1.4730    -5.2370     1.7210 C.3   1 <1>   0.1100 
 17 C        0.3700    -7.3800     0.0810 C.3   1 <1>  -0.1060 
 18 C        0.0620    -5.7130     2.0760 C.3   1 <1>  -0.1600 
 19 C       -0.4250    -7.8380    -1.1570 C.2   1 <1>   0.9060 
 20 C       -0.5900    -6.5300     0.9540 C.3   1 <1>   0.2000 
 21 C        0.8870    -8.6990     0.7470 C.3   1 <1>  -0.1600 
 22 O        0.1620    -8.0100    -2.2340 O.co2 1 <1>  -0.9000 
 23 O       -1.6360    -8.0850    -1.0460 O.co2 1 <1>  -0.9000 
 24 O       -1.5820    -7.3180     1.4980 O.3   1 <1>  -0.6800 
 25 C        1.7950    -8.6070     1.9850 C.3   1 <1>  -0.1600 
 26 C        2.2310   -10.0020     2.4410 C.3   1 <1>  -0.2400 
 27 H        0.4210    -2.9160    -0.0640 H     1 <1>   0.1500 
 28 H        1.2230     1.6950    -0.1780 H     1 <1>   0.1500 
 29 H        4.5780    -2.4510    -0.3040 H     1 <1>   0.4500 
 30 H        5.6470    -0.3580    -0.4020 H     1 <1>   0.1500 
 31 H        3.6320    -4.6510     0.4860 H     1 <1>   0.0800 
 32 H        3.0750    -4.7000    -1.1650 H     1 <1>   0.0800 
 33 H        5.4600     2.1010    -0.4380 H     1 <1>   0.1500 
 34 H        3.7350     3.9960     0.5030 H     1 <1>   0.0800 
 35 H        2.1780     3.8910    -0.2770 H     1 <1>   0.0800 
 36 H        3.6310     3.9620    -1.2410 H     1 <1>   0.0800 
 37 H        1.4850    -6.3100    -1.4450 H     1 <1>   0.0800 
 38 H        2.4800    -7.0090    -0.2270 H     1 <1>   0.0800 
 39 H        2.2040    -5.9200     2.1140 H     1 <1>   0.0800 
 40 H        1.6390    -4.2770     2.1780 H     1 <1>   0.0800 
 41 H       -0.5580    -4.8560     2.2590 H     1 <1>   0.0800 
 42 H        0.0970    -6.2800     2.9870 H     1 <1>   0.0800 
 43 H       -1.0820    -5.8340     0.2940 H     1 <1>   0.0800 
 44 H        0.0310    -9.3010     1.0020 H     1 <1>   0.0800 
 45 H        1.4200    -9.2500    -0.0110 H     1 <1>   0.0800 
 46 H       -1.9530    -7.8160     0.7160 H     1 <1>   0.4000 
 47 H        2.6740    -8.0320     1.7620 H     1 <1>   0.0800 
 48 H        1.2630    -8.1400     2.7910 H     1 <1>   0.0800 
 49 H        2.7810   -10.4970     1.6610 H     1 <1>   0.0800 
 50 H        1.3700   -10.5980     2.6890 H     1 <1>   0.0800 
 51 H        2.8580    -9.9270     3.3110 H     1 <1>   0.0800 
@<TRIPOS>BOND
  1   1   2  2   
  2   2   3  1   
  3   2   4  1   
  4   3   5  ar  
  5   3   6  1   
  6   4   7  2   
  7   4  27  1   
  8   5   8  ar  
  9   5   9  1   
 10   6  10  2   
 11   6  28  1   
 12   7   8  1   
 13   7  11  1   
 14   8  29  1   
 15   9  12  2   
 16   9  30  1   
 17  10  12  1   
 18  10  13  1   
 19  11  14  1   
 20  11  31  1   
 21  11  32  1   
 22  12  33  1   
 23  13  34  1   
 24  13  35  1   
 25  13  36  1   
 26  14  15  1   
 27  14  16  1   
 28  15  17  1   
 29  15  37  1   
 30  15  38  1   
 31  16  18  1   
 32  16  39  1   
 33  16  40  1   
 34  17  19  1   
 35  17  20  1   
 36  17  21  1   
 37  18  20  1   
 38  18  41  1   
 39  18  42  1   
 40  19  22  ar  
 41  19  23  ar  
 42  20  24  1   
 43  20  43  1   
 44  21  25  1   
 45  21  44  1   
 46  21  45  1   
 47  24  46  1   
 48  25  26  1   
 49  25  47  1   
 50  25  48  1   
 51  26  49  1   
 52  26  50  1   
 53  26  51  1   
@<TRIPOS>SUBSTRUCTURE
  1 ****  14 GROUP 4 **** **** 0

# MOE 2024.06 (io_trps.svl 2023.06)
