@<TRIPOS>MOLECULE
NONAME
56 59 1 0 0 
SMALL
USER_CHARGES


@<TRIPOS>ATOM
  1 O        1.6590    -0.2100     1.7230 O.2   1 <1>  -0.5700 
  2 C        2.5210    -0.4930     0.9260 C.2   1 <1>   0.5690 
  3 N        2.8740     0.4010    -0.0660 N.am  1 <1>  -0.6600 
  4 C        3.2510    -1.8350     1.1370 C.3   1 <1>   0.2610 
  5 C        3.9560     0.1790    -1.0800 C.3   1 <1>   0.1400 
  6 C        2.3120     1.7780    -0.0720 C.3   1 <1>   0.1400 
  7 O        4.6520    -1.6970     1.1090 O.3   1 <1>  -0.5600 
  8 C        2.9310    -2.9280     0.1130 C.3   1 <1>  -0.1600 
  9 C        5.3380     0.6340    -0.5710 C.3   1 <1>   0.3430 
 10 C        3.1390     2.6830     0.8510 C.3   1 <1>  -0.1600 
 11 C        5.2190    -2.9390     0.8490 C.3   1 <1>   0.1200 
 12 C        4.2740    -3.6030    -0.1450 C.3   1 <1>  -0.1600 
 13 N        5.2590     1.3930     0.7150 N.4   1 <1>  -0.9590 
 14 C        4.6410     2.7360     0.5480 C.3   1 <1>   0.3430 
 15 C        6.5730     1.3980     1.4220 C.3   1 <1>   0.4860 
 16 C        7.5970     2.2920     0.7300 C.ar  1 <1>  -0.1440 
 17 C        8.4570     1.7910    -0.2560 C.ar  1 <1>   0.0000 
 18 C        7.6840     3.6240     1.1120 C.ar  1 <1>  -0.1500 
 19 C        8.4530     0.4080    -0.6800 C.ar  1 <1>   0.0000 
 20 C        9.3610     2.6660    -0.8500 C.ar  1 <1>  -0.1500 
 21 C        8.5900     4.4750     0.5080 C.ar  1 <1>  -0.1500 
 22 C        8.7970    -0.6200     0.1950 C.ar  1 <1>  -0.1500 
 23 C        8.1060     0.0670    -1.9850 C.ar  1 <1>  -0.1500 
 24 C        9.4270     3.9950    -0.4790 C.ar  1 <1>  -0.1500 
 25 C        8.7590    -1.9420    -0.2070 C.ar  1 <1>  -0.1500 
 26 C        8.0630    -1.2540    -2.3910 C.ar  1 <1>  -0.1500 
 27 C        8.3840    -2.2620    -1.5000 C.ar  1 <1>  -0.1500 
 28 H        3.0000    -2.1990     2.1190 H     1 <1>   0.0800 
 29 H        3.7190     0.7140    -1.9830 H     1 <1>   0.0800 
 30 H        4.0120    -0.8600    -1.3480 H     1 <1>   0.0800 
 31 H        1.2900     1.7530     0.2710 H     1 <1>   0.0800 
 32 H        2.3040     2.1690    -1.0750 H     1 <1>   0.0800 
 33 H        2.5210    -2.5140    -0.7900 H     1 <1>   0.0800 
 34 H        2.2140    -3.6150     0.5280 H     1 <1>   0.0800 
 35 H        5.8320     1.2240    -1.3250 H     1 <1>   0.0800 
 36 H        5.9330    -0.2530    -0.4180 H     1 <1>   0.0800 
 37 H        2.9870     2.3770     1.8710 H     1 <1>   0.0800 
 38 H        2.7460     3.6800     0.7690 H     1 <1>   0.0800 
 39 H        5.2580    -3.4910     1.7740 H     1 <1>   0.0800 
 40 H        6.2100    -2.8090     0.4530 H     1 <1>   0.0800 
 41 H        4.6090    -3.4100    -1.1490 H     1 <1>   0.0800 
 42 H        4.2330    -4.6670     0.0100 H     1 <1>   0.0800 
 43 H        4.6020     0.8320     1.2800 H     1 <1>   0.4500 
 44 H        5.0950     3.4310     1.2340 H     1 <1>   0.0800 
 45 H        4.8110     3.1010    -0.4520 H     1 <1>   0.0800 
 46 H        6.9480     0.3900     1.4850 H     1 <1>   0.0800 
 47 H        6.4310     1.7520     2.4300 H     1 <1>   0.0800 
 48 H        7.0540     4.0200     1.8900 H     1 <1>   0.1500 
 49 H       10.0300     2.2980    -1.6100 H     1 <1>   0.1500 
 50 H        8.6510     5.5090     0.8060 H     1 <1>   0.1500 
 51 H        9.1130    -0.3810     1.1960 H     1 <1>   0.1500 
 52 H        7.8750     0.8460    -2.6910 H     1 <1>   0.1500 
 53 H       10.1360     4.6530    -0.9530 H     1 <1>   0.1500 
 54 H        9.0310    -2.7250     0.4820 H     1 <1>   0.1500 
 55 H        7.7930    -1.5020    -3.4040 H     1 <1>   0.1500 
 56 H        8.3580    -3.2920    -1.8160 H     1 <1>   0.1500 
@<TRIPOS>BOND
  1   1   2  2   
  2   2   3  am  
  3   2   4  1   
  4   3   5  1   
  5   3   6  1   
  6   4   7  1   
  7   4   8  1   
  8   4  28  1   
  9   5   9  1   
 10   5  29  1   
 11   5  30  1   
 12   6  10  1   
 13   6  31  1   
 14   6  32  1   
 15   7  11  1   
 16   8  12  1   
 17   8  33  1   
 18   8  34  1   
 19   9  13  1   
 20   9  35  1   
 21   9  36  1   
 22  10  14  1   
 23  10  37  1   
 24  10  38  1   
 25  11  12  1   
 26  11  39  1   
 27  11  40  1   
 28  12  41  1   
 29  12  42  1   
 30  13  14  1   
 31  13  15  1   
 32  13  43  1   
 33  14  44  1   
 34  14  45  1   
 35  15  16  1   
 36  15  46  1   
 37  15  47  1   
 38  16  17  ar  
 39  16  18  ar  
 40  17  19  1   
 41  17  20  ar  
 42  18  21  ar  
 43  18  48  1   
 44  19  22  ar  
 45  19  23  ar  
 46  20  24  ar  
 47  20  49  1   
 48  21  24  ar  
 49  21  50  1   
 50  22  25  ar  
 51  22  51  1   
 52  23  26  ar  
 53  23  52  1   
 54  24  53  1   
 55  25  27  ar  
 56  25  54  1   
 57  26  27  ar  
 58  26  55  1   
 59  27  56  1   
@<TRIPOS>SUBSTRUCTURE
  1 ****   9 GROUP 4 **** **** 0

# MOE 2024.06 (io_trps.svl 2023.06)
