@<TRIPOS>MOLECULE
NONAME
52 54 1 0 0 
SMALL
USER_CHARGES


@<TRIPOS>ATOM
  1 O        5.0550    -0.6680     0.1810 O.2   1 <1>  -0.5700 
  2 C        3.8580    -0.8930     0.1920 C.2   1 <1>   0.7030 
  3 N        3.1170    -0.2870    -0.8010 N.am  1 <1>  -0.6600 
  4 C        3.2800    -1.7060     1.2570 C.2   1 <1>   0.2770 
  5 C        3.5500    -0.3580    -2.2430 C.3   1 <1>   0.1400 
  6 C        2.2180     0.8510    -0.4690 C.3   1 <1>   0.1400 
  7 N        2.0450    -2.3690     1.3090 N.pl3 1 <1>  -0.7640 
  8 C        3.8900    -1.9830     2.4390 C.2   1 <1>   0.2000 
  9 C        4.7210     0.5840    -2.6180 C.3   1 <1>   0.3430 
 10 C        3.0240     2.1310    -0.2040 C.3   1 <1>  -0.1600 
 11 C        1.9640    -2.9900     2.4820 C.cat 1 <1>   0.6500 
 12 C        1.0270    -2.4410     0.2220 C.3   1 <1>   0.2740 
 13 N        3.0610    -2.7690     3.1870 N.pl3 1 <1>  -0.7000 
 14 N        5.0380     1.5800    -1.5470 N.4   1 <1>  -0.9590 
 15 C        3.9450     2.5750    -1.3460 C.3   1 <1>   0.3430 
 16 C        6.3760     2.1990    -1.7430 C.3   1 <1>   0.3430 
 17 C        6.8980     2.6940    -0.3950 C.3   1 <1>  -0.1600 
 18 C        8.3370     3.2170    -0.5000 C.3   1 <1>   0.0960 
 19 N        8.7890     3.6650     0.8310 N.pl3 1 <1>   0.0480 
 20 C        9.4670     2.9760     1.7830 C.2   1 <1>   0.0060 
 21 C        8.5450     4.8660     1.3860 C.2   1 <1>  -0.3020 
 22 N        9.6540     3.6460     2.8710 N.2   1 <1>  -0.5650 
 23 C        9.9660     1.5560     1.6100 C.3   1 <1>  -0.0600 
 24 C        9.0790     4.8360     2.6250 C.2   1 <1>   0.0770 
 25 H        2.7090    -0.1350    -2.8770 H     1 <1>   0.0800 
 26 H        3.8450    -1.3680    -2.4710 H     1 <1>   0.0800 
 27 H        1.6430     0.6120     0.4100 H     1 <1>   0.0800 
 28 H        1.5230     1.0130    -1.2770 H     1 <1>   0.0800 
 29 H        4.8660    -1.6610     2.7730 H     1 <1>   0.1500 
 30 H        4.4980     1.0870    -3.5450 H     1 <1>   0.0800 
 31 H        5.5900    -0.0310    -2.7900 H     1 <1>   0.0800 
 32 H        3.5960     2.0270     0.7010 H     1 <1>   0.0800 
 33 H        2.3200     2.9250    -0.0280 H     1 <1>   0.0800 
 34 H        1.1290    -3.5950     2.8130 H     1 <1>   0.1500 
 35 H        1.4980    -2.7130    -0.7080 H     1 <1>   0.0800 
 36 H        0.5400    -1.4890     0.1040 H     1 <1>   0.0800 
 37 H        0.2790    -3.1810     0.4540 H     1 <1>   0.0800 
 38 H        3.2610    -3.1360     4.1250 H     1 <1>   0.4500 
 39 H        5.0990     1.0010    -0.6860 H     1 <1>   0.4500 
 40 H        4.3690     3.5320    -1.0870 H     1 <1>   0.0800 
 41 H        3.3800     2.7010    -2.2560 H     1 <1>   0.0800 
 42 H        6.3160     3.0110    -2.4500 H     1 <1>   0.0800 
 43 H        7.0610     1.4610    -2.1290 H     1 <1>   0.0800 
 44 H        6.8840     1.8810     0.3110 H     1 <1>   0.0800 
 45 H        6.2730     3.4890    -0.0280 H     1 <1>   0.0800 
 46 H        8.3930     4.0530    -1.1760 H     1 <1>   0.0800 
 47 H        9.0010     2.4470    -0.8510 H     1 <1>   0.0800 
 48 H        8.0220     5.6640     0.8920 H     1 <1>   0.1500 
 49 H        9.1480     0.8920     1.4040 H     1 <1>   0.0800 
 50 H       10.4500     1.2310     2.5140 H     1 <1>   0.0800 
 51 H       10.6810     1.5100     0.8090 H     1 <1>   0.0800 
 52 H        9.0830     5.6190     3.3660 H     1 <1>   0.1500 
@<TRIPOS>BOND
  1   1   2  2   
  2   2   3  am  
  3   2   4  1   
  4   3   5  1   
  5   3   6  1   
  6   4   7  1   
  7   4   8  2   
  8   5   9  1   
  9   5  25  1   
 10   5  26  1   
 11   6  10  1   
 12   6  27  1   
 13   6  28  1   
 14   7  11  ar  
 15   7  12  1   
 16   8  13  1   
 17   8  29  1   
 18   9  14  1   
 19   9  30  1   
 20   9  31  1   
 21  10  15  1   
 22  10  32  1   
 23  10  33  1   
 24  11  13  ar  
 25  11  34  1   
 26  12  35  1   
 27  12  36  1   
 28  12  37  1   
 29  13  38  1   
 30  14  15  1   
 31  14  16  1   
 32  14  39  1   
 33  15  40  1   
 34  15  41  1   
 35  16  17  1   
 36  16  42  1   
 37  16  43  1   
 38  17  18  1   
 39  17  44  1   
 40  17  45  1   
 41  18  19  1   
 42  18  46  1   
 43  18  47  1   
 44  19  20  1   
 45  19  21  1   
 46  20  22  2   
 47  20  23  1   
 48  21  24  2   
 49  21  48  1   
 50  22  24  1   
 51  23  49  1   
 52  23  50  1   
 53  23  51  1   
 54  24  52  1   
@<TRIPOS>SUBSTRUCTURE
  1 ****   1 GROUP 4 **** **** 0

# MOE 2024.06 (io_trps.svl 2023.06)
