@<TRIPOS>MOLECULE
NONAME
34 35 1 0 0 
SMALL
USER_CHARGES


@<TRIPOS>ATOM
  1 CL       1.2680    -1.3260     2.9600 Cl    1 <1>  -0.1770 
  2 C        0.5660    -2.4310     1.8090 C.ar  1 <1>   0.1770 
  3 C        1.2080    -3.6230     1.5380 C.ar  1 <1>  -0.1500 
  4 C       -0.6250    -2.0960     1.1850 C.ar  1 <1>  -0.1500 
  5 C        0.6190    -4.4730     0.6220 C.ar  1 <1>   0.1900 
  6 C       -1.1960    -2.9670     0.2680 C.ar  1 <1>  -0.1500 
  7 F        1.2110    -5.6070     0.3600 F     1 <1>  -0.1900 
  8 C       -0.5730    -4.1750    -0.0230 C.ar  1 <1>  -0.1440 
  9 C       -1.1630    -5.1450    -1.0300 C.3   1 <1>   0.4870 
 10 N       -2.2790    -5.8900    -0.4010 N.4   1 <1>  -0.9590 
 11 C       -1.7620    -6.8740     0.6350 C.3   1 <1>   0.3430 
 12 C       -3.1270    -6.5670    -1.4260 C.3   1 <1>   0.3430 
 13 C       -2.6520    -8.1190     0.8200 C.3   1 <1>   0.2000 
 14 C       -4.3930    -7.1130    -0.7600 C.3   1 <1>  -0.1600 
 15 O       -2.3000    -9.0530    -0.1410 O.3   1 <1>  -0.6800 
 16 C       -4.1300    -7.7640     0.6240 C.3   1 <1>  -0.1860 
 17 C       -4.9850    -8.9900     0.8530 C.2   1 <1>   0.9060 
 18 O       -5.8950    -8.9190     1.6750 O.co2 1 <1>  -0.9000 
 19 O       -4.7090   -10.0110     0.2120 O.co2 1 <1>  -0.9000 
 20 H        2.1340    -3.8750     2.0230 H     1 <1>   0.1500 
 21 H       -1.0930    -1.1550     1.4200 H     1 <1>   0.1500 
 22 H       -2.1180    -2.6860    -0.2140 H     1 <1>   0.1500 
 23 H       -0.4090    -5.8340    -1.3760 H     1 <1>   0.0800 
 24 H       -1.5260    -4.5890    -1.8790 H     1 <1>   0.0800 
 25 H       -2.8860    -5.2270     0.0920 H     1 <1>   0.4500 
 26 H       -0.7770    -7.2170     0.3660 H     1 <1>   0.0800 
 27 H       -1.6840    -6.3670     1.5820 H     1 <1>   0.0800 
 28 H       -3.3990    -5.8840    -2.2140 H     1 <1>   0.0800 
 29 H       -2.5770    -7.3880    -1.8590 H     1 <1>   0.0800 
 30 H       -2.4880    -8.5720     1.7840 H     1 <1>   0.0800 
 31 H       -5.1300    -6.3360    -0.6580 H     1 <1>   0.0800 
 32 H       -4.8120    -7.8520    -1.4240 H     1 <1>   0.0800 
 33 H       -3.0630    -9.7130    -0.1700 H     1 <1>   0.4000 
 34 H       -4.4000    -7.0590     1.3880 H     1 <1>   0.0800 
@<TRIPOS>BOND
  1   1   2  1   
  2   2   3  ar  
  3   2   4  ar  
  4   3   5  ar  
  5   3  20  1   
  6   4   6  ar  
  7   4  21  1   
  8   5   7  1   
  9   5   8  ar  
 10   6   8  ar  
 11   6  22  1   
 12   8   9  1   
 13   9  10  1   
 14   9  23  1   
 15   9  24  1   
 16  10  11  1   
 17  10  12  1   
 18  10  25  1   
 19  11  13  1   
 20  11  26  1   
 21  11  27  1   
 22  12  14  1   
 23  12  28  1   
 24  12  29  1   
 25  13  15  1   
 26  13  16  1   
 27  13  30  1   
 28  14  16  1   
 29  14  31  1   
 30  14  32  1   
 31  15  33  1   
 32  16  17  1   
 33  16  34  1   
 34  17  18  ar  
 35  17  19  ar  
@<TRIPOS>SUBSTRUCTURE
  1 ****  10 GROUP 4 **** **** 0

# MOE 2024.06 (io_trps.svl 2023.06)
