@<TRIPOS>MOLECULE
NONAME
54 55 1 0 0 
SMALL
USER_CHARGES


@<TRIPOS>ATOM
  1 O       -0.2610     0.3260     0.4120 O.2   1 <1>  -0.5700 
  2 C       -1.2900     0.7270    -0.0780 C.2   1 <1>   0.5690 
  3 N       -2.2840    -0.1140    -0.5180 N.am  1 <1>  -0.5470 
  4 C       -1.4480     2.2640    -0.2470 C.3   1 <1>   0.4840 
  5 C       -2.3580    -1.5160    -0.5140 C.ar  1 <1>   0.1170 
  6 N       -0.1220     3.0000    -0.1650 N.4   1 <1>  -0.9590 
  7 C       -2.4690     2.8800     0.7390 C.3   1 <1>  -0.1600 
  8 C       -1.2380    -2.3430    -0.5130 C.ar  1 <1>  -0.1500 
  9 C       -3.6140    -2.1120    -0.5310 C.ar  1 <1>  -0.1500 
 10 C        0.4130     3.1190     1.2260 C.3   1 <1>   0.3430 
 11 C       -0.1260     4.3020    -0.8860 C.3   1 <1>   0.3430 
 12 C       -3.9300     2.5150     0.4350 C.3   1 <1>  -0.2400 
 13 C       -1.3720    -3.7190    -0.5230 C.ar  1 <1>  -0.1500 
 14 C       -3.7490    -3.4880    -0.5420 C.ar  1 <1>  -0.1500 
 15 C        1.8440     3.6500     1.1770 C.3   1 <1>  -0.1600 
 16 C        1.2960     4.8590    -0.9600 C.3   1 <1>  -0.1600 
 17 C       -2.6280    -4.3010    -0.5390 C.ar  1 <1>  -0.1430 
 18 C        1.9400     4.9910     0.4330 C.3   1 <1>  -0.0800 
 19 C       -2.7730    -5.8120    -0.5470 C.3   1 <1>  -0.0970 
 20 C        3.4130     5.4330     0.3500 C.3   1 <1>  -0.1600 
 21 C        3.5990     6.8380    -0.2280 C.3   1 <1>   0.1200 
 22 O        4.9540     7.1240    -0.1830 O.3   1 <1>  -0.5600 
 23 C        5.2870     8.3880    -0.6580 C.3   1 <1>   0.0400 
 24 H       -3.1470     0.3220    -0.8400 H     1 <1>   0.3700 
 25 H       -1.8330     2.4120    -1.2410 H     1 <1>   0.0800 
 26 H        0.5520     2.3770    -0.6370 H     1 <1>   0.4500 
 27 H       -2.3970     3.9530     0.7050 H     1 <1>   0.0800 
 28 H       -2.2430     2.5610     1.7420 H     1 <1>   0.0800 
 29 H       -0.2500    -1.9230    -0.5080 H     1 <1>   0.1500 
 30 H       -4.4990    -1.5050    -0.5320 H     1 <1>   0.1500 
 31 H        0.4090     2.1540     1.7110 H     1 <1>   0.0800 
 32 H       -0.2000     3.7920     1.8020 H     1 <1>   0.0800 
 33 H       -0.7580     5.0050    -0.3670 H     1 <1>   0.0800 
 34 H       -0.5100     4.1730    -1.8860 H     1 <1>   0.0800 
 35 H       -4.1860     2.7400    -0.5870 H     1 <1>   0.0800 
 36 H       -4.5840     3.0880     1.0720 H     1 <1>   0.0800 
 37 H       -4.1270     1.4750     0.6320 H     1 <1>   0.0800 
 38 H       -0.4910    -4.3380    -0.5170 H     1 <1>   0.1500 
 39 H       -4.7310    -3.9280    -0.5520 H     1 <1>   0.1500 
 40 H        2.4760     2.9150     0.7080 H     1 <1>   0.0800 
 41 H        2.1980     3.7740     2.1870 H     1 <1>   0.0800 
 42 H        1.2530     5.8230    -1.4350 H     1 <1>   0.0800 
 43 H        1.8950     4.2190    -1.5850 H     1 <1>   0.0800 
 44 H        1.3970     5.7310     0.9980 H     1 <1>   0.0800 
 45 H       -1.9450    -6.2670    -1.0600 H     1 <1>   0.0800 
 46 H       -3.6800    -6.1020    -1.0470 H     1 <1>   0.0800 
 47 H       -2.8010    -6.1800     0.4630 H     1 <1>   0.0800 
 48 H        3.9720     4.7370    -0.2510 H     1 <1>   0.0800 
 49 H        3.8360     5.4300     1.3400 H     1 <1>   0.0800 
 50 H        3.0740     7.5690     0.3640 H     1 <1>   0.0800 
 51 H        3.2770     6.8870    -1.2530 H     1 <1>   0.0800 
 52 H        6.3530     8.5040    -0.5790 H     1 <1>   0.0800 
 53 H        4.7960     9.1350    -0.0580 H     1 <1>   0.0800 
 54 H        4.9900     8.4710    -1.6890 H     1 <1>   0.0800 
@<TRIPOS>BOND
  1   1   2  2   
  2   2   3  am  
  3   2   4  1   
  4   3   5  1   
  5   3  24  1   
  6   4   6  1   
  7   4   7  1   
  8   4  25  1   
  9   5   8  ar  
 10   5   9  ar  
 11   6  10  1   
 12   6  11  1   
 13   6  26  1   
 14   7  12  1   
 15   7  27  1   
 16   7  28  1   
 17   8  13  ar  
 18   8  29  1   
 19   9  14  ar  
 20   9  30  1   
 21  10  15  1   
 22  10  31  1   
 23  10  32  1   
 24  11  16  1   
 25  11  33  1   
 26  11  34  1   
 27  12  35  1   
 28  12  36  1   
 29  12  37  1   
 30  13  17  ar  
 31  13  38  1   
 32  14  17  ar  
 33  14  39  1   
 34  15  18  1   
 35  15  40  1   
 36  15  41  1   
 37  16  18  1   
 38  16  42  1   
 39  16  43  1   
 40  17  19  1   
 41  18  20  1   
 42  18  44  1   
 43  19  45  1   
 44  19  46  1   
 45  19  47  1   
 46  20  21  1   
 47  20  48  1   
 48  20  49  1   
 49  21  22  1   
 50  21  50  1   
 51  21  51  1   
 52  22  23  1   
 53  23  52  1   
 54  23  53  1   
 55  23  54  1   
@<TRIPOS>SUBSTRUCTURE
  1 ****   2 GROUP 4 **** **** 0

# MOE 2024.06 (io_trps.svl 2023.06)
