@<TRIPOS>MOLECULE
NONAME
58 61 1 0 0 
SMALL
USER_CHARGES


@<TRIPOS>ATOM
  1 O        0.7840    -1.2780     0.8720 O.3   1 <1>  -0.5600 
  2 C        1.2610    -0.3400    -0.0530 C.3   1 <1>   0.1200 
  3 C        1.5330    -2.4600     0.9780 C.3   1 <1>   0.1200 
  4 C        2.7180     0.0560     0.2750 C.3   1 <1>   0.4230 
  5 C        3.0010    -2.1470     1.3560 C.3   1 <1>   0.4230 
  6 N        3.5980    -1.1710     0.3920 N.4   1 <1>  -0.9590 
  7 C        3.2890     1.0700    -0.7530 C.3   1 <1>   0.1100 
  8 C        3.8800    -3.4040     1.4620 C.3   1 <1>  -0.1600 
  9 C        3.9470    -1.7100    -0.9700 C.3   1 <1>   0.3430 
 10 N        4.6500     0.6810    -1.1740 N.3   1 <1>  -0.8100 
 11 C        3.5250    -4.2650     2.6840 C.3   1 <1>  -0.1600 
 12 C        4.6700    -0.6420    -1.8260 C.3   1 <1>   0.1100 
 13 C        5.3830     1.7090    -1.9290 C.3   1 <1>   0.2530 
 14 C        4.4740    -5.4610     2.8010 C.3   1 <1>  -0.2400 
 15 C        5.7780     2.8380    -0.9880 C.ar  1 <1>  -0.1440 
 16 C        6.5850     2.6070     0.1310 C.ar  1 <1>  -0.0230 
 17 C        5.3250     4.1200    -1.2550 C.ar  1 <1>  -0.1500 
 18 N        7.0510     1.3030     0.4810 N.pl3 1 <1>   0.5930 
 19 C        6.9260     3.6840     0.9450 C.ar  1 <1>  -0.1500 
 20 C        5.6600     5.1830    -0.4350 C.ar  1 <1>   0.0820 
 21 N        7.8560     0.5270    -0.2940 N.2   1 <1>  -0.7070 
 22 C        6.7850     0.6570     1.6450 C.2   1 <1>  -0.3020 
 23 C        6.4710     4.9610     0.6720 C.ar  1 <1>  -0.1500 
 24 O        5.1620     6.3980    -0.7770 O.3   1 <1>  -0.3620 
 25 C        8.0820    -0.5450     0.3970 C.2   1 <1>   0.1390 
 26 C        7.4310    -0.5270     1.6240 C.2   1 <1>  -0.1500 
 27 C        5.5170     7.5610    -0.0630 C.3   1 <1>   0.0400 
 28 H        1.1820    -0.7600    -1.0400 H     1 <1>   0.0800 
 29 H        0.6220     0.5230     0.0030 H     1 <1>   0.0800 
 30 H        1.0710    -3.0600     1.7430 H     1 <1>   0.0800 
 31 H        1.4730    -2.9930     0.0460 H     1 <1>   0.0800 
 32 H        2.6970     0.5530     1.2300 H     1 <1>   0.0800 
 33 H        2.9820    -1.6860     2.3300 H     1 <1>   0.0800 
 34 H        4.4910    -0.8030     0.7520 H     1 <1>   0.4500 
 35 H        3.3120     2.0450    -0.2940 H     1 <1>   0.0800 
 36 H        2.6490     1.1360    -1.6170 H     1 <1>   0.0800 
 37 H        3.7780    -4.0060     0.5770 H     1 <1>   0.0800 
 38 H        4.9090    -3.1020     1.5560 H     1 <1>   0.0800 
 39 H        4.5920    -2.5680    -0.8800 H     1 <1>   0.0800 
 40 H        3.0520    -2.0240    -1.4800 H     1 <1>   0.0800 
 41 H        3.5960    -3.6770     3.5840 H     1 <1>   0.0800 
 42 H        2.5170    -4.6360     2.6070 H     1 <1>   0.0800 
 43 H        4.2110    -0.5870    -2.7990 H     1 <1>   0.0800 
 44 H        5.6950    -0.9470    -1.9640 H     1 <1>   0.0800 
 45 H        6.2840     1.2870    -2.3450 H     1 <1>   0.0800 
 46 H        4.7800     2.0740    -2.7430 H     1 <1>   0.0800 
 47 H        5.4920    -5.1330     2.9170 H     1 <1>   0.0800 
 48 H        4.4090    -6.0880     1.9280 H     1 <1>   0.0800 
 49 H        4.2120    -6.0540     3.6610 H     1 <1>   0.0800 
 50 H        4.7050     4.3190    -2.1110 H     1 <1>   0.1500 
 51 H        7.5580     3.5240     1.8030 H     1 <1>   0.1500 
 52 H        6.1690     1.0960     2.4060 H     1 <1>   0.1500 
 53 H        6.7560     5.7640     1.3250 H     1 <1>   0.1500 
 54 H        8.7100    -1.3510     0.0510 H     1 <1>   0.1500 
 55 H        7.4720    -1.2980     2.3730 H     1 <1>   0.1500 
 56 H        5.0340     8.4000    -0.5310 H     1 <1>   0.0800 
 57 H        6.5840     7.6850    -0.1050 H     1 <1>   0.0800 
 58 H        5.1780     7.4640     0.9530 H     1 <1>   0.0800 
@<TRIPOS>BOND
  1   1   2  1   
  2   1   3  1   
  3   2   4  1   
  4   2  28  1   
  5   2  29  1   
  6   3   5  1   
  7   3  30  1   
  8   3  31  1   
  9   4   6  1   
 10   4   7  1   
 11   4  32  1   
 12   5   6  1   
 13   5   8  1   
 14   5  33  1   
 15   6   9  1   
 16   6  34  1   
 17   7  10  1   
 18   7  35  1   
 19   7  36  1   
 20   8  11  1   
 21   8  37  1   
 22   8  38  1   
 23   9  12  1   
 24   9  39  1   
 25   9  40  1   
 26  10  12  1   
 27  10  13  1   
 28  11  14  1   
 29  11  41  1   
 30  11  42  1   
 31  12  43  1   
 32  12  44  1   
 33  13  15  1   
 34  13  45  1   
 35  13  46  1   
 36  14  47  1   
 37  14  48  1   
 38  14  49  1   
 39  15  16  ar  
 40  15  17  ar  
 41  16  18  1   
 42  16  19  ar  
 43  17  20  ar  
 44  17  50  1   
 45  18  21  1   
 46  18  22  1   
 47  19  23  ar  
 48  19  51  1   
 49  20  23  ar  
 50  20  24  1   
 51  21  25  2   
 52  22  26  2   
 53  22  52  1   
 54  23  53  1   
 55  24  27  1   
 56  25  26  1   
 57  25  54  1   
 58  26  55  1   
 59  27  56  1   
 60  27  57  1   
 61  27  58  1   
@<TRIPOS>SUBSTRUCTURE
  1 ****  10 GROUP 4 **** **** 0

# MOE 2024.06 (io_trps.svl 2023.06)
