@<TRIPOS>MOLECULE
NONAME
43 45 1 0 0 
SMALL
USER_CHARGES


@<TRIPOS>ATOM
  1 O       -1.3280    -0.5050     0.5530 O.2   1 <1>  -0.5700 
  2 C       -1.7550     0.4170    -0.1200 C.2   1 <1>   0.7160 
  3 N       -2.7790     0.1330    -0.9990 N.am  1 <1>  -0.6600 
  4 C       -1.2300     1.7490     0.0390 C.2   1 <1>  -0.0860 
  5 C       -2.9930    -1.2750    -1.4230 C.3   1 <1>   0.1400 
  6 C       -4.0220     0.9520    -0.9960 C.3   1 <1>   0.1400 
  7 C       -1.2750     2.7830    -0.9010 C.2   1 <1>   0.1390 
  8 C       -0.5750     2.3170     1.0900 C.2   1 <1>  -0.3020 
  9 C       -3.9750    -1.9530    -0.4390 C.3   1 <1>   0.4230 
 10 C       -5.0230     0.3050    -0.0290 C.3   1 <1>  -0.1600 
 11 N       -0.7260     3.8780    -0.4800 N.2   1 <1>  -0.7070 
 12 N       -0.2870     3.5840     0.7570 N.pl3 1 <1>   0.3000 
 13 N       -4.1180    -3.4550    -0.6420 N.4   1 <1>  -0.9590 
 14 C       -5.3310    -1.1880    -0.3500 C.3   1 <1>   0.0000 
 15 C       -5.3360    -4.0450     0.0030 C.3   1 <1>   0.3430 
 16 C       -4.0060    -3.9330    -2.0590 C.3   1 <1>   0.2630 
 17 C       -6.1790    -1.7830     0.8130 C.3   1 <1>  -0.1600 
 18 C       -6.1010    -1.3040    -1.6960 C.3   1 <1>   0.1200 
 19 C       -5.7750    -3.2170     1.2090 C.3   1 <1>  -0.1600 
 20 O       -7.2010    -0.4640    -1.7310 O.3   1 <1>  -0.6800 
 21 H       -3.3700    -1.2790    -2.4300 H     1 <1>   0.0800 
 22 H       -2.0500    -1.7950    -1.4120 H     1 <1>   0.0800 
 23 H       -3.8150     1.9590    -0.6710 H     1 <1>   0.0800 
 24 H       -4.4300     1.0040    -1.9920 H     1 <1>   0.0800 
 25 H       -1.7150     2.6880    -1.8800 H     1 <1>   0.1500 
 26 H       -0.3090     1.8740     2.0320 H     1 <1>   0.1500 
 27 H       -3.5190    -1.8270     0.5300 H     1 <1>   0.0800 
 28 H       -4.6070     0.3870     0.9620 H     1 <1>   0.0800 
 29 H       -5.9270     0.8890    -0.0260 H     1 <1>   0.0800 
 30 H        0.2090     4.2730     1.3380 H     1 <1>   0.2700 
 31 H       -3.3130    -3.8500    -0.1320 H     1 <1>   0.4500 
 32 H       -6.1480    -4.0710    -0.7060 H     1 <1>   0.0800 
 33 H       -5.1330    -5.0590     0.3110 H     1 <1>   0.0800 
 34 H       -4.7960    -3.5160    -2.6630 H     1 <1>   0.0800 
 35 H       -4.0770    -5.0080    -2.0960 H     1 <1>   0.0800 
 36 H       -3.0570    -3.6440    -2.4820 H     1 <1>   0.0800 
 37 H       -6.0940    -1.1720     1.6970 H     1 <1>   0.0800 
 38 H       -7.2230    -1.7760     0.5500 H     1 <1>   0.0800 
 39 H       -6.4570    -2.3050    -1.8630 H     1 <1>   0.0800 
 40 H       -5.4830    -1.0210    -2.5290 H     1 <1>   0.0800 
 41 H       -6.6110    -3.6990     1.6860 H     1 <1>   0.0800 
 42 H       -4.9750    -3.1910     1.9290 H     1 <1>   0.0800 
 43 H       -7.8570    -0.6800    -1.0390 H     1 <1>   0.4000 
@<TRIPOS>BOND
  1   1   2  2   
  2   2   3  am  
  3   2   4  1   
  4   3   5  1   
  5   3   6  1   
  6   4   7  1   
  7   4   8  2   
  8   5   9  1   
  9   5  21  1   
 10   5  22  1   
 11   6  10  1   
 12   6  23  1   
 13   6  24  1   
 14   7  11  2   
 15   7  25  1   
 16   8  12  1   
 17   8  26  1   
 18   9  13  1   
 19   9  14  1   
 20   9  27  1   
 21  10  14  1   
 22  10  28  1   
 23  10  29  1   
 24  11  12  1   
 25  12  30  1   
 26  13  15  1   
 27  13  16  1   
 28  13  31  1   
 29  14  17  1   
 30  14  18  1   
 31  15  19  1   
 32  15  32  1   
 33  15  33  1   
 34  16  34  1   
 35  16  35  1   
 36  16  36  1   
 37  17  19  1   
 38  17  37  1   
 39  17  38  1   
 40  18  20  1   
 41  18  39  1   
 42  18  40  1   
 43  19  41  1   
 44  19  42  1   
 45  20  43  1   
@<TRIPOS>SUBSTRUCTURE
  1 ****   3 GROUP 4 **** **** 0

# MOE 2024.06 (io_trps.svl 2023.06)
