@<TRIPOS>MOLECULE
NONAME
36 36 1 0 0 
SMALL
USER_CHARGES


@<TRIPOS>ATOM
  1 O       -0.0810    -0.0690    -0.1300 O.2   1 <1>  -0.5700 
  2 C       -0.2820    -1.2660    -0.1780 C.2   1 <1>   0.7800 
  3 O        0.7230    -2.1450    -0.1650 O.3   1 <1>  -0.4300 
  4 N       -1.5430    -1.7820    -0.2540 N.am  1 <1>  -0.6600 
  5 C        2.1040    -1.8610    -0.0950 C.3   1 <1>   0.2800 
  6 C       -2.7650    -0.9540    -0.1610 C.3   1 <1>   0.2200 
  7 C       -1.8480    -3.2270    -0.2110 C.3   1 <1>   0.1400 
  8 C        2.5440    -1.0580    -1.3250 C.3   1 <1>  -0.2400 
  9 C        2.7920    -3.2260    -0.1120 C.3   1 <1>  -0.2400 
 10 C        2.4320    -1.1460     1.2210 C.3   1 <1>  -0.2400 
 11 C       -3.8350    -1.9550     0.2890 C.3   1 <1>  -0.1600 
 12 C       -3.0400    -0.3050    -1.5310 C.3   1 <1>   0.1200 
 13 C       -3.3740    -3.3060    -0.2590 C.3   1 <1>  -0.0800 
 14 O       -4.2620     0.3640    -1.5380 O.3   1 <1>  -0.6800 
 15 C       -3.9440    -4.4900     0.5320 C.3   1 <1>  -0.2400 
 16 H       -2.6280    -0.1800     0.5760 H     1 <1>   0.0800 
 17 H       -1.3980    -3.7380    -1.0450 H     1 <1>   0.0800 
 18 H       -1.4690    -3.6360     0.7100 H     1 <1>   0.0800 
 19 H        3.6150    -0.9650    -1.3380 H     1 <1>   0.0800 
 20 H        2.1330    -0.0650    -1.3080 H     1 <1>   0.0800 
 21 H        2.2330    -1.5540    -2.2260 H     1 <1>   0.0800 
 22 H        3.8590    -3.1080    -0.0610 H     1 <1>   0.0800 
 23 H        2.5520    -3.7530    -1.0180 H     1 <1>   0.0800 
 24 H        2.4750    -3.8140     0.7310 H     1 <1>   0.0800 
 25 H        3.4970    -1.0570     1.3340 H     1 <1>   0.0800 
 26 H        2.0450    -1.7020     2.0550 H     1 <1>   0.0800 
 27 H        2.0210    -0.1530     1.2360 H     1 <1>   0.0800 
 28 H       -3.8350    -1.9760     1.3650 H     1 <1>   0.0800 
 29 H       -4.8250    -1.6980    -0.0400 H     1 <1>   0.0800 
 30 H       -3.0620    -1.0480    -2.3090 H     1 <1>   0.0800 
 31 H       -2.2730     0.4180    -1.7510 H     1 <1>   0.0800 
 32 H       -3.6730    -3.3900    -1.2900 H     1 <1>   0.0800 
 33 H       -5.0010    -0.2670    -1.4520 H     1 <1>   0.4000 
 34 H       -3.6490    -4.4360     1.5650 H     1 <1>   0.0800 
 35 H       -3.5860    -5.4180     0.1210 H     1 <1>   0.0800 
 36 H       -5.0180    -4.4870     0.4810 H     1 <1>   0.0800 
@<TRIPOS>BOND
  1   1   2  2   
  2   2   3  1   
  3   2   4  am  
  4   3   5  1   
  5   4   6  1   
  6   4   7  1   
  7   5   8  1   
  8   5   9  1   
  9   5  10  1   
 10   6  11  1   
 11   6  12  1   
 12   6  16  1   
 13   7  13  1   
 14   7  17  1   
 15   7  18  1   
 16   8  19  1   
 17   8  20  1   
 18   8  21  1   
 19   9  22  1   
 20   9  23  1   
 21   9  24  1   
 22  10  25  1   
 23  10  26  1   
 24  10  27  1   
 25  11  13  1   
 26  11  28  1   
 27  11  29  1   
 28  12  14  1   
 29  12  30  1   
 30  12  31  1   
 31  13  15  1   
 32  13  32  1   
 33  14  33  1   
 34  15  34  1   
 35  15  35  1   
 36  15  36  1   
@<TRIPOS>SUBSTRUCTURE
  1 ****   4 GROUP 4 **** **** 0

# MOE 2024.06 (io_trps.svl 2023.06)
