@<TRIPOS>MOLECULE
NONAME
45 48 1 0 0 
SMALL
USER_CHARGES


@<TRIPOS>ATOM
  1 S       -0.4420     0.6770    -2.1550 S.3   1 <1>  -0.0800 
  2 C       -1.2790     1.1730    -0.6920 C.2   1 <1>  -0.1400 
  3 C       -1.6910    -0.5120    -2.5030 C.2   1 <1>  -0.1100 
  4 C       -2.4110     0.4750    -0.5330 C.2   1 <1>  -0.1810 
  5 C       -0.7450     2.2560     0.2350 C.3   1 <1>   0.4600 
  6 C       -2.6510    -0.4930    -1.5580 C.2   1 <1>  -0.1500 
  7 C       -3.2960     0.7550     0.6590 C.3   1 <1>   0.0210 
  8 O       -1.5710     2.3300     1.3800 O.3   1 <1>  -0.5600 
  9 C       -0.7320     3.6310    -0.4470 C.3   1 <1>  -0.1600 
 10 C        0.6540     1.8930     0.7430 C.3   1 <1>  -0.1600 
 11 C       -2.9610     2.1540     1.2150 C.3   1 <1>   0.1200 
 12 C       -0.1330     4.6990     0.4670 C.3   1 <1>   0.2090 
 13 C        1.2150     2.9990     1.6340 C.3   1 <1>   0.2090 
 14 N        1.2530     4.2780     0.8530 N.pl3 1 <1>  -0.8380 
 15 C        2.4120     4.8960     0.4870 C.ar  1 <1>   0.4610 
 16 N        2.3720     6.1880     0.1170 N.ar  1 <1>  -0.1790 
 17 C        3.6750     4.2710     0.4700 C.ar  1 <1>  -0.1500 
 18 C        3.4690     6.9020    -0.2570 C.ar  1 <1>   0.2170 
 19 C        4.8090     4.9490     0.1010 C.ar  1 <1>  -0.1430 
 20 C        4.6950     6.2950    -0.2690 C.ar  1 <1>  -0.1500 
 21 C        3.2800     8.3590    -0.6430 C.3   1 <1>  -0.0970 
 22 C        6.1750     4.2830     0.0780 C.3   1 <1>  -0.0970 
 23 H       -1.5710    -1.1080    -3.3900 H     1 <1>   0.1500 
 24 H       -3.5230    -1.1230    -1.5380 H     1 <1>   0.1500 
 25 H       -3.1350     0.0100     1.4180 H     1 <1>   0.0800 
 26 H       -4.3300     0.7260     0.3680 H     1 <1>   0.0800 
 27 H       -1.7290     3.9030    -0.7360 H     1 <1>   0.0800 
 28 H       -0.1450     3.5720    -1.3450 H     1 <1>   0.0800 
 29 H        1.3190     1.7420    -0.0860 H     1 <1>   0.0800 
 30 H        0.5990     0.9700     1.2910 H     1 <1>   0.0800 
 31 H       -3.4260     2.2910     2.1750 H     1 <1>   0.0800 
 32 H       -3.3240     2.9150     0.5460 H     1 <1>   0.0800 
 33 H       -0.7380     4.8030     1.3540 H     1 <1>   0.0800 
 34 H       -0.1360     5.6400    -0.0520 H     1 <1>   0.0800 
 35 H        2.1850     2.7220     2.0030 H     1 <1>   0.0800 
 36 H        0.5780     3.1260     2.4950 H     1 <1>   0.0800 
 37 H        1.4610     6.6290     0.1610 H     1 <1>   0.4570 
 38 H        3.7480     3.2340     0.7360 H     1 <1>   0.1500 
 39 H        5.5820     6.8330    -0.5590 H     1 <1>   0.1500 
 40 H        2.6180     8.4410    -1.4860 H     1 <1>   0.0800 
 41 H        4.2230     8.8030    -0.9140 H     1 <1>   0.0800 
 42 H        2.8730     8.9170     0.1820 H     1 <1>   0.0800 
 43 H        6.1100     3.2540     0.3840 H     1 <1>   0.0800 
 44 H        6.8480     4.7920     0.7450 H     1 <1>   0.0800 
 45 H        6.5860     4.3140    -0.9160 H     1 <1>   0.0800 
@<TRIPOS>BOND
  1   1   2  1   
  2   1   3  1   
  3   2   4  2   
  4   2   5  1   
  5   3   6  2   
  6   3  23  1   
  7   4   6  1   
  8   4   7  1   
  9   5   8  1   
 10   5   9  1   
 11   5  10  1   
 12   6  24  1   
 13   7  11  1   
 14   7  25  1   
 15   7  26  1   
 16   8  11  1   
 17   9  12  1   
 18   9  27  1   
 19   9  28  1   
 20  10  13  1   
 21  10  29  1   
 22  10  30  1   
 23  11  31  1   
 24  11  32  1   
 25  12  14  1   
 26  12  33  1   
 27  12  34  1   
 28  13  14  1   
 29  13  35  1   
 30  13  36  1   
 31  14  15  1   
 32  15  16  ar  
 33  15  17  ar  
 34  16  18  ar  
 35  16  37  1   
 36  17  19  ar  
 37  17  38  1   
 38  18  20  ar  
 39  18  21  1   
 40  19  20  ar  
 41  19  22  1   
 42  20  39  1   
 43  21  40  1   
 44  21  41  1   
 45  21  42  1   
 46  22  43  1   
 47  22  44  1   
 48  22  45  1   
@<TRIPOS>SUBSTRUCTURE
  1 ****  14 GROUP 4 **** **** 0

# MOE 2024.06 (io_trps.svl 2023.06)
