@<TRIPOS>MOLECULE
NONAME
48 49 1 0 0 
SMALL
USER_CHARGES


@<TRIPOS>ATOM
  1 S       -0.5730     0.7910    -1.7200 S.o2  1 <1>   1.4470 
  2 O       -1.1220     2.1180    -1.5370 O.2   1 <1>  -0.6500 
  3 O       -0.5020     0.2470    -3.0600 O.2   1 <1>  -0.6500 
  4 N       -1.5310    -0.2560    -0.7980 N.am  1 <1>  -0.8490 
  5 C        1.0430     0.6920    -0.9010 C.ar  1 <1>  -0.0090 
  6 C       -1.1110    -1.6640    -0.8970 C.3   1 <1>   0.1960 
  7 C       -2.9580    -0.1420    -1.1320 C.3   1 <1>   0.1960 
  8 C        2.2080     0.4660    -1.6240 C.ar  1 <1>  -0.1500 
  9 C        1.1500     0.8320     0.4770 C.ar  1 <1>  -0.1500 
 10 C       -1.6900    -2.4980     0.2780 C.3   1 <1>  -0.1060 
 11 C       -3.7970    -1.2510    -0.4710 C.3   1 <1>  -0.1600 
 12 C        3.4410     0.3800    -0.9990 C.ar  1 <1>  -0.1440 
 13 C        2.3720     0.7440     1.1210 C.ar  1 <1>  -0.1440 
 14 C       -1.8550    -3.9340    -0.2530 C.2   1 <1>   0.9060 
 15 C       -3.0400    -1.8480     0.7130 C.3   1 <1>   0.2000 
 16 C       -0.7440    -2.4630     1.5170 C.3   1 <1>  -0.1600 
 17 C        3.5160     0.5190     0.3760 C.ar  1 <1>  -0.1500 
 18 C        4.6920     0.1270    -1.8200 C.3   1 <1>  -0.0960 
 19 C        2.4560     0.8930     2.6290 C.3   1 <1>  -0.0970 
 20 O       -2.7400    -4.6720     0.2060 O.co2 1 <1>  -0.9000 
 21 O       -1.0950    -4.3420    -1.1400 O.co2 1 <1>  -0.9000 
 22 O       -3.8660    -2.7300     1.3770 O.3   1 <1>  -0.6800 
 23 C        0.6420    -3.1070     1.3300 C.3   1 <1>  -0.1600 
 24 C        1.4460    -3.0600     2.6320 C.3   1 <1>  -0.2400 
 25 H       -1.4600    -2.0560    -1.8400 H     1 <1>   0.0800 
 26 H       -0.0410    -1.7470    -0.9150 H     1 <1>   0.0800 
 27 H       -3.3090     0.8190    -0.7940 H     1 <1>   0.0800 
 28 H       -3.0910    -0.1870    -2.2010 H     1 <1>   0.0800 
 29 H        2.1430     0.3510    -2.6930 H     1 <1>   0.1500 
 30 H        0.2530     1.0070     1.0470 H     1 <1>   0.1500 
 31 H       -3.9970    -2.0250    -1.1910 H     1 <1>   0.0800 
 32 H       -4.7360    -0.8420    -0.1440 H     1 <1>   0.0800 
 33 H       -2.8420    -1.0460     1.4030 H     1 <1>   0.0800 
 34 H       -0.6090    -1.4410     1.8240 H     1 <1>   0.0800 
 35 H       -1.2420    -2.9790     2.3210 H     1 <1>   0.0800 
 36 H        4.4690     0.4490     0.8710 H     1 <1>   0.1500 
 37 H        5.5710     0.4230    -1.2770 H     1 <1>   0.0800 
 38 H        4.6550     0.6880    -2.7370 H     1 <1>   0.0800 
 39 H        4.7660    -0.9200    -2.0550 H     1 <1>   0.0800 
 40 H        3.2090     0.2370     3.0270 H     1 <1>   0.0800 
 41 H        1.5150     0.6460     3.0860 H     1 <1>   0.0800 
 42 H        2.7080     1.9080     2.8810 H     1 <1>   0.0800 
 43 H       -3.6300    -3.6460     1.0230 H     1 <1>   0.4000 
 44 H        0.5300    -4.1350     1.0250 H     1 <1>   0.0800 
 45 H        1.2000    -2.5970     0.5660 H     1 <1>   0.0800 
 46 H        0.9290    -3.5980     3.4080 H     1 <1>   0.0800 
 47 H        1.5890    -2.0420     2.9460 H     1 <1>   0.0800 
 48 H        2.4090    -3.5150     2.4820 H     1 <1>   0.0800 
@<TRIPOS>BOND
  1   1   2  2   
  2   1   3  2   
  3   1   4  am  
  4   1   5  1   
  5   4   6  1   
  6   4   7  1   
  7   5   8  ar  
  8   5   9  ar  
  9   6  10  1   
 10   6  25  1   
 11   6  26  1   
 12   7  11  1   
 13   7  27  1   
 14   7  28  1   
 15   8  12  ar  
 16   8  29  1   
 17   9  13  ar  
 18   9  30  1   
 19  10  14  1   
 20  10  15  1   
 21  10  16  1   
 22  11  15  1   
 23  11  31  1   
 24  11  32  1   
 25  12  17  ar  
 26  12  18  1   
 27  13  17  ar  
 28  13  19  1   
 29  14  20  ar  
 30  14  21  ar  
 31  15  22  1   
 32  15  33  1   
 33  16  23  1   
 34  16  34  1   
 35  16  35  1   
 36  17  36  1   
 37  18  37  1   
 38  18  38  1   
 39  18  39  1   
 40  19  40  1   
 41  19  41  1   
 42  19  42  1   
 43  22  43  1   
 44  23  24  1   
 45  23  44  1   
 46  23  45  1   
 47  24  46  1   
 48  24  47  1   
 49  24  48  1   
@<TRIPOS>SUBSTRUCTURE
  1 ****   6 GROUP 4 **** **** 0

# MOE 2024.06 (io_trps.svl 2023.06)
