@<TRIPOS>MOLECULE
NONAME
48 50 1 0 0 
SMALL
USER_CHARGES


@<TRIPOS>ATOM
  1 O       -0.0780     0.6000     0.9070 O.2   1 <1>  -0.5700 
  2 C       -0.1820     1.7980     0.6890 C.2   1 <1>   0.5440 
  3 N       -1.4560     2.3470     0.7370 N.am  1 <1>  -0.6600 
  4 C        1.0270     2.5630     0.3580 C.ar  1 <1>   0.3960 
  5 C       -1.7600     3.7290     0.2610 C.3   1 <1>   0.1400 
  6 C       -2.6060     1.5560     1.2700 C.3   1 <1>   0.1400 
  7 N        1.1990     3.8180     0.8210 N.ar  1 <1>  -0.6200 
  8 C        1.9940     1.9580    -0.4410 C.ar  1 <1>  -0.1500 
  9 C       -3.1920     3.7920    -0.2670 C.3   1 <1>  -0.1600 
 10 C       -3.6640     2.4840     1.8730 C.3   1 <1>  -0.1600 
 11 C        2.3140     4.4400     0.4870 C.ar  1 <1>   0.1600 
 12 C        3.1500     2.6190    -0.7900 C.ar  1 <1>   0.0830 
 13 C       -4.2210     3.5050     0.8510 C.3   1 <1>   0.2800 
 14 C        3.3090     3.9030    -0.3040 C.ar  1 <1>  -0.1500 
 15 O        4.0420     1.9760    -1.5730 O.3   1 <1>  -0.3620 
 16 O       -4.3340     4.7200     1.5610 O.3   1 <1>  -0.5600 
 17 C       -5.6030     3.0280     0.2910 C.3   1 <1>   0.2000 
 18 C        5.2620     2.5740    -1.9500 C.3   1 <1>   0.0400 
 19 C       -5.5620     5.3880     1.6090 C.3   1 <1>   0.1200 
 20 O       -5.4690     1.8770    -0.5020 O.3   1 <1>  -0.6800 
 21 C       -6.4110     4.1600    -0.4230 C.3   1 <1>   0.2800 
 22 C       -6.1040     5.5370     0.1880 C.3   1 <1>  -0.1600 
 23 O       -7.7520     3.9180    -0.1940 O.3   1 <1>  -0.6800 
 24 C       -6.2610     4.2040    -1.9510 C.3   1 <1>  -0.2400 
 25 H       -1.6360     4.4210     1.0780 H     1 <1>   0.0800 
 26 H       -1.0790     4.0040    -0.5260 H     1 <1>   0.0800 
 27 H       -3.0350     0.9750     0.4710 H     1 <1>   0.0800 
 28 H       -2.2570     0.8750     2.0280 H     1 <1>   0.0800 
 29 H        1.8380     0.9550    -0.7920 H     1 <1>   0.1500 
 30 H       -3.2710     3.0710    -1.0590 H     1 <1>   0.0800 
 31 H       -3.3700     4.7620    -0.6910 H     1 <1>   0.0800 
 32 H       -3.2060     3.0010     2.6980 H     1 <1>   0.0800 
 33 H       -4.4580     1.8820     2.2730 H     1 <1>   0.0800 
 34 H        2.4430     5.4400     0.8670 H     1 <1>   0.1500 
 35 H        4.1810     4.4880    -0.5230 H     1 <1>   0.1500 
 36 H       -6.1830     2.7190     1.1430 H     1 <1>   0.0800 
 37 H        5.8040     1.8720    -2.5590 H     1 <1>   0.0800 
 38 H        5.8280     2.8000    -1.0640 H     1 <1>   0.0800 
 39 H        5.0560     3.4650    -2.5150 H     1 <1>   0.0800 
 40 H       -6.2380     4.8300     2.2360 H     1 <1>   0.0800 
 41 H       -5.3890     6.3520     2.0550 H     1 <1>   0.0800 
 42 H       -5.1780     2.1210    -1.4000 H     1 <1>   0.4000 
 43 H       -5.3560     6.0490    -0.3900 H     1 <1>   0.0800 
 44 H       -6.9820     6.1580     0.1950 H     1 <1>   0.0800 
 45 H       -8.2960     4.4920    -0.7640 H     1 <1>   0.4000 
 46 H       -5.2300     4.3320    -2.2240 H     1 <1>   0.0800 
 47 H       -6.8130     5.0310    -2.3600 H     1 <1>   0.0800 
 48 H       -6.6220     3.2930    -2.3960 H     1 <1>   0.0800 
@<TRIPOS>BOND
  1   1   2  2   
  2   2   3  am  
  3   2   4  1   
  4   3   5  1   
  5   3   6  1   
  6   4   7  ar  
  7   4   8  ar  
  8   5   9  1   
  9   5  25  1   
 10   5  26  1   
 11   6  10  1   
 12   6  27  1   
 13   6  28  1   
 14   7  11  ar  
 15   8  12  ar  
 16   8  29  1   
 17   9  13  1   
 18   9  30  1   
 19   9  31  1   
 20  10  13  1   
 21  10  32  1   
 22  10  33  1   
 23  11  14  ar  
 24  11  34  1   
 25  12  14  ar  
 26  12  15  1   
 27  13  16  1   
 28  13  17  1   
 29  14  35  1   
 30  15  18  1   
 31  16  19  1   
 32  17  20  1   
 33  17  21  1   
 34  17  36  1   
 35  18  37  1   
 36  18  38  1   
 37  18  39  1   
 38  19  22  1   
 39  19  40  1   
 40  19  41  1   
 41  20  42  1   
 42  21  22  1   
 43  21  23  1   
 44  21  24  1   
 45  22  43  1   
 46  22  44  1   
 47  23  45  1   
 48  24  46  1   
 49  24  47  1   
 50  24  48  1   
@<TRIPOS>SUBSTRUCTURE
  1 ****   5 GROUP 4 **** **** 0

# MOE 2024.06 (io_trps.svl 2023.06)
