@<TRIPOS>MOLECULE
NONAME
41 42 1 0 0 
SMALL
USER_CHARGES


@<TRIPOS>ATOM
  1 CL       1.5080    -2.7830     3.5920 Cl    1 <1>  -0.1770 
  2 C        1.7580    -2.2390     1.9440 C.ar  1 <1>   0.1770 
  3 C        1.2530    -2.9840     0.8710 C.ar  1 <1>   0.4100 
  4 C        2.4590    -1.0780     1.7290 C.ar  1 <1>  -0.1500 
  5 N        1.4210    -2.6120    -0.3930 N.ar  1 <1>  -0.6200 
  6 N        0.5450    -4.1490     1.0910 N.pl3 1 <1>  -0.8690 
  7 C        2.6340    -0.6910     0.4070 C.ar  1 <1>  -0.1430 
  8 C        2.0970    -1.4900    -0.5910 C.ar  1 <1>   0.1600 
  9 C        0.4360    -5.2450     0.0970 C.3   1 <1>   0.2890 
 10 C        3.3890     0.5700     0.0000 C.3   1 <1>   1.1640 
 11 C       -0.9890    -5.7800     0.0940 C.3   1 <1>  -0.0800 
 12 C        1.2900    -6.4570     0.4770 C.3   1 <1>   0.1200 
 13 F        2.6210     1.4060    -0.6830 F     1 <1>  -0.3400 
 14 F        4.4280     0.2970    -0.7750 F     1 <1>  -0.3400 
 15 F        3.8610     1.2520     1.0350 F     1 <1>  -0.3400 
 16 C       -0.7920    -7.2920     0.1260 C.3   1 <1>   0.1200 
 17 C       -1.7990    -5.2520    -1.1030 C.3   1 <1>  -0.0550 
 18 O        0.4030    -7.4790     0.8090 O.3   1 <1>  -0.5600 
 19 S       -3.5030    -5.8140    -1.1530 S.o2  1 <1>   1.3330 
 20 O       -3.4950    -7.2550    -1.2620 O.2   1 <1>  -0.6500 
 21 O       -4.2310    -5.0340    -2.1280 O.2   1 <1>  -0.6500 
 22 N       -4.1150    -5.4140     0.3800 N.am  1 <1>  -0.8490 
 23 C       -5.3100    -6.1940     0.7110 C.3   1 <1>   0.1160 
 24 C       -4.3930    -3.9830     0.5400 C.3   1 <1>   0.1160 
 25 H        2.8450    -0.5110     2.5600 H     1 <1>   0.1500 
 26 H        0.5050    -4.4740     2.0630 H     1 <1>   0.4000 
 27 H        2.2280    -1.1950    -1.6210 H     1 <1>   0.1500 
 28 H        0.7290    -4.9110    -0.8840 H     1 <1>   0.0800 
 29 H       -1.4810    -5.5030     1.0100 H     1 <1>   0.0800 
 30 H        1.9320    -6.2640     1.3180 H     1 <1>   0.0800 
 31 H        1.8710    -6.7880    -0.3650 H     1 <1>   0.0800 
 32 H       -0.6810    -7.7040    -0.8630 H     1 <1>   0.0800 
 33 H       -1.5850    -7.8010     0.6490 H     1 <1>   0.0800 
 34 H       -1.3140    -5.5410    -2.0150 H     1 <1>   0.0800 
 35 H       -1.7900    -4.1800    -1.0640 H     1 <1>   0.0800 
 36 H       -5.6620    -5.9370     1.6950 H     1 <1>   0.0800 
 37 H       -5.0780    -7.2460     0.7010 H     1 <1>   0.0800 
 38 H       -6.0910    -6.0050    -0.0070 H     1 <1>   0.0800 
 39 H       -4.7160    -3.7800     1.5470 H     1 <1>   0.0800 
 40 H       -5.1620    -3.6680    -0.1460 H     1 <1>   0.0800 
 41 H       -3.5030    -3.4080     0.3510 H     1 <1>   0.0800 
@<TRIPOS>BOND
  1   1   2  1   
  2   2   3  ar  
  3   2   4  ar  
  4   3   5  ar  
  5   3   6  1   
  6   4   7  ar  
  7   4  25  1   
  8   5   8  ar  
  9   6   9  1   
 10   6  26  1   
 11   7   8  ar  
 12   7  10  1   
 13   8  27  1   
 14   9  11  1   
 15   9  12  1   
 16   9  28  1   
 17  10  13  1   
 18  10  14  1   
 19  10  15  1   
 20  11  16  1   
 21  11  17  1   
 22  11  29  1   
 23  12  18  1   
 24  12  30  1   
 25  12  31  1   
 26  16  18  1   
 27  16  32  1   
 28  16  33  1   
 29  17  19  1   
 30  17  34  1   
 31  17  35  1   
 32  19  20  2   
 33  19  21  2   
 34  19  22  am  
 35  22  23  1   
 36  22  24  1   
 37  23  36  1   
 38  23  37  1   
 39  23  38  1   
 40  24  39  1   
 41  24  40  1   
 42  24  41  1   
@<TRIPOS>SUBSTRUCTURE
  1 ****   6 GROUP 4 **** **** 0

# MOE 2024.06 (io_trps.svl 2023.06)
