@<TRIPOS>MOLECULE
NONAME
45 46 1 0 0 
SMALL
USER_CHARGES


@<TRIPOS>ATOM
  1 F       -2.0530    -2.1190    -3.5300 F     1 <1>  -0.1900 
  2 C       -2.8220    -2.4390    -2.5240 C.ar  1 <1>   0.1900 
  3 C       -2.2380    -2.8030    -1.3270 C.ar  1 <1>  -0.1500 
  4 C       -4.1920    -2.4030    -2.6960 C.ar  1 <1>  -0.1500 
  5 C       -3.0590    -3.1450    -0.2660 C.ar  1 <1>  -0.1500 
  6 C       -5.0030    -2.7450    -1.6270 C.ar  1 <1>  -0.1500 
  7 C       -4.4410    -3.1170    -0.4120 C.ar  1 <1>  -0.1430 
  8 C       -5.3360    -3.5020     0.7540 C.3   1 <1>  -0.0160 
  9 C       -5.5720    -5.0160     0.7580 C.3   1 <1>  -0.1600 
 10 C       -6.5230    -5.4470     1.8870 C.3   1 <1>  -0.0990 
 11 C       -6.7740    -6.9480     1.8480 C.2   1 <1>   0.5690 
 12 O       -5.9330    -7.6440     2.3660 O.2   1 <1>  -0.5700 
 13 N       -7.8830    -7.4870     1.2430 N.am  1 <1>  -0.6600 
 14 C       -7.9790    -8.9630     1.0560 C.3   1 <1>   0.3200 
 15 C       -9.0820    -6.7130     0.7990 C.3   1 <1>   0.1400 
 16 C       -7.9940    -9.2830    -0.4270 C.2   1 <1>  -0.3320 
 17 C       -8.9010    -6.1320    -0.6090 C.3   1 <1>   0.1200 
 18 N       -9.0780    -9.5910    -1.1710 N.pl3 1 <1>   0.0480 
 19 C       -6.9340    -9.3080    -1.2660 C.2   1 <1>   0.0770 
 20 O      -10.1300    -5.6620    -1.0500 O.3   1 <1>  -0.6800 
 21 C       -8.5920    -9.7740    -2.4190 C.2   1 <1>   0.0360 
 22 C      -10.4920    -9.6940    -0.7650 C.3   1 <1>   0.0160 
 23 N       -7.3130    -9.6130    -2.5200 N.2   1 <1>  -0.5650 
 24 H       -1.1670    -2.8200    -1.2320 H     1 <1>   0.1500 
 25 H       -4.6090    -2.1150    -3.6440 H     1 <1>   0.1500 
 26 H       -2.6210    -3.4360     0.6730 H     1 <1>   0.1500 
 27 H       -6.0720    -2.7240    -1.7460 H     1 <1>   0.1500 
 28 H       -6.2750    -2.9830     0.6730 H     1 <1>   0.0800 
 29 H       -4.8740    -3.2020     1.6790 H     1 <1>   0.0800 
 30 H       -4.6290    -5.5220     0.8810 H     1 <1>   0.0800 
 31 H       -5.9750    -5.3170    -0.1920 H     1 <1>   0.0800 
 32 H       -7.4390    -4.8960     1.8290 H     1 <1>   0.0800 
 33 H       -6.0710    -5.2140     2.8350 H     1 <1>   0.0800 
 34 H       -8.8620    -9.3340     1.5430 H     1 <1>   0.0800 
 35 H       -7.1340    -9.4600     1.5030 H     1 <1>   0.0800 
 36 H       -9.2860    -5.9190     1.4940 H     1 <1>   0.0800 
 37 H       -9.9370    -7.3630     0.8010 H     1 <1>   0.0800 
 38 H       -8.5630    -6.8810    -1.3020 H     1 <1>   0.0800 
 39 H       -8.2120    -5.3080    -0.5980 H     1 <1>   0.0800 
 40 H       -5.9020    -9.1120    -1.0250 H     1 <1>   0.1500 
 41 H      -10.0530    -5.3170    -1.9630 H     1 <1>   0.4000 
 42 H       -9.2300   -10.0310    -3.2470 H     1 <1>   0.1500 
 43 H      -10.5580   -10.1290     0.2140 H     1 <1>   0.0800 
 44 H      -11.0190   -10.3180    -1.4640 H     1 <1>   0.0800 
 45 H      -10.9330    -8.7140    -0.7610 H     1 <1>   0.0800 
@<TRIPOS>BOND
  1   1   2  1   
  2   2   3  ar  
  3   2   4  ar  
  4   3   5  ar  
  5   3  24  1   
  6   4   6  ar  
  7   4  25  1   
  8   5   7  ar  
  9   5  26  1   
 10   6   7  ar  
 11   6  27  1   
 12   7   8  1   
 13   8   9  1   
 14   8  28  1   
 15   8  29  1   
 16   9  10  1   
 17   9  30  1   
 18   9  31  1   
 19  10  11  1   
 20  10  32  1   
 21  10  33  1   
 22  11  12  2   
 23  11  13  am  
 24  13  14  1   
 25  13  15  1   
 26  14  16  1   
 27  14  34  1   
 28  14  35  1   
 29  15  17  1   
 30  15  36  1   
 31  15  37  1   
 32  16  18  1   
 33  16  19  2   
 34  17  20  1   
 35  17  38  1   
 36  17  39  1   
 37  18  21  1   
 38  18  22  1   
 39  19  23  1   
 40  19  40  1   
 41  20  41  1   
 42  21  23  2   
 43  21  42  1   
 44  22  43  1   
 45  22  44  1   
 46  22  45  1   
@<TRIPOS>SUBSTRUCTURE
  1 ****   9 GROUP 4 **** **** 0

# MOE 2024.06 (io_trps.svl 2023.06)
