@<TRIPOS>MOLECULE
NONAME
49 51 1 0 0 
SMALL
USER_CHARGES


@<TRIPOS>ATOM
  1 O        0.4000     0.0930    -0.7920 O.3   1 <1>  -0.5600 
  2 C        1.6290    -0.5040    -1.1360 C.3   1 <1>   0.2000 
  3 C        0.3980     1.4890    -0.7490 C.3   1 <1>   0.1200 
  4 C        2.7640    -0.0370    -0.1850 C.3   1 <1>   0.5660 
  5 C        1.4660    -2.0320    -1.0670 C.3   1 <1>   0.1200 
  6 C        1.4080     1.9860     0.2990 C.3   1 <1>   0.3430 
  7 N        2.7820     1.4440     0.0350 N.4   1 <1>  -0.9590 
  8 C        4.1320    -0.4470    -0.7130 C.ar  1 <1>  -0.1440 
  9 O        1.4420    -2.4540     0.2610 O.3   1 <1>  -0.6800 
 10 C        3.7520     1.8220     1.0910 C.3   1 <1>   0.5240 
 11 C        4.6520     0.0850    -1.8890 C.ar  1 <1>  -0.1500 
 12 C        4.8820    -1.3680     0.0040 C.ar  1 <1>  -0.1500 
 13 C        3.9110     3.3200     1.0270 C.2   1 <1>  -0.1810 
 14 C        5.9080    -0.2930    -2.3290 C.ar  1 <1>  -0.1500 
 15 C        6.1380    -1.7440    -0.4380 C.ar  1 <1>  -0.1500 
 16 C        3.3830     4.2360     1.9290 C.2   1 <1>   0.1390 
 17 C        4.5620     4.0750     0.1130 C.2   1 <1>  -0.3020 
 18 C        6.6520    -1.2050    -1.6030 C.ar  1 <1>  -0.1500 
 19 N        3.6610     5.4550     1.5980 N.2   1 <1>  -0.7070 
 20 N        4.4050     5.3660     0.4790 N.pl3 1 <1>   0.3140 
 21 C        4.9510     6.5780    -0.1960 C.3   1 <1>   0.1760 
 22 C        4.3750     6.7210    -1.6110 C.3   1 <1>  -0.2400 
 23 C        6.4860     6.5390    -0.2290 C.3   1 <1>  -0.2400 
 24 H        1.8490    -0.2260    -2.1510 H     1 <1>   0.0800 
 25 H        0.6270     1.8710    -1.7290 H     1 <1>   0.0800 
 26 H       -0.5960     1.8050    -0.4820 H     1 <1>   0.0800 
 27 H        2.6040    -0.5240     0.7630 H     1 <1>   0.0800 
 28 H        2.2910    -2.5240    -1.5540 H     1 <1>   0.0800 
 29 H        0.5460    -2.3290    -1.5440 H     1 <1>   0.0800 
 30 H        1.0690     1.6700     1.2720 H     1 <1>   0.0800 
 31 H        1.4290     3.0650     0.2890 H     1 <1>   0.0800 
 32 H        3.1390     1.8710    -0.8230 H     1 <1>   0.4500 
 33 H        1.1040    -3.3730     0.3230 H     1 <1>   0.4000 
 34 H        3.3980     1.5180     2.0630 H     1 <1>   0.0800 
 35 H        4.7080     1.3580     0.9070 H     1 <1>   0.0800 
 36 H        4.0980     0.7900    -2.4830 H     1 <1>   0.1500 
 37 H        4.4970    -1.8100     0.9100 H     1 <1>   0.1500 
 38 H        6.3130     0.1170    -3.2400 H     1 <1>   0.1500 
 39 H        6.7170    -2.4600     0.1210 H     1 <1>   0.1500 
 40 H        2.8060     3.9910     2.8060 H     1 <1>   0.1500 
 41 H        5.1260     3.7900    -0.7570 H     1 <1>   0.1500 
 42 H        7.6300    -1.4990    -1.9460 H     1 <1>   0.1500 
 43 H        4.6440     7.4300     0.3870 H     1 <1>   0.0800 
 44 H        4.6770     5.8990    -2.2350 H     1 <1>   0.0800 
 45 H        4.7260     7.6340    -2.0580 H     1 <1>   0.0800 
 46 H        3.3000     6.7620    -1.5680 H     1 <1>   0.0800 
 47 H        6.8390     5.7120    -0.8180 H     1 <1>   0.0800 
 48 H        6.8720     6.4530     0.7720 H     1 <1>   0.0800 
 49 H        6.8660     7.4490    -0.6570 H     1 <1>   0.0800 
@<TRIPOS>BOND
  1   1   2  1   
  2   1   3  1   
  3   2   4  1   
  4   2   5  1   
  5   2  24  1   
  6   3   6  1   
  7   3  25  1   
  8   3  26  1   
  9   4   7  1   
 10   4   8  1   
 11   4  27  1   
 12   5   9  1   
 13   5  28  1   
 14   5  29  1   
 15   6   7  1   
 16   6  30  1   
 17   6  31  1   
 18   7  10  1   
 19   7  32  1   
 20   8  11  ar  
 21   8  12  ar  
 22   9  33  1   
 23  10  13  1   
 24  10  34  1   
 25  10  35  1   
 26  11  14  ar  
 27  11  36  1   
 28  12  15  ar  
 29  12  37  1   
 30  13  16  1   
 31  13  17  2   
 32  14  18  ar  
 33  14  38  1   
 34  15  18  ar  
 35  15  39  1   
 36  16  19  2   
 37  16  40  1   
 38  17  20  1   
 39  17  41  1   
 40  18  42  1   
 41  19  20  1   
 42  20  21  1   
 43  21  22  1   
 44  21  23  1   
 45  21  43  1   
 46  22  44  1   
 47  22  45  1   
 48  22  46  1   
 49  23  47  1   
 50  23  48  1   
 51  23  49  1   
@<TRIPOS>SUBSTRUCTURE
  1 ****   7 GROUP 4 **** **** 0

# MOE 2024.06 (io_trps.svl 2023.06)
