@<TRIPOS>MOLECULE
NONAME
54 56 1 0 0 
SMALL
USER_CHARGES


@<TRIPOS>ATOM
  1 O       -0.6750    -0.2700    -0.7870 O.2   1 <1>  -0.5700 
  2 C       -1.3910     0.3420    -0.0340 C.2   1 <1>   0.5690 
  3 N       -2.6720    -0.0760     0.2190 N.am  1 <1>  -0.6600 
  4 C       -0.8620     1.6180     0.6000 C.3   1 <1>  -0.0990 
  5 C       -3.0850    -1.4040    -0.3620 C.3   1 <1>   0.3210 
  6 C       -3.5910     0.6070     1.1960 C.3   1 <1>   0.1400 
  7 C        0.4650     2.1210     0.0170 C.3   1 <1>   0.0210 
  8 C       -4.5700    -1.7550    -0.2190 C.2   1 <1>   0.0460 
  9 C       -4.3130     1.8510     0.6230 C.3   1 <1>   0.3430 
 10 C        0.6450     3.5660     0.4350 C.2   1 <1>  -0.1810 
 11 N       -5.5250    -1.1100    -0.9270 N.2   1 <1>  -0.5650 
 12 C       -5.1230    -2.7150     0.5610 C.2   1 <1>  -0.3320 
 13 N       -4.8160     1.6700    -0.7770 N.4   1 <1>  -0.9590 
 14 C        0.0170     4.6580    -0.2070 C.ar  1 <1>   0.0000 
 15 C        1.3690     4.0570     1.4680 C.2   1 <1>  -0.3020 
 16 C       -6.6230    -1.7040    -0.5830 C.2   1 <1>   0.0360 
 17 N       -6.4460    -2.6860     0.3220 N.pl3 1 <1>   0.0330 
 18 C       -4.5000    -3.7070     1.5320 C.3   1 <1>  -0.0600 
 19 C       -3.8050     2.0270    -1.8160 C.3   1 <1>   0.2630 
 20 C       -6.0990     2.3880    -1.0090 C.3   1 <1>   0.2630 
 21 C        0.3800     5.7940     0.5070 C.ar  1 <1>  -0.1520 
 22 C       -0.8140     4.7830    -1.3260 C.ar  1 <1>  -0.1500 
 23 N        1.2210     5.4140     1.5230 N.pl3 1 <1>   0.0330 
 24 C       -0.0990     7.0540     0.1430 C.ar  1 <1>  -0.1500 
 25 C       -1.2820     6.0250    -1.6880 C.ar  1 <1>  -0.1500 
 26 C       -0.9280     7.1610    -0.9490 C.ar  1 <1>  -0.1500 
 27 H       -0.7340     1.4600     1.6540 H     1 <1>   0.0800 
 28 H       -1.5900     2.3910     0.4620 H     1 <1>   0.0800 
 29 H       -2.4960    -2.1730     0.1050 H     1 <1>   0.0800 
 30 H       -2.8420    -1.4180    -1.4100 H     1 <1>   0.0800 
 31 H       -3.0280     0.9080     2.0610 H     1 <1>   0.0800 
 32 H       -4.3300    -0.0840     1.5600 H     1 <1>   0.0800 
 33 H        0.4610     2.0650    -1.0580 H     1 <1>   0.0800 
 34 H        1.2790     1.5200     0.3810 H     1 <1>   0.0800 
 35 H       -3.6510     2.6990     0.6580 H     1 <1>   0.0800 
 36 H       -5.1430     2.0730     1.2740 H     1 <1>   0.0800 
 37 H       -5.0060     0.6450    -0.8820 H     1 <1>   0.4500 
 38 H        1.9800     3.5240     2.1760 H     1 <1>   0.1500 
 39 H       -7.5980    -1.4620    -0.9700 H     1 <1>   0.1500 
 40 H       -7.1670    -3.2950     0.7240 H     1 <1>   0.2700 
 41 H       -3.4400    -3.5530     1.6180 H     1 <1>   0.0800 
 42 H       -4.6680    -4.7130     1.1900 H     1 <1>   0.0800 
 43 H       -4.9370    -3.5960     2.5090 H     1 <1>   0.0800 
 44 H       -3.5190     3.0620    -1.7250 H     1 <1>   0.0800 
 45 H       -4.2130     1.8640    -2.8000 H     1 <1>   0.0800 
 46 H       -2.9260     1.4120    -1.7150 H     1 <1>   0.0800 
 47 H       -5.9590     3.4520    -0.9090 H     1 <1>   0.0800 
 48 H       -6.8400     2.0650    -0.2970 H     1 <1>   0.0800 
 49 H       -6.4660     2.1770    -2.0010 H     1 <1>   0.0800 
 50 H       -1.0620     3.9070    -1.8940 H     1 <1>   0.1500 
 51 H        1.6590     6.0500     2.1960 H     1 <1>   0.2700 
 52 H        0.1850     7.9230     0.7110 H     1 <1>   0.1500 
 53 H       -1.9180     6.1430    -2.5480 H     1 <1>   0.1500 
 54 H       -1.3060     8.1220    -1.2510 H     1 <1>   0.1500 
@<TRIPOS>BOND
  1   1   2  2   
  2   2   3  am  
  3   2   4  1   
  4   3   5  1   
  5   3   6  1   
  6   4   7  1   
  7   4  27  1   
  8   4  28  1   
  9   5   8  1   
 10   5  29  1   
 11   5  30  1   
 12   6   9  1   
 13   6  31  1   
 14   6  32  1   
 15   7  10  1   
 16   7  33  1   
 17   7  34  1   
 18   8  11  1   
 19   8  12  2   
 20   9  13  1   
 21   9  35  1   
 22   9  36  1   
 23  10  14  1   
 24  10  15  2   
 25  11  16  2   
 26  12  17  1   
 27  12  18  1   
 28  13  19  1   
 29  13  20  1   
 30  13  37  1   
 31  14  21  ar  
 32  14  22  ar  
 33  15  23  1   
 34  15  38  1   
 35  16  17  1   
 36  16  39  1   
 37  17  40  1   
 38  18  41  1   
 39  18  42  1   
 40  18  43  1   
 41  19  44  1   
 42  19  45  1   
 43  19  46  1   
 44  20  47  1   
 45  20  48  1   
 46  20  49  1   
 47  21  23  1   
 48  21  24  ar  
 49  22  25  ar  
 50  22  50  1   
 51  23  51  1   
 52  24  26  ar  
 53  24  52  1   
 54  25  26  ar  
 55  25  53  1   
 56  26  54  1   
@<TRIPOS>SUBSTRUCTURE
  1 ****   4 GROUP 4 **** **** 0

# MOE 2024.06 (io_trps.svl 2023.06)
