@<TRIPOS>MOLECULE
NONAME
53 55 1 0 0 
SMALL
USER_CHARGES


@<TRIPOS>ATOM
  1 O       -2.7980     3.0490    -2.4460 O.2   1 <1>  -0.5700 
  2 C       -2.3540     2.0110    -2.0100 C.2   1 <1>   0.5690 
  3 N       -3.1900     0.9160    -1.9090 N.am  1 <1>  -0.6600 
  4 C       -0.8920     1.9950    -1.5270 C.3   1 <1>   0.2370 
  5 C       -2.7310    -0.5020    -1.8650 C.3   1 <1>   0.3200 
  6 C       -4.6630     1.1050    -2.1690 C.3   1 <1>   0.1400 
  7 N       -0.8930     2.1940    -0.0550 N.pl3 1 <1>   0.0480 
  8 C        0.0330     3.0170    -2.2160 C.3   1 <1>  -0.2400 
  9 C       -3.3970    -1.2140    -0.7070 C.2   1 <1>  -0.3320 
 10 C       -5.3020     2.0970    -1.1730 C.3   1 <1>   0.3430 
 11 C       -1.4690     3.2260     0.6330 C.ar  1 <1>  -0.1520 
 12 C       -0.5450     1.2810     0.9000 C.2   1 <1>   0.0060 
 13 N       -4.2360    -2.2610    -0.8590 N.pl3 1 <1>   0.0330 
 14 C       -3.3040    -0.9960     0.6250 C.2   1 <1>   0.0770 
 15 N       -4.9830     1.7300     0.2420 N.4   1 <1>  -0.9590 
 16 C       -1.4610     2.8360     1.9590 C.ar  1 <1>   0.2270 
 17 C       -1.9850     4.4760     0.2700 C.ar  1 <1>  -0.1500 
 18 N       -0.8970     1.6100     2.0900 N.2   1 <1>  -0.5650 
 19 C        0.2100    -0.0070     0.6240 C.3   1 <1>  -0.0600 
 20 C       -4.6250    -2.5850     0.3910 C.2   1 <1>   0.0360 
 21 N       -4.1030    -1.8360     1.3050 N.2   1 <1>  -0.5650 
 22 C       -5.9140     0.7120     0.8160 C.3   1 <1>   0.2630 
 23 C       -4.9060     2.9320     1.1190 C.3   1 <1>   0.2630 
 24 C       -1.9750     3.6730     2.9480 C.ar  1 <1>  -0.1500 
 25 C       -2.4840     5.3040     1.2510 C.ar  1 <1>  -0.1500 
 26 C       -2.4830     4.9030     2.5920 C.ar  1 <1>  -0.1500 
 27 H       -0.4710     1.0340    -1.7340 H     1 <1>   0.0800 
 28 H       -1.6670    -0.5770    -1.7610 H     1 <1>   0.0800 
 29 H       -2.9940    -0.9810    -2.7930 H     1 <1>   0.0800 
 30 H       -5.1830     0.1650    -2.1110 H     1 <1>   0.0800 
 31 H       -4.7950     1.4850    -3.1680 H     1 <1>   0.0800 
 32 H       -0.3090     4.0230    -2.0590 H     1 <1>   0.0800 
 33 H        0.0510     2.8350    -3.2750 H     1 <1>   0.0800 
 34 H        1.0360     2.9260    -1.8380 H     1 <1>   0.0800 
 35 H       -6.3680     2.1370    -1.3190 H     1 <1>   0.0800 
 36 H       -4.9050     3.0770    -1.3860 H     1 <1>   0.0800 
 37 H       -4.5150    -2.7440    -1.7210 H     1 <1>   0.2700 
 38 H       -2.7080    -0.2680     1.1540 H     1 <1>   0.1500 
 39 H       -4.0370     1.3090     0.2090 H     1 <1>   0.4500 
 40 H       -1.9850     4.7960    -0.7580 H     1 <1>   0.1500 
 41 H        1.0840     0.1930     0.0320 H     1 <1>   0.0800 
 42 H       -0.4130    -0.7210     0.1220 H     1 <1>   0.0800 
 43 H        0.5300    -0.4410     1.5550 H     1 <1>   0.0800 
 44 H       -5.3030    -3.3990     0.5890 H     1 <1>   0.1500 
 45 H       -6.9130     1.1100     0.8890 H     1 <1>   0.0800 
 46 H       -5.5820     0.4200     1.8000 H     1 <1>   0.0800 
 47 H       -5.9310    -0.1690     0.1970 H     1 <1>   0.0800 
 48 H       -5.8840     3.3630     1.2560 H     1 <1>   0.0800 
 49 H       -4.2630     3.6710     0.6750 H     1 <1>   0.0800 
 50 H       -4.5020     2.6650     2.0830 H     1 <1>   0.0800 
 51 H       -1.9470     3.3390     3.9690 H     1 <1>   0.1500 
 52 H       -2.8720     6.2760     0.9950 H     1 <1>   0.1500 
 53 H       -2.8710     5.5690     3.3440 H     1 <1>   0.1500 
@<TRIPOS>BOND
  1   1   2  2   
  2   2   3  am  
  3   2   4  1   
  4   3   5  1   
  5   3   6  1   
  6   4   7  1   
  7   4   8  1   
  8   4  27  1   
  9   5   9  1   
 10   5  28  1   
 11   5  29  1   
 12   6  10  1   
 13   6  30  1   
 14   6  31  1   
 15   7  11  1   
 16   7  12  1   
 17   8  32  1   
 18   8  33  1   
 19   8  34  1   
 20   9  13  1   
 21   9  14  2   
 22  10  15  1   
 23  10  35  1   
 24  10  36  1   
 25  11  16  ar  
 26  11  17  ar  
 27  12  18  2   
 28  12  19  1   
 29  13  20  1   
 30  13  37  1   
 31  14  21  1   
 32  14  38  1   
 33  15  22  1   
 34  15  23  1   
 35  15  39  1   
 36  16  18  1   
 37  16  24  ar  
 38  17  25  ar  
 39  17  40  1   
 40  19  41  1   
 41  19  42  1   
 42  19  43  1   
 43  20  21  2   
 44  20  44  1   
 45  22  45  1   
 46  22  46  1   
 47  22  47  1   
 48  23  48  1   
 49  23  49  1   
 50  23  50  1   
 51  24  26  ar  
 52  24  51  1   
 53  25  26  ar  
 54  25  52  1   
 55  26  53  1   
@<TRIPOS>SUBSTRUCTURE
  1 ****   7 GROUP 4 **** **** 0

# MOE 2024.06 (io_trps.svl 2023.06)
