@<TRIPOS>MOLECULE
NONAME
58 60 1 0 0 
SMALL
USER_CHARGES


@<TRIPOS>ATOM
  1 O       -0.2440     0.6250     1.4440 O.2   1 <1>  -0.5700 
  2 C       -1.1020     1.3920     1.0770 C.2   1 <1>   0.5690 
  3 N       -2.3920     0.9740     0.8350 N.am  1 <1>  -0.6600 
  4 C       -0.6760     2.8390     0.8940 C.3   1 <1>  -0.0990 
  5 C       -3.4560     1.8570     0.2650 C.3   1 <1>   0.2200 
  6 C       -2.7590    -0.4420     1.1600 C.3   1 <1>   0.0600 
  7 C       -0.1720     3.0920    -0.5320 C.3   1 <1>  -0.0160 
  8 C       -4.4590     2.3080     1.3240 C.3   1 <1>  -0.1600 
  9 C       -4.3120     1.2110    -0.8270 C.3   1 <1>  -0.1600 
 10 C        0.0800     4.5750    -0.7510 C.ar  1 <1>  -0.1440 
 11 C       -5.7040     2.7220     0.5280 C.3   1 <1>  -0.0800 
 12 C       -5.6010     2.0460    -0.8440 C.3   1 <1>  -0.0800 
 13 C        1.2360     5.1640    -0.2650 C.ar  1 <1>  -0.1500 
 14 C       -0.8410     5.3530    -1.4350 C.ar  1 <1>  -0.1500 
 15 C       -7.0450     2.2640     1.1210 C.3   1 <1>  -0.1600 
 16 C       -6.9020     1.2440    -1.0170 C.3   1 <1>  -0.1600 
 17 C        1.4790     6.5150    -0.4510 C.ar  1 <1>   0.0820 
 18 C       -0.6080     6.7040    -1.6270 C.ar  1 <1>  -0.1500 
 19 C       -7.9230     1.9050    -0.0830 C.3   1 <1>   0.4230 
 20 O        2.6360     7.0050     0.0600 O.3   1 <1>  -0.3630 
 21 C        0.5470     7.2880    -1.1370 C.ar  1 <1>  -0.1500 
 22 N       -8.5020     3.1370    -0.7110 N.4   1 <1>  -0.9590 
 23 C        2.9880     8.3620    -0.0930 C.3   1 <1>   0.0400 
 24 C       -9.4030     3.8920     0.2210 C.3   1 <1>   0.2630 
 25 C       -9.2680     2.8410    -1.9650 C.3   1 <1>   0.2630 
 26 H       -1.4800     3.5040     1.1400 H     1 <1>   0.0800 
 27 H        0.1210     3.0460     1.5850 H     1 <1>   0.0800 
 28 H       -3.0160     2.7350    -0.1700 H     1 <1>   0.0800 
 29 H       -3.7640    -0.5010     1.5350 H     1 <1>   0.0800 
 30 H       -2.1000    -0.8410     1.9120 H     1 <1>   0.0800 
 31 H       -2.6700    -1.0480     0.2760 H     1 <1>   0.0800 
 32 H       -0.8920     2.7360    -1.2470 H     1 <1>   0.0800 
 33 H        0.7390     2.5410    -0.6910 H     1 <1>   0.0800 
 34 H       -4.6820     1.4920     1.9870 H     1 <1>   0.0800 
 35 H       -4.0680     3.1290     1.9000 H     1 <1>   0.0800 
 36 H       -3.8100     1.2400    -1.7780 H     1 <1>   0.0800 
 37 H       -4.5410     0.1910    -0.5840 H     1 <1>   0.0800 
 38 H       -5.7030     3.7920     0.3910 H     1 <1>   0.0800 
 39 H       -5.5260     2.8070    -1.6030 H     1 <1>   0.0800 
 40 H        1.9650     4.5790     0.2670 H     1 <1>   0.1500 
 41 H       -1.7420     4.9130    -1.8230 H     1 <1>   0.1500 
 42 H       -7.4650     2.9880     1.7920 H     1 <1>   0.0800 
 43 H       -6.8950     1.3590     1.6840 H     1 <1>   0.0800 
 44 H       -6.7550     0.2400    -0.6600 H     1 <1>   0.0800 
 45 H       -7.2040     1.1740    -2.0440 H     1 <1>   0.0800 
 46 H       -1.3270     7.3020    -2.1590 H     1 <1>   0.1500 
 47 H       -8.7080     1.2180     0.1920 H     1 <1>   0.0800 
 48 H        0.7020     8.3370    -1.2990 H     1 <1>   0.1500 
 49 H       -7.7020     3.7400    -0.9510 H     1 <1>   0.4500 
 50 H        3.9410     8.5150     0.3820 H     1 <1>   0.0800 
 51 H        2.2410     8.9720     0.3830 H     1 <1>   0.0800 
 52 H        3.0620     8.5880    -1.1420 H     1 <1>   0.0800 
 53 H      -10.2020     3.2570     0.5660 H     1 <1>   0.0800 
 54 H       -9.8330     4.7420    -0.2840 H     1 <1>   0.0800 
 55 H       -8.8550     4.2530     1.0750 H     1 <1>   0.0800 
 56 H      -10.0600     2.1380    -1.7630 H     1 <1>   0.0800 
 57 H       -8.6220     2.4260    -2.7200 H     1 <1>   0.0800 
 58 H       -9.7040     3.7450    -2.3580 H     1 <1>   0.0800 
@<TRIPOS>BOND
  1   1   2  2   
  2   2   3  am  
  3   2   4  1   
  4   3   5  1   
  5   3   6  1   
  6   4   7  1   
  7   4  26  1   
  8   4  27  1   
  9   5   8  1   
 10   5   9  1   
 11   5  28  1   
 12   6  29  1   
 13   6  30  1   
 14   6  31  1   
 15   7  10  1   
 16   7  32  1   
 17   7  33  1   
 18   8  11  1   
 19   8  34  1   
 20   8  35  1   
 21   9  12  1   
 22   9  36  1   
 23   9  37  1   
 24  10  13  ar  
 25  10  14  ar  
 26  11  12  1   
 27  11  15  1   
 28  11  38  1   
 29  12  16  1   
 30  12  39  1   
 31  13  17  ar  
 32  13  40  1   
 33  14  18  ar  
 34  14  41  1   
 35  15  19  1   
 36  15  42  1   
 37  15  43  1   
 38  16  19  1   
 39  16  44  1   
 40  16  45  1   
 41  17  20  1   
 42  17  21  ar  
 43  18  21  ar  
 44  18  46  1   
 45  19  22  1   
 46  19  47  1   
 47  20  23  1   
 48  21  48  1   
 49  22  24  1   
 50  22  25  1   
 51  22  49  1   
 52  23  50  1   
 53  23  51  1   
 54  23  52  1   
 55  24  53  1   
 56  24  54  1   
 57  24  55  1   
 58  25  56  1   
 59  25  57  1   
 60  25  58  1   
@<TRIPOS>SUBSTRUCTURE
  1 ****   5 GROUP 4 **** **** 0

# MOE 2024.06 (io_trps.svl 2023.06)
