@<TRIPOS>MOLECULE
NONAME
52 54 1 0 0 
SMALL
USER_CHARGES


@<TRIPOS>ATOM
  1 O        0.5960    -1.0060    -1.0000 O.2   1 <1>  -0.5700 
  2 C        1.3590    -1.7110    -0.3820 C.2   1 <1>   0.5690 
  3 N        0.9210    -2.6650     0.5030 N.am  1 <1>  -0.6600 
  4 C        2.8450    -1.4870    -0.6090 C.3   1 <1>  -0.0990 
  5 C        1.8270    -3.6110     1.2130 C.3   1 <1>   0.1400 
  6 C       -0.5310    -2.8580     0.7500 C.3   1 <1>   0.1400 
  7 C        3.7240    -2.6570    -0.1480 C.3   1 <1>  -0.1600 
  8 C        3.2750    -3.1130     1.2410 C.3   1 <1>  -0.1600 
  9 C       -1.0620    -3.9960    -0.1250 C.3   1 <1>  -0.1600 
 10 C       -2.5690    -4.2160     0.0960 C.3   1 <1>  -0.0990 
 11 C       -3.1190    -5.3370    -0.7620 C.2   1 <1>   0.5690 
 12 O       -3.9050    -5.0810    -1.6410 O.2   1 <1>  -0.5700 
 13 N       -2.7170    -6.6050    -0.5090 N.am  1 <1>  -0.7300 
 14 C       -3.1190    -7.7920    -1.2930 C.3   1 <1>   0.2200 
 15 C       -4.0290    -8.6660    -0.4470 C.3   1 <1>  -0.0800 
 16 C       -1.9120    -8.7010    -1.4860 C.3   1 <1>   0.1200 
 17 C       -3.0290    -9.5090     0.3570 C.3   1 <1>   0.1200 
 18 C       -4.9530    -9.5330    -1.3240 C.3   1 <1>  -0.0170 
 19 O       -1.7960    -9.4280    -0.3000 O.3   1 <1>  -0.5600 
 20 C       -5.8800   -10.3920    -0.4790 C.ar  1 <1>  -0.1440 
 21 C       -5.6860   -11.7500    -0.3240 C.ar  1 <1>  -0.1500 
 22 C       -6.9690    -9.8540     0.1770 C.ar  1 <1>  -0.1500 
 23 C       -6.5620   -12.4820     0.4620 C.ar  1 <1>   0.1600 
 24 C       -7.7840   -10.6750     0.9400 C.ar  1 <1>   0.1600 
 25 N       -7.6050   -11.9760     1.1000 N.ar  1 <1>  -0.6200 
 26 H        3.0120    -1.3000    -1.6540 H     1 <1>   0.0800 
 27 H        3.1210    -0.6000    -0.0690 H     1 <1>   0.0800 
 28 H        1.4830    -3.7510     2.2240 H     1 <1>   0.0800 
 29 H        1.7890    -4.5630     0.7100 H     1 <1>   0.0800 
 30 H       -0.6930    -3.0760     1.7920 H     1 <1>   0.0800 
 31 H       -1.0620    -1.9490     0.5200 H     1 <1>   0.0800 
 32 H        3.6270    -3.4740    -0.8440 H     1 <1>   0.0800 
 33 H        4.7560    -2.3530    -0.1270 H     1 <1>   0.0800 
 34 H        3.3550    -2.2980     1.9390 H     1 <1>   0.0800 
 35 H        3.9130    -3.9060     1.5890 H     1 <1>   0.0800 
 36 H       -0.8940    -3.7460    -1.1600 H     1 <1>   0.0800 
 37 H       -0.5300    -4.9020     0.0990 H     1 <1>   0.0800 
 38 H       -3.1000    -3.3120    -0.1460 H     1 <1>   0.0800 
 39 H       -2.7630    -4.4480     1.1270 H     1 <1>   0.0800 
 40 H       -2.0510    -6.8030     0.2390 H     1 <1>   0.3700 
 41 H       -3.5610    -7.4940    -2.2300 H     1 <1>   0.0800 
 42 H       -4.6400    -8.0680     0.2070 H     1 <1>   0.0800 
 43 H       -1.0040    -8.1540    -1.6680 H     1 <1>   0.0800 
 44 H       -2.0830    -9.4010    -2.2850 H     1 <1>   0.0800 
 45 H       -3.3140   -10.5430     0.4310 H     1 <1>   0.0800 
 46 H       -2.8970    -9.1050     1.3460 H     1 <1>   0.0800 
 47 H       -4.3690   -10.1630    -1.9730 H     1 <1>   0.0800 
 48 H       -5.5530    -8.8930    -1.9480 H     1 <1>   0.0800 
 49 H       -4.8640   -12.2480    -0.8040 H     1 <1>   0.1500 
 50 H       -7.1910    -8.8050     0.1030 H     1 <1>   0.1500 
 51 H       -6.3940   -13.5400     0.5730 H     1 <1>   0.1500 
 52 H       -8.6280   -10.2370     1.4440 H     1 <1>   0.1500 
@<TRIPOS>BOND
  1   1   2  2   
  2   2   3  am  
  3   2   4  1   
  4   3   5  1   
  5   3   6  1   
  6   4   7  1   
  7   4  26  1   
  8   4  27  1   
  9   5   8  1   
 10   5  28  1   
 11   5  29  1   
 12   6   9  1   
 13   6  30  1   
 14   6  31  1   
 15   7   8  1   
 16   7  32  1   
 17   7  33  1   
 18   8  34  1   
 19   8  35  1   
 20   9  10  1   
 21   9  36  1   
 22   9  37  1   
 23  10  11  1   
 24  10  38  1   
 25  10  39  1   
 26  11  12  2   
 27  11  13  am  
 28  13  14  1   
 29  13  40  1   
 30  14  15  1   
 31  14  16  1   
 32  14  41  1   
 33  15  17  1   
 34  15  18  1   
 35  15  42  1   
 36  16  19  1   
 37  16  43  1   
 38  16  44  1   
 39  17  19  1   
 40  17  45  1   
 41  17  46  1   
 42  18  20  1   
 43  18  47  1   
 44  18  48  1   
 45  20  21  ar  
 46  20  22  ar  
 47  21  23  ar  
 48  21  49  1   
 49  22  24  ar  
 50  22  50  1   
 51  23  25  ar  
 52  23  51  1   
 53  24  25  ar  
 54  24  52  1   
@<TRIPOS>SUBSTRUCTURE
  1 ****  13 GROUP 4 **** **** 0

# MOE 2024.06 (io_trps.svl 2023.06)
