@<TRIPOS>MOLECULE
NONAME
46 48 1 0 0 
SMALL
USER_CHARGES


@<TRIPOS>ATOM
  1 S        0.5520     0.2240    -1.7160 S.o2  1 <1>   1.3330 
  2 O       -0.2900     1.1710    -2.4120 O.2   1 <1>  -0.6500 
  3 O        0.9060    -1.0250    -2.3510 O.2   1 <1>  -0.6500 
  4 N       -0.2120    -0.1390    -0.2420 N.am  1 <1>  -0.8490 
  5 C        2.0710     1.0410    -1.2200 C.3   1 <1>  -0.0550 
  6 C       -1.0630    -1.3290    -0.3380 C.3   1 <1>   0.1160 
  7 C       -0.9880     0.9810     0.3010 C.3   1 <1>   0.1160 
  8 C        3.0770     0.1240    -0.4910 C.3   1 <1>  -0.0800 
  9 C        4.4460     0.7410    -0.2510 C.3   1 <1>   0.2200 
 10 C        2.6550    -0.3250     0.9140 C.3   1 <1>   0.1200 
 11 N        4.3220     2.1460     0.2080 N.am  1 <1>  -0.7300 
 12 C        4.9330    -0.1110     0.9120 C.3   1 <1>   0.1200 
 13 O        3.8050    -0.2980     1.7100 O.3   1 <1>  -0.5600 
 14 C        4.5260     3.2500    -0.5670 C.2   1 <1>   0.5440 
 15 O        4.7240     3.0860    -1.7540 O.2   1 <1>  -0.5700 
 16 C        4.4630     4.5710     0.0190 C.ar  1 <1>   0.0860 
 17 C        5.4730     5.5500    -0.1740 C.ar  1 <1>   0.0000 
 18 C        3.4000     4.9320     0.8090 C.ar  1 <1>  -0.1500 
 19 C        5.3060     6.8080     0.4510 C.ar  1 <1>   0.3100 
 20 C        6.6410     5.3450    -0.9430 C.ar  1 <1>  -0.1500 
 21 C        3.3330     6.2010     1.3810 C.ar  1 <1>   0.1600 
 22 N        4.2360     7.1150     1.2240 N.ar  1 <1>  -0.6200 
 23 C        6.2930     7.7920     0.2770 C.ar  1 <1>  -0.1500 
 24 C        7.5860     6.3230    -1.0920 C.ar  1 <1>  -0.1500 
 25 C        7.4120     7.5640    -0.4760 C.ar  1 <1>  -0.1500 
 26 H        2.5490     1.4190    -2.1040 H     1 <1>   0.0800 
 27 H        1.8340     1.8840    -0.6030 H     1 <1>   0.0800 
 28 H       -1.5250    -1.5370     0.6120 H     1 <1>   0.0800 
 29 H       -0.4720    -2.1850    -0.6170 H     1 <1>   0.0800 
 30 H       -1.8300    -1.1820    -1.0810 H     1 <1>   0.0800 
 31 H       -1.3690     0.7290     1.2760 H     1 <1>   0.0800 
 32 H       -1.8160     1.2160    -0.3480 H     1 <1>   0.0800 
 33 H       -0.3660     1.8540     0.3950 H     1 <1>   0.0800 
 34 H        3.2180    -0.7630    -1.0860 H     1 <1>   0.0800 
 35 H        5.0930     0.6720    -1.1100 H     1 <1>   0.0800 
 36 H        2.2540    -1.3250     0.9100 H     1 <1>   0.0800 
 37 H        1.9410     0.3490     1.3550 H     1 <1>   0.0800 
 38 H        4.1740     2.2360     1.2170 H     1 <1>   0.3700 
 39 H        5.7120     0.3620     1.4830 H     1 <1>   0.0800 
 40 H        5.2620    -1.0770     0.5700 H     1 <1>   0.0800 
 41 H        2.5960     4.2450     0.9950 H     1 <1>   0.1500 
 42 H        6.7940     4.3970    -1.4290 H     1 <1>   0.1500 
 43 H        2.4770     6.4400     1.9920 H     1 <1>   0.1500 
 44 H        6.1390     8.7390     0.7610 H     1 <1>   0.1500 
 45 H        8.4690     6.1500    -1.6840 H     1 <1>   0.1500 
 46 H        8.1610     8.3270    -0.6020 H     1 <1>   0.1500 
@<TRIPOS>BOND
  1   1   2  2   
  2   1   3  2   
  3   1   4  am  
  4   1   5  1   
  5   4   6  1   
  6   4   7  1   
  7   5   8  1   
  8   5  26  1   
  9   5  27  1   
 10   6  28  1   
 11   6  29  1   
 12   6  30  1   
 13   7  31  1   
 14   7  32  1   
 15   7  33  1   
 16   8   9  1   
 17   8  10  1   
 18   8  34  1   
 19   9  11  1   
 20   9  12  1   
 21   9  35  1   
 22  10  13  1   
 23  10  36  1   
 24  10  37  1   
 25  11  14  am  
 26  11  38  1   
 27  12  13  1   
 28  12  39  1   
 29  12  40  1   
 30  14  15  2   
 31  14  16  1   
 32  16  17  ar  
 33  16  18  ar  
 34  17  19  ar  
 35  17  20  ar  
 36  18  21  ar  
 37  18  41  1   
 38  19  22  ar  
 39  19  23  ar  
 40  20  24  ar  
 41  20  42  1   
 42  21  22  ar  
 43  21  43  1   
 44  23  25  ar  
 45  23  44  1   
 46  24  25  ar  
 47  24  45  1   
 48  25  46  1   
@<TRIPOS>SUBSTRUCTURE
  1 ****  14 GROUP 4 **** **** 0

# MOE 2024.06 (io_trps.svl 2023.06)
