@<TRIPOS>MOLECULE
NONAME
44 45 1 0 0 
SMALL
USER_CHARGES


@<TRIPOS>ATOM
  1 S        0.1010    -0.0430     0.5230 S.o2  1 <1>   1.3330 
  2 O        0.5300    -1.0940     1.4170 O.2   1 <1>  -0.6500 
  3 O       -0.4190     1.1930     1.0640 O.2   1 <1>  -0.6500 
  4 N       -1.0810    -0.6990    -0.5050 N.am  1 <1>  -0.8490 
  5 C        1.4130     0.3830    -0.6240 C.3   1 <1>  -0.0550 
  6 C       -2.4350    -0.5330     0.0330 C.3   1 <1>   0.1160 
  7 C       -0.8470    -2.1110    -0.8300 C.3   1 <1>   0.1160 
  8 C        2.6410     1.0360     0.0390 C.3   1 <1>  -0.0800 
  9 C        3.5830     1.6220    -1.0170 C.3   1 <1>   0.2200 
 10 C        3.5260    -0.0050     0.7290 C.3   1 <1>   0.1200 
 11 N        3.8730     3.0660    -0.7860 N.am  1 <1>  -0.7300 
 12 C        4.8280     0.7290    -0.9470 C.3   1 <1>   0.1200 
 13 O        4.4180    -0.4070    -0.2560 O.3   1 <1>  -0.5600 
 14 C        4.4740     3.6340     0.3020 C.2   1 <1>   0.5440 
 15 O        4.7950     2.9430     1.2440 O.2   1 <1>  -0.5700 
 16 C        4.7290     5.0600     0.3200 C.ar  1 <1>   0.0860 
 17 C        6.0170     5.6140     0.2760 C.ar  1 <1>  -0.1440 
 18 C        3.6360     5.9240     0.3830 C.ar  1 <1>  -0.1500 
 19 C        6.1660     6.9990     0.3020 C.ar  1 <1>  -0.1500 
 20 C        7.2550     4.7040     0.1930 C.3   1 <1>   1.1630 
 21 C        3.7970     7.2960     0.4030 C.ar  1 <1>  -0.1500 
 22 C        5.0660     7.8350     0.3630 C.ar  1 <1>  -0.1500 
 23 F        7.5240     4.0890     1.3350 F     1 <1>  -0.3400 
 24 F        8.3580     5.3760    -0.1200 F     1 <1>  -0.3400 
 25 F        7.1430     3.7630    -0.7390 F     1 <1>  -0.3400 
 26 H        1.7270    -0.4930    -1.1570 H     1 <1>   0.0800 
 27 H        1.0050     1.0710    -1.3390 H     1 <1>   0.0800 
 28 H       -3.1610    -0.9480    -0.6450 H     1 <1>   0.0800 
 29 H       -2.6560     0.5130     0.1610 H     1 <1>   0.0800 
 30 H       -2.5200    -1.0240     0.9890 H     1 <1>   0.0800 
 31 H       -1.5700    -2.4490    -1.5530 H     1 <1>   0.0800 
 32 H       -0.9260    -2.7200     0.0560 H     1 <1>   0.0800 
 33 H        0.1360    -2.2390    -1.2490 H     1 <1>   0.0800 
 34 H        2.3200     1.7800     0.7480 H     1 <1>   0.0800 
 35 H        3.1550     1.5200    -1.9990 H     1 <1>   0.0800 
 36 H        2.9940    -0.8640     1.0970 H     1 <1>   0.0800 
 37 H        4.0920     0.4400     1.5310 H     1 <1>   0.0800 
 38 H        3.6350     3.6770    -1.5700 H     1 <1>   0.3700 
 39 H        5.6240     1.1880    -0.3870 H     1 <1>   0.0800 
 40 H        5.1760     0.4350    -1.9210 H     1 <1>   0.0800 
 41 H        2.6430     5.5100     0.4260 H     1 <1>   0.1500 
 42 H        7.1450     7.4510     0.2760 H     1 <1>   0.1500 
 43 H        2.9380     7.9440     0.4540 H     1 <1>   0.1500 
 44 H        5.1990     8.9040     0.3830 H     1 <1>   0.1500 
@<TRIPOS>BOND
  1   1   2  2   
  2   1   3  2   
  3   1   4  am  
  4   1   5  1   
  5   4   6  1   
  6   4   7  1   
  7   5   8  1   
  8   5  26  1   
  9   5  27  1   
 10   6  28  1   
 11   6  29  1   
 12   6  30  1   
 13   7  31  1   
 14   7  32  1   
 15   7  33  1   
 16   8   9  1   
 17   8  10  1   
 18   8  34  1   
 19   9  11  1   
 20   9  12  1   
 21   9  35  1   
 22  10  13  1   
 23  10  36  1   
 24  10  37  1   
 25  11  14  am  
 26  11  38  1   
 27  12  13  1   
 28  12  39  1   
 29  12  40  1   
 30  14  15  2   
 31  14  16  1   
 32  16  17  ar  
 33  16  18  ar  
 34  17  19  ar  
 35  17  20  1   
 36  18  21  ar  
 37  18  41  1   
 38  19  22  ar  
 39  19  42  1   
 40  20  23  1   
 41  20  24  1   
 42  20  25  1   
 43  21  22  ar  
 44  21  43  1   
 45  22  44  1   
@<TRIPOS>SUBSTRUCTURE
  1 ****  11 GROUP 4 **** **** 0

# MOE 2024.06 (io_trps.svl 2023.06)
