@<TRIPOS>MOLECULE
NONAME
47 48 1 0 0 
SMALL
USER_CHARGES


@<TRIPOS>ATOM
  1 F       -0.5640     0.3700     0.2750 F     1 <1>  -0.1900 
  2 C       -1.8270     0.6970     0.3650 C.ar  1 <1>   0.1900 
  3 C       -2.3190     1.9070    -0.1390 C.ar  1 <1>   0.0830 
  4 C       -2.6570    -0.2170     0.9850 C.ar  1 <1>  -0.1500 
  5 O       -1.6050     2.8860    -0.7660 O.3   1 <1>  -0.3630 
  6 C       -3.6740     2.1580     0.0020 C.ar  1 <1>  -0.1500 
  7 C       -4.0040     0.0660     1.1100 C.ar  1 <1>  -0.1500 
  8 C       -0.2120     2.8110    -0.9710 C.3   1 <1>   0.0400 
  9 C       -4.5440     1.2550     0.6160 C.ar  1 <1>   0.0530 
 10 C       -5.9500     1.5550     0.7290 C.2   1 <1>   0.0870 
 11 O       -6.3520     2.7900     0.8970 O.3   1 <1>  -0.0190 
 12 C       -7.0670     0.7850     0.6710 C.2   1 <1>  -0.0860 
 13 N       -7.6540     2.8980     0.9620 N.2   1 <1>  -0.4100 
 14 C       -8.1090     1.7000     0.8360 C.2   1 <1>   0.3720 
 15 C       -7.2280    -0.6150     0.4460 C.2   1 <1>   0.7160 
 16 N       -9.4740     1.3700     0.8590 N.pl3 1 <1>  -0.8210 
 17 O       -6.9930    -1.3970     1.3510 O.2   1 <1>  -0.5700 
 18 N       -7.6500    -1.1070    -0.7730 N.am  1 <1>  -0.6600 
 19 C       -9.8950     0.6270     2.0770 C.3   1 <1>   0.1290 
 20 C      -10.4070     2.4870     0.5400 C.3   1 <1>   0.1290 
 21 C       -7.9000    -2.5650    -0.9740 C.3   1 <1>   0.1400 
 22 C       -8.0770    -0.2210    -1.8930 C.3   1 <1>   0.0600 
 23 C       -9.2820    -2.9460    -0.4440 C.3   1 <1>   0.1200 
 24 O       -9.5530    -4.2620    -0.8160 O.3   1 <1>  -0.5600 
 25 C      -10.7630    -4.7450    -0.3320 C.3   1 <1>   0.0400 
 26 H       -2.2510    -1.1370     1.3660 H     1 <1>   0.1500 
 27 H       -4.0620     3.0850    -0.3810 H     1 <1>   0.1500 
 28 H       -4.6400    -0.6460     1.6050 H     1 <1>   0.1500 
 29 H        0.1010     3.7110    -1.4680 H     1 <1>   0.0800 
 30 H        0.0060     1.9590    -1.5900 H     1 <1>   0.0800 
 31 H        0.2790     2.7320    -0.0180 H     1 <1>   0.0800 
 32 H       -9.2100    -0.1770     2.2850 H     1 <1>   0.0800 
 33 H      -10.8760     0.2100     1.9310 H     1 <1>   0.0800 
 34 H       -9.9140     1.2910     2.9250 H     1 <1>   0.0800 
 35 H      -10.0770     2.9950    -0.3510 H     1 <1>   0.0800 
 36 H      -10.4300     3.1940     1.3530 H     1 <1>   0.0800 
 37 H      -11.3970     2.1040     0.3730 H     1 <1>   0.0800 
 38 H       -7.1520    -3.1360    -0.4510 H     1 <1>   0.0800 
 39 H       -7.8370    -2.8020    -2.0210 H     1 <1>   0.0800 
 40 H       -7.5500     0.7160    -1.8620 H     1 <1>   0.0800 
 41 H       -9.1330    -0.0270    -1.8160 H     1 <1>   0.0800 
 42 H       -7.8710    -0.6920    -2.8380 H     1 <1>   0.0800 
 43 H      -10.0370    -2.3100    -0.8730 H     1 <1>   0.0800 
 44 H       -9.2960    -2.8770     0.6300 H     1 <1>   0.0800 
 45 H      -10.8810    -5.7570    -0.6760 H     1 <1>   0.0800 
 46 H      -11.5670    -4.1370    -0.7120 H     1 <1>   0.0800 
 47 H      -10.7480    -4.7270     0.7440 H     1 <1>   0.0800 
@<TRIPOS>BOND
  1   1   2  1   
  2   2   3  ar  
  3   2   4  ar  
  4   3   5  1   
  5   3   6  ar  
  6   4   7  ar  
  7   4  26  1   
  8   5   8  1   
  9   6   9  ar  
 10   6  27  1   
 11   7   9  ar  
 12   7  28  1   
 13   8  29  1   
 14   8  30  1   
 15   8  31  1   
 16   9  10  1   
 17  10  11  1   
 18  10  12  2   
 19  11  13  1   
 20  12  14  1   
 21  12  15  1   
 22  13  14  2   
 23  14  16  1   
 24  15  17  2   
 25  15  18  am  
 26  16  19  1   
 27  16  20  1   
 28  18  21  1   
 29  18  22  1   
 30  19  32  1   
 31  19  33  1   
 32  19  34  1   
 33  20  35  1   
 34  20  36  1   
 35  20  37  1   
 36  21  23  1   
 37  21  38  1   
 38  21  39  1   
 39  22  40  1   
 40  22  41  1   
 41  22  42  1   
 42  23  24  1   
 43  23  43  1   
 44  23  44  1   
 45  24  25  1   
 46  25  45  1   
 47  25  46  1   
 48  25  47  1   
@<TRIPOS>SUBSTRUCTURE
  1 ****  12 GROUP 4 **** **** 0

# MOE 2024.06 (io_trps.svl 2023.06)
