@<TRIPOS>MOLECULE
NONAME
54 57 1 0 0 
SMALL
USER_CHARGES


@<TRIPOS>ATOM
  1 O       -1.5980    -1.3730     2.1570 O.2   1 <1>  -0.5700 
  2 C       -1.9860    -1.4730     1.0100 C.2   1 <1>   0.5440 
  3 N       -1.4820    -2.5150     0.2490 N.am  1 <1>  -0.6600 
  4 C       -3.0260    -0.5760     0.5260 C.ar  1 <1>   0.3960 
  5 C       -1.1970    -3.8190     0.9500 C.3   1 <1>   0.2200 
  6 C       -1.5000    -2.5120    -1.2500 C.3   1 <1>   0.1400 
  7 N       -4.0850    -1.0930    -0.1290 N.ar  1 <1>  -0.6200 
  8 C       -2.9060     0.7940     0.7730 C.ar  1 <1>   0.1600 
  9 C       -0.0860    -4.6540     0.2930 C.3   1 <1>   0.1200 
 10 C       -2.5120    -4.6280     1.0680 C.3   1 <1>   0.3430 
 11 C       -1.9470    -3.8450    -1.8870 C.3   1 <1>  -0.0800 
 12 C       -4.9490    -0.1610    -0.5030 C.ar  1 <1>   0.1600 
 13 N       -3.7720     1.7140     0.3870 N.ar  1 <1>  -0.6200 
 14 O       -0.6080    -5.4700    -0.7130 O.3   1 <1>  -0.5600 
 15 N       -3.5730    -4.1760     0.0870 N.4   1 <1>  -0.9590 
 16 C       -0.7980    -4.8630    -1.9450 C.3   1 <1>   0.1200 
 17 C       -3.2470    -4.4830    -1.3460 C.3   1 <1>   0.3430 
 18 C       -4.8020     1.2020    -0.2580 C.ar  1 <1>   0.1670 
 19 C       -4.9440    -4.6050     0.4780 C.3   1 <1>   0.3430 
 20 C       -5.8450     2.1960    -0.7300 C.3   1 <1>  -0.0970 
 21 C       -5.0970    -6.1270     0.4600 C.3   1 <1>  -0.1600 
 22 C       -6.5460    -6.5390     0.7640 C.3   1 <1>   0.0960 
 23 N       -6.7260    -7.9800     0.5180 N.pl3 1 <1>   0.3140 
 24 N       -6.5900    -8.4940    -0.7170 N.2   1 <1>  -0.7070 
 25 C       -7.0150    -8.9380     1.4200 C.2   1 <1>  -0.3020 
 26 C       -6.8020    -9.7670    -0.5720 C.2   1 <1>   0.1390 
 27 C       -7.0730   -10.1070     0.7480 C.2   1 <1>  -0.1500 
 28 H       -0.8480    -3.6090     1.9460 H     1 <1>   0.0800 
 29 H       -2.1390    -1.7270    -1.6130 H     1 <1>   0.0800 
 30 H       -0.5080    -2.2730    -1.5960 H     1 <1>   0.0800 
 31 H       -2.0440     1.1340     1.3220 H     1 <1>   0.1500 
 32 H        0.3360    -5.3150     1.0300 H     1 <1>   0.0800 
 33 H        0.7070    -4.0360    -0.0950 H     1 <1>   0.0800 
 34 H       -2.8820    -4.4970     2.0700 H     1 <1>   0.0800 
 35 H       -2.3020    -5.6770     0.9340 H     1 <1>   0.0800 
 36 H       -2.1430    -3.6160    -2.9200 H     1 <1>   0.0800 
 37 H       -5.8260    -0.4870    -1.0350 H     1 <1>   0.1500 
 38 H       -3.5540    -3.1400     0.1390 H     1 <1>   0.4500 
 39 H        0.1270    -4.4100    -2.2610 H     1 <1>   0.0800 
 40 H       -1.0390    -5.6470    -2.6430 H     1 <1>   0.0800 
 41 H       -3.1850    -5.5510    -1.4800 H     1 <1>   0.0800 
 42 H       -4.0630    -4.1320    -1.9560 H     1 <1>   0.0800 
 43 H       -5.1670    -4.2340     1.4660 H     1 <1>   0.0800 
 44 H       -5.6570    -4.1690    -0.2040 H     1 <1>   0.0800 
 45 H       -6.6490     1.7080    -1.2490 H     1 <1>   0.0800 
 46 H       -5.3880     2.9110    -1.3910 H     1 <1>   0.0800 
 47 H       -6.2470     2.7230     0.1160 H     1 <1>   0.0800 
 48 H       -4.4510    -6.5810     1.1900 H     1 <1>   0.0800 
 49 H       -4.8400    -6.5000    -0.5150 H     1 <1>   0.0800 
 50 H       -7.2290    -6.0170     0.1190 H     1 <1>   0.0800 
 51 H       -6.8010    -6.3260     1.7870 H     1 <1>   0.0800 
 52 H       -7.1630    -8.7440     2.4660 H     1 <1>   0.1500 
 53 H       -6.7700   -10.4720    -1.3870 H     1 <1>   0.1500 
 54 H       -7.2800   -11.0950     1.1190 H     1 <1>   0.1500 
@<TRIPOS>BOND
  1   1   2  2   
  2   2   3  am  
  3   2   4  1   
  4   3   5  1   
  5   3   6  1   
  6   4   7  ar  
  7   4   8  ar  
  8   5   9  1   
  9   5  10  1   
 10   5  28  1   
 11   6  11  1   
 12   6  29  1   
 13   6  30  1   
 14   7  12  ar  
 15   8  13  ar  
 16   8  31  1   
 17   9  14  1   
 18   9  32  1   
 19   9  33  1   
 20  10  15  1   
 21  10  34  1   
 22  10  35  1   
 23  11  16  1   
 24  11  17  1   
 25  11  36  1   
 26  12  18  ar  
 27  12  37  1   
 28  13  18  ar  
 29  14  16  1   
 30  15  17  1   
 31  15  19  1   
 32  15  38  1   
 33  16  39  1   
 34  16  40  1   
 35  17  41  1   
 36  17  42  1   
 37  18  20  1   
 38  19  21  1   
 39  19  43  1   
 40  19  44  1   
 41  20  45  1   
 42  20  46  1   
 43  20  47  1   
 44  21  22  1   
 45  21  48  1   
 46  21  49  1   
 47  22  23  1   
 48  22  50  1   
 49  22  51  1   
 50  23  24  1   
 51  23  25  1   
 52  24  26  2   
 53  25  27  2   
 54  25  52  1   
 55  26  27  1   
 56  26  53  1   
 57  27  54  1   
@<TRIPOS>SUBSTRUCTURE
  1 ****  15 GROUP 4 **** **** 0

# MOE 2024.06 (io_trps.svl 2023.06)
