@<TRIPOS>MOLECULE
NONAME
38 39 1 0 0 
SMALL
USER_CHARGES


@<TRIPOS>ATOM
  1 O       -2.9320     1.2720     2.0900 O.co2 1 <1>  -0.9000 
  2 C       -3.8080     1.5320     1.2380 C.2   1 <1>   1.0330 
  3 O       -4.9970     1.3730     1.5800 O.co2 1 <1>  -0.9000 
  4 C       -3.4380     1.6060    -0.1800 C.2   1 <1>   0.0560 
  5 N       -3.6410     2.5540    -1.0820 N.2   1 <1>  -0.7070 
  6 C       -2.7950     0.5140    -0.7780 C.2   1 <1>  -0.1810 
  7 N       -3.1220     2.0860    -2.2240 N.pl3 1 <1>   0.3000 
  8 C       -2.6100     0.8490    -2.0720 C.2   1 <1>  -0.3020 
  9 C       -2.4360    -0.7450    -0.0020 C.3   1 <1>   0.5240 
 10 N       -3.6320    -1.5680     0.3750 N.4   1 <1>  -0.9590 
 11 C       -4.9240    -1.1430    -0.2540 C.3   1 <1>   0.4860 
 12 C       -3.8030    -1.6110     1.8620 C.3   1 <1>   0.2630 
 13 C       -5.8910    -2.3190    -0.2350 C.ar  1 <1>   0.1670 
 14 N       -5.4040    -3.4960    -0.6190 N.ar  1 <1>  -0.6200 
 15 C       -7.1940    -2.1120     0.1880 C.ar  1 <1>  -0.1500 
 16 C       -6.2620    -4.5040    -0.5930 C.ar  1 <1>   0.1670 
 17 C       -8.0760    -3.1700     0.2180 C.ar  1 <1>  -0.1430 
 18 C       -7.5830    -4.3910    -0.1890 C.ar  1 <1>  -0.1500 
 19 C       -5.7210    -5.8450    -1.0430 C.3   1 <1>  -0.0970 
 20 C       -9.5140    -2.9910     0.6720 C.3   1 <1>  -0.0970 
 21 H       -3.1360     2.6380    -3.0910 H     1 <1>   0.2700 
 22 H       -2.1530     0.3050    -2.8790 H     1 <1>   0.1500 
 23 H       -1.9000    -0.4550     0.8880 H     1 <1>   0.0800 
 24 H       -1.7720    -1.3400    -0.6050 H     1 <1>   0.0800 
 25 H       -3.5210    -2.5330     0.0330 H     1 <1>   0.4500 
 26 H       -4.7600    -0.8580    -1.2790 H     1 <1>   0.0800 
 27 H       -5.3530    -0.3060     0.2670 H     1 <1>   0.0800 
 28 H       -4.1190    -0.6540     2.2420 H     1 <1>   0.0800 
 29 H       -2.8760    -1.8740     2.3430 H     1 <1>   0.0800 
 30 H       -4.5520    -2.3390     2.1290 H     1 <1>   0.0800 
 31 H       -7.5150    -1.1300     0.4950 H     1 <1>   0.1500 
 32 H       -8.2240    -5.2540    -0.1940 H     1 <1>   0.1500 
 33 H       -5.3570    -5.7670    -2.0510 H     1 <1>   0.0800 
 34 H       -6.4820    -6.6020    -1.0090 H     1 <1>   0.0800 
 35 H       -4.9100    -6.1400    -0.4030 H     1 <1>   0.0800 
 36 H       -9.5630    -2.2900     1.4870 H     1 <1>   0.0800 
 37 H       -9.9260    -3.9270     1.0040 H     1 <1>   0.0800 
 38 H      -10.1090    -2.6190    -0.1420 H     1 <1>   0.0800 
@<TRIPOS>BOND
  1   1   2  ar  
  2   2   3  ar  
  3   2   4  1   
  4   4   5  2   
  5   4   6  1   
  6   5   7  1   
  7   6   8  2   
  8   6   9  1   
  9   7   8  1   
 10   7  21  1   
 11   8  22  1   
 12   9  10  1   
 13   9  23  1   
 14   9  24  1   
 15  10  11  1   
 16  10  12  1   
 17  10  25  1   
 18  11  13  1   
 19  11  26  1   
 20  11  27  1   
 21  12  28  1   
 22  12  29  1   
 23  12  30  1   
 24  13  14  ar  
 25  13  15  ar  
 26  14  16  ar  
 27  15  17  ar  
 28  15  31  1   
 29  16  18  ar  
 30  16  19  1   
 31  17  18  ar  
 32  17  20  1   
 33  18  32  1   
 34  19  33  1   
 35  19  34  1   
 36  19  35  1   
 37  20  36  1   
 38  20  37  1   
 39  20  38  1   
@<TRIPOS>SUBSTRUCTURE
  1 ****  11 GROUP 4 **** **** 0

# MOE 2024.06 (io_trps.svl 2023.06)
