@<TRIPOS>MOLECULE
NONAME
48 51 1 0 0 
SMALL
USER_CHARGES


@<TRIPOS>ATOM
  1 S       -0.9920    -0.1570    -0.6660 S.3   1 <1>  -0.0800 
  2 C       -2.3310     0.6090     0.1610 C.ar  1 <1>   0.0400 
  3 C        0.0550     1.1610    -0.1510 C.2   1 <1>   0.1980 
  4 C       -1.8620     1.7720     0.7420 C.ar  1 <1>   0.2270 
  5 C       -3.6410     0.1830     0.2560 C.ar  1 <1>  -0.1500 
  6 N       -0.5150     2.0560     0.5460 N.2   1 <1>  -0.5650 
  7 C        1.5010     1.0930    -0.5840 C.3   1 <1>  -0.0600 
  8 C       -2.7600     2.5450     1.4630 C.ar  1 <1>  -0.1500 
  9 C       -4.5510     0.9620     0.9680 C.ar  1 <1>   0.0860 
 10 C       -4.0800     2.1400     1.5720 C.ar  1 <1>  -0.1500 
 11 C       -5.9380     0.5570     1.0850 C.2   1 <1>   0.5440 
 12 O       -6.1890    -0.5650     1.4850 O.2   1 <1>  -0.5700 
 13 N       -6.9770     1.4000     0.7450 N.am  1 <1>  -0.6600 
 14 C       -8.3980     1.0810     1.0950 C.3   1 <1>   0.1400 
 15 C       -6.8290     2.6020    -0.1210 C.3   1 <1>   0.1400 
 16 C       -9.2530     0.8610    -0.1780 C.3   1 <1>   0.0000 
 17 C       -7.6490     2.4220    -1.4040 C.3   1 <1>  -0.1600 
 18 C      -10.7230     0.5790     0.1780 C.3   1 <1>   0.2000 
 19 C       -9.1200     2.0890    -1.1040 C.3   1 <1>  -0.1600 
 20 C       -8.8480    -0.4490    -0.8780 C.3   1 <1>  -0.1600 
 21 O      -11.1640     1.3960     1.2220 O.3   1 <1>  -0.5600 
 22 C      -10.7790    -0.9040     0.5630 C.3   1 <1>  -0.1600 
 23 C       -9.5680    -1.5620    -0.1110 C.3   1 <1>  -0.1600 
 24 C      -12.5440     1.4200     1.4060 C.3   1 <1>   0.0400 
 25 H       -3.9580    -0.7350    -0.2070 H     1 <1>   0.1500 
 26 H        2.0320     1.9490    -0.2100 H     1 <1>   0.0800 
 27 H        1.5600     1.0860    -1.6570 H     1 <1>   0.0800 
 28 H        1.9560     0.2010    -0.1960 H     1 <1>   0.0800 
 29 H       -2.4080     3.4490     1.9280 H     1 <1>   0.1500 
 30 H       -4.7730     2.7360     2.1390 H     1 <1>   0.1500 
 31 H       -8.4450     0.2140     1.7300 H     1 <1>   0.0800 
 32 H       -8.7960     1.9070     1.6580 H     1 <1>   0.0800 
 33 H       -7.1820     3.4640     0.4190 H     1 <1>   0.0800 
 34 H       -5.7990     2.7650    -0.3830 H     1 <1>   0.0800 
 35 H       -7.5980     3.3270    -1.9830 H     1 <1>   0.0800 
 36 H       -7.2070     1.6360    -1.9900 H     1 <1>   0.0800 
 37 H      -11.3350     0.7550    -0.6900 H     1 <1>   0.0800 
 38 H       -9.6470     1.9190    -2.0270 H     1 <1>   0.0800 
 39 H       -9.5770     2.9350    -0.6200 H     1 <1>   0.0800 
 40 H       -9.2040    -0.4420    -1.8940 H     1 <1>   0.0800 
 41 H       -7.7840    -0.6050    -0.8900 H     1 <1>   0.0800 
 42 H      -10.6980    -1.0150     1.6300 H     1 <1>   0.0800 
 43 H      -11.6960    -1.3480     0.2200 H     1 <1>   0.0800 
 44 H       -8.9090    -1.9620     0.6420 H     1 <1>   0.0800 
 45 H       -9.8620    -2.3590    -0.7720 H     1 <1>   0.0800 
 46 H      -12.7600     2.0940     2.2160 H     1 <1>   0.0800 
 47 H      -12.8910     0.4320     1.6570 H     1 <1>   0.0800 
 48 H      -13.0170     1.7710     0.5060 H     1 <1>   0.0800 
@<TRIPOS>BOND
  1   1   2  1   
  2   1   3  1   
  3   2   4  ar  
  4   2   5  ar  
  5   3   6  2   
  6   3   7  1   
  7   4   6  1   
  8   4   8  ar  
  9   5   9  ar  
 10   5  25  1   
 11   7  26  1   
 12   7  27  1   
 13   7  28  1   
 14   8  10  ar  
 15   8  29  1   
 16   9  10  ar  
 17   9  11  1   
 18  10  30  1   
 19  11  12  2   
 20  11  13  am  
 21  13  14  1   
 22  13  15  1   
 23  14  16  1   
 24  14  31  1   
 25  14  32  1   
 26  15  17  1   
 27  15  33  1   
 28  15  34  1   
 29  16  18  1   
 30  16  19  1   
 31  16  20  1   
 32  17  19  1   
 33  17  35  1   
 34  17  36  1   
 35  18  21  1   
 36  18  22  1   
 37  18  37  1   
 38  19  38  1   
 39  19  39  1   
 40  20  23  1   
 41  20  40  1   
 42  20  41  1   
 43  21  24  1   
 44  22  23  1   
 45  22  42  1   
 46  22  43  1   
 47  23  44  1   
 48  23  45  1   
 49  24  46  1   
 50  24  47  1   
 51  24  48  1   
@<TRIPOS>SUBSTRUCTURE
  1 ****  11 GROUP 4 **** **** 0

# MOE 2024.06 (io_trps.svl 2023.06)
