@<TRIPOS>MOLECULE
NONAME
49 52 1 0 0 
SMALL
USER_CHARGES


@<TRIPOS>ATOM
  1 O       -1.3170     1.2520     2.2440 O.2   1 <1>  -0.5700 
  2 C       -2.0640     1.4250     1.2930 C.2   1 <1>   0.5440 
  3 N       -3.2360     0.6840     1.2510 N.am  1 <1>  -0.6600 
  4 C       -1.6930     2.4260     0.2860 C.ar  1 <1>   0.3960 
  5 C       -3.4540    -0.5100     2.1140 C.3   1 <1>   0.1400 
  6 C       -4.3730     0.9510     0.3270 C.3   1 <1>   0.1400 
  7 N       -1.8400     2.1630    -1.0260 N.ar  1 <1>  -0.6200 
  8 C       -1.1740     3.6430     0.7310 C.ar  1 <1>  -0.1500 
  9 C       -3.6430    -1.7450     1.2270 C.3   1 <1>  -0.1600 
 10 C       -4.5540    -0.2530    -0.6000 C.3   1 <1>  -0.1600 
 11 C       -1.4890     3.1120    -1.8630 C.ar  1 <1>   0.4100 
 12 C       -0.8050     4.6300    -0.1590 C.ar  1 <1>  -0.1500 
 13 C       -4.7700    -1.5570     0.1950 C.3   1 <1>   0.4240 
 14 N       -1.6610     2.7890    -3.1680 N.pl3 1 <1>  -0.9000 
 15 C       -0.9740     4.3460    -1.4910 C.ar  1 <1>  -0.1500 
 16 O       -5.9210    -1.3620     0.9910 O.3   1 <1>  -0.5600 
 17 C       -4.9190    -2.8060    -0.7230 C.ar  1 <1>  -0.1430 
 18 C       -7.1610    -1.5940     0.4090 C.3   1 <1>   0.1200 
 19 C       -3.8840    -3.2430    -1.5620 C.ar  1 <1>   0.0830 
 20 C       -6.1120    -3.5280    -0.7270 C.ar  1 <1>  -0.1430 
 21 C       -7.2770    -3.0850     0.1340 C.3   1 <1>  -0.0170 
 22 O       -2.7220    -2.5380    -1.5940 O.3   1 <1>  -0.3620 
 23 C       -4.0510    -4.3790    -2.3520 C.ar  1 <1>  -0.1500 
 24 C       -6.2660    -4.6570    -1.5140 C.ar  1 <1>  -0.1500 
 25 C       -1.5780    -2.9740    -2.2940 C.3   1 <1>   0.0400 
 26 C       -5.2360    -5.0850    -2.3260 C.ar  1 <1>  -0.1500 
 27 H       -4.3290    -0.3520     2.7210 H     1 <1>   0.0800 
 28 H       -2.6170    -0.6670     2.7720 H     1 <1>   0.0800 
 29 H       -4.2080     1.8420    -0.2510 H     1 <1>   0.0800 
 30 H       -5.2660     1.1020     0.9090 H     1 <1>   0.0800 
 31 H       -1.0610     3.8040     1.7880 H     1 <1>   0.1500 
 32 H       -3.8640    -2.6010     1.8360 H     1 <1>   0.0800 
 33 H       -2.7070    -1.9340     0.7410 H     1 <1>   0.0800 
 34 H       -3.6730    -0.3260    -1.2060 H     1 <1>   0.0800 
 35 H       -5.3760    -0.0850    -1.2680 H     1 <1>   0.0800 
 36 H       -0.4060     5.5720     0.1770 H     1 <1>   0.1500 
 37 H       -0.9340     3.0880    -3.8160 H     1 <1>   0.4000 
 38 H       -1.9190     1.8070    -3.2870 H     1 <1>   0.4000 
 39 H       -0.7180     5.0630    -2.2470 H     1 <1>   0.1500 
 40 H       -7.2460    -1.0210    -0.4970 H     1 <1>   0.0800 
 41 H       -7.9180    -1.2770     1.1040 H     1 <1>   0.0800 
 42 H       -8.2080    -3.2790    -0.3670 H     1 <1>   0.0800 
 43 H       -7.2700    -3.6240     1.0640 H     1 <1>   0.0800 
 44 H       -3.2720    -4.7320    -2.9980 H     1 <1>   0.1500 
 45 H       -7.1900    -5.2080    -1.5000 H     1 <1>   0.1500 
 46 H       -0.7860    -2.2720    -2.1030 H     1 <1>   0.0800 
 47 H       -1.8000    -2.9980    -3.3460 H     1 <1>   0.0800 
 48 H       -1.2980    -3.9470    -1.9330 H     1 <1>   0.0800 
 49 H       -5.3590    -5.9630    -2.9360 H     1 <1>   0.1500 
@<TRIPOS>BOND
  1   1   2  2   
  2   2   3  am  
  3   2   4  1   
  4   3   5  1   
  5   3   6  1   
  6   4   7  ar  
  7   4   8  ar  
  8   5   9  1   
  9   5  27  1   
 10   5  28  1   
 11   6  10  1   
 12   6  29  1   
 13   6  30  1   
 14   7  11  ar  
 15   8  12  ar  
 16   8  31  1   
 17   9  13  1   
 18   9  32  1   
 19   9  33  1   
 20  10  13  1   
 21  10  34  1   
 22  10  35  1   
 23  11  14  1   
 24  11  15  ar  
 25  12  15  ar  
 26  12  36  1   
 27  13  16  1   
 28  13  17  1   
 29  14  37  1   
 30  14  38  1   
 31  15  39  1   
 32  16  18  1   
 33  17  19  ar  
 34  17  20  ar  
 35  18  21  1   
 36  18  40  1   
 37  18  41  1   
 38  19  22  1   
 39  19  23  ar  
 40  20  21  1   
 41  20  24  ar  
 42  21  42  1   
 43  21  43  1   
 44  22  25  1   
 45  23  26  ar  
 46  23  44  1   
 47  24  26  ar  
 48  24  45  1   
 49  25  46  1   
 50  25  47  1   
 51  25  48  1   
 52  26  49  1   
@<TRIPOS>SUBSTRUCTURE
  1 ****  10 GROUP 4 **** **** 0

# MOE 2024.06 (io_trps.svl 2023.06)
