@<TRIPOS>MOLECULE
NONAME
45 47 1 0 0 
SMALL
USER_CHARGES


@<TRIPOS>ATOM
  1 O        0.6960    -1.5540     0.7590 O.3   1 <1>  -0.5600 
  2 C        0.1250    -2.3500    -0.2580 C.3   1 <1>   0.4180 
  3 C        0.5670    -0.1600     0.6360 C.3   1 <1>   0.1200 
  4 C       -1.2180    -1.7860    -0.7020 C.2   1 <1>  -0.2880 
  5 C       -0.0670    -3.7440     0.3550 C.3   1 <1>  -0.1600 
  6 C        1.1190    -2.4510    -1.4200 C.3   1 <1>  -0.1600 
  7 C       -0.9100     0.2530     0.6660 C.3   1 <1>  -0.0220 
  8 C       -1.7110    -0.6190    -0.2830 C.2   1 <1>  -0.2760 
  9 C        1.2390    -4.5280     0.5370 C.3   1 <1>   0.3430 
 10 C        2.4780    -3.0210    -0.9910 C.3   1 <1>   0.3430 
 11 C       -3.0670    -0.0650    -0.6840 C.3   1 <1>  -0.1020 
 12 N        2.4010    -3.6160     0.3790 N.4   1 <1>  -0.9590 
 13 C        3.6860    -4.1660     0.8900 C.3   1 <1>   0.4810 
 14 C        4.7390    -3.0620     0.8750 C.2   1 <1>  -0.0380 
 15 N        5.7500    -3.0680    -0.0620 N.pl3 1 <1>  -0.5500 
 16 C        4.7270    -2.0250     1.7450 C.2   1 <1>  -0.1360 
 17 C        6.6810    -2.0670    -0.1000 C.2   1 <1>   0.4390 
 18 C        5.7080    -1.0050     1.6550 C.2   1 <1>   0.7670 
 19 N        6.6820    -1.0680     0.6980 N.2   1 <1>  -0.6610 
 20 C        7.7520    -2.1780    -1.1570 C.3   1 <1>  -0.1790 
 21 O        5.6790    -0.0550     2.4160 O.2   1 <1>  -0.5700 
 22 H        1.0210     0.1500    -0.2880 H     1 <1>   0.0800 
 23 H        1.0960     0.2990     1.4530 H     1 <1>   0.0800 
 24 H       -1.7460    -2.4260    -1.3860 H     1 <1>   0.1500 
 25 H       -0.7150    -4.3260    -0.2740 H     1 <1>   0.0800 
 26 H       -0.5690    -3.6410     1.3010 H     1 <1>   0.0800 
 27 H        1.2540    -1.4890    -1.8800 H     1 <1>   0.0800 
 28 H        0.7020    -3.0910    -2.1760 H     1 <1>   0.0800 
 29 H       -0.9820     1.2860     0.3740 H     1 <1>   0.0800 
 30 H       -1.2990     0.1610     1.6650 H     1 <1>   0.0800 
 31 H        1.2940    -5.3150    -0.1980 H     1 <1>   0.0800 
 32 H        1.2460    -4.9780     1.5170 H     1 <1>   0.0800 
 33 H        3.2020    -2.2220    -0.9890 H     1 <1>   0.0800 
 34 H        2.7990    -3.7630    -1.7050 H     1 <1>   0.0800 
 35 H       -3.6790     0.0850     0.1880 H     1 <1>   0.0800 
 36 H       -3.5760    -0.7460    -1.3430 H     1 <1>   0.0800 
 37 H       -2.9510     0.8760    -1.1930 H     1 <1>   0.0800 
 38 H        2.1520    -2.7990     0.9720 H     1 <1>   0.4500 
 39 H        4.0080    -4.9960     0.2840 H     1 <1>   0.0800 
 40 H        3.5550    -4.5130     1.9020 H     1 <1>   0.0800 
 41 H        5.8860    -3.8320    -0.7310 H     1 <1>   0.4000 
 42 H        4.0010    -1.9020     2.5250 H     1 <1>   0.1500 
 43 H        8.3210    -3.0770    -1.0130 H     1 <1>   0.0800 
 44 H        8.4210    -1.3380    -1.0900 H     1 <1>   0.0800 
 45 H        7.3090    -2.1830    -2.1360 H     1 <1>   0.0800 
@<TRIPOS>BOND
  1   1   2  1   
  2   1   3  1   
  3   2   4  1   
  4   2   5  1   
  5   2   6  1   
  6   3   7  1   
  7   3  22  1   
  8   3  23  1   
  9   4   8  2   
 10   4  24  1   
 11   5   9  1   
 12   5  25  1   
 13   5  26  1   
 14   6  10  1   
 15   6  27  1   
 16   6  28  1   
 17   7   8  1   
 18   7  29  1   
 19   7  30  1   
 20   8  11  1   
 21   9  12  1   
 22   9  31  1   
 23   9  32  1   
 24  10  12  1   
 25  10  33  1   
 26  10  34  1   
 27  11  35  1   
 28  11  36  1   
 29  11  37  1   
 30  12  13  1   
 31  12  38  1   
 32  13  14  1   
 33  13  39  1   
 34  13  40  1   
 35  14  15  1   
 36  14  16  2   
 37  15  17  1   
 38  15  41  1   
 39  16  18  1   
 40  16  42  1   
 41  17  19  2   
 42  17  20  1   
 43  18  19  1   
 44  18  21  2   
 45  20  43  1   
 46  20  44  1   
 47  20  45  1   
@<TRIPOS>SUBSTRUCTURE
  1 ****  12 GROUP 4 **** **** 0

# MOE 2024.06 (io_trps.svl 2023.06)
