@<TRIPOS>MOLECULE
NONAME
49 52 1 0 0 
SMALL
USER_CHARGES


@<TRIPOS>ATOM
  1 O        1.4360    -0.6750     1.7320 O.2   1 <1>  -0.5700 
  2 C        1.8750     0.0460     0.8490 C.2   1 <1>   0.5440 
  3 N        1.2880     1.2750     0.6500 N.am  1 <1>  -0.6600 
  4 C        2.9680    -0.4040     0.0220 C.ar  1 <1>   0.0860 
  5 C        0.1420     1.7570     1.4540 C.3   1 <1>   0.1400 
  6 C        1.4020     2.0400    -0.6140 C.3   1 <1>   0.1400 
  7 C        2.8530    -1.5920    -0.7200 C.ar  1 <1>   0.4100 
  8 C        4.1500     0.3160    -0.0800 C.ar  1 <1>  -0.1500 
  9 C       -0.6560     2.6390     0.5020 C.3   1 <1>  -0.1600 
 10 C        0.3750     3.1610    -0.4930 C.3   1 <1>  -0.1600 
 11 N        3.7980    -2.0520    -1.5360 N.ar  1 <1>  -0.6200 
 12 N        1.7120    -2.3410    -0.6130 N.pl3 1 <1>  -0.8690 
 13 C        5.1320    -0.1660    -0.9160 C.ar  1 <1>  -0.1500 
 14 C        4.9040    -1.3390    -1.6150 C.ar  1 <1>   0.1600 
 15 C        1.4770    -3.7010    -1.1610 C.3   1 <1>   0.5280 
 16 C        0.0830    -3.8620    -1.8200 C.ar  1 <1>   0.1670 
 17 C        1.6930    -4.7680    -0.0630 C.3   1 <1>  -0.1950 
 18 N        0.1090    -4.5870    -2.9410 N.ar  1 <1>  -0.6200 
 19 C       -1.1030    -3.3210    -1.2980 C.ar  1 <1>  -0.1430 
 20 C        1.5570    -4.5320     1.4160 C.3   1 <1>  -0.2000 
 21 C        2.9090    -4.7830     0.8160 C.3   1 <1>  -0.2000 
 22 C       -1.0370    -4.7670    -3.5680 C.ar  1 <1>   0.1600 
 23 C       -2.2880    -3.5270    -1.9790 C.ar  1 <1>  -0.1500 
 24 C       -1.1960    -2.5060    -0.0110 C.3   1 <1>  -0.0970 
 25 C       -2.2480    -4.2650    -3.1380 C.ar  1 <1>  -0.1500 
 26 H        0.5160     2.3340     2.2820 H     1 <1>   0.0800 
 27 H       -0.4530     0.9390     1.8250 H     1 <1>   0.0800 
 28 H        1.1570     1.3950    -1.4410 H     1 <1>   0.0800 
 29 H        2.3950     2.4350    -0.7410 H     1 <1>   0.0800 
 30 H        4.2860     1.2220     0.4830 H     1 <1>   0.1500 
 31 H       -1.1660     3.4300     1.0220 H     1 <1>   0.0800 
 32 H       -1.3820     2.0300    -0.0090 H     1 <1>   0.0800 
 33 H       -0.0610     3.4080    -1.4450 H     1 <1>   0.0800 
 34 H        0.8580     4.0350    -0.0920 H     1 <1>   0.0800 
 35 H        1.1850    -2.1880     0.2510 H     1 <1>   0.4000 
 36 H        6.0650     0.3560    -1.0300 H     1 <1>   0.1500 
 37 H        5.6740    -1.7090    -2.2710 H     1 <1>   0.1500 
 38 H        2.2010    -3.8890    -1.9350 H     1 <1>   0.0800 
 39 H        1.3840    -5.7320    -0.4290 H     1 <1>   0.1000 
 40 H        1.1070    -5.3020     2.0190 H     1 <1>   0.1000 
 41 H        1.3880    -3.5490     1.8210 H     1 <1>   0.1000 
 42 H        3.6060    -3.9640     0.7540 H     1 <1>   0.1000 
 43 H        3.3980    -5.7230     1.0040 H     1 <1>   0.1000 
 44 H       -1.0090    -5.3460    -4.4740 H     1 <1>   0.1500 
 45 H       -3.2220    -3.1270    -1.6230 H     1 <1>   0.1500 
 46 H       -0.6580    -2.9870     0.7830 H     1 <1>   0.0800 
 47 H       -2.2160    -2.4040     0.3100 H     1 <1>   0.0800 
 48 H       -0.7970    -1.5190    -0.1670 H     1 <1>   0.0800 
 49 H       -3.1430    -4.4510    -3.7020 H     1 <1>   0.1500 
@<TRIPOS>BOND
  1   1   2  2   
  2   2   3  am  
  3   2   4  1   
  4   3   5  1   
  5   3   6  1   
  6   4   7  ar  
  7   4   8  ar  
  8   5   9  1   
  9   5  26  1   
 10   5  27  1   
 11   6  10  1   
 12   6  28  1   
 13   6  29  1   
 14   7  11  ar  
 15   7  12  1   
 16   8  13  ar  
 17   8  30  1   
 18   9  10  1   
 19   9  31  1   
 20   9  32  1   
 21  10  33  1   
 22  10  34  1   
 23  11  14  ar  
 24  12  15  1   
 25  12  35  1   
 26  13  14  ar  
 27  13  36  1   
 28  14  37  1   
 29  15  16  1   
 30  15  17  1   
 31  15  38  1   
 32  16  18  ar  
 33  16  19  ar  
 34  17  20  1   
 35  17  21  1   
 36  17  39  1   
 37  18  22  ar  
 38  19  23  ar  
 39  19  24  1   
 40  20  21  1   
 41  20  40  1   
 42  20  41  1   
 43  21  42  1   
 44  21  43  1   
 45  22  25  ar  
 46  22  44  1   
 47  23  25  ar  
 48  23  45  1   
 49  24  46  1   
 50  24  47  1   
 51  24  48  1   
 52  25  49  1   
@<TRIPOS>SUBSTRUCTURE
  1 ****  12 GROUP 4 **** **** 0

# MOE 2024.06 (io_trps.svl 2023.06)
