@<TRIPOS>MOLECULE
NONAME
29 29 1 0 0 
SMALL
USER_CHARGES


@<TRIPOS>ATOM
  1 O       -1.0920     0.4220    -1.5210 O.2   1 <1>  -0.5700 
  2 C       -1.4700     1.0210    -0.5340 C.2   1 <1>   0.6340 
  3 O       -2.0050     0.3180     0.4720 O.3   1 <1>  -0.4300 
  4 C       -1.3760     2.4630    -0.3900 C.ar  1 <1>   0.0860 
  5 C       -2.1370    -1.0880     0.4130 C.3   1 <1>   0.0400 
  6 C       -0.8350     3.2530    -1.4070 C.ar  1 <1>  -0.1500 
  7 C       -1.8150     3.1270     0.7580 C.ar  1 <1>  -0.1500 
  8 C       -0.7400     4.6280    -1.2870 C.ar  1 <1>  -0.1500 
  9 C       -1.7220     4.5010     0.8800 C.ar  1 <1>  -0.1500 
 10 C       -1.1840     5.2670    -0.1410 C.ar  1 <1>  -0.1440 
 11 C       -1.0880     6.7940    -0.0180 C.3   1 <1>  -0.0430 
 12 C       -0.4240     7.2620     1.2850 C.2   1 <1>   0.9060 
 13 C       -2.4840     7.4140    -0.2510 C.3   1 <1>  -0.1600 
 14 O       -1.0490     7.2100     2.3550 O.co2 1 <1>  -0.9000 
 15 O        0.7250     7.7210     1.2280 O.co2 1 <1>  -0.9000 
 16 C       -2.4390     8.9430    -0.3680 C.3   1 <1>  -0.2400 
 17 H       -2.5890    -1.4270     1.3280 H     1 <1>   0.0800 
 18 H       -1.1600    -1.5250     0.2970 H     1 <1>   0.0800 
 19 H       -2.7600    -1.3440    -0.4270 H     1 <1>   0.0800 
 20 H       -0.4820     2.7790    -2.3060 H     1 <1>   0.1500 
 21 H       -2.2350     2.5660     1.5740 H     1 <1>   0.1500 
 22 H       -0.3150     5.2050    -2.0890 H     1 <1>   0.1500 
 23 H       -2.0640     4.9860     1.7810 H     1 <1>   0.1500 
 24 H       -0.4470     7.1450    -0.8040 H     1 <1>   0.0800 
 25 H       -3.1250     7.1410     0.5710 H     1 <1>   0.0800 
 26 H       -2.9050     7.0030    -1.1510 H     1 <1>   0.0800 
 27 H       -2.0680     9.3730     0.5470 H     1 <1>   0.0800 
 28 H       -3.4250     9.3290    -0.5510 H     1 <1>   0.0800 
 29 H       -1.7910     9.2400    -1.1740 H     1 <1>   0.0800 
@<TRIPOS>BOND
  1   1   2  2   
  2   2   3  1   
  3   2   4  1   
  4   3   5  1   
  5   4   6  ar  
  6   4   7  ar  
  7   5  17  1   
  8   5  18  1   
  9   5  19  1   
 10   6   8  ar  
 11   6  20  1   
 12   7   9  ar  
 13   7  21  1   
 14   8  10  ar  
 15   8  22  1   
 16   9  10  ar  
 17   9  23  1   
 18  10  11  1   
 19  11  12  1   
 20  11  13  1   
 21  11  24  1   
 22  12  14  ar  
 23  12  15  ar  
 24  13  16  1   
 25  13  25  1   
 26  13  26  1   
 27  16  27  1   
 28  16  28  1   
 29  16  29  1   
@<TRIPOS>SUBSTRUCTURE
  1 ****   9 GROUP 4 **** **** 0

# MOE 2024.06 (io_trps.svl 2023.06)
