@<TRIPOS>MOLECULE
NONAME
41 42 1 0 0 
SMALL
USER_CHARGES


@<TRIPOS>ATOM
  1 F       -0.0730     2.6940     0.1300 F     1 <1>  -0.3400 
  2 C        0.2290     1.8820    -0.8750 C.3   1 <1>   1.3000 
  3 F       -0.2980     2.3910    -1.9760 F     1 <1>  -0.3400 
  4 F       -0.3280     0.7000    -0.6550 F     1 <1>  -0.3400 
  5 O        1.6380     1.7880    -1.0250 O.3   1 <1>  -0.3630 
  6 C        2.3620     1.3820     0.0430 C.ar  1 <1>   0.0830 
  7 C        3.0910     2.3110     0.7790 C.ar  1 <1>  -0.1440 
  8 C        2.3970     0.0370     0.3790 C.ar  1 <1>  -0.1500 
  9 C        3.8250     1.8800     1.8760 C.ar  1 <1>  -0.1500 
 10 C        3.0970     3.7780     0.3960 C.3   1 <1>   0.4870 
 11 C        3.1380    -0.3820     1.4680 C.ar  1 <1>  -0.1500 
 12 C        3.8470     0.5390     2.2180 C.ar  1 <1>  -0.1500 
 13 N        4.3780     4.0850    -0.3070 N.4   1 <1>  -0.9590 
 14 C        4.6110     5.5680    -0.3980 C.3   1 <1>   0.3430 
 15 C        4.3840     3.4540    -1.6580 C.3   1 <1>   0.3430 
 16 C        5.0160     6.2010     0.9390 C.3   1 <1>   0.0960 
 17 C        5.8140     3.3700    -2.1790 C.3   1 <1>  -0.2400 
 18 N        5.0480     7.6570     0.7640 N.pl3 1 <1>   0.3140 
 19 N        4.1320     8.2800     0.0030 N.2   1 <1>  -0.7070 
 20 C        5.9250     8.5290     1.2930 C.2   1 <1>  -0.3020 
 21 C        4.4470     9.5390     0.0700 C.2   1 <1>   0.1390 
 22 C        5.5650     9.7570     0.8640 C.2   1 <1>  -0.1500 
 23 H        1.8520    -0.6880    -0.2020 H     1 <1>   0.1500 
 24 H        4.3850     2.5730     2.4810 H     1 <1>   0.1500 
 25 H        3.0090     4.3700     1.2920 H     1 <1>   0.0800 
 26 H        2.2570     4.0060    -0.2400 H     1 <1>   0.0800 
 27 H        3.1610    -1.4260     1.7350 H     1 <1>   0.1500 
 28 H        4.4160     0.2060     3.0710 H     1 <1>   0.1500 
 29 H        5.1300     3.6310     0.2270 H     1 <1>   0.4500 
 30 H        3.7120     6.0450    -0.7560 H     1 <1>   0.0800 
 31 H        5.3930     5.7730    -1.1100 H     1 <1>   0.0800 
 32 H        3.7680     4.0180    -2.3410 H     1 <1>   0.0800 
 33 H        3.9870     2.4520    -1.5980 H     1 <1>   0.0800 
 34 H        5.9920     5.8670     1.2380 H     1 <1>   0.0800 
 35 H        4.2990     5.9840     1.7070 H     1 <1>   0.0800 
 36 H        6.2350     4.3430    -2.3500 H     1 <1>   0.0800 
 37 H        5.8100     2.8500    -3.1210 H     1 <1>   0.0800 
 38 H        6.4370     2.8140    -1.5010 H     1 <1>   0.0800 
 39 H        6.7400     8.2460     1.9350 H     1 <1>   0.1500 
 40 H        3.8990    10.3190    -0.4350 H     1 <1>   0.1500 
 41 H        6.0190    10.7110     1.0730 H     1 <1>   0.1500 
@<TRIPOS>BOND
  1   1   2  1   
  2   2   3  1   
  3   2   4  1   
  4   2   5  1   
  5   5   6  1   
  6   6   7  ar  
  7   6   8  ar  
  8   7   9  ar  
  9   7  10  1   
 10   8  11  ar  
 11   8  23  1   
 12   9  12  ar  
 13   9  24  1   
 14  10  13  1   
 15  10  25  1   
 16  10  26  1   
 17  11  12  ar  
 18  11  27  1   
 19  12  28  1   
 20  13  14  1   
 21  13  15  1   
 22  13  29  1   
 23  14  16  1   
 24  14  30  1   
 25  14  31  1   
 26  15  17  1   
 27  15  32  1   
 28  15  33  1   
 29  16  18  1   
 30  16  34  1   
 31  16  35  1   
 32  17  36  1   
 33  17  37  1   
 34  17  38  1   
 35  18  19  1   
 36  18  20  1   
 37  19  21  2   
 38  20  22  2   
 39  20  39  1   
 40  21  22  1   
 41  21  40  1   
 42  22  41  1   
@<TRIPOS>SUBSTRUCTURE
  1 ****  10 GROUP 4 **** **** 0

# MOE 2024.06 (io_trps.svl 2023.06)
