@<TRIPOS>MOLECULE
NONAME
40 42 1 0 0 
SMALL
USER_CHARGES


@<TRIPOS>ATOM
  1 CL       0.3100     0.2860    -0.3660 Cl    1 <1>  -0.1770 
  2 C        0.3140     1.9830     0.0350 C.ar  1 <1>   0.1770 
  3 C       -0.6180     2.8190    -0.5450 C.ar  1 <1>  -0.1500 
  4 C        1.2500     2.4650     0.9270 C.ar  1 <1>  -0.1500 
  5 C       -0.6220     4.1730    -0.2400 C.ar  1 <1>  -0.1440 
  6 C        1.2530     3.8140     1.2350 C.ar  1 <1>  -0.1500 
  7 C        0.3270     4.6730     0.6520 C.ar  1 <1>  -0.1430 
  8 C       -1.6760     5.0600    -0.8930 C.3   1 <1>  -0.0960 
  9 C        0.3880     6.1520     0.9980 C.3   1 <1>   0.4870 
 10 N        1.6490     6.7160     0.4470 N.4   1 <1>  -0.9590 
 11 C        1.9630     8.0880     0.9900 C.3   1 <1>   0.3430 
 12 C        1.7620     6.5400    -1.0420 C.3   1 <1>   0.3430 
 13 C        3.3980     8.6060     0.6850 C.3   1 <1>   0.2200 
 14 C        3.1860     6.7190    -1.5870 C.3   1 <1>  -0.0190 
 15 N        3.5110     9.0110    -0.7350 N.am  1 <1>  -0.7300 
 16 C        4.5150     7.5940     1.0470 C.3   1 <1>   0.1200 
 17 C        3.4320     8.1890    -1.7950 C.2   1 <1>   0.5690 
 18 C        4.3290     6.0570    -0.7850 C.3   1 <1>   0.1200 
 19 O        4.2430     6.2900     0.5970 O.3   1 <1>  -0.5600 
 20 O        3.5220     8.6230    -2.9100 O.2   1 <1>  -0.5700 
 21 H       -1.3340     2.3970    -1.2290 H     1 <1>   0.1500 
 22 H        1.9610     1.7890     1.3690 H     1 <1>   0.1500 
 23 H        1.9870     4.1770     1.9360 H     1 <1>   0.1500 
 24 H       -2.3060     4.4850    -1.5490 H     1 <1>   0.0800 
 25 H       -1.2150     5.8350    -1.4760 H     1 <1>   0.0800 
 26 H       -2.3060     5.5040    -0.1420 H     1 <1>   0.0800 
 27 H        0.3700     6.2620     2.0700 H     1 <1>   0.0800 
 28 H       -0.4610     6.6720     0.5880 H     1 <1>   0.0800 
 29 H        2.4220     6.1180     0.8030 H     1 <1>   0.4500 
 30 H        1.2520     8.8020     0.6110 H     1 <1>   0.0800 
 31 H        1.8530     8.0600     2.0620 H     1 <1>   0.0800 
 32 H        1.4480     5.5410    -1.2980 H     1 <1>   0.0800 
 33 H        1.1000     7.2260    -1.5450 H     1 <1>   0.0800 
 34 H        3.5590     9.4930     1.2750 H     1 <1>   0.0800 
 35 H        3.2010     6.2790    -2.5680 H     1 <1>   0.0800 
 36 H        3.7340     9.9910    -0.9440 H     1 <1>   0.3700 
 37 H        4.6040     7.5360     2.1180 H     1 <1>   0.0800 
 38 H        5.4660     7.9120     0.6550 H     1 <1>   0.0800 
 39 H        5.2910     6.3960    -1.1350 H     1 <1>   0.0800 
 40 H        4.2860     4.9900    -0.9210 H     1 <1>   0.0800 
@<TRIPOS>BOND
  1   1   2  1   
  2   2   3  ar  
  3   2   4  ar  
  4   3   5  ar  
  5   3  21  1   
  6   4   6  ar  
  7   4  22  1   
  8   5   7  ar  
  9   5   8  1   
 10   6   7  ar  
 11   6  23  1   
 12   7   9  1   
 13   8  24  1   
 14   8  25  1   
 15   8  26  1   
 16   9  10  1   
 17   9  27  1   
 18   9  28  1   
 19  10  11  1   
 20  10  12  1   
 21  10  29  1   
 22  11  13  1   
 23  11  30  1   
 24  11  31  1   
 25  12  14  1   
 26  12  32  1   
 27  12  33  1   
 28  13  15  1   
 29  13  16  1   
 30  13  34  1   
 31  14  17  1   
 32  14  18  1   
 33  14  35  1   
 34  15  17  am  
 35  15  36  1   
 36  16  19  1   
 37  16  37  1   
 38  16  38  1   
 39  17  20  2   
 40  18  19  1   
 41  18  39  1   
 42  18  40  1   
@<TRIPOS>SUBSTRUCTURE
  1 ****  10 GROUP 4 **** **** 0

# MOE 2024.06 (io_trps.svl 2023.06)
