@<TRIPOS>MOLECULE
NONAME
48 50 1 0 0 
SMALL
USER_CHARGES


@<TRIPOS>ATOM
  1 S       -0.3310     0.1990    -2.0410 S.3   1 <1>  -0.0800 
  2 C        0.9860    -0.7170    -1.3270 C.2   1 <1>  -0.1400 
  3 C        0.4860     1.7160    -1.7280 C.2   1 <1>  -0.1100 
  4 C        1.9460     0.1180    -0.8810 C.2   1 <1>  -0.1500 
  5 C        0.8740    -2.2330    -1.3400 C.3   1 <1>   0.5230 
  6 C        1.6670     1.5100    -1.1140 C.2   1 <1>  -0.1810 
  7 N       -0.3630    -2.6320    -0.6170 N.4   1 <1>  -0.8520 
  8 C        2.6430     2.6110    -0.7310 C.3   1 <1>   0.5240 
  9 C       -0.2120    -3.6840     0.4240 C.3   1 <1>   0.2960 
 10 C       -1.4390    -2.9980    -1.5780 C.3   1 <1>   0.4860 
 11 N        2.6300     2.7930     0.7480 N.4   1 <1>  -0.9590 
 12 C        1.0110    -3.7650     1.2740 C.3   1 <1>  -0.2000 
 13 C        0.7430    -4.8140     0.2310 C.3   1 <1>  -0.2000 
 14 C       -2.7670    -3.0050    -0.8450 C.ar  1 <1>  -0.1430 
 15 C        1.3200     3.3440     1.2220 C.3   1 <1>   0.2630 
 16 C        3.7600     3.6670     1.1940 C.3   1 <1>   0.2630 
 17 C       -3.3340    -4.2090    -0.4460 C.ar  1 <1>  -0.1500 
 18 C       -3.4230    -1.8110    -0.5660 C.ar  1 <1>  -0.1500 
 19 C       -4.5350    -4.2170     0.2400 C.ar  1 <1>  -0.1500 
 20 C       -4.6250    -1.8190     0.1180 C.ar  1 <1>  -0.1500 
 21 C       -5.1750    -3.0250     0.5220 C.ar  1 <1>   0.0830 
 22 O       -6.3370    -3.0530     1.1890 O.3   1 <1>  -0.5330 
 23 H       -0.0170     2.6120    -2.0580 H     1 <1>   0.1500 
 24 H        2.8650    -0.1930    -0.4090 H     1 <1>   0.1500 
 25 H        1.7440    -2.6510    -0.8660 H     1 <1>   0.0800 
 26 H        0.8470    -2.5900    -2.3570 H     1 <1>   0.0800 
 27 H       -0.7000    -1.7910    -0.1370 H     1 <1>   0.4500 
 28 H        2.3640     3.5320    -1.2160 H     1 <1>   0.0800 
 29 H        3.6320     2.3400    -1.0650 H     1 <1>   0.0800 
 30 H       -1.1480    -3.9020     0.9200 H     1 <1>   0.1000 
 31 H       -1.2470    -3.9700    -2.0010 H     1 <1>   0.0800 
 32 H       -1.4870    -2.2800    -2.3800 H     1 <1>   0.0800 
 33 H        2.7510     1.8590     1.1640 H     1 <1>   0.4500 
 34 H        0.9020    -4.0560     2.3060 H     1 <1>   0.1000 
 35 H        1.8410    -3.0960     1.1350 H     1 <1>   0.1000 
 36 H        1.3930    -4.8630    -0.6240 H     1 <1>   0.1000 
 37 H        0.4600    -5.7940     0.5770 H     1 <1>   0.1000 
 38 H        1.1450     4.3190     0.7970 H     1 <1>   0.0800 
 39 H        1.3170     3.4330     2.2970 H     1 <1>   0.0800 
 40 H        0.5110     2.6920     0.9320 H     1 <1>   0.0800 
 41 H        3.6640     4.6530     0.7690 H     1 <1>   0.0800 
 42 H        4.7050     3.2490     0.8850 H     1 <1>   0.0800 
 43 H        3.7620     3.7570     2.2690 H     1 <1>   0.0800 
 44 H       -2.8570    -5.1500    -0.6610 H     1 <1>   0.1500 
 45 H       -3.0150    -0.8660    -0.8800 H     1 <1>   0.1500 
 46 H       -4.9870    -5.1420     0.5570 H     1 <1>   0.1500 
 47 H       -5.1320    -0.8950     0.3330 H     1 <1>   0.1500 
 48 H       -6.7370    -2.1750     1.3220 H     1 <1>   0.4500 
@<TRIPOS>BOND
  1   1   2  1   
  2   1   3  1   
  3   2   4  2   
  4   2   5  1   
  5   3   6  2   
  6   3  23  1   
  7   4   6  1   
  8   4  24  1   
  9   5   7  1   
 10   5  25  1   
 11   5  26  1   
 12   6   8  1   
 13   7   9  1   
 14   7  10  1   
 15   7  27  1   
 16   8  11  1   
 17   8  28  1   
 18   8  29  1   
 19   9  12  1   
 20   9  13  1   
 21   9  30  1   
 22  10  14  1   
 23  10  31  1   
 24  10  32  1   
 25  11  15  1   
 26  11  16  1   
 27  11  33  1   
 28  12  13  1   
 29  12  34  1   
 30  12  35  1   
 31  13  36  1   
 32  13  37  1   
 33  14  17  ar  
 34  14  18  ar  
 35  15  38  1   
 36  15  39  1   
 37  15  40  1   
 38  16  41  1   
 39  16  42  1   
 40  16  43  1   
 41  17  19  ar  
 42  17  44  1   
 43  18  20  ar  
 44  18  45  1   
 45  19  21  ar  
 46  19  46  1   
 47  20  21  ar  
 48  20  47  1   
 49  21  22  1   
 50  22  48  1   
@<TRIPOS>SUBSTRUCTURE
  1 ****   7 GROUP 4 **** **** 0

# MOE 2024.06 (io_trps.svl 2023.06)
