@<TRIPOS>MOLECULE
NONAME
47 50 1 0 0 
SMALL
USER_CHARGES


@<TRIPOS>ATOM
  1 S       -0.1950     0.4210    -0.7810 S.o2  1 <1>   1.5760 
  2 O        0.9440     0.0580    -1.5950 O.2   1 <1>  -0.6500 
  3 O       -1.1430     1.4130    -1.2400 O.2   1 <1>  -0.6500 
  4 N       -1.0460    -0.9780    -0.3700 N.am  1 <1>  -0.8490 
  5 N        0.3820     0.8810     0.7430 N.am  1 <1>  -0.8490 
  6 C       -2.2480    -0.6590     0.4050 C.3   1 <1>   0.1960 
  7 C       -1.4020    -1.7330    -1.5730 C.3   1 <1>   0.1960 
  8 C        0.8980     2.2490     0.7290 C.3   1 <1>   0.1160 
  9 C        1.4010    -0.0400     1.2520 C.3   1 <1>   0.1160 
 10 C       -2.9070    -1.9510     0.8860 C.3   1 <1>  -0.1600 
 11 C       -2.0320    -3.0680    -1.1770 C.3   1 <1>  -0.1600 
 12 C       -3.2630    -2.8540    -0.2970 C.3   1 <1>   0.4600 
 13 O       -4.2160    -2.2020    -1.1090 O.3   1 <1>  -0.5600 
 14 C       -3.8300    -4.1900     0.1700 C.2   1 <1>  -0.3320 
 15 C       -5.5690    -2.2640    -0.7250 C.3   1 <1>   0.1200 
 16 N       -3.1570    -5.1670     0.8510 N.pl3 1 <1>   0.0330 
 17 C       -5.1010    -4.5890    -0.0370 C.2   1 <1>  -0.1810 
 18 C       -6.0910    -3.7100    -0.7600 C.3   1 <1>   0.0210 
 19 C       -4.0280    -6.2070     1.0710 C.ar  1 <1>  -0.1520 
 20 C       -5.2620    -5.8740     0.5200 C.ar  1 <1>   0.0000 
 21 C       -3.8400    -7.4330     1.7150 C.ar  1 <1>  -0.1500 
 22 C       -6.3270    -6.7760     0.6090 C.ar  1 <1>  -0.1500 
 23 C       -4.8960    -8.3110     1.7970 C.ar  1 <1>  -0.1500 
 24 C       -6.1400    -7.9820     1.2440 C.ar  1 <1>  -0.1500 
 25 H       -2.9410    -0.0930    -0.1980 H     1 <1>   0.0800 
 26 H       -1.9830    -0.0610     1.2600 H     1 <1>   0.0800 
 27 H       -0.5170    -1.9270    -2.1570 H     1 <1>   0.0800 
 28 H       -2.0870    -1.1610    -2.1800 H     1 <1>   0.0800 
 29 H        0.1210     2.9310     0.4260 H     1 <1>   0.0800 
 30 H        1.7220     2.3330     0.0390 H     1 <1>   0.0800 
 31 H        1.2290     2.5310     1.7130 H     1 <1>   0.0800 
 32 H        1.0060    -1.0410     1.2920 H     1 <1>   0.0800 
 33 H        1.6940     0.2480     2.2470 H     1 <1>   0.0800 
 34 H        2.2690    -0.0370     0.6140 H     1 <1>   0.0800 
 35 H       -3.7830    -1.7300     1.4630 H     1 <1>   0.0800 
 36 H       -2.2180    -2.4620     1.5330 H     1 <1>   0.0800 
 37 H       -1.2980    -3.6470    -0.6490 H     1 <1>   0.0800 
 38 H       -2.3170    -3.6180    -2.0550 H     1 <1>   0.0800 
 39 H       -6.1310    -1.6490    -1.4050 H     1 <1>   0.0800 
 40 H       -5.6630    -1.8570     0.2660 H     1 <1>   0.0800 
 41 H       -2.1760    -5.1470     1.1430 H     1 <1>   0.2700 
 42 H       -6.1920    -4.0390    -1.7780 H     1 <1>   0.0800 
 43 H       -7.0510    -3.7610    -0.2820 H     1 <1>   0.0800 
 44 H       -2.8820    -7.6790     2.1370 H     1 <1>   0.1500 
 45 H       -7.2740    -6.5100     0.1790 H     1 <1>   0.1500 
 46 H       -4.7770    -9.2610     2.2870 H     1 <1>   0.1500 
 47 H       -6.9500    -8.6860     1.3200 H     1 <1>   0.1500 
@<TRIPOS>BOND
  1   1   2  2   
  2   1   3  2   
  3   1   4  am  
  4   1   5  am  
  5   4   6  1   
  6   4   7  1   
  7   5   8  1   
  8   5   9  1   
  9   6  10  1   
 10   6  25  1   
 11   6  26  1   
 12   7  11  1   
 13   7  27  1   
 14   7  28  1   
 15   8  29  1   
 16   8  30  1   
 17   8  31  1   
 18   9  32  1   
 19   9  33  1   
 20   9  34  1   
 21  10  12  1   
 22  10  35  1   
 23  10  36  1   
 24  11  12  1   
 25  11  37  1   
 26  11  38  1   
 27  12  13  1   
 28  12  14  1   
 29  13  15  1   
 30  14  16  1   
 31  14  17  2   
 32  15  18  1   
 33  15  39  1   
 34  15  40  1   
 35  16  19  1   
 36  16  41  1   
 37  17  18  1   
 38  17  20  1   
 39  18  42  1   
 40  18  43  1   
 41  19  20  ar  
 42  19  21  ar  
 43  20  22  ar  
 44  21  23  ar  
 45  21  44  1   
 46  22  24  ar  
 47  22  45  1   
 48  23  24  ar  
 49  23  46  1   
 50  24  47  1   
@<TRIPOS>SUBSTRUCTURE
  1 ****  12 GROUP 4 **** **** 0

# MOE 2024.06 (io_trps.svl 2023.06)
