@<TRIPOS>MOLECULE
NONAME
48 50 1 0 0 
SMALL
USER_CHARGES


@<TRIPOS>ATOM
  1 O       -1.4280     0.4590     0.4740 O.3   1 <1>  -0.3630 
  2 C       -1.9440     1.4080    -0.3550 C.ar  1 <1>   0.3920 
  3 C       -2.1250    -0.7530     0.7030 C.3   1 <1>   0.0400 
  4 N       -3.1070     1.1750    -0.9400 N.ar  1 <1>  -0.6200 
  5 C       -1.1860     2.5970    -0.5410 C.ar  1 <1>   0.4100 
  6 C       -3.4810     2.1780    -1.7220 C.ar  1 <1>   0.1600 
  7 N       -1.5810     3.5970    -1.3170 N.ar  1 <1>  -0.6200 
  8 N        0.0280     2.7870     0.1080 N.pl3 1 <1>  -0.8690 
  9 C       -2.7470     3.3400    -1.9020 C.ar  1 <1>   0.1600 
 10 C        1.1840     3.4190    -0.6130 C.3   1 <1>   0.2090 
 11 C        1.4220     4.9230    -0.2450 C.3   1 <1>   0.5030 
 12 N        0.0910     5.5760     0.0460 N.4   1 <1>  -0.9590 
 13 C        2.2230     5.5930    -1.3760 C.3   1 <1>  -0.1600 
 14 C        2.4100     5.0370     0.9280 C.3   1 <1>  -0.1600 
 15 C       -0.1890     6.9090    -0.5580 C.3   1 <1>   0.3430 
 16 C       -0.3280     5.5030     1.4780 C.3   1 <1>   0.3430 
 17 C        3.6690     5.1290    -1.1780 C.3   1 <1>  -0.1600 
 18 C        3.8160     4.8890     0.3280 C.3   1 <1>  -0.1600 
 19 C       -1.6800     7.2350    -0.4500 C.3   1 <1>  -0.1600 
 20 C       -1.8210     5.8040     1.6090 C.3   1 <1>  -0.1600 
 21 C       -2.1820     7.1610     0.9960 C.3   1 <1>  -0.1600 
 22 H       -1.5480    -1.3540     1.3820 H     1 <1>   0.0800 
 23 H       -2.2480    -1.2680    -0.2340 H     1 <1>   0.0800 
 24 H       -3.0850    -0.5270     1.1350 H     1 <1>   0.0800 
 25 H       -4.4170     2.0660    -2.2410 H     1 <1>   0.1500 
 26 H        0.2960     1.9300     0.6150 H     1 <1>   0.4000 
 27 H       -3.1420     4.0930    -2.5610 H     1 <1>   0.1500 
 28 H        1.0070     3.3430    -1.6730 H     1 <1>   0.0800 
 29 H        2.0750     2.8490    -0.4160 H     1 <1>   0.0800 
 30 H       -0.5630     4.9050    -0.4120 H     1 <1>   0.4500 
 31 H        2.2340     6.6620    -1.2620 H     1 <1>   0.0800 
 32 H        1.8570     5.3420    -2.3570 H     1 <1>   0.0800 
 33 H        2.2340     4.2930     1.6850 H     1 <1>   0.0800 
 34 H        2.3440     6.0180     1.3650 H     1 <1>   0.0800 
 35 H        0.0880     6.9090    -1.5990 H     1 <1>   0.0800 
 36 H        0.3870     7.6650    -0.0490 H     1 <1>   0.0800 
 37 H        0.2350     6.2140     2.0600 H     1 <1>   0.0800 
 38 H       -0.1350     4.5150     1.8650 H     1 <1>   0.0800 
 39 H        4.3710     5.8670    -1.5320 H     1 <1>   0.0800 
 40 H        3.8430     4.2100    -1.7130 H     1 <1>   0.0800 
 41 H        4.2080     3.9010     0.5070 H     1 <1>   0.0800 
 42 H        4.4910     5.6050     0.7680 H     1 <1>   0.0800 
 43 H       -2.2350     6.5470    -1.0640 H     1 <1>   0.0800 
 44 H       -1.8530     8.2240    -0.8380 H     1 <1>   0.0800 
 45 H       -2.0900     5.7980     2.6510 H     1 <1>   0.0800 
 46 H       -2.3820     5.0210     1.1290 H     1 <1>   0.0800 
 47 H       -3.2500     7.3020     1.0220 H     1 <1>   0.0800 
 48 H       -1.7310     7.9500     1.5750 H     1 <1>   0.0800 
@<TRIPOS>BOND
  1   1   2  1   
  2   1   3  1   
  3   2   4  ar  
  4   2   5  ar  
  5   3  22  1   
  6   3  23  1   
  7   3  24  1   
  8   4   6  ar  
  9   5   7  ar  
 10   5   8  1   
 11   6   9  ar  
 12   6  25  1   
 13   7   9  ar  
 14   8  10  1   
 15   8  26  1   
 16   9  27  1   
 17  10  11  1   
 18  10  28  1   
 19  10  29  1   
 20  11  12  1   
 21  11  13  1   
 22  11  14  1   
 23  12  15  1   
 24  12  16  1   
 25  12  30  1   
 26  13  17  1   
 27  13  31  1   
 28  13  32  1   
 29  14  18  1   
 30  14  33  1   
 31  14  34  1   
 32  15  19  1   
 33  15  35  1   
 34  15  36  1   
 35  16  20  1   
 36  16  37  1   
 37  16  38  1   
 38  17  18  1   
 39  17  39  1   
 40  17  40  1   
 41  18  41  1   
 42  18  42  1   
 43  19  21  1   
 44  19  43  1   
 45  19  44  1   
 46  20  21  1   
 47  20  45  1   
 48  20  46  1   
 49  21  47  1   
 50  21  48  1   
@<TRIPOS>SUBSTRUCTURE
  1 ****   8 GROUP 4 **** **** 0

# MOE 2024.06 (io_trps.svl 2023.06)
