@<TRIPOS>MOLECULE
NONAME
40 41 1 0 0 
SMALL
USER_CHARGES


@<TRIPOS>ATOM
  1 O        0.3920    -0.4590    -1.3830 O.2   1 <1>  -0.5700 
  2 C        1.2230    -0.7560    -0.5480 C.2   1 <1>   0.5440 
  3 N        2.0330     0.1970     0.0090 N.am  1 <1>  -0.4930 
  4 C        1.3820    -2.1300    -0.1300 C.ar  1 <1>   0.0860 
  5 C        2.1120     1.5910    -0.2390 C.2   1 <1>   0.0630 
  6 C        0.3540    -2.8510     0.4900 C.ar  1 <1>   0.1660 
  7 C        2.5920    -2.7840    -0.3290 C.ar  1 <1>  -0.1500 
  8 C        1.0930     2.5340    -0.4100 C.2   1 <1>   0.1080 
  9 C        3.2570     2.3040    -0.3270 C.2   1 <1>  -0.3320 
 10 N        0.4580    -4.1030     0.9090 N.ar  1 <1>  -0.6200 
 11 C       -1.0020    -2.2070     0.7330 C.3   1 <1>  -0.0970 
 12 C        2.7060    -4.0870     0.0990 C.ar  1 <1>  -0.1500 
 13 N        1.5590     3.7310    -0.5890 N.2   1 <1>  -0.7070 
 14 C       -0.3960     2.2700    -0.3830 C.3   1 <1>  -0.0590 
 15 N        2.8950     3.5940    -0.5440 N.pl3 1 <1>   0.3140 
 16 C        4.7000     1.8290    -0.2250 C.3   1 <1>  -0.0600 
 17 C        1.6220    -4.6940     0.7060 C.ar  1 <1>   0.1600 
 18 C        3.7790     4.7650    -0.7230 C.3   1 <1>   0.0960 
 19 C        4.1240     5.4070     0.6280 C.3   1 <1>  -0.1600 
 20 C        5.0510     6.6150     0.4530 C.3   1 <1>  -0.2400 
 21 H        2.7330    -0.1390     0.6670 H     1 <1>   0.3700 
 22 H        3.4130    -2.2860    -0.8150 H     1 <1>   0.1500 
 23 H       -0.8870    -1.2280     1.1600 H     1 <1>   0.0800 
 24 H       -1.5880    -2.8050     1.4080 H     1 <1>   0.0800 
 25 H       -1.5330    -2.1240    -0.1980 H     1 <1>   0.0800 
 26 H        3.6230    -4.6340    -0.0360 H     1 <1>   0.1500 
 27 H       -0.6200     1.4770     0.3050 H     1 <1>   0.0800 
 28 H       -0.7260     1.9910    -1.3660 H     1 <1>   0.0800 
 29 H       -0.9180     3.1580    -0.0770 H     1 <1>   0.0800 
 30 H        4.7410     0.7660    -0.0740 H     1 <1>   0.0800 
 31 H        5.1940     2.3110     0.5990 H     1 <1>   0.0800 
 32 H        5.2290     2.0590    -1.1330 H     1 <1>   0.0800 
 33 H        1.7150    -5.7140     1.0390 H     1 <1>   0.1500 
 34 H        3.2640     5.4760    -1.3450 H     1 <1>   0.0800 
 35 H        4.6700     4.4510    -1.2320 H     1 <1>   0.0800 
 36 H        4.6040     4.6820     1.2620 H     1 <1>   0.0800 
 37 H        3.2130     5.7260     1.1070 H     1 <1>   0.0800 
 38 H        5.9770     6.3200    -0.0090 H     1 <1>   0.0800 
 39 H        5.2720     7.0500     1.4120 H     1 <1>   0.0800 
 40 H        4.5800     7.3650    -0.1590 H     1 <1>   0.0800 
@<TRIPOS>BOND
  1   1   2  2   
  2   2   3  am  
  3   2   4  1   
  4   3   5  1   
  5   3  21  1   
  6   4   6  ar  
  7   4   7  ar  
  8   5   8  1   
  9   5   9  2   
 10   6  10  ar  
 11   6  11  1   
 12   7  12  ar  
 13   7  22  1   
 14   8  13  2   
 15   8  14  1   
 16   9  15  1   
 17   9  16  1   
 18  10  17  ar  
 19  11  23  1   
 20  11  24  1   
 21  11  25  1   
 22  12  17  ar  
 23  12  26  1   
 24  13  15  1   
 25  14  27  1   
 26  14  28  1   
 27  14  29  1   
 28  15  18  1   
 29  16  30  1   
 30  16  31  1   
 31  16  32  1   
 32  17  33  1   
 33  18  19  1   
 34  18  34  1   
 35  18  35  1   
 36  19  20  1   
 37  19  36  1   
 38  19  37  1   
 39  20  38  1   
 40  20  39  1   
 41  20  40  1   
@<TRIPOS>SUBSTRUCTURE
  1 ****   3 GROUP 4 **** **** 0

# MOE 2024.06 (io_trps.svl 2023.06)
