@<TRIPOS>MOLECULE
NONAME
42 44 1 0 0 
SMALL
USER_CHARGES


@<TRIPOS>ATOM
  1 O       -0.1970     0.3540     1.2330 O.co2 1 <1>  -0.9000 
  2 C       -1.4240     0.2450     1.2950 C.2   1 <1>   0.9060 
  3 O       -2.0510     0.2720     2.3590 O.co2 1 <1>  -0.9000 
  4 C       -2.1940     0.3370    -0.0350 C.3   1 <1>   0.3170 
  5 N       -2.6160     1.7680    -0.3690 N.4   1 <1>  -0.9590 
  6 C       -3.4190    -0.6130    -0.0310 C.3   1 <1>   0.1200 
  7 C       -3.6830     2.1680     0.6100 C.3   1 <1>   0.3430 
  8 C       -1.4360     2.6680    -0.2900 C.3   1 <1>   0.5240 
  9 O       -4.6170     0.0900    -0.2600 O.3   1 <1>  -0.5600 
 10 C       -4.8230     1.1240     0.6690 C.3   1 <1>   0.1200 
 11 C       -1.8600     4.0450    -0.7520 C.2   1 <1>  -0.1810 
 12 C       -2.0350     4.4520    -2.0670 C.2   1 <1>   0.1390 
 13 C       -2.1600     5.1390    -0.0190 C.2   1 <1>  -0.3020 
 14 N       -2.4220     5.6840    -2.1480 N.2   1 <1>  -0.7070 
 15 N       -2.4870     6.1450    -0.8690 N.pl3 1 <1>   0.5930 
 16 C       -2.9640     7.4450    -0.5320 C.ar  1 <1>  -0.0230 
 17 C       -2.3530     8.2170     0.4610 C.ar  1 <1>   0.0830 
 18 C       -4.0670     7.9660    -1.2040 C.ar  1 <1>  -0.1500 
 19 O       -1.2590     7.7050     1.0900 O.3   1 <1>  -0.3630 
 20 C       -2.8650     9.4740     0.7730 C.ar  1 <1>  -0.1500 
 21 C       -4.5680     9.2160    -0.8910 C.ar  1 <1>  -0.1500 
 22 C       -0.4670     8.4850     1.9600 C.3   1 <1>   0.0400 
 23 C       -3.9680     9.9690     0.1000 C.ar  1 <1>  -0.1500 
 24 H       -1.5060    -0.0120    -0.7830 H     1 <1>   0.0800 
 25 H       -3.0340     1.7690    -1.3030 H     1 <1>   0.4500 
 26 H       -3.5050    -1.1370     0.9070 H     1 <1>   0.0800 
 27 H       -3.3150    -1.3460    -0.8100 H     1 <1>   0.0800 
 28 H       -3.2550     2.2570     1.5960 H     1 <1>   0.0800 
 29 H       -4.0900     3.1290     0.3420 H     1 <1>   0.0800 
 30 H       -1.0720     2.7140     0.7260 H     1 <1>   0.0800 
 31 H       -0.6380     2.2970    -0.9120 H     1 <1>   0.0800 
 32 H       -5.7670     1.5880     0.4470 H     1 <1>   0.0800 
 33 H       -4.8760     0.6930     1.6550 H     1 <1>   0.0800 
 34 H       -1.8760     3.8320    -2.9350 H     1 <1>   0.1500 
 35 H       -2.1610     5.2820     1.0460 H     1 <1>   0.1500 
 36 H       -4.5360     7.3880    -1.9820 H     1 <1>   0.1500 
 37 H       -2.4230    10.0860     1.5360 H     1 <1>   0.1500 
 38 H       -5.4210     9.6030    -1.4210 H     1 <1>   0.1500 
 39 H        0.3780     7.8930     2.2630 H     1 <1>   0.0800 
 40 H       -1.0520     8.7540     2.8210 H     1 <1>   0.0800 
 41 H       -0.1280     9.3610     1.4340 H     1 <1>   0.0800 
 42 H       -4.3580    10.9430     0.3450 H     1 <1>   0.1500 
@<TRIPOS>BOND
  1   1   2  ar  
  2   2   3  ar  
  3   2   4  1   
  4   4   5  1   
  5   4   6  1   
  6   4  24  1   
  7   5   7  1   
  8   5   8  1   
  9   5  25  1   
 10   6   9  1   
 11   6  26  1   
 12   6  27  1   
 13   7  10  1   
 14   7  28  1   
 15   7  29  1   
 16   8  11  1   
 17   8  30  1   
 18   8  31  1   
 19   9  10  1   
 20  10  32  1   
 21  10  33  1   
 22  11  12  1   
 23  11  13  2   
 24  12  14  2   
 25  12  34  1   
 26  13  15  1   
 27  13  35  1   
 28  14  15  1   
 29  15  16  1   
 30  16  17  ar  
 31  16  18  ar  
 32  17  19  1   
 33  17  20  ar  
 34  18  21  ar  
 35  18  36  1   
 36  19  22  1   
 37  20  23  ar  
 38  20  37  1   
 39  21  23  ar  
 40  21  38  1   
 41  22  39  1   
 42  22  40  1   
 43  22  41  1   
 44  23  42  1   
@<TRIPOS>SUBSTRUCTURE
  1 ****  13 GROUP 4 **** **** 0

# MOE 2024.06 (io_trps.svl 2023.06)
