@<TRIPOS>MOLECULE
NONAME
52 55 1 0 0 
SMALL
USER_CHARGES


@<TRIPOS>ATOM
  1 O       -1.9400     0.1810     2.7730 O.2   1 <1>  -0.5700 
  2 C       -1.8860     0.7060     1.6780 C.2   1 <1>   0.5440 
  3 N       -2.0120    -0.0690     0.5460 N.am  1 <1>  -0.6600 
  4 C       -1.7340     2.1370     1.5930 C.ar  1 <1>   0.0860 
  5 C       -2.1580    -1.5640     0.6300 C.3   1 <1>   0.3640 
  6 C       -2.2530     0.5450    -0.7950 C.3   1 <1>   0.1400 
  7 C       -0.5760     2.7510     1.0870 C.ar  1 <1>   0.0000 
  8 C       -2.7310     3.0050     1.9870 C.ar  1 <1>  -0.1500 
  9 C       -0.7770    -2.2370     0.5340 C.ar  1 <1>  -0.1440 
 10 C       -3.2000    -2.0870    -0.4030 C.3   1 <1>   0.2000 
 11 C       -2.1920    -0.4870    -1.9270 C.3   1 <1>   0.1200 
 12 C       -0.5530     4.1250     0.9650 C.ar  1 <1>   0.1050 
 13 C        0.6890     2.3480     0.6160 C.2   1 <1>   0.1080 
 14 C       -2.5920     4.3890     1.8360 C.ar  1 <1>   0.1660 
 15 C        0.0560    -2.1810     1.6440 C.ar  1 <1>  -0.1500 
 16 C       -0.3210    -2.9160    -0.5930 C.ar  1 <1>  -0.1500 
 17 O       -3.0620    -1.5680    -1.7140 O.3   1 <1>  -0.5600 
 18 C       -4.6400    -1.7950     0.0440 C.3   1 <1>   0.1200 
 19 N       -1.5370     4.9680     1.3230 N.ar  1 <1>  -0.5670 
 20 N        0.6580     4.4360     0.4240 N.pl3 1 <1>   0.3140 
 21 N        1.4130     3.3360     0.2100 N.2   1 <1>  -0.7070 
 22 C        1.2030     0.9240     0.5940 C.3   1 <1>  -0.0590 
 23 C       -3.7150     5.3040     2.2780 C.3   1 <1>  -0.0970 
 24 C        1.3120    -2.7620     1.6280 C.ar  1 <1>  -0.1500 
 25 C        0.9340    -3.4980    -0.6130 C.ar  1 <1>  -0.1500 
 26 O       -4.9870    -2.5930     1.1300 O.3   1 <1>  -0.6800 
 27 C        1.1410     5.7880     0.1190 C.3   1 <1>   0.0160 
 28 C        1.7540    -3.4200     0.4970 C.ar  1 <1>  -0.1500 
 29 H       -2.5450    -1.8180     1.6020 H     1 <1>   0.0800 
 30 H       -3.2200     1.0160    -0.8020 H     1 <1>   0.0800 
 31 H       -1.5130     1.3020    -0.9880 H     1 <1>   0.0800 
 32 H       -3.6320     2.6030     2.4130 H     1 <1>   0.1500 
 33 H       -3.0980    -3.1530    -0.4890 H     1 <1>   0.0800 
 34 H       -1.1890    -0.8620    -2.0260 H     1 <1>   0.0800 
 35 H       -2.4680    -0.0280    -2.8590 H     1 <1>   0.0800 
 36 H       -0.2720    -1.6780     2.5380 H     1 <1>   0.1500 
 37 H       -0.9310    -3.0080    -1.4730 H     1 <1>   0.1500 
 38 H       -5.3320    -2.0030    -0.7530 H     1 <1>   0.0800 
 39 H       -4.7380    -0.7670     0.3470 H     1 <1>   0.0800 
 40 H        1.0420     0.4630     1.5500 H     1 <1>   0.0800 
 41 H        2.2580     0.9180     0.3850 H     1 <1>   0.0800 
 42 H        0.7010     0.3540    -0.1650 H     1 <1>   0.0800 
 43 H       -4.5230     4.7490     2.7180 H     1 <1>   0.0800 
 44 H       -4.0880     5.8500     1.4310 H     1 <1>   0.0800 
 45 H       -3.3420     6.0040     3.0040 H     1 <1>   0.0800 
 46 H        1.9410    -2.7010     2.4990 H     1 <1>   0.1500 
 47 H        1.2730    -4.0160    -1.4940 H     1 <1>   0.1500 
 48 H       -5.1370    -3.5190     0.8530 H     1 <1>   0.4000 
 49 H        0.4420     6.2690    -0.5390 H     1 <1>   0.0800 
 50 H        2.1030     5.7220    -0.3530 H     1 <1>   0.0800 
 51 H        1.2200     6.3440     1.0340 H     1 <1>   0.0800 
 52 H        2.7310    -3.8730     0.4820 H     1 <1>   0.1500 
@<TRIPOS>BOND
  1   1   2  2   
  2   2   3  am  
  3   2   4  1   
  4   3   5  1   
  5   3   6  1   
  6   4   7  ar  
  7   4   8  ar  
  8   5   9  1   
  9   5  10  1   
 10   5  29  1   
 11   6  11  1   
 12   6  30  1   
 13   6  31  1   
 14   7  12  ar  
 15   7  13  1   
 16   8  14  ar  
 17   8  32  1   
 18   9  15  ar  
 19   9  16  ar  
 20  10  17  1   
 21  10  18  1   
 22  10  33  1   
 23  11  17  1   
 24  11  34  1   
 25  11  35  1   
 26  12  19  ar  
 27  12  20  1   
 28  13  21  2   
 29  13  22  1   
 30  14  19  ar  
 31  14  23  1   
 32  15  24  ar  
 33  15  36  1   
 34  16  25  ar  
 35  16  37  1   
 36  18  26  1   
 37  18  38  1   
 38  18  39  1   
 39  20  21  1   
 40  20  27  1   
 41  22  40  1   
 42  22  41  1   
 43  22  42  1   
 44  23  43  1   
 45  23  44  1   
 46  23  45  1   
 47  24  28  ar  
 48  24  46  1   
 49  25  28  ar  
 50  25  47  1   
 51  26  48  1   
 52  27  49  1   
 53  27  50  1   
 54  27  51  1   
 55  28  52  1   
@<TRIPOS>SUBSTRUCTURE
  1 ****   3 GROUP 4 **** **** 0

# MOE 2024.06 (io_trps.svl 2023.06)
