@<TRIPOS>MOLECULE
NONAME
50 51 1 0 0 
SMALL
USER_CHARGES


@<TRIPOS>ATOM
  1 O       -0.7570    -1.0770     0.5580 O.2   1 <1>  -0.5700 
  2 C       -0.4450    -2.2050     0.2320 C.2   1 <1>   0.5440 
  3 N       -1.4760    -3.0440    -0.0150 N.am  1 <1>  -0.8000 
  4 C        0.9430    -2.6000     0.0990 C.ar  1 <1>   0.0860 
  5 C        1.3820    -3.9400     0.1520 C.ar  1 <1>   0.4100 
  6 C        1.9150    -1.6290    -0.1050 C.ar  1 <1>  -0.1500 
  7 N        2.6490    -4.3110    -0.0180 N.ar  1 <1>  -0.6200 
  8 N        0.5230    -4.9900     0.4110 N.pl3 1 <1>  -0.8380 
  9 C        3.2300    -2.0070    -0.2650 C.ar  1 <1>  -0.1430 
 10 C        3.5380    -3.3620    -0.2200 C.ar  1 <1>   0.1670 
 11 C        0.5600    -6.1900    -0.4660 C.3   1 <1>   0.3530 
 12 C        0.1800    -5.2840     1.8290 C.3   1 <1>   0.1290 
 13 C        4.2900    -0.9350    -0.4860 C.3   1 <1>  -0.0970 
 14 C        4.9660    -3.8440    -0.4000 C.3   1 <1>  -0.0970 
 15 C       -0.8640    -6.5460    -0.8700 C.ar  1 <1>  -0.1430 
 16 C       -1.5630    -7.5700    -0.2380 C.ar  1 <1>   0.0830 
 17 C       -1.4700    -5.8260    -1.8880 C.ar  1 <1>  -0.1500 
 18 O       -0.9210    -8.2410     0.7580 O.3   1 <1>  -0.3620 
 19 C       -2.8820    -7.8620    -0.6210 C.ar  1 <1>   0.0830 
 20 C       -2.7620    -6.1180    -2.2790 C.ar  1 <1>  -0.1500 
 21 C       -0.8760    -9.6480     0.7100 C.3   1 <1>   0.1200 
 22 O       -3.5640    -8.8450     0.0380 O.3   1 <1>  -0.3630 
 23 C       -3.4660    -7.1300    -1.6510 C.ar  1 <1>  -0.1500 
 24 C        0.3980   -10.1000     1.4180 C.3   1 <1>  -0.2400 
 25 C       -4.9330    -9.0890    -0.1950 C.3   1 <1>   0.0400 
 26 H       -2.4300    -2.7570     0.1930 H     1 <1>   0.3700 
 27 H       -1.2830    -4.0550    -0.0760 H     1 <1>   0.3700 
 28 H        1.6280    -0.5920    -0.1390 H     1 <1>   0.1500 
 29 H        1.0440    -7.0030     0.0460 H     1 <1>   0.0800 
 30 H        1.1350    -5.9770    -1.3510 H     1 <1>   0.0800 
 31 H        0.2720    -4.3930     2.4260 H     1 <1>   0.0800 
 32 H        0.8470    -6.0340     2.2180 H     1 <1>   0.0800 
 33 H       -0.8310    -5.6460     1.8940 H     1 <1>   0.0800 
 34 H        3.8680     0.0490    -0.3840 H     1 <1>   0.0800 
 35 H        4.7040    -1.0240    -1.4740 H     1 <1>   0.0800 
 36 H        5.0780    -1.0370     0.2380 H     1 <1>   0.0800 
 37 H        4.9890    -4.9140    -0.5080 H     1 <1>   0.0800 
 38 H        5.5500    -3.5770     0.4610 H     1 <1>   0.0800 
 39 H        5.4010    -3.4080    -1.2790 H     1 <1>   0.0800 
 40 H       -0.9320    -5.0300    -2.3760 H     1 <1>   0.1500 
 41 H       -3.2210    -5.5540    -3.0730 H     1 <1>   0.1500 
 42 H       -0.8750    -9.9620    -0.3200 H     1 <1>   0.0800 
 43 H       -1.7470   -10.0330     1.2100 H     1 <1>   0.0800 
 44 H       -4.4670    -7.3270    -1.9810 H     1 <1>   0.1500 
 45 H        1.2610    -9.7000     0.9180 H     1 <1>   0.0800 
 46 H        0.4590   -11.1730     1.4040 H     1 <1>   0.0800 
 47 H        0.3870    -9.7700     2.4410 H     1 <1>   0.0800 
 48 H       -5.2550    -9.8600     0.4830 H     1 <1>   0.0800 
 49 H       -5.0630    -9.4190    -1.2100 H     1 <1>   0.0800 
 50 H       -5.4860    -8.1850    -0.0070 H     1 <1>   0.0800 
@<TRIPOS>BOND
  1   1   2  2   
  2   2   3  am  
  3   2   4  1   
  4   3  26  1   
  5   3  27  1   
  6   4   5  ar  
  7   4   6  ar  
  8   5   7  ar  
  9   5   8  1   
 10   6   9  ar  
 11   6  28  1   
 12   7  10  ar  
 13   8  11  1   
 14   8  12  1   
 15   9  10  ar  
 16   9  13  1   
 17  10  14  1   
 18  11  15  1   
 19  11  29  1   
 20  11  30  1   
 21  12  31  1   
 22  12  32  1   
 23  12  33  1   
 24  13  34  1   
 25  13  35  1   
 26  13  36  1   
 27  14  37  1   
 28  14  38  1   
 29  14  39  1   
 30  15  16  ar  
 31  15  17  ar  
 32  16  18  1   
 33  16  19  ar  
 34  17  20  ar  
 35  17  40  1   
 36  18  21  1   
 37  19  22  1   
 38  19  23  ar  
 39  20  23  ar  
 40  20  41  1   
 41  21  24  1   
 42  21  42  1   
 43  21  43  1   
 44  22  25  1   
 45  23  44  1   
 46  24  45  1   
 47  24  46  1   
 48  24  47  1   
 49  25  48  1   
 50  25  49  1   
 51  25  50  1   
@<TRIPOS>SUBSTRUCTURE
  1 ****   8 GROUP 4 **** **** 0

# MOE 2024.06 (io_trps.svl 2023.06)
