@<TRIPOS>MOLECULE
NONAME
43 45 1 0 0 
SMALL
USER_CHARGES


@<TRIPOS>ATOM
  1 F       -1.0740    -0.3540     0.9310 F     1 <1>  -0.3400 
  2 C       -1.3950    -1.5740     0.5230 C.3   1 <1>   1.0200 
  3 F       -0.5060    -1.9060    -0.4050 F     1 <1>  -0.3400 
  4 F       -1.1790    -2.3820     1.5520 F     1 <1>  -0.3400 
  5 C       -2.8470    -1.6510    -0.0070 C.3   1 <1>  -0.0800 
  6 C       -3.8910    -1.2180     1.0500 C.3   1 <1>  -0.1600 
  7 C       -3.2060    -3.0530    -0.5590 C.3   1 <1>  -0.1600 
  8 C       -5.3220    -1.3160     0.5150 C.3   1 <1>   0.1400 
  9 C       -4.6470    -3.1120    -1.0700 C.3   1 <1>   0.1400 
 10 N       -5.5650    -2.7000     0.0260 N.am  1 <1>  -0.6600 
 11 C       -6.4530    -3.5380     0.6670 C.2   1 <1>   0.5690 
 12 O       -7.0510    -3.1660     1.6530 O.2   1 <1>  -0.5700 
 13 C       -6.7220    -4.9630     0.1470 C.3   1 <1>   0.2610 
 14 O       -5.5980    -5.8020     0.3760 O.3   1 <1>  -0.5600 
 15 C       -8.0130    -5.5680     0.7640 C.3   1 <1>   0.3640 
 16 C       -5.7020    -7.1020    -0.1650 C.3   1 <1>   0.1810 
 17 N       -8.0730    -7.0390     0.5810 N.am  1 <1>  -0.7300 
 18 C       -9.2580    -4.9560     0.1300 C.ar  1 <1>  -0.1440 
 19 C       -7.0290    -7.7890     0.1670 C.2   1 <1>   0.5690 
 20 C       -9.9670    -3.9710     0.8050 C.ar  1 <1>   0.1600 
 21 C       -9.7080    -5.3530    -1.1170 C.ar  1 <1>  -0.1500 
 22 O       -7.1460    -8.9800     0.0290 O.2   1 <1>  -0.5700 
 23 N      -11.0580    -3.3740     0.3510 N.ar  1 <1>  -0.6200 
 24 C      -10.8410    -4.7390    -1.6050 C.ar  1 <1>  -0.1500 
 25 C      -11.4690    -3.7710    -0.8410 C.ar  1 <1>   0.1600 
 26 H       -2.9050    -0.9550    -0.8250 H     1 <1>   0.0800 
 27 H       -3.7060    -0.2030     1.3580 H     1 <1>   0.0800 
 28 H       -3.8130    -1.8410     1.9250 H     1 <1>   0.0800 
 29 H       -3.0870    -3.7960     0.2130 H     1 <1>   0.0800 
 30 H       -2.5420    -3.3120    -1.3650 H     1 <1>   0.0800 
 31 H       -5.4630    -0.6240    -0.2980 H     1 <1>   0.0800 
 32 H       -6.0180    -1.0540     1.2940 H     1 <1>   0.0800 
 33 H       -4.8610    -4.1080    -1.4130 H     1 <1>   0.0800 
 34 H       -4.7710    -2.4410    -1.9030 H     1 <1>   0.0800 
 35 H       -6.8610    -4.8980    -0.9160 H     1 <1>   0.0800 
 36 H       -8.0200    -5.3760     1.8240 H     1 <1>   0.0800 
 37 H       -5.5910    -7.0350    -1.2320 H     1 <1>   0.0800 
 38 H       -4.8910    -7.6860     0.2310 H     1 <1>   0.0800 
 39 H       -8.9510    -7.5050     0.8120 H     1 <1>   0.3700 
 40 H       -9.6180    -3.6480     1.7740 H     1 <1>   0.1500 
 41 H       -9.2050    -6.1130    -1.6920 H     1 <1>   0.1500 
 42 H      -11.2390    -5.0060    -2.5670 H     1 <1>   0.1500 
 43 H      -12.3540    -3.2980    -1.2300 H     1 <1>   0.1500 
@<TRIPOS>BOND
  1   1   2  1   
  2   2   3  1   
  3   2   4  1   
  4   2   5  1   
  5   5   6  1   
  6   5   7  1   
  7   5  26  1   
  8   6   8  1   
  9   6  27  1   
 10   6  28  1   
 11   7   9  1   
 12   7  29  1   
 13   7  30  1   
 14   8  10  1   
 15   8  31  1   
 16   8  32  1   
 17   9  10  1   
 18   9  33  1   
 19   9  34  1   
 20  10  11  am  
 21  11  12  2   
 22  11  13  1   
 23  13  14  1   
 24  13  15  1   
 25  13  35  1   
 26  14  16  1   
 27  15  17  1   
 28  15  18  1   
 29  15  36  1   
 30  16  19  1   
 31  16  37  1   
 32  16  38  1   
 33  17  19  am  
 34  17  39  1   
 35  18  20  ar  
 36  18  21  ar  
 37  19  22  2   
 38  20  23  ar  
 39  20  40  1   
 40  21  24  ar  
 41  21  41  1   
 42  23  25  ar  
 43  24  25  ar  
 44  24  42  1   
 45  25  43  1   
@<TRIPOS>SUBSTRUCTURE
  1 ****  11 GROUP 4 **** **** 0

# MOE 2024.06 (io_trps.svl 2023.06)
