@<TRIPOS>MOLECULE
NONAME
52 54 1 0 0 
SMALL
USER_CHARGES


@<TRIPOS>ATOM
  1 CL      -0.3050     0.3520     1.5220 Cl    1 <1>  -0.1770 
  2 C       -0.3570     2.0520     1.1160 C.ar  1 <1>   0.1770 
  3 C        0.4470     2.9560     1.7930 C.ar  1 <1>  -0.1440 
  4 C       -1.2180     2.4580     0.1140 C.ar  1 <1>  -0.1500 
  5 C        0.3630     4.2910     1.4390 C.ar  1 <1>  -0.1500 
  6 C        1.3910     2.5050     2.8970 C.3   1 <1>  -0.0960 
  7 C       -1.3050     3.7950    -0.2570 C.ar  1 <1>  -0.0090 
  8 C       -0.4990     4.7020     0.4300 C.ar  1 <1>   0.0830 
  9 S       -2.4540     4.2940    -1.5720 S.o2  1 <1>   1.4470 
 10 O       -0.5610     6.0190     0.1550 O.3   1 <1>  -0.3630 
 11 O       -2.7210     3.1190    -2.3760 O.2   1 <1>  -0.6500 
 12 O       -2.0300     5.4930    -2.2630 O.2   1 <1>  -0.6500 
 13 N       -3.8990     4.6550    -0.7570 N.am  1 <1>  -0.8490 
 14 C        0.4790     6.5560    -0.6290 C.3   1 <1>   0.1200 
 15 C       -5.0250     4.7120    -1.6970 C.3   1 <1>   0.1960 
 16 C       -3.8090     5.9110    -0.0040 C.3   1 <1>   0.1960 
 17 C        0.1380     8.0130    -0.9230 C.3   1 <1>  -0.2400 
 18 C       -6.3400     4.8770    -0.9340 C.3   1 <1>  -0.1600 
 19 C       -5.0770     6.1150     0.8250 C.3   1 <1>  -0.1600 
 20 C       -6.3210     6.1340    -0.0670 C.3   1 <1>   0.4180 
 21 O       -6.2450     7.2220    -0.9560 O.3   1 <1>  -0.5600 
 22 C       -7.5990     6.2130     0.7640 C.2   1 <1>  -0.2880 
 23 C       -6.6260     8.4790    -0.4720 C.3   1 <1>   0.1200 
 24 C       -8.4300     7.2580     0.7630 C.2   1 <1>  -0.2760 
 25 C       -8.1100     8.4790    -0.0800 C.3   1 <1>  -0.0220 
 26 C       -9.7230     7.3310     1.5550 C.3   1 <1>  -0.1020 
 27 H       -1.8260     1.7210    -0.3810 H     1 <1>   0.1500 
 28 H        0.9580     5.0290     1.9480 H     1 <1>   0.1500 
 29 H        2.1000     1.7950     2.5070 H     1 <1>   0.0800 
 30 H        0.8340     2.0370     3.6890 H     1 <1>   0.0800 
 31 H        1.9340     3.3380     3.3070 H     1 <1>   0.0800 
 32 H        0.5460     5.9910    -1.5430 H     1 <1>   0.0800 
 33 H        1.4010     6.4770    -0.0800 H     1 <1>   0.0800 
 34 H       -5.0750     3.7980    -2.2660 H     1 <1>   0.0800 
 35 H       -4.8880     5.5290    -2.3870 H     1 <1>   0.0800 
 36 H       -3.6660     6.7420    -0.6770 H     1 <1>   0.0800 
 37 H       -2.9730     5.8750     0.6710 H     1 <1>   0.0800 
 38 H       -0.7870     8.0670    -1.4700 H     1 <1>   0.0800 
 39 H        0.9140     8.4540    -1.5210 H     1 <1>   0.0800 
 40 H        0.0500     8.5680    -0.0060 H     1 <1>   0.0800 
 41 H       -6.4910     4.0100    -0.3180 H     1 <1>   0.0800 
 42 H       -7.1600     4.9370    -1.6250 H     1 <1>   0.0800 
 43 H       -5.0090     7.0240     1.3900 H     1 <1>   0.0800 
 44 H       -5.1570     5.3070     1.5290 H     1 <1>   0.0800 
 45 H       -7.7680     5.3280     1.3520 H     1 <1>   0.1500 
 46 H       -6.4450     9.1990    -1.2490 H     1 <1>   0.0800 
 47 H       -6.0120     8.7230     0.3760 H     1 <1>   0.0800 
 48 H       -8.7190     8.4790    -0.9660 H     1 <1>   0.0800 
 49 H       -8.3170     9.3780     0.4720 H     1 <1>   0.0800 
 50 H      -10.5560     7.4720     0.8900 H     1 <1>   0.0800 
 51 H       -9.6880     8.1520     2.2490 H     1 <1>   0.0800 
 52 H       -9.8780     6.4230     2.1090 H     1 <1>   0.0800 
@<TRIPOS>BOND
  1   1   2  1   
  2   2   3  ar  
  3   2   4  ar  
  4   3   5  ar  
  5   3   6  1   
  6   4   7  ar  
  7   4  27  1   
  8   5   8  ar  
  9   5  28  1   
 10   6  29  1   
 11   6  30  1   
 12   6  31  1   
 13   7   8  ar  
 14   7   9  1   
 15   8  10  1   
 16   9  11  2   
 17   9  12  2   
 18   9  13  am  
 19  10  14  1   
 20  13  15  1   
 21  13  16  1   
 22  14  17  1   
 23  14  32  1   
 24  14  33  1   
 25  15  18  1   
 26  15  34  1   
 27  15  35  1   
 28  16  19  1   
 29  16  36  1   
 30  16  37  1   
 31  17  38  1   
 32  17  39  1   
 33  17  40  1   
 34  18  20  1   
 35  18  41  1   
 36  18  42  1   
 37  19  20  1   
 38  19  43  1   
 39  19  44  1   
 40  20  21  1   
 41  20  22  1   
 42  21  23  1   
 43  22  24  2   
 44  22  45  1   
 45  23  25  1   
 46  23  46  1   
 47  23  47  1   
 48  24  25  1   
 49  24  26  1   
 50  25  48  1   
 51  25  49  1   
 52  26  50  1   
 53  26  51  1   
 54  26  52  1   
@<TRIPOS>SUBSTRUCTURE
  1 ****  16 GROUP 4 **** **** 0

# MOE 2024.06 (io_trps.svl 2023.06)
