@<TRIPOS>MOLECULE
NONAME
46 49 1 0 0 
SMALL
USER_CHARGES


@<TRIPOS>ATOM
  1 O       -1.2300    -2.8470    -0.8830 O.2   1 <1>  -0.5700 
  2 C       -0.1080    -2.4650    -0.6380 C.2   1 <1>   0.6900 
  3 N        0.4990    -2.5320     0.5810 N.am  1 <1>  -0.4200 
  4 N        0.7080    -1.9130    -1.5570 N.am  1 <1>  -0.7300 
  5 C        1.7670    -2.0390     0.4920 C.2   1 <1>   0.5690 
  6 C       -0.0430    -3.2420     1.7680 C.3   1 <1>   0.2010 
  7 C        2.0260    -1.6110    -0.9450 C.3   1 <1>   0.2010 
  8 O        2.5600    -1.9340     1.3940 O.2   1 <1>  -0.5700 
  9 C       -0.1400    -4.7530     1.5450 C.2   1 <1>   0.5690 
 10 O        0.9010    -5.3680     1.5350 O.2   1 <1>  -0.5700 
 11 N       -1.3430    -5.4010     1.3790 N.am  1 <1>  -0.6600 
 12 C       -1.4080    -6.8920     1.2300 C.3   1 <1>   0.1400 
 13 C       -2.6700    -4.7540     1.1160 C.3   1 <1>   0.1400 
 14 C       -2.0920    -7.2930    -0.0910 C.3   1 <1>   0.3430 
 15 C       -3.2860    -5.2720    -0.2000 C.3   1 <1>   0.2950 
 16 O       -3.3450    -6.6690    -0.1920 O.3   1 <1>  -0.5600 
 17 C       -2.2640    -8.8080    -0.1650 C.ar  1 <1>  -0.1440 
 18 C       -4.7120    -4.7500    -0.3930 C.3   1 <1>  -0.1950 
 19 C       -1.2570    -9.5830    -0.7250 C.ar  1 <1>  -0.1500 
 20 C       -3.4000    -9.4360     0.3280 C.ar  1 <1>  -0.1500 
 21 C       -5.3280    -4.6660    -1.7540 C.3   1 <1>  -0.2000 
 22 C       -4.9560    -3.4110    -1.0160 C.3   1 <1>  -0.2000 
 23 C       -1.3820   -10.9600    -0.7890 C.ar  1 <1>  -0.1500 
 24 C       -3.5270   -10.8130     0.2640 C.ar  1 <1>  -0.1500 
 25 C       -2.5170   -11.5760    -0.2940 C.ar  1 <1>  -0.1500 
 26 H        0.5030    -1.9020    -2.5570 H     1 <1>   0.3700 
 27 H        0.6160    -3.0780     2.6010 H     1 <1>   0.0800 
 28 H       -0.9960    -2.8260     2.0280 H     1 <1>   0.0800 
 29 H        2.8070    -2.2050    -1.3850 H     1 <1>   0.0800 
 30 H        2.2520    -0.5610    -1.0000 H     1 <1>   0.0800 
 31 H       -0.4240    -7.3250     1.2550 H     1 <1>   0.0800 
 32 H       -1.9660    -7.3070     2.0510 H     1 <1>   0.0800 
 33 H       -3.3390    -4.9790     1.9270 H     1 <1>   0.0800 
 34 H       -2.5840    -3.6870     1.0470 H     1 <1>   0.0800 
 35 H       -1.4920    -6.9650    -0.9220 H     1 <1>   0.0800 
 36 H       -2.6770    -4.9660    -1.0340 H     1 <1>   0.0800 
 37 H       -5.3590    -5.0370     0.4170 H     1 <1>   0.1000 
 38 H       -0.3680    -9.1180    -1.1130 H     1 <1>   0.1500 
 39 H       -4.1930    -8.8510     0.7610 H     1 <1>   0.1500 
 40 H       -4.7400    -4.9670    -2.6050 H     1 <1>   0.1000 
 41 H       -6.3670    -4.9240    -1.8610 H     1 <1>   0.1000 
 42 H       -5.7440    -2.7900    -0.6260 H     1 <1>   0.1000 
 43 H       -4.1170    -2.8370    -1.3750 H     1 <1>   0.1000 
 44 H       -0.5970   -11.5510    -1.2250 H     1 <1>   0.1500 
 45 H       -4.4130   -11.2880     0.6480 H     1 <1>   0.1500 
 46 H       -2.6160   -12.6470    -0.3440 H     1 <1>   0.1500 
@<TRIPOS>BOND
  1   1   2  2   
  2   2   3  am  
  3   2   4  am  
  4   3   5  am  
  5   3   6  1   
  6   4   7  1   
  7   4  26  1   
  8   5   7  1   
  9   5   8  2   
 10   6   9  1   
 11   6  27  1   
 12   6  28  1   
 13   7  29  1   
 14   7  30  1   
 15   9  10  2   
 16   9  11  am  
 17  11  12  1   
 18  11  13  1   
 19  12  14  1   
 20  12  31  1   
 21  12  32  1   
 22  13  15  1   
 23  13  33  1   
 24  13  34  1   
 25  14  16  1   
 26  14  17  1   
 27  14  35  1   
 28  15  16  1   
 29  15  18  1   
 30  15  36  1   
 31  17  19  ar  
 32  17  20  ar  
 33  18  21  1   
 34  18  22  1   
 35  18  37  1   
 36  19  23  ar  
 37  19  38  1   
 38  20  24  ar  
 39  20  39  1   
 40  21  22  1   
 41  21  40  1   
 42  21  41  1   
 43  22  42  1   
 44  22  43  1   
 45  23  25  ar  
 46  23  44  1   
 47  24  25  ar  
 48  24  45  1   
 49  25  46  1   
@<TRIPOS>SUBSTRUCTURE
  1 ****  11 GROUP 4 **** **** 0

# MOE 2024.06 (io_trps.svl 2023.06)
