@<TRIPOS>MOLECULE
NONAME
44 46 1 0 0 
SMALL
USER_CHARGES


@<TRIPOS>ATOM
  1 S       -2.5090     0.0790     1.5060 S.3   1 <1>  -0.0800 
  2 C       -2.1490     0.4450    -0.1700 C.2   1 <1>   0.1980 
  3 C       -0.8500     0.4150     1.9050 C.2   1 <1>  -0.1100 
  4 N       -0.9370     0.7770    -0.3840 N.2   1 <1>  -0.5650 
  5 C       -3.2930     0.3390    -1.1710 C.3   1 <1>   0.3890 
  6 C       -0.1970     0.7600     0.7850 C.2   1 <1>   0.0460 
  7 N       -3.6700    -1.0930    -1.4330 N.pl3 1 <1>  -0.8380 
  8 C        1.2650     1.1320     0.6740 C.3   1 <1>  -0.0590 
  9 C       -4.5080    -1.8020    -0.6310 C.ar  1 <1>   0.4100 
 10 C       -2.7090    -1.7660    -2.3630 C.3   1 <1>   0.1290 
 11 N       -4.2290    -3.0760    -0.4330 N.ar  1 <1>  -0.6200 
 12 C       -5.6250    -1.2020    -0.0170 C.ar  1 <1>  -0.1500 
 13 C       -4.9890    -3.7790     0.3910 C.ar  1 <1>   0.7710 
 14 C       -6.3940    -1.9340     0.8250 C.ar  1 <1>   0.2180 
 15 N       -6.0420    -3.2260     1.0170 N.ar  1 <1>  -0.1790 
 16 N       -4.6930    -5.0880     0.6180 N.pl3 1 <1>  -0.8380 
 17 C       -7.6110    -1.3840     1.5490 C.3   1 <1>  -0.0970 
 18 C       -3.4040    -5.7050     0.1270 C.3   1 <1>   0.2090 
 19 C       -5.5460    -6.1170     1.3100 C.3   1 <1>   0.2090 
 20 C       -3.6700    -6.9940    -0.6680 C.3   1 <1>   0.1200 
 21 C       -5.6970    -7.3850     0.4460 C.3   1 <1>   0.1200 
 22 O       -4.4440    -7.8830     0.0860 O.3   1 <1>  -0.5600 
 23 H       -0.5420     0.3180     2.9300 H     1 <1>   0.1500 
 24 H       -2.9830     0.7990    -2.0930 H     1 <1>   0.0800 
 25 H       -4.1290     0.9000    -0.8020 H     1 <1>   0.0800 
 26 H        1.7400     1.0870     1.6370 H     1 <1>   0.0800 
 27 H        1.3560     2.1300     0.2840 H     1 <1>   0.0800 
 28 H        1.7600     0.4520     0.0060 H     1 <1>   0.0800 
 29 H       -2.5600    -1.1660    -3.2440 H     1 <1>   0.0800 
 30 H       -3.0860    -2.7260    -2.6720 H     1 <1>   0.0800 
 31 H       -1.7620    -1.9060    -1.8690 H     1 <1>   0.0800 
 32 H       -5.8550    -0.1780    -0.2330 H     1 <1>   0.1500 
 33 H       -6.5370    -3.8280     1.6600 H     1 <1>   0.4570 
 34 H       -7.7630    -0.3490     1.2950 H     1 <1>   0.0800 
 35 H       -7.4770    -1.4500     2.6140 H     1 <1>   0.0800 
 36 H       -8.4940    -1.9300     1.2690 H     1 <1>   0.0800 
 37 H       -2.7830    -5.9460     0.9730 H     1 <1>   0.0800 
 38 H       -2.8420    -5.0320    -0.4960 H     1 <1>   0.0800 
 39 H       -6.5280    -5.7390     1.5230 H     1 <1>   0.0800 
 40 H       -5.0830    -6.3940     2.2430 H     1 <1>   0.0800 
 41 H       -2.7420    -7.4840    -0.9020 H     1 <1>   0.0800 
 42 H       -4.1860    -6.7750    -1.5870 H     1 <1>   0.0800 
 43 H       -6.2550    -7.1770    -0.4510 H     1 <1>   0.0800 
 44 H       -6.2050    -8.1550     0.9980 H     1 <1>   0.0800 
@<TRIPOS>BOND
  1   1   2  1   
  2   1   3  1   
  3   2   4  2   
  4   2   5  1   
  5   3   6  2   
  6   3  23  1   
  7   4   6  1   
  8   5   7  1   
  9   5  24  1   
 10   5  25  1   
 11   6   8  1   
 12   7   9  1   
 13   7  10  1   
 14   8  26  1   
 15   8  27  1   
 16   8  28  1   
 17   9  11  ar  
 18   9  12  ar  
 19  10  29  1   
 20  10  30  1   
 21  10  31  1   
 22  11  13  ar  
 23  12  14  ar  
 24  12  32  1   
 25  13  15  ar  
 26  13  16  1   
 27  14  15  ar  
 28  14  17  1   
 29  15  33  1   
 30  16  18  1   
 31  16  19  1   
 32  17  34  1   
 33  17  35  1   
 34  17  36  1   
 35  18  20  1   
 36  18  37  1   
 37  18  38  1   
 38  19  21  1   
 39  19  39  1   
 40  19  40  1   
 41  20  22  1   
 42  20  41  1   
 43  20  42  1   
 44  21  22  1   
 45  21  43  1   
 46  21  44  1   
@<TRIPOS>SUBSTRUCTURE
  1 ****  11 GROUP 4 **** **** 0

# MOE 2024.06 (io_trps.svl 2023.06)
