@<TRIPOS>MOLECULE
NONAME
51 53 1 0 0 
SMALL
USER_CHARGES


@<TRIPOS>ATOM
  1 O        0.3950    -0.4090    -0.6290 O.2   1 <1>  -0.5700 
  2 C        1.0890    -1.3330    -0.2830 C.2   1 <1>   0.5690 
  3 N        0.6730    -2.3100     0.5800 N.am  1 <1>  -0.6600 
  4 C        2.4990    -1.4370    -0.8260 C.3   1 <1>  -0.0990 
  5 C        1.5920    -3.3970     0.9930 C.3   1 <1>   0.1400 
  6 C       -0.6780    -2.2980     1.2050 C.3   1 <1>   0.0600 
  7 C        2.7930    -2.8820    -1.2680 C.3   1 <1>  -0.0800 
  8 C        2.3570    -3.9450    -0.2310 C.3   1 <1>  -0.0800 
  9 C        4.2780    -3.1290    -1.5670 C.3   1 <1>  -0.1600 
 10 C        3.6330    -4.7080     0.1520 C.3   1 <1>  -0.1600 
 11 C        4.5460    -4.5410    -1.0600 C.3   1 <1>   0.4230 
 12 N        6.0000    -4.8340    -0.8350 N.4   1 <1>  -0.9590 
 13 C        6.6160    -4.4240     0.4740 C.3   1 <1>   0.4860 
 14 C        6.2510    -6.2900    -1.0650 C.3   1 <1>   0.2630 
 15 C        6.7480    -2.9190     0.5750 C.ar  1 <1>  -0.1440 
 16 C        7.6270    -2.2370    -0.2550 C.ar  1 <1>   0.1600 
 17 C        6.0000    -2.1960     1.4870 C.ar  1 <1>  -0.1500 
 18 N        7.7850    -0.9290    -0.2780 N.ar  1 <1>  -0.6200 
 19 C        6.1620    -0.8290     1.4820 C.ar  1 <1>  -0.1500 
 20 C        7.0480    -0.2440     0.5920 C.ar  1 <1>   0.3930 
 21 O        7.1510     1.0990     0.6280 O.3   1 <1>  -0.3630 
 22 C        8.0380     1.7850    -0.2290 C.3   1 <1>   0.1200 
 23 C        7.9170     3.2790     0.0570 C.3   1 <1>  -0.2400 
 24 H        2.6110    -0.7640    -1.6570 H     1 <1>   0.0800 
 25 H        3.1730    -1.1260    -0.0490 H     1 <1>   0.0800 
 26 H        2.2770    -2.9910     1.7170 H     1 <1>   0.0800 
 27 H        1.0370    -4.1920     1.4620 H     1 <1>   0.0800 
 28 H       -1.2060    -3.1990     0.9490 H     1 <1>   0.0800 
 29 H       -1.2490    -1.4550     0.8550 H     1 <1>   0.0800 
 30 H       -0.5850    -2.2290     2.2750 H     1 <1>   0.0800 
 31 H        2.2240    -3.0620    -2.1680 H     1 <1>   0.0800 
 32 H        1.6960    -4.6320    -0.7350 H     1 <1>   0.0800 
 33 H        4.8670    -2.3980    -1.0510 H     1 <1>   0.0800 
 34 H        4.4690    -3.0490    -2.6230 H     1 <1>   0.0800 
 35 H        3.4180    -5.7440     0.3520 H     1 <1>   0.0800 
 36 H        4.0530    -4.2500     1.0250 H     1 <1>   0.0800 
 37 H        4.1780    -5.2060    -1.8250 H     1 <1>   0.0800 
 38 H        6.4970    -4.3090    -1.5660 H     1 <1>   0.4500 
 39 H        6.0290    -4.7980     1.2970 H     1 <1>   0.0800 
 40 H        7.6010    -4.8520     0.5570 H     1 <1>   0.0800 
 41 H        5.7360    -6.8820    -0.3260 H     1 <1>   0.0800 
 42 H        7.3060    -6.5060    -1.0070 H     1 <1>   0.0800 
 43 H        5.8990    -6.5810    -2.0430 H     1 <1>   0.0800 
 44 H        8.2380    -2.7890    -0.9490 H     1 <1>   0.1500 
 45 H        5.3160    -2.6560     2.1800 H     1 <1>   0.1500 
 46 H        5.6140    -0.1980     2.1580 H     1 <1>   0.1500 
 47 H        9.0380     1.4350    -0.0360 H     1 <1>   0.0800 
 48 H        7.7660     1.5650    -1.2480 H     1 <1>   0.0800 
 49 H        8.1830     3.4820     1.0790 H     1 <1>   0.0800 
 50 H        6.9110     3.6100    -0.1260 H     1 <1>   0.0800 
 51 H        8.5820     3.8260    -0.5860 H     1 <1>   0.0800 
@<TRIPOS>BOND
  1   1   2  2   
  2   2   3  am  
  3   2   4  1   
  4   3   5  1   
  5   3   6  1   
  6   4   7  1   
  7   4  24  1   
  8   4  25  1   
  9   5   8  1   
 10   5  26  1   
 11   5  27  1   
 12   6  28  1   
 13   6  29  1   
 14   6  30  1   
 15   7   8  1   
 16   7   9  1   
 17   7  31  1   
 18   8  10  1   
 19   8  32  1   
 20   9  11  1   
 21   9  33  1   
 22   9  34  1   
 23  10  11  1   
 24  10  35  1   
 25  10  36  1   
 26  11  12  1   
 27  11  37  1   
 28  12  13  1   
 29  12  14  1   
 30  12  38  1   
 31  13  15  1   
 32  13  39  1   
 33  13  40  1   
 34  14  41  1   
 35  14  42  1   
 36  14  43  1   
 37  15  16  ar  
 38  15  17  ar  
 39  16  18  ar  
 40  16  44  1   
 41  17  19  ar  
 42  17  45  1   
 43  18  20  ar  
 44  19  20  ar  
 45  19  46  1   
 46  20  21  1   
 47  21  22  1   
 48  22  23  1   
 49  22  47  1   
 50  22  48  1   
 51  23  49  1   
 52  23  50  1   
 53  23  51  1   
@<TRIPOS>SUBSTRUCTURE
  1 ****   9 GROUP 4 **** **** 0

# MOE 2024.06 (io_trps.svl 2023.06)
