@<TRIPOS>MOLECULE
NONAME
36 38 1 0 0 
SMALL
USER_CHARGES


@<TRIPOS>ATOM
  1 CL       2.1580    -0.1150    -1.7340 Cl    1 <1>  -0.1770 
  2 C        2.4050     1.0310    -0.4360 C.ar  1 <1>   0.1770 
  3 C        2.4950     2.3900    -0.6920 C.ar  1 <1>   0.1900 
  4 C        2.5060     0.5640     0.8610 C.ar  1 <1>  -0.1500 
  5 F        2.3780     2.8080    -1.9270 F     1 <1>  -0.1900 
  6 C        2.6980     3.3130     0.3260 C.ar  1 <1>  -0.1440 
  7 C        2.6950     1.4700     1.8930 C.ar  1 <1>  -0.1500 
  8 C        2.7870     2.8300     1.6270 C.ar  1 <1>  -0.1500 
  9 C        2.7990     4.8120     0.0460 C.3   1 <1>   0.2540 
 10 N        4.1850     5.2760    -0.1500 N.3   1 <1>  -0.8100 
 11 C        5.0350     5.1140     1.0580 C.3   1 <1>   0.1100 
 12 C        4.7810     4.7530    -1.3990 C.3   1 <1>   0.1100 
 13 C        6.3950     5.8650     1.0390 C.3   1 <1>   0.2200 
 14 C        6.0780     5.4650    -1.8390 C.3   1 <1>  -0.0190 
 15 N        6.4180     6.9990     0.0790 N.am  1 <1>  -0.7300 
 16 C        7.5780     4.9100     0.7670 C.3   1 <1>   0.1200 
 17 C        6.2280     6.8550    -1.2490 C.2   1 <1>   0.5690 
 18 C        7.3420     4.6280    -1.5820 C.3   1 <1>   0.1200 
 19 O        7.3510     4.0470    -0.3110 O.3   1 <1>  -0.5600 
 20 O        6.2120     7.8210    -1.9710 O.2   1 <1>  -0.5700 
 21 H        2.4350    -0.4910     1.0570 H     1 <1>   0.1500 
 22 H        2.7700     1.1160     2.9080 H     1 <1>   0.1500 
 23 H        2.9290     3.5150     2.4450 H     1 <1>   0.1500 
 24 H        2.3670     5.3550     0.8690 H     1 <1>   0.0800 
 25 H        2.2190     5.0620    -0.8260 H     1 <1>   0.0800 
 26 H        4.4840     5.4860     1.9030 H     1 <1>   0.0800 
 27 H        5.2130     4.0670     1.2340 H     1 <1>   0.0800 
 28 H        4.9600     3.6950    -1.3040 H     1 <1>   0.0800 
 29 H        4.0620     4.8880    -2.1890 H     1 <1>   0.0800 
 30 H        6.5550     6.2730     2.0210 H     1 <1>   0.0800 
 31 H        6.0220     5.5910    -2.9040 H     1 <1>   0.0800 
 32 H        6.3650     7.9470     0.4470 H     1 <1>   0.3700 
 33 H        7.7250     4.2840     1.6280 H     1 <1>   0.0800 
 34 H        8.4860     5.4620     0.5940 H     1 <1>   0.0800 
 35 H        8.2330     5.2200    -1.7060 H     1 <1>   0.0800 
 36 H        7.3760     3.8170    -2.2880 H     1 <1>   0.0800 
@<TRIPOS>BOND
  1   1   2  1   
  2   2   3  ar  
  3   2   4  ar  
  4   3   5  1   
  5   3   6  ar  
  6   4   7  ar  
  7   4  21  1   
  8   6   8  ar  
  9   6   9  1   
 10   7   8  ar  
 11   7  22  1   
 12   8  23  1   
 13   9  10  1   
 14   9  24  1   
 15   9  25  1   
 16  10  11  1   
 17  10  12  1   
 18  11  13  1   
 19  11  26  1   
 20  11  27  1   
 21  12  14  1   
 22  12  28  1   
 23  12  29  1   
 24  13  15  1   
 25  13  16  1   
 26  13  30  1   
 27  14  17  1   
 28  14  18  1   
 29  14  31  1   
 30  15  17  am  
 31  15  32  1   
 32  16  19  1   
 33  16  33  1   
 34  16  34  1   
 35  17  20  2   
 36  18  19  1   
 37  18  35  1   
 38  18  36  1   
@<TRIPOS>SUBSTRUCTURE
  1 ****  10 GROUP 4 **** **** 0

# MOE 2024.06 (io_trps.svl 2023.06)
