@<TRIPOS>MOLECULE
NONAME
53 55 1 0 0 
SMALL
USER_CHARGES


@<TRIPOS>ATOM
  1 F       -0.9420    -0.4400    -0.1380 F     1 <1>  -0.1900 
  2 C       -1.8480     0.3990     0.2980 C.ar  1 <1>   0.1900 
  3 C       -1.6920     1.7490    -0.0020 C.ar  1 <1>   0.0820 
  4 C       -2.9120    -0.1130     1.0410 C.ar  1 <1>   0.0860 
  5 O       -0.6050     2.1060    -0.7540 O.3   1 <1>  -0.3630 
  6 C       -2.6730     2.6120     0.4960 C.ar  1 <1>   0.1900 
  7 C       -3.0590    -1.5210     1.3280 C.2   1 <1>   0.5440 
  8 C       -3.8510     0.8010     1.5220 C.ar  1 <1>  -0.1500 
  9 C       -0.1870     3.4430    -0.9230 C.3   1 <1>   0.0400 
 10 F       -2.6410     3.8980     0.2670 F     1 <1>  -0.1900 
 11 C       -3.7380     2.1530     1.2520 C.ar  1 <1>  -0.1500 
 12 O       -3.0200    -1.8820     2.4880 O.2   1 <1>  -0.5700 
 13 N       -3.2940    -2.4480     0.3380 N.am  1 <1>  -0.6600 
 14 C       -3.4540    -3.9100     0.6590 C.3   1 <1>   0.3640 
 15 C       -3.5770    -2.0610    -1.0820 C.3   1 <1>   0.1400 
 16 C       -2.2160    -4.7320     0.2510 C.ar  1 <1>  -0.1430 
 17 C       -4.7650    -4.4690     0.0160 C.3   1 <1>   0.2000 
 18 C       -4.1160    -3.2350    -1.9140 C.3   1 <1>   0.1200 
 19 C       -2.2030    -6.0930     0.5380 C.ar  1 <1>  -0.1500 
 20 C       -1.0970    -4.1840    -0.3720 C.ar  1 <1>  -0.1500 
 21 O       -5.1360    -3.8730    -1.2110 O.3   1 <1>  -0.5600 
 22 C       -5.9590    -4.2900     0.9620 C.3   1 <1>   0.1200 
 23 C       -1.1330    -6.8970     0.1850 C.ar  1 <1>   0.0830 
 24 C       -0.0120    -4.9730    -0.7120 C.ar  1 <1>  -0.1500 
 25 O       -5.8620    -5.1740     2.0330 O.3   1 <1>  -0.6800 
 26 O       -1.2340    -8.2220     0.4600 O.3   1 <1>  -0.3630 
 27 C       -0.0130    -6.3260    -0.4280 C.ar  1 <1>   0.0830 
 28 C       -1.2210    -9.0990    -0.6460 C.3   1 <1>   0.0400 
 29 O        1.0940    -7.0370    -0.7510 O.3   1 <1>  -0.3630 
 30 C        1.8550    -7.5190     0.3350 C.3   1 <1>   0.0400 
 31 H       -4.6730     0.4370     2.1170 H     1 <1>   0.1500 
 32 H        0.7580     3.4360    -1.4360 H     1 <1>   0.0800 
 33 H       -0.0730     3.9020     0.0430 H     1 <1>   0.0800 
 34 H       -0.9160     3.9670    -1.5160 H     1 <1>   0.0800 
 35 H       -4.4680     2.8510     1.6240 H     1 <1>   0.1500 
 36 H       -3.5420    -4.0350     1.7250 H     1 <1>   0.0800 
 37 H       -4.3060    -1.2700    -1.0950 H     1 <1>   0.0800 
 38 H       -2.6780    -1.6940    -1.5450 H     1 <1>   0.0800 
 39 H       -4.6550    -5.5180    -0.1860 H     1 <1>   0.0800 
 40 H       -3.3420    -3.9500    -2.1340 H     1 <1>   0.0800 
 41 H       -4.5260    -2.8770    -2.8420 H     1 <1>   0.0800 
 42 H       -3.0320    -6.5540     1.0440 H     1 <1>   0.1500 
 43 H       -1.0430    -3.1340    -0.5920 H     1 <1>   0.1500 
 44 H       -6.8840    -4.4890     0.4490 H     1 <1>   0.0800 
 45 H       -5.9720    -3.2890     1.3570 H     1 <1>   0.0800 
 46 H        0.8470    -4.5380    -1.1900 H     1 <1>   0.1500 
 47 H       -6.1270    -6.0760     1.7660 H     1 <1>   0.4000 
 48 H       -1.4680   -10.0840    -0.2950 H     1 <1>   0.0800 
 49 H       -0.2420    -9.1040    -1.0870 H     1 <1>   0.0800 
 50 H       -1.9520    -8.7670    -1.3610 H     1 <1>   0.0800 
 51 H        2.7360    -7.9940    -0.0560 H     1 <1>   0.0800 
 52 H        1.2710    -8.2290     0.8920 H     1 <1>   0.0800 
 53 H        2.1290    -6.6880     0.9610 H     1 <1>   0.0800 
@<TRIPOS>BOND
  1   1   2  1   
  2   2   3  ar  
  3   2   4  ar  
  4   3   5  1   
  5   3   6  ar  
  6   4   7  1   
  7   4   8  ar  
  8   5   9  1   
  9   6  10  1   
 10   6  11  ar  
 11   7  12  2   
 12   7  13  am  
 13   8  11  ar  
 14   8  31  1   
 15   9  32  1   
 16   9  33  1   
 17   9  34  1   
 18  11  35  1   
 19  13  14  1   
 20  13  15  1   
 21  14  16  1   
 22  14  17  1   
 23  14  36  1   
 24  15  18  1   
 25  15  37  1   
 26  15  38  1   
 27  16  19  ar  
 28  16  20  ar  
 29  17  21  1   
 30  17  22  1   
 31  17  39  1   
 32  18  21  1   
 33  18  40  1   
 34  18  41  1   
 35  19  23  ar  
 36  19  42  1   
 37  20  24  ar  
 38  20  43  1   
 39  22  25  1   
 40  22  44  1   
 41  22  45  1   
 42  23  26  1   
 43  23  27  ar  
 44  24  27  ar  
 45  24  46  1   
 46  25  47  1   
 47  26  28  1   
 48  27  29  1   
 49  28  48  1   
 50  28  49  1   
 51  28  50  1   
 52  29  30  1   
 53  30  51  1   
 54  30  52  1   
 55  30  53  1   
@<TRIPOS>SUBSTRUCTURE
  1 ****  13 GROUP 4 **** **** 0

# MOE 2024.06 (io_trps.svl 2023.06)
