@<TRIPOS>MOLECULE
NONAME
40 41 1 0 0 
SMALL
USER_CHARGES


@<TRIPOS>ATOM
  1 S        0.4220     0.0310     0.5460 S.o2  1 <1>   1.3330 
  2 O        1.8180     0.1290     0.9130 O.2   1 <1>  -0.6500 
  3 O       -0.5730    -0.1210     1.5830 O.2   1 <1>  -0.6500 
  4 N        0.2610    -1.2590    -0.5450 N.am  1 <1>  -0.8490 
  5 C       -0.0330     1.4530    -0.4440 C.3   1 <1>  -0.0550 
  6 C        1.4360    -1.4510    -1.4010 C.3   1 <1>   0.1160 
  7 C       -0.0770    -2.5170     0.1280 C.3   1 <1>   0.1160 
  8 C       -0.0410     2.7660     0.3560 C.3   1 <1>  -0.0800 
  9 C       -0.5530     3.9370    -0.4710 C.3   1 <1>   0.2000 
 10 C        1.3470     3.2140     0.8380 C.3   1 <1>   0.1100 
 11 O       -1.9310     4.0350    -0.3690 O.3   1 <1>  -0.6800 
 12 C        0.1540     5.1420     0.1290 C.3   1 <1>   0.1100 
 13 N        1.4850     4.6320     0.4820 N.3   1 <1>  -0.8100 
 14 C        2.1640     5.4350     1.5280 C.3   1 <1>   0.2900 
 15 C        2.2990     6.9090     1.1620 C.2   1 <1>   0.2980 
 16 O        3.0650     7.2830     0.1860 O.3   1 <1>  -0.2800 
 17 N        1.7190     7.9000     1.7270 N.2   1 <1>  -0.3380 
 18 C        2.9270     8.5670     0.1660 C.2   1 <1>   0.2980 
 19 N        2.1300     8.9870     1.0730 N.2   1 <1>  -0.3380 
 20 C        3.6710     9.3870    -0.8600 C.3   1 <1>  -0.0600 
 21 H        0.6410     1.5470    -1.2730 H     1 <1>   0.0800 
 22 H       -1.0180     1.2910    -0.8390 H     1 <1>   0.0800 
 23 H        1.2410    -2.2190    -2.1300 H     1 <1>   0.0800 
 24 H        2.2910    -1.7370    -0.8100 H     1 <1>   0.0800 
 25 H        1.6680    -0.5390    -1.9240 H     1 <1>   0.0800 
 26 H       -0.1880    -3.3090    -0.5930 H     1 <1>   0.0800 
 27 H       -1.0090    -2.4130     0.6580 H     1 <1>   0.0800 
 28 H        0.6940    -2.7840     0.8330 H     1 <1>   0.0800 
 29 H       -0.6620     2.6440     1.2270 H     1 <1>   0.0800 
 30 H       -0.2890     3.8400    -1.5100 H     1 <1>   0.0800 
 31 H        2.1330     2.6590     0.3520 H     1 <1>   0.0800 
 32 H        1.4290     3.0640     1.9030 H     1 <1>   0.0800 
 33 H       -2.1980     4.1480     0.5640 H     1 <1>   0.4000 
 34 H       -0.3610     5.4740     1.0150 H     1 <1>   0.0800 
 35 H        0.2320     5.9480    -0.5800 H     1 <1>   0.0800 
 36 H        1.6130     5.3630     2.4490 H     1 <1>   0.0800 
 37 H        3.1480     5.0350     1.6930 H     1 <1>   0.0800 
 38 H        3.4380    10.4290    -0.7330 H     1 <1>   0.0800 
 39 H        3.3830     9.0780    -1.8470 H     1 <1>   0.0800 
 40 H        4.7290     9.2460    -0.7380 H     1 <1>   0.0800 
@<TRIPOS>BOND
  1   1   2  2   
  2   1   3  2   
  3   1   4  am  
  4   1   5  1   
  5   4   6  1   
  6   4   7  1   
  7   5   8  1   
  8   5  21  1   
  9   5  22  1   
 10   6  23  1   
 11   6  24  1   
 12   6  25  1   
 13   7  26  1   
 14   7  27  1   
 15   7  28  1   
 16   8   9  1   
 17   8  10  1   
 18   8  29  1   
 19   9  11  1   
 20   9  12  1   
 21   9  30  1   
 22  10  13  1   
 23  10  31  1   
 24  10  32  1   
 25  11  33  1   
 26  12  13  1   
 27  12  34  1   
 28  12  35  1   
 29  13  14  1   
 30  14  15  1   
 31  14  36  1   
 32  14  37  1   
 33  15  16  1   
 34  15  17  2   
 35  16  18  1   
 36  17  19  1   
 37  18  19  2   
 38  18  20  1   
 39  20  38  1   
 40  20  39  1   
 41  20  40  1   
@<TRIPOS>SUBSTRUCTURE
  1 ****  10 GROUP 4 **** **** 0

# MOE 2024.06 (io_trps.svl 2023.06)
