@<TRIPOS>MOLECULE
NONAME
50 53 1 0 0 
SMALL
USER_CHARGES


@<TRIPOS>ATOM
  1 S       -0.4300     0.3500     1.3200 S.o2  1 <1>   1.4470 
  2 O       -0.2710    -0.9470     1.9360 O.2   1 <1>  -0.6500 
  3 O       -1.1100     1.3810     2.0690 O.2   1 <1>  -0.6500 
  4 N       -1.4210     0.1540    -0.0240 N.am  1 <1>  -0.9140 
  5 C        1.1540     0.9640     0.6550 C.ar  1 <1>  -0.0090 
  6 C       -1.4850    -1.1310    -0.7290 C.3   1 <1>   0.2760 
  7 C        1.2900     2.1820    -0.0200 C.ar  1 <1>  -0.1440 
  8 C        2.2950     0.1840     0.8110 C.ar  1 <1>  -0.1500 
  9 C       -2.2210    -2.2350     0.0390 C.3   1 <1>  -0.0800 
 10 C       -0.1500    -1.7700    -1.1290 C.3   1 <1>   0.1200 
 11 C        2.5250     2.5720    -0.5160 C.ar  1 <1>  -0.1500 
 12 C        0.1090     3.1220    -0.2350 C.3   1 <1>  -0.0970 
 13 C        3.5400     0.5610     0.3200 C.ar  1 <1>  -0.0230 
 14 C       -1.2180    -3.3930     0.0080 C.3   1 <1>   0.1200 
 15 C       -3.5540    -2.6010    -0.6390 C.3   1 <1>  -0.0160 
 16 O       -0.3960    -3.1370    -1.0830 O.3   1 <1>  -0.5600 
 17 C        3.6380     1.7720    -0.3520 C.ar  1 <1>  -0.1500 
 18 N        4.6770    -0.2790     0.5000 N.pl3 1 <1>   0.5930 
 19 C       -4.2860    -3.7080     0.1060 C.ar  1 <1>  -0.1440 
 20 N        4.6050    -1.6340     0.5090 N.2   1 <1>  -0.7070 
 21 C        5.9650     0.1090     0.6820 C.2   1 <1>  -0.3020 
 22 C       -4.8930    -3.4900     1.3260 C.ar  1 <1>  -0.1500 
 23 C       -4.3830    -4.9880    -0.4020 C.ar  1 <1>  -0.1500 
 24 C        5.8190    -2.0500     0.6870 C.2   1 <1>   0.1390 
 25 C        6.7210    -1.0010     0.8030 C.2   1 <1>  -0.1500 
 26 C       -5.5460    -4.5330     1.9620 C.ar  1 <1>   0.1600 
 27 C       -5.0610    -5.9600     0.3150 C.ar  1 <1>   0.1600 
 28 N       -5.6450    -5.7640     1.4860 N.ar  1 <1>  -0.6200 
 29 H       -2.3470     0.3730     0.3360 H     1 <1>   0.4200 
 30 H       -2.0130    -0.9510    -1.6510 H     1 <1>   0.0800 
 31 H        2.2190    -0.7580     1.3320 H     1 <1>   0.1500 
 32 H       -2.4110    -1.9650     1.0620 H     1 <1>   0.0800 
 33 H        0.6410    -1.5660    -0.4340 H     1 <1>   0.0800 
 34 H        0.1480    -1.5030    -2.1270 H     1 <1>   0.0800 
 35 H        2.6290     3.5080    -1.0380 H     1 <1>   0.1500 
 36 H        0.4060     4.0010    -0.7790 H     1 <1>   0.0800 
 37 H       -0.2920     3.4410     0.7110 H     1 <1>   0.0800 
 38 H       -0.6650     2.6330    -0.7980 H     1 <1>   0.0800 
 39 H       -1.6730    -4.3600    -0.1120 H     1 <1>   0.0800 
 40 H       -0.6030    -3.3920     0.8930 H     1 <1>   0.0800 
 41 H       -3.3700    -2.9110    -1.6540 H     1 <1>   0.0800 
 42 H       -4.1890    -1.7330    -0.6740 H     1 <1>   0.0800 
 43 H        4.5820     2.0950    -0.7550 H     1 <1>   0.1500 
 44 H        6.2570     1.1410     0.7190 H     1 <1>   0.1500 
 45 H       -4.8650    -2.5220     1.7910 H     1 <1>   0.1500 
 46 H       -3.9370    -5.2420    -1.3470 H     1 <1>   0.1500 
 47 H        6.0860    -3.0930     0.7390 H     1 <1>   0.1500 
 48 H        7.7830    -1.0920     0.9580 H     1 <1>   0.1500 
 49 H       -6.0130    -4.3450     2.9140 H     1 <1>   0.1500 
 50 H       -5.1250    -6.9530    -0.0970 H     1 <1>   0.1500 
@<TRIPOS>BOND
  1   1   2  2   
  2   1   3  2   
  3   1   4  am  
  4   1   5  1   
  5   4   6  1   
  6   4  29  1   
  7   5   7  ar  
  8   5   8  ar  
  9   6   9  1   
 10   6  10  1   
 11   6  30  1   
 12   7  11  ar  
 13   7  12  1   
 14   8  13  ar  
 15   8  31  1   
 16   9  14  1   
 17   9  15  1   
 18   9  32  1   
 19  10  16  1   
 20  10  33  1   
 21  10  34  1   
 22  11  17  ar  
 23  11  35  1   
 24  12  36  1   
 25  12  37  1   
 26  12  38  1   
 27  13  17  ar  
 28  13  18  1   
 29  14  16  1   
 30  14  39  1   
 31  14  40  1   
 32  15  19  1   
 33  15  41  1   
 34  15  42  1   
 35  17  43  1   
 36  18  20  1   
 37  18  21  1   
 38  19  22  ar  
 39  19  23  ar  
 40  20  24  2   
 41  21  25  2   
 42  21  44  1   
 43  22  26  ar  
 44  22  45  1   
 45  23  27  ar  
 46  23  46  1   
 47  24  25  1   
 48  24  47  1   
 49  25  48  1   
 50  26  28  ar  
 51  26  49  1   
 52  27  28  ar  
 53  27  50  1   
@<TRIPOS>SUBSTRUCTURE
  1 ****  10 GROUP 4 **** **** 0

# MOE 2024.06 (io_trps.svl 2023.06)
