@<TRIPOS>MOLECULE
NONAME
49 52 1 0 0 
SMALL
USER_CHARGES


@<TRIPOS>ATOM
  1 O        2.2090    -0.4600     0.5080 O.3   1 <1>  -0.5600 
  2 C        2.5790    -1.2030    -0.6360 C.3   1 <1>   0.4240 
  3 C        0.8450    -0.3670     0.8000 C.3   1 <1>   0.1200 
  4 C        1.6820    -2.4380    -0.8510 C.ar  1 <1>  -0.1440 
  5 C        4.0370    -1.6270    -0.3800 C.3   1 <1>  -0.1600 
  6 C        2.5390    -0.2480    -1.8380 C.3   1 <1>  -0.1600 
  7 C        0.3170    -1.7560     1.1430 C.3   1 <1>  -0.0160 
  8 C        0.6140    -2.7050    -0.0010 C.ar  1 <1>  -0.1440 
  9 C        1.9190    -3.3110    -1.9090 C.ar  1 <1>  -0.1500 
 10 C        5.0590    -0.4980    -0.5660 C.3   1 <1>   0.3430 
 11 C        3.4010     1.0050    -1.6340 C.3   1 <1>   0.3430 
 12 C       -0.1840    -3.8210    -0.1930 C.ar  1 <1>  -0.1500 
 13 C        1.1200    -4.4230    -2.1040 C.ar  1 <1>  -0.1500 
 14 N        4.3750     0.8170    -0.5150 N.4   1 <1>  -0.9590 
 15 C        0.0670    -4.6890    -1.2490 C.ar  1 <1>   0.0820 
 16 C        5.2900     1.9710    -0.3210 C.3   1 <1>   0.4860 
 17 O       -0.6640    -5.8020    -1.5070 O.3   1 <1>  -0.3620 
 18 C        4.4550     3.2070    -0.0440 C.ar  1 <1>  -0.1440 
 19 C       -1.7470    -6.1780    -0.6860 C.3   1 <1>   0.0400 
 20 C        4.3570     4.2400    -0.9580 C.ar  1 <1>  -0.1500 
 21 C        3.7430     3.3590     1.1320 C.ar  1 <1>  -0.1500 
 22 C        3.5630     5.3360    -0.6660 C.ar  1 <1>   0.1600 
 23 C        2.9780     4.4960     1.3240 C.ar  1 <1>   0.1600 
 24 N        2.8680     5.4800     0.4490 N.ar  1 <1>  -0.6200 
 25 H        0.3250     0.0420    -0.0500 H     1 <1>   0.0800 
 26 H        0.7250     0.2950     1.6390 H     1 <1>   0.0800 
 27 H        4.3160    -2.4220    -1.0460 H     1 <1>   0.0800 
 28 H        4.1110    -2.0290     0.6150 H     1 <1>   0.0800 
 29 H        1.5250     0.0380    -2.0520 H     1 <1>   0.0800 
 30 H        2.8980    -0.7630    -2.7100 H     1 <1>   0.0800 
 31 H       -0.7440    -1.6990     1.3120 H     1 <1>   0.0800 
 32 H        0.7840    -2.1110     2.0440 H     1 <1>   0.0800 
 33 H        2.7250    -3.1430    -2.6000 H     1 <1>   0.1500 
 34 H        5.5500    -0.6100    -1.5200 H     1 <1>   0.0800 
 35 H        5.8060    -0.5660     0.2090 H     1 <1>   0.0800 
 36 H        2.7540     1.8360    -1.3970 H     1 <1>   0.0800 
 37 H        3.9200     1.2390    -2.5490 H     1 <1>   0.0800 
 38 H       -0.9970    -4.0040     0.4840 H     1 <1>   0.1500 
 39 H        1.3080    -5.0960    -2.9210 H     1 <1>   0.1500 
 40 H        3.7640     0.7610     0.3220 H     1 <1>   0.4500 
 41 H        5.8930     2.1220    -1.2020 H     1 <1>   0.0800 
 42 H        5.9450     1.7890     0.5160 H     1 <1>   0.0800 
 43 H       -2.1620    -7.0880    -1.0780 H     1 <1>   0.0800 
 44 H       -2.4880    -5.3990    -0.7080 H     1 <1>   0.0800 
 45 H       -1.3860    -6.3410     0.3140 H     1 <1>   0.0800 
 46 H        4.8850     4.2160    -1.8940 H     1 <1>   0.1500 
 47 H        3.7690     2.6130     1.9070 H     1 <1>   0.1500 
 48 H        3.4930     6.1370    -1.3840 H     1 <1>   0.1500 
 49 H        2.4270     4.6050     2.2440 H     1 <1>   0.1500 
@<TRIPOS>BOND
  1   1   2  1   
  2   1   3  1   
  3   2   4  1   
  4   2   5  1   
  5   2   6  1   
  6   3   7  1   
  7   3  25  1   
  8   3  26  1   
  9   4   8  ar  
 10   4   9  ar  
 11   5  10  1   
 12   5  27  1   
 13   5  28  1   
 14   6  11  1   
 15   6  29  1   
 16   6  30  1   
 17   7   8  1   
 18   7  31  1   
 19   7  32  1   
 20   8  12  ar  
 21   9  13  ar  
 22   9  33  1   
 23  10  14  1   
 24  10  34  1   
 25  10  35  1   
 26  11  14  1   
 27  11  36  1   
 28  11  37  1   
 29  12  15  ar  
 30  12  38  1   
 31  13  15  ar  
 32  13  39  1   
 33  14  16  1   
 34  14  40  1   
 35  15  17  1   
 36  16  18  1   
 37  16  41  1   
 38  16  42  1   
 39  17  19  1   
 40  18  20  ar  
 41  18  21  ar  
 42  19  43  1   
 43  19  44  1   
 44  19  45  1   
 45  20  22  ar  
 46  20  46  1   
 47  21  23  ar  
 48  21  47  1   
 49  22  24  ar  
 50  22  48  1   
 51  23  24  ar  
 52  23  49  1   
@<TRIPOS>SUBSTRUCTURE
  1 ****   2 GROUP 4 **** **** 0

# MOE 2024.06 (io_trps.svl 2023.06)
