@<TRIPOS>MOLECULE
NONAME
43 45 1 0 0 
SMALL
USER_CHARGES


@<TRIPOS>ATOM
  1 CL      -1.8930     3.4360    -4.0000 Cl    1 <1>  -0.1770 
  2 C       -2.4430     3.0290    -2.3970 C.ar  1 <1>   0.1770 
  3 C       -2.4440     3.9790    -1.4140 C.ar  1 <1>  -0.1500 
  4 C       -2.8750     1.7290    -2.1530 C.ar  1 <1>  -0.1500 
  5 C       -2.8880     3.6680    -0.1130 C.ar  1 <1>   0.0000 
  6 C       -3.3150     1.3800    -0.8970 C.ar  1 <1>  -0.1440 
  7 C       -3.3250     2.3460     0.1330 C.ar  1 <1>   0.3610 
  8 C       -2.9130     4.6260     0.9500 C.ar  1 <1>   0.1000 
  9 C       -3.7820    -0.0560    -0.6620 C.3   1 <1>  -0.0960 
 10 N       -3.7590     2.0200     1.3990 N.ar  1 <1>  -0.1790 
 11 N       -2.5030     5.8940     0.7320 N.pl3 1 <1>  -0.8690 
 12 C       -3.3670     4.2000     2.1990 C.ar  1 <1>  -0.1500 
 13 C       -3.7820     2.9110     2.4060 C.ar  1 <1>   0.2110 
 14 C       -2.4400     7.0790     1.6340 C.3   1 <1>   0.2890 
 15 C       -3.0110     8.3000     0.8900 C.3   1 <1>   0.1400 
 16 C       -0.9640     7.4180     1.8620 C.3   1 <1>  -0.0990 
 17 N       -1.8270     8.8850     0.2350 N.am  1 <1>  -0.6600 
 18 C       -0.6790     8.4030     0.7630 C.2   1 <1>   0.5690 
 19 C       -1.9330     9.8890    -0.8490 C.3   1 <1>   0.1400 
 20 O        0.4380     8.6970     0.4200 O.2   1 <1>  -0.5700 
 21 C       -2.4250    11.2220    -0.2800 C.3   1 <1>  -0.1600 
 22 C       -2.5030    12.2960    -1.3700 C.3   1 <1>  -0.2400 
 23 H       -2.0990     4.9670    -1.6560 H     1 <1>   0.1500 
 24 H       -2.8500     1.0270    -2.9700 H     1 <1>   0.1500 
 25 H       -3.7000    -0.6350    -1.5670 H     1 <1>   0.0800 
 26 H       -4.8150    -0.0780    -0.3600 H     1 <1>   0.0800 
 27 H       -3.1750    -0.5380     0.0840 H     1 <1>   0.0800 
 28 H       -4.0680     1.0570     1.5480 H     1 <1>   0.4570 
 29 H       -2.1330     6.1530    -0.1940 H     1 <1>   0.4000 
 30 H       -3.3910     4.8900     3.0210 H     1 <1>   0.1500 
 31 H       -4.1310     2.5950     3.3770 H     1 <1>   0.1500 
 32 H       -2.9660     6.9020     2.5540 H     1 <1>   0.0800 
 33 H       -3.4160     9.0120     1.5870 H     1 <1>   0.0800 
 34 H       -3.7630     8.0160     0.1740 H     1 <1>   0.0800 
 35 H       -0.3230     6.5590     1.8010 H     1 <1>   0.0800 
 36 H       -0.8270     7.9140     2.8040 H     1 <1>   0.0800 
 37 H       -2.6090     9.5300    -1.6050 H     1 <1>   0.0800 
 38 H       -0.9630    10.0250    -1.3000 H     1 <1>   0.0800 
 39 H       -1.7430    11.5490     0.4860 H     1 <1>   0.0800 
 40 H       -3.4000    11.0950     0.1550 H     1 <1>   0.0800 
 41 H       -1.5330    12.4580    -1.8070 H     1 <1>   0.0800 
 42 H       -2.8450    13.2250    -0.9480 H     1 <1>   0.0800 
 43 H       -3.1880    12.0000    -2.1450 H     1 <1>   0.0800 
@<TRIPOS>BOND
  1   1   2  1   
  2   2   3  ar  
  3   2   4  ar  
  4   3   5  ar  
  5   3  23  1   
  6   4   6  ar  
  7   4  24  1   
  8   5   7  ar  
  9   5   8  ar  
 10   6   7  ar  
 11   6   9  1   
 12   7  10  ar  
 13   8  11  1   
 14   8  12  ar  
 15   9  25  1   
 16   9  26  1   
 17   9  27  1   
 18  10  13  ar  
 19  10  28  1   
 20  11  14  1   
 21  11  29  1   
 22  12  13  ar  
 23  12  30  1   
 24  13  31  1   
 25  14  15  1   
 26  14  16  1   
 27  14  32  1   
 28  15  17  1   
 29  15  33  1   
 30  15  34  1   
 31  16  18  1   
 32  16  35  1   
 33  16  36  1   
 34  17  18  am  
 35  17  19  1   
 36  18  20  2   
 37  19  21  1   
 38  19  37  1   
 39  19  38  1   
 40  21  22  1   
 41  21  39  1   
 42  21  40  1   
 43  22  41  1   
 44  22  42  1   
 45  22  43  1   
@<TRIPOS>SUBSTRUCTURE
  1 ****  11 GROUP 4 **** **** 0

# MOE 2024.06 (io_trps.svl 2023.06)
