@<TRIPOS>MOLECULE
NONAME
41 43 1 0 0 
SMALL
USER_CHARGES


@<TRIPOS>ATOM
  1 O        0.2510     0.6350     0.7420 O.3   1 <1>  -0.0190 
  2 N        1.1540    -0.2680     0.9960 N.2   1 <1>  -0.4100 
  3 C        0.7670     1.7030     0.1960 C.2   1 <1>  -0.0400 
  4 C        2.2720     0.2270     0.6030 C.2   1 <1>   0.1080 
  5 C        2.0890     1.5010     0.0730 C.2   1 <1>  -0.1500 
  6 C       -0.1530     2.8580    -0.1650 C.3   1 <1>   0.0200 
  7 C        3.6010    -0.4870     0.7070 C.3   1 <1>  -0.0590 
  8 C        0.6160     4.1230    -0.5890 C.3   1 <1>  -0.0800 
  9 C       -0.2540     5.2750    -1.0880 C.3   1 <1>   0.2000 
 10 C        1.4390     4.7560     0.5370 C.3   1 <1>   0.2090 
 11 O       -1.3120     5.4690    -0.2110 O.3   1 <1>  -0.6800 
 12 C        0.6800     6.4800    -0.9840 C.3   1 <1>   0.2090 
 13 N        1.5500     6.2020     0.1950 N.pl3 1 <1>  -0.8380 
 14 C        2.8180     6.7330     0.1530 C.ar  1 <1>   0.4100 
 15 N        3.6580     6.2040    -0.7140 N.ar  1 <1>  -0.6200 
 16 C        3.1930     7.7820     0.9810 C.ar  1 <1>  -0.1430 
 17 C        4.8640     6.7340    -0.7400 C.ar  1 <1>   0.4770 
 18 C        4.4790     8.2390     0.8550 C.ar  1 <1>   0.1600 
 19 C        2.2250     8.3950     1.9840 C.3   1 <1>  -0.0970 
 20 N        5.3340     7.7240    -0.0060 N.ar  1 <1>  -0.6200 
 21 C        5.8360     6.1370    -1.7290 C.3   1 <1>  -0.0970 
 22 H        2.8580     2.1330    -0.3290 H     1 <1>   0.1500 
 23 H       -0.7960     2.5440    -0.9680 H     1 <1>   0.0800 
 24 H       -0.7770     3.0750     0.6850 H     1 <1>   0.0800 
 25 H        4.0800    -0.5110    -0.2540 H     1 <1>   0.0800 
 26 H        3.4500    -1.4960     1.0460 H     1 <1>   0.0800 
 27 H        4.2340     0.0240     1.4080 H     1 <1>   0.0800 
 28 H        1.2950     3.8640    -1.3820 H     1 <1>   0.0800 
 29 H       -0.6460     5.1240    -2.0790 H     1 <1>   0.0800 
 30 H        2.4090     4.2960     0.6210 H     1 <1>   0.0800 
 31 H        0.9280     4.6610     1.4800 H     1 <1>   0.0800 
 32 H       -0.9480     5.8310     0.6240 H     1 <1>   0.4000 
 33 H        0.1330     7.3980    -0.8600 H     1 <1>   0.0800 
 34 H        1.2860     6.5460    -1.8720 H     1 <1>   0.0800 
 35 H        4.8280     9.0500     1.4700 H     1 <1>   0.1500 
 36 H        2.6930     9.1820     2.5460 H     1 <1>   0.0800 
 37 H        1.8840     7.6380     2.6670 H     1 <1>   0.0800 
 38 H        1.3730     8.7980     1.4660 H     1 <1>   0.0800 
 39 H        6.3260     6.9240    -2.2720 H     1 <1>   0.0800 
 40 H        5.3230     5.5010    -2.4260 H     1 <1>   0.0800 
 41 H        6.5710     5.5620    -1.2000 H     1 <1>   0.0800 
@<TRIPOS>BOND
  1   1   2  1   
  2   1   3  1   
  3   2   4  2   
  4   3   5  2   
  5   3   6  1   
  6   4   5  1   
  7   4   7  1   
  8   5  22  1   
  9   6   8  1   
 10   6  23  1   
 11   6  24  1   
 12   7  25  1   
 13   7  26  1   
 14   7  27  1   
 15   8   9  1   
 16   8  10  1   
 17   8  28  1   
 18   9  11  1   
 19   9  12  1   
 20   9  29  1   
 21  10  13  1   
 22  10  30  1   
 23  10  31  1   
 24  11  32  1   
 25  12  13  1   
 26  12  33  1   
 27  12  34  1   
 28  13  14  1   
 29  14  15  ar  
 30  14  16  ar  
 31  15  17  ar  
 32  16  18  ar  
 33  16  19  1   
 34  17  20  ar  
 35  17  21  1   
 36  18  20  ar  
 37  18  35  1   
 38  19  36  1   
 39  19  37  1   
 40  19  38  1   
 41  21  39  1   
 42  21  40  1   
 43  21  41  1   
@<TRIPOS>SUBSTRUCTURE
  1 ****  10 GROUP 4 **** **** 0

# MOE 2024.06 (io_trps.svl 2023.06)
