@<TRIPOS>MOLECULE
NONAME
60 63 1 0 0 
SMALL
USER_CHARGES


@<TRIPOS>ATOM
  1 O       -0.9230    -0.3220    -0.5680 O.2   1 <1>  -0.5700 
  2 C       -1.8700     0.4430    -0.6070 C.2   1 <1>   0.5440 
  3 N       -1.6670     1.7750    -0.3020 N.am  1 <1>  -0.6600 
  4 C       -3.1670    -0.0840    -0.9590 C.ar  1 <1>   0.0860 
  5 C       -0.2950     2.3550    -0.2270 C.3   1 <1>   0.1400 
  6 C       -2.7410     2.6900     0.1800 C.3   1 <1>   0.1400 
  7 C       -3.6110    -1.2790    -0.3970 C.ar  1 <1>   0.1600 
  8 C       -4.0200     0.5360    -1.8660 C.ar  1 <1>  -0.1500 
  9 C        0.0150     2.7740     1.2130 C.3   1 <1>  -0.1600 
 10 C       -2.4480     3.1200     1.6220 C.3   1 <1>  -0.1600 
 11 N       -4.7770    -1.8650    -0.6230 N.ar  1 <1>  -0.6200 
 12 C       -5.2320    -0.0570    -2.1210 C.ar  1 <1>  -0.1500 
 13 C       -1.0490     3.7350     1.7620 C.3   1 <1>  -0.1600 
 14 C       -5.5800    -1.2450    -1.4850 C.ar  1 <1>   0.4100 
 15 N       -6.8040    -1.8300    -1.7260 N.pl3 1 <1>  -0.8380 
 16 C       -6.9060    -3.3120    -1.6630 C.3   1 <1>   0.2090 
 17 C       -8.0270    -1.1120    -1.2780 C.3   1 <1>   0.2090 
 18 C       -7.2220    -3.7550    -0.2120 C.3   1 <1>   0.4230 
 19 C       -8.3430    -1.5320     0.1630 C.3   1 <1>  -0.1600 
 20 N       -7.1760    -5.2640     0.0070 N.4   1 <1>  -0.9590 
 21 C       -8.5050    -3.0690     0.3460 C.3   1 <1>   0.0000 
 22 C       -7.8600    -5.7210     1.2590 C.3   1 <1>   0.3430 
 23 C       -7.6200    -6.0980    -1.1570 C.3   1 <1>   0.2630 
 24 C       -8.6340    -3.3760     1.8680 C.3   1 <1>  -0.1600 
 25 C       -9.7600    -3.5760    -0.4200 C.3   1 <1>   0.1200 
 26 C       -7.8500    -4.6220     2.3200 C.3   1 <1>  -0.1600 
 27 O      -10.8890    -2.8410    -0.0980 O.3   1 <1>  -0.6800 
 28 H        0.4390     1.6430    -0.5640 H     1 <1>   0.0800 
 29 H       -0.2430     3.2120    -0.8760 H     1 <1>   0.0800 
 30 H       -2.7760     3.5550    -0.4590 H     1 <1>   0.0800 
 31 H       -3.7020     2.2080     0.1500 H     1 <1>   0.0800 
 32 H       -2.9410    -1.7720     0.2880 H     1 <1>   0.1500 
 33 H       -3.7250     1.4480    -2.3540 H     1 <1>   0.1500 
 34 H        0.0590     1.8890     1.8250 H     1 <1>   0.0800 
 35 H        0.9810     3.2440     1.2460 H     1 <1>   0.0800 
 36 H       -3.1880     3.8330     1.9380 H     1 <1>   0.0800 
 37 H       -2.5280     2.2590     2.2630 H     1 <1>   0.0800 
 38 H       -5.9230     0.3790    -2.8190 H     1 <1>   0.1500 
 39 H       -1.0080     4.6620     1.2150 H     1 <1>   0.0800 
 40 H       -0.8460     3.9490     2.7970 H     1 <1>   0.0800 
 41 H       -7.6690    -3.6310    -2.3480 H     1 <1>   0.0800 
 42 H       -5.9680    -3.7380    -1.9750 H     1 <1>   0.0800 
 43 H       -7.8660    -0.0480    -1.3160 H     1 <1>   0.0800 
 44 H       -8.8490    -1.3450    -1.9340 H     1 <1>   0.0800 
 45 H       -6.4160    -3.3460     0.3750 H     1 <1>   0.0800 
 46 H       -7.5360    -1.1750     0.7790 H     1 <1>   0.0800 
 47 H       -9.2290    -1.0140     0.4860 H     1 <1>   0.0800 
 48 H       -6.1720    -5.4550     0.1460 H     1 <1>   0.4500 
 49 H       -8.8850    -5.9760     1.0430 H     1 <1>   0.0800 
 50 H       -7.3720    -6.6030     1.6420 H     1 <1>   0.0800 
 51 H       -8.6550    -5.9050    -1.3880 H     1 <1>   0.0800 
 52 H       -7.5100    -7.1460    -0.9280 H     1 <1>   0.0800 
 53 H       -7.0240    -5.8800    -2.0280 H     1 <1>   0.0800 
 54 H       -8.2750    -2.5450     2.4530 H     1 <1>   0.0800 
 55 H       -9.6690    -3.5000     2.1340 H     1 <1>   0.0800 
 56 H       -9.9720    -4.6050    -0.1920 H     1 <1>   0.0800 
 57 H       -9.6350    -3.4840    -1.4840 H     1 <1>   0.0800 
 58 H       -8.2850    -5.0020     3.2290 H     1 <1>   0.0800 
 59 H       -6.8300    -4.3580     2.5460 H     1 <1>   0.0800 
 60 H      -11.1090    -2.8980     0.8530 H     1 <1>   0.4000 
@<TRIPOS>BOND
  1   1   2  2   
  2   2   3  am  
  3   2   4  1   
  4   3   5  1   
  5   3   6  1   
  6   4   7  ar  
  7   4   8  ar  
  8   5   9  1   
  9   5  28  1   
 10   5  29  1   
 11   6  10  1   
 12   6  30  1   
 13   6  31  1   
 14   7  11  ar  
 15   7  32  1   
 16   8  12  ar  
 17   8  33  1   
 18   9  13  1   
 19   9  34  1   
 20   9  35  1   
 21  10  13  1   
 22  10  36  1   
 23  10  37  1   
 24  11  14  ar  
 25  12  14  ar  
 26  12  38  1   
 27  13  39  1   
 28  13  40  1   
 29  14  15  1   
 30  15  16  1   
 31  15  17  1   
 32  16  18  1   
 33  16  41  1   
 34  16  42  1   
 35  17  19  1   
 36  17  43  1   
 37  17  44  1   
 38  18  20  1   
 39  18  21  1   
 40  18  45  1   
 41  19  21  1   
 42  19  46  1   
 43  19  47  1   
 44  20  22  1   
 45  20  23  1   
 46  20  48  1   
 47  21  24  1   
 48  21  25  1   
 49  22  26  1   
 50  22  49  1   
 51  22  50  1   
 52  23  51  1   
 53  23  52  1   
 54  23  53  1   
 55  24  26  1   
 56  24  54  1   
 57  24  55  1   
 58  25  27  1   
 59  25  56  1   
 60  25  57  1   
 61  26  58  1   
 62  26  59  1   
 63  27  60  1   
@<TRIPOS>SUBSTRUCTURE
  1 ****  11 GROUP 4 **** **** 0

# MOE 2024.06 (io_trps.svl 2023.06)
