@<TRIPOS>MOLECULE
NONAME
51 55 1 0 0 
SMALL
USER_CHARGES


@<TRIPOS>ATOM
  1 O       -0.4910    -0.0740    -0.2380 O.2   1 <1>  -0.5700 
  2 C       -1.3450     0.6760    -0.6710 C.2   1 <1>   0.6900 
  3 N       -2.5170     0.1780    -1.1740 N.am  1 <1>  -0.6600 
  4 N       -1.1620     2.0270    -0.6910 N.am  1 <1>  -0.5470 
  5 C       -3.8360     0.8420    -0.9430 C.3   1 <1>   0.1400 
  6 C       -2.6540    -1.2780    -1.4810 C.3   1 <1>   0.1400 
  7 C       -0.1840     2.8440    -0.1030 C.ar  1 <1>   0.1170 
  8 C       -4.6420     0.0890     0.1340 C.3   1 <1>   0.1900 
  9 C       -3.4920    -1.9850    -0.4040 C.3   1 <1>   0.1100 
 10 C        0.0290     4.1110    -0.6410 C.ar  1 <1>  -0.1500 
 11 C        0.5620     2.4420     1.0120 C.ar  1 <1>  -0.1500 
 12 N       -4.8140    -1.3370    -0.2380 N.3   1 <1>  -0.8100 
 13 C       -6.0120     0.7600     0.3510 C.3   1 <1>   0.1200 
 14 C        0.9720     4.9280    -0.0540 C.ar  1 <1>   0.0820 
 15 C        1.5100     3.2770     1.5890 C.ar  1 <1>  -0.1500 
 16 C       -5.6390    -2.0260     0.7830 C.3   1 <1>   0.3330 
 17 O       -6.7420     0.0780     1.3310 O.3   1 <1>  -0.5600 
 18 O        1.3270     6.1680    -0.4080 O.3   1 <1>  -0.3620 
 19 C        1.6940     4.5250     1.0300 C.ar  1 <1>   0.0820 
 20 C       -5.9420    -3.4640     0.3660 C.ar  1 <1>  -0.1430 
 21 C       -6.9660    -1.2710     1.0150 C.3   1 <1>   0.1200 
 22 C        2.3440     6.5770     0.5040 C.3   1 <1>   0.4000 
 23 O        2.5390     5.4920     1.4090 O.3   1 <1>  -0.3630 
 24 C       -5.7600    -4.5030     1.2680 C.ar  1 <1>  -0.1500 
 25 C       -6.4050    -3.7540    -0.9100 C.ar  1 <1>  -0.1500 
 26 C       -6.0370    -5.8090     0.9010 C.ar  1 <1>  -0.1500 
 27 C       -6.6840    -5.0580    -1.2790 C.ar  1 <1>  -0.1500 
 28 C       -6.5000    -6.0870    -0.3730 C.ar  1 <1>  -0.1500 
 29 H       -1.7750     2.4860    -1.3550 H     1 <1>   0.3700 
 30 H       -3.6980     1.8600    -0.6260 H     1 <1>   0.0800 
 31 H       -4.3930     0.8490    -1.8640 H     1 <1>   0.0800 
 32 H       -3.1360    -1.3950    -2.4350 H     1 <1>   0.0800 
 33 H       -1.6850    -1.7420    -1.5430 H     1 <1>   0.0800 
 34 H       -4.0940     0.1540     1.0600 H     1 <1>   0.0800 
 35 H       -2.9510    -1.9700     0.5270 H     1 <1>   0.0800 
 36 H       -3.6220    -3.0120    -0.6970 H     1 <1>   0.0800 
 37 H       -0.5190     4.4590    -1.4950 H     1 <1>   0.1500 
 38 H        0.4010     1.4680     1.4370 H     1 <1>   0.1500 
 39 H       -6.5830     0.7650    -0.5610 H     1 <1>   0.0800 
 40 H       -5.8850     1.7730     0.6900 H     1 <1>   0.0800 
 41 H        2.0870     2.9710     2.4430 H     1 <1>   0.1500 
 42 H       -5.1010    -2.0390     1.7160 H     1 <1>   0.0800 
 43 H       -7.5020    -1.7160     1.8330 H     1 <1>   0.0800 
 44 H       -7.5810    -1.3190     0.1340 H     1 <1>   0.0800 
 45 H        3.2560     6.7660    -0.0340 H     1 <1>   0.0800 
 46 H        2.0140     7.4450     1.0470 H     1 <1>   0.0800 
 47 H       -5.4010    -4.3030     2.2620 H     1 <1>   0.1500 
 48 H       -6.5440    -2.9560    -1.6200 H     1 <1>   0.1500 
 49 H       -5.8930    -6.6090     1.6060 H     1 <1>   0.1500 
 50 H       -7.0420    -5.2710    -2.2710 H     1 <1>   0.1500 
 51 H       -6.7160    -7.1020    -0.6590 H     1 <1>   0.1500 
@<TRIPOS>BOND
  1   1   2  2   
  2   2   3  am  
  3   2   4  am  
  4   3   5  1   
  5   3   6  1   
  6   4   7  1   
  7   4  29  1   
  8   5   8  1   
  9   5  30  1   
 10   5  31  1   
 11   6   9  1   
 12   6  32  1   
 13   6  33  1   
 14   7  10  ar  
 15   7  11  ar  
 16   8  12  1   
 17   8  13  1   
 18   8  34  1   
 19   9  12  1   
 20   9  35  1   
 21   9  36  1   
 22  10  14  ar  
 23  10  37  1   
 24  11  15  ar  
 25  11  38  1   
 26  12  16  1   
 27  13  17  1   
 28  13  39  1   
 29  13  40  1   
 30  14  18  1   
 31  14  19  ar  
 32  15  19  ar  
 33  15  41  1   
 34  16  20  1   
 35  16  21  1   
 36  16  42  1   
 37  17  21  1   
 38  18  22  1   
 39  19  23  1   
 40  20  24  ar  
 41  20  25  ar  
 42  21  43  1   
 43  21  44  1   
 44  22  23  1   
 45  22  45  1   
 46  22  46  1   
 47  24  26  ar  
 48  24  47  1   
 49  25  27  ar  
 50  25  48  1   
 51  26  28  ar  
 52  26  49  1   
 53  27  28  ar  
 54  27  50  1   
 55  28  51  1   
@<TRIPOS>SUBSTRUCTURE
  1 ****   3 GROUP 4 **** **** 0

# MOE 2024.06 (io_trps.svl 2023.06)
