@<TRIPOS>MOLECULE
NONAME
49 51 1 0 0 
SMALL
USER_CHARGES


@<TRIPOS>ATOM
  1 S        0.0760     0.1670     1.4730 S.3   1 <1>  -0.0800 
  2 C       -0.6330    -1.2270     0.7220 C.2   1 <1>  -0.1400 
  3 C       -0.8610     1.1760     0.3810 C.2   1 <1>   0.1980 
  4 C       -1.4790    -0.8290    -0.2330 C.2   1 <1>   0.0460 
  5 C       -0.2960    -2.6400     1.1410 C.3   1 <1>   0.0200 
  6 N       -1.6040     0.5350    -0.4310 N.2   1 <1>  -0.5650 
  7 C       -0.6950     2.6740     0.4990 C.3   1 <1>   0.0200 
  8 C       -2.2720    -1.8110    -1.0710 C.3   1 <1>   0.0210 
  9 C       -0.8300    -3.6120     0.0700 C.3   1 <1>  -0.1600 
 10 C        0.5920     3.1140    -0.1940 C.3   1 <1>   0.1400 
 11 C       -2.2370    -3.2200    -0.4360 C.3   1 <1>  -0.1600 
 12 N        0.7050     4.5920    -0.1740 N.am  1 <1>  -0.7300 
 13 C        1.3670     5.3040     0.7750 C.2   1 <1>   0.5690 
 14 O        1.9020     4.7680     1.7130 O.2   1 <1>  -0.5700 
 15 C        1.4280     6.8260     0.6600 C.3   1 <1>  -0.0190 
 16 C        0.0250     7.4610     0.5960 C.3   1 <1>  -0.1600 
 17 C        2.3060     7.2800    -0.5310 C.3   1 <1>  -0.1600 
 18 C        0.0890     8.9970     0.6590 C.3   1 <1>   0.2000 
 19 C        1.9670     8.6920    -1.0500 C.3   1 <1>  -0.1600 
 20 O       -1.0250     9.4710    -0.0560 O.3   1 <1>  -0.5600 
 21 C        1.3980     9.5810     0.0590 C.3   1 <1>   0.2000 
 22 C       -1.8460    10.3470     0.6520 C.3   1 <1>   0.0400 
 23 O        1.1470    10.8240    -0.4840 O.3   1 <1>  -0.6800 
 24 H        0.7690    -2.7530     1.2440 H     1 <1>   0.0800 
 25 H       -0.7590    -2.8400     2.0910 H     1 <1>   0.0800 
 26 H       -1.5390     3.1480     0.0310 H     1 <1>   0.0800 
 27 H       -0.6670     2.9510     1.5370 H     1 <1>   0.0800 
 28 H       -3.2900    -1.4740    -1.1510 H     1 <1>   0.0800 
 29 H       -1.8460    -1.8370    -2.0570 H     1 <1>   0.0800 
 30 H       -0.1530    -3.6090    -0.7670 H     1 <1>   0.0800 
 31 H       -0.8490    -4.6100     0.4720 H     1 <1>   0.0800 
 32 H        0.5950     2.7690    -1.2140 H     1 <1>   0.0800 
 33 H        1.4400     2.6800     0.3110 H     1 <1>   0.0800 
 34 H       -2.9190    -3.2370     0.3980 H     1 <1>   0.0800 
 35 H       -2.5820    -3.9420    -1.1550 H     1 <1>   0.0800 
 36 H        0.2410     5.0880    -0.9370 H     1 <1>   0.3700 
 37 H        1.8940     7.1810     1.5630 H     1 <1>   0.0800 
 38 H       -0.5730     7.1020     1.4160 H     1 <1>   0.0800 
 39 H       -0.4500     7.1620    -0.3220 H     1 <1>   0.0800 
 40 H        3.3360     7.2530    -0.2170 H     1 <1>   0.0800 
 41 H        2.2100     6.5900    -1.3510 H     1 <1>   0.0800 
 42 H        0.0220     9.3090     1.6880 H     1 <1>   0.0800 
 43 H        1.2310     8.6090    -1.8310 H     1 <1>   0.0800 
 44 H        2.8510     9.1450    -1.4660 H     1 <1>   0.0800 
 45 H        2.1390     9.7010     0.8310 H     1 <1>   0.0800 
 46 H       -2.6430    10.6620     0.0020 H     1 <1>   0.0800 
 47 H       -1.2700    11.2030     0.9630 H     1 <1>   0.0800 
 48 H       -2.2550     9.8360     1.5070 H     1 <1>   0.0800 
 49 H        0.2420    10.7760    -0.8650 H     1 <1>   0.4000 
@<TRIPOS>BOND
  1   1   2  1   
  2   1   3  1   
  3   2   4  2   
  4   2   5  1   
  5   3   6  2   
  6   3   7  1   
  7   4   6  1   
  8   4   8  1   
  9   5   9  1   
 10   5  24  1   
 11   5  25  1   
 12   7  10  1   
 13   7  26  1   
 14   7  27  1   
 15   8  11  1   
 16   8  28  1   
 17   8  29  1   
 18   9  11  1   
 19   9  30  1   
 20   9  31  1   
 21  10  12  1   
 22  10  32  1   
 23  10  33  1   
 24  11  34  1   
 25  11  35  1   
 26  12  13  am  
 27  12  36  1   
 28  13  14  2   
 29  13  15  1   
 30  15  16  1   
 31  15  17  1   
 32  15  37  1   
 33  16  18  1   
 34  16  38  1   
 35  16  39  1   
 36  17  19  1   
 37  17  40  1   
 38  17  41  1   
 39  18  20  1   
 40  18  21  1   
 41  18  42  1   
 42  19  21  1   
 43  19  43  1   
 44  19  44  1   
 45  20  22  1   
 46  21  23  1   
 47  21  45  1   
 48  22  46  1   
 49  22  47  1   
 50  22  48  1   
 51  23  49  1   
@<TRIPOS>SUBSTRUCTURE
  1 ****  10 GROUP 4 **** **** 0

# MOE 2024.06 (io_trps.svl 2023.06)
