@<TRIPOS>MOLECULE
NONAME
49 51 1 0 0 
SMALL
USER_CHARGES


@<TRIPOS>ATOM
  1 O       -0.0890     0.2940    -0.4620 O.3   1 <1>  -0.6800 
  2 C        1.0060    -0.2090    -1.1520 C.3   1 <1>   0.2000 
  3 C        1.4460    -1.4960    -0.4550 C.3   1 <1>  -0.0800 
  4 C        2.1920     0.7480    -0.9370 C.3   1 <1>   0.3430 
  5 C        2.1800    -0.9250     0.7600 C.3   1 <1>   0.3430 
  6 C        2.3490    -2.3470    -1.3870 C.3   1 <1>   0.0210 
  7 N        2.9910     0.1740     0.1930 N.4   1 <1>  -0.9590 
  8 C        3.6330    -2.8420    -0.7410 C.2   1 <1>   0.1080 
  9 C        3.4520     1.1760     1.1770 C.3   1 <1>   0.5240 
 10 N        4.6670    -2.0780    -0.5410 N.2   1 <1>  -0.7070 
 11 C        3.8450    -4.1440    -0.3080 C.2   1 <1>  -0.1500 
 12 C        4.1790     2.2790     0.4400 C.2   1 <1>  -0.1810 
 13 N        5.5910    -2.9040     0.0040 N.pl3 1 <1>   0.3000 
 14 C        5.1080    -4.1520     0.1660 C.2   1 <1>  -0.3320 
 15 C        5.3980     2.1920    -0.2260 C.2   1 <1>   0.1080 
 16 C        3.7870     3.5610     0.2680 C.2   1 <1>  -0.3020 
 17 C        5.9000    -5.3030     0.7600 C.3   1 <1>  -0.0600 
 18 N        5.7290     3.3160    -0.7730 N.2   1 <1>  -0.7070 
 19 C        6.2840     0.9710    -0.3490 C.3   1 <1>  -0.0590 
 20 N        4.7410     4.1760    -0.4620 N.pl3 1 <1>   0.3140 
 21 C        4.7660     5.5880    -0.9130 C.3   1 <1>   0.2340 
 22 C        4.1710     6.5280     0.1310 C.2   1 <1>  -0.2880 
 23 C        3.1050     7.3150    -0.0510 C.2   1 <1>  -0.3000 
 24 H       -0.9180    -0.1600    -0.7240 H     1 <1>   0.4000 
 25 H        0.7400    -0.3210    -2.1900 H     1 <1>   0.0800 
 26 H        0.6070    -2.0910    -0.1380 H     1 <1>   0.0800 
 27 H        1.8290     1.7360    -0.7060 H     1 <1>   0.0800 
 28 H        2.8060     0.7940    -1.8220 H     1 <1>   0.0800 
 29 H        2.7940    -1.6640     1.2520 H     1 <1>   0.0800 
 30 H        1.4590    -0.5290     1.4580 H     1 <1>   0.0800 
 31 H        2.6380    -1.7850    -2.2580 H     1 <1>   0.0800 
 32 H        1.7900    -3.1940    -1.7430 H     1 <1>   0.0800 
 33 H        3.8250    -0.2980    -0.2140 H     1 <1>   0.4500 
 34 H        2.6070     1.5940     1.6980 H     1 <1>   0.0800 
 35 H        4.1120     0.7190     1.8960 H     1 <1>   0.0800 
 36 H        3.1450    -4.9600    -0.3590 H     1 <1>   0.1500 
 37 H        6.5460    -2.6030     0.2440 H     1 <1>   0.2700 
 38 H        2.9070     4.0740     0.6120 H     1 <1>   0.1500 
 39 H        5.3010    -6.1960     0.7780 H     1 <1>   0.0800 
 40 H        6.1990    -5.0720     1.7680 H     1 <1>   0.0800 
 41 H        6.7790    -5.4960     0.1700 H     1 <1>   0.0800 
 42 H        6.1630     0.3230     0.4980 H     1 <1>   0.0800 
 43 H        7.3120     1.2820    -0.4000 H     1 <1>   0.0800 
 44 H        6.0440     0.4380    -1.2500 H     1 <1>   0.0800 
 45 H        5.7870     5.8610    -1.1060 H     1 <1>   0.0800 
 46 H        4.2180     5.6550    -1.8340 H     1 <1>   0.0800 
 47 H        4.7130     6.4950     1.0620 H     1 <1>   0.1500 
 48 H        2.7080     7.9700     0.7060 H     1 <1>   0.1500 
 49 H        2.5380     7.3780    -0.9650 H     1 <1>   0.1500 
@<TRIPOS>BOND
  1   1   2  1   
  2   1  24  1   
  3   2   3  1   
  4   2   4  1   
  5   2  25  1   
  6   3   5  1   
  7   3   6  1   
  8   3  26  1   
  9   4   7  1   
 10   4  27  1   
 11   4  28  1   
 12   5   7  1   
 13   5  29  1   
 14   5  30  1   
 15   6   8  1   
 16   6  31  1   
 17   6  32  1   
 18   7   9  1   
 19   7  33  1   
 20   8  10  2   
 21   8  11  1   
 22   9  12  1   
 23   9  34  1   
 24   9  35  1   
 25  10  13  1   
 26  11  14  2   
 27  11  36  1   
 28  12  15  1   
 29  12  16  2   
 30  13  14  1   
 31  13  37  1   
 32  14  17  1   
 33  15  18  2   
 34  15  19  1   
 35  16  20  1   
 36  16  38  1   
 37  17  39  1   
 38  17  40  1   
 39  17  41  1   
 40  18  20  1   
 41  19  42  1   
 42  19  43  1   
 43  19  44  1   
 44  20  21  1   
 45  21  22  1   
 46  21  45  1   
 47  21  46  1   
 48  22  23  2   
 49  22  47  1   
 50  23  48  1   
 51  23  49  1   
@<TRIPOS>SUBSTRUCTURE
  1 ****   7 GROUP 4 **** **** 0

# MOE 2024.06 (io_trps.svl 2023.06)
