@<TRIPOS>MOLECULE
NONAME
56 60 1 0 0 
SMALL
USER_CHARGES


@<TRIPOS>ATOM
  1 O        0.1250     1.4400    -2.0990 O.2   1 <1>  -0.5700 
  2 C       -0.2830     2.0420    -1.1210 C.2   1 <1>   0.7150 
  3 N       -1.5750     1.8280    -0.6980 N.am  1 <1>  -0.6600 
  4 C        0.6070     2.9720    -0.4720 C.2   1 <1>  -0.2370 
  5 C       -2.4260     2.8860    -0.0700 C.3   1 <1>   0.1400 
  6 C       -2.3390     0.6220    -1.1160 C.3   1 <1>   0.1400 
  7 N        1.6980     3.4640    -1.1460 N.pl3 1 <1>   0.0330 
  8 C        0.6320     3.5060     0.7870 C.2   1 <1>  -0.1500 
  9 C       -3.5220     3.3510    -1.0490 C.3   1 <1>   0.1440 
 10 C       -3.4330     1.0190    -2.1130 C.3   1 <1>  -0.1600 
 11 C        2.3910     4.3160    -0.3320 C.ar  1 <1>  -0.1520 
 12 C        1.7410     4.3640     0.8940 C.ar  1 <1>   0.0000 
 13 C       -4.4510     4.3420    -0.3740 C.ar  1 <1>   0.1670 
 14 C       -4.3340     2.1410    -1.5620 C.3   1 <1>  -0.1600 
 15 C       -2.9330     4.1910    -2.2170 C.3   1 <1>  -0.1600 
 16 C        3.5510     5.0610    -0.5570 C.ar  1 <1>  -0.1500 
 17 C        2.2510     5.1720     1.9170 C.ar  1 <1>  -0.1500 
 18 N       -5.0190     4.1710     0.7940 N.ar  1 <1>  -0.6200 
 19 C       -4.6400     5.4550    -1.1350 C.ar  1 <1>  -0.1440 
 20 C       -3.8760     5.3880    -2.4320 C.3   1 <1>  -0.0170 
 21 C        4.0410     5.8500     0.4580 C.ar  1 <1>  -0.1500 
 22 C        3.3930     5.9100     1.7000 C.ar  1 <1>  -0.1440 
 23 C       -5.8040     5.1730     1.1990 C.ar  1 <1>   0.7200 
 24 C       -5.4620     6.4350    -0.6380 C.ar  1 <1>   0.1600 
 25 C        3.9730     6.7950     2.7890 C.3   1 <1>  -0.0970 
 26 N       -6.0480     6.3040     0.5290 N.ar  1 <1>  -0.6200 
 27 N       -6.4210     5.0260     2.4260 N.pl3 1 <1>  -0.8380 
 28 C       -7.0840     6.1650     3.1180 C.3   1 <1>   0.1290 
 29 C       -6.5220     3.7070     3.1080 C.3   1 <1>   0.1290 
 30 H       -1.8430     3.7370     0.2230 H     1 <1>   0.0800 
 31 H       -2.8860     2.4810     0.8150 H     1 <1>   0.0800 
 32 H       -2.7840     0.1730    -0.2440 H     1 <1>   0.0800 
 33 H       -1.6810    -0.1050    -1.5630 H     1 <1>   0.0800 
 34 H        1.9620     3.1760    -2.0950 H     1 <1>   0.2700 
 35 H       -0.0530     3.3200     1.5950 H     1 <1>   0.1500 
 36 H       -4.0340     0.1550    -2.3370 H     1 <1>   0.0800 
 37 H       -2.9650     1.3280    -3.0300 H     1 <1>   0.0800 
 38 H       -5.0300     2.4580    -2.3190 H     1 <1>   0.0800 
 39 H       -4.9090     1.7450    -0.7420 H     1 <1>   0.0800 
 40 H       -2.8070     3.6210    -3.1200 H     1 <1>   0.0800 
 41 H       -1.9680     4.5740    -1.9310 H     1 <1>   0.0800 
 42 H        4.0460     5.0120    -1.5100 H     1 <1>   0.1500 
 43 H        1.7340     5.1960     2.8580 H     1 <1>   0.1500 
 44 H       -4.5570     5.1940    -3.2430 H     1 <1>   0.0800 
 45 H       -3.3270     6.2940    -2.6210 H     1 <1>   0.0800 
 46 H        4.9330     6.4310     0.3030 H     1 <1>   0.1500 
 47 H       -5.6420     7.3330    -1.2020 H     1 <1>   0.1500 
 48 H        3.3760     6.7460     3.6810 H     1 <1>   0.0800 
 49 H        4.0030     7.8150     2.4520 H     1 <1>   0.0800 
 50 H        4.9710     6.4750     3.0260 H     1 <1>   0.0800 
 51 H       -6.6020     7.0940     2.8640 H     1 <1>   0.0800 
 52 H       -7.0250     6.0360     4.1850 H     1 <1>   0.0800 
 53 H       -8.1170     6.2150     2.8210 H     1 <1>   0.0800 
 54 H       -6.5160     2.9070     2.3880 H     1 <1>   0.0800 
 55 H       -7.4380     3.6480     3.6690 H     1 <1>   0.0800 
 56 H       -5.6870     3.5830     3.7750 H     1 <1>   0.0800 
@<TRIPOS>BOND
  1   1   2  2   
  2   2   3  am  
  3   2   4  1   
  4   3   5  1   
  5   3   6  1   
  6   4   7  1   
  7   4   8  2   
  8   5   9  1   
  9   5  30  1   
 10   5  31  1   
 11   6  10  1   
 12   6  32  1   
 13   6  33  1   
 14   7  11  1   
 15   7  34  1   
 16   8  12  1   
 17   8  35  1   
 18   9  13  1   
 19   9  14  1   
 20   9  15  1   
 21  10  14  1   
 22  10  36  1   
 23  10  37  1   
 24  11  12  ar  
 25  11  16  ar  
 26  12  17  ar  
 27  13  18  ar  
 28  13  19  ar  
 29  14  38  1   
 30  14  39  1   
 31  15  20  1   
 32  15  40  1   
 33  15  41  1   
 34  16  21  ar  
 35  16  42  1   
 36  17  22  ar  
 37  17  43  1   
 38  18  23  ar  
 39  19  20  1   
 40  19  24  ar  
 41  20  44  1   
 42  20  45  1   
 43  21  22  ar  
 44  21  46  1   
 45  22  25  1   
 46  23  26  ar  
 47  23  27  1   
 48  24  26  ar  
 49  24  47  1   
 50  25  48  1   
 51  25  49  1   
 52  25  50  1   
 53  27  28  1   
 54  27  29  1   
 55  28  51  1   
 56  28  52  1   
 57  28  53  1   
 58  29  54  1   
 59  29  55  1   
 60  29  56  1   
@<TRIPOS>SUBSTRUCTURE
  1 ****   5 GROUP 4 **** **** 0

# MOE 2024.06 (io_trps.svl 2023.06)
