@<TRIPOS>MOLECULE
NONAME
48 50 1 0 0 
SMALL
USER_CHARGES


@<TRIPOS>ATOM
  1 S       -0.3170     0.2540     0.0490 S.o2  1 <1>   1.3330 
  2 O       -0.3530    -0.5180     1.2710 O.2   1 <1>  -0.6500 
  3 O       -0.9220     1.5660     0.0170 O.2   1 <1>  -0.6500 
  4 N       -1.0170    -0.6870    -1.1780 N.am  1 <1>  -0.8490 
  5 C        1.3790     0.4230    -0.5110 C.3   1 <1>  -0.0550 
  6 C       -0.8180    -2.1290    -0.9920 C.3   1 <1>   0.1160 
  7 C       -2.4430    -0.3990    -1.3550 C.3   1 <1>   0.1160 
  8 C        2.2390     1.3290     0.3920 C.3   1 <1>  -0.0800 
  9 C        3.5870     1.6170    -0.2480 C.3   1 <1>   0.2200 
 10 C        2.6400     0.6330     1.6990 C.3   1 <1>   0.1200 
 11 N        4.1250     2.8780     0.3080 N.am  1 <1>  -0.7300 
 12 C        4.4230     0.4450     0.2490 C.3   1 <1>   0.1200 
 13 O        3.9360     0.1400     1.5210 O.3   1 <1>  -0.5600 
 14 C        4.4460     3.9900    -0.4160 C.2   1 <1>   0.5440 
 15 O        4.3000     3.9540    -1.6210 O.2   1 <1>  -0.5700 
 16 C        4.9680     5.1780     0.2390 C.ar  1 <1>   0.0860 
 17 C        5.7940     6.0660    -0.4460 C.ar  1 <1>  -0.1500 
 18 C        4.6670     5.4790     1.5690 C.ar  1 <1>  -0.1500 
 19 C        6.3300     7.2060     0.1430 C.ar  1 <1>   0.0540 
 20 C        5.1860     6.6050     2.1810 C.ar  1 <1>  -0.1500 
 21 C        7.1910     8.0940    -0.6080 C.2   1 <1>  -0.0540 
 22 C        6.0120     7.4570     1.4740 C.ar  1 <1>  -0.1500 
 23 C        7.3970     9.4630    -0.4050 C.2   1 <1>   0.1390 
 24 C        7.9890     7.8160    -1.6720 C.2   1 <1>  -0.3020 
 25 N        8.2360     9.9840    -1.2460 N.2   1 <1>  -0.7070 
 26 N        8.6000     8.9570    -2.0330 N.pl3 1 <1>   0.3000 
 27 H        1.8310    -0.5470    -0.5840 H     1 <1>   0.0800 
 28 H        1.3560     0.8480    -1.4960 H     1 <1>   0.0800 
 29 H       -1.1990    -2.6670    -1.8430 H     1 <1>   0.0800 
 30 H       -1.3300    -2.4680    -0.1060 H     1 <1>   0.0800 
 31 H        0.2300    -2.3510    -0.8910 H     1 <1>   0.0800 
 32 H       -2.8500    -1.0010    -2.1500 H     1 <1>   0.0800 
 33 H       -2.5810     0.6370    -1.6160 H     1 <1>   0.0800 
 34 H       -2.9820    -0.6000    -0.4440 H     1 <1>   0.0800 
 35 H        1.6990     2.2420     0.5810 H     1 <1>   0.0800 
 36 H        3.5480     1.6600    -1.3240 H     1 <1>   0.0800 
 37 H        1.9960    -0.1860     1.9670 H     1 <1>   0.0800 
 38 H        2.6710     1.3370     2.5120 H     1 <1>   0.0800 
 39 H        4.3850     2.8210     1.2950 H     1 <1>   0.3700 
 40 H        5.4720     0.6790     0.3070 H     1 <1>   0.0800 
 41 H        4.2770    -0.4190    -0.3740 H     1 <1>   0.0800 
 42 H        6.0230     5.8590    -1.4760 H     1 <1>   0.1500 
 43 H        4.0160     4.8330     2.1300 H     1 <1>   0.1500 
 44 H        4.9460     6.8190     3.2090 H     1 <1>   0.1500 
 45 H        6.4170     8.3240     1.9640 H     1 <1>   0.1500 
 46 H        6.9100    10.0350     0.3660 H     1 <1>   0.1500 
 47 H        8.1470     6.8800    -2.1740 H     1 <1>   0.1500 
 48 H        9.2670     9.0720    -2.8060 H     1 <1>   0.2700 
@<TRIPOS>BOND
  1   1   2  2   
  2   1   3  2   
  3   1   4  am  
  4   1   5  1   
  5   4   6  1   
  6   4   7  1   
  7   5   8  1   
  8   5  27  1   
  9   5  28  1   
 10   6  29  1   
 11   6  30  1   
 12   6  31  1   
 13   7  32  1   
 14   7  33  1   
 15   7  34  1   
 16   8   9  1   
 17   8  10  1   
 18   8  35  1   
 19   9  11  1   
 20   9  12  1   
 21   9  36  1   
 22  10  13  1   
 23  10  37  1   
 24  10  38  1   
 25  11  14  am  
 26  11  39  1   
 27  12  13  1   
 28  12  40  1   
 29  12  41  1   
 30  14  15  2   
 31  14  16  1   
 32  16  17  ar  
 33  16  18  ar  
 34  17  19  ar  
 35  17  42  1   
 36  18  20  ar  
 37  18  43  1   
 38  19  21  1   
 39  19  22  ar  
 40  20  22  ar  
 41  20  44  1   
 42  21  23  1   
 43  21  24  2   
 44  22  45  1   
 45  23  25  2   
 46  23  46  1   
 47  24  26  1   
 48  24  47  1   
 49  25  26  1   
 50  26  48  1   
@<TRIPOS>SUBSTRUCTURE
  1 ****  14 GROUP 4 **** **** 0

# MOE 2024.06 (io_trps.svl 2023.06)
