@<TRIPOS>MOLECULE
NONAME
53 55 1 0 0 
SMALL
USER_CHARGES


@<TRIPOS>ATOM
  1 O        0.3330    -0.6620     1.2960 O.2   1 <1>  -0.5700 
  2 C        1.1500    -0.8190     0.4170 C.2   1 <1>   0.5690 
  3 N        2.1160     0.0980     0.1060 N.am  1 <1>  -0.4930 
  4 C        1.0560    -2.1280    -0.3880 C.3   1 <1>   0.4040 
  5 C        2.3440     1.3660     0.7030 C.2   1 <1>   0.0630 
  6 N       -0.3100    -2.7880    -0.3330 N.4   1 <1>  -0.9590 
  7 C        3.3040     2.3090     0.3250 C.2   1 <1>   0.1080 
  8 C        1.7080     1.9400     1.7460 C.2   1 <1>  -0.3020 
  9 C       -0.3790    -4.2000    -0.8290 C.3   1 <1>   0.4230 
 10 C       -1.3420    -1.8980    -0.9490 C.3   1 <1>   0.3430 
 11 N        3.2660     3.3710     1.0650 N.2   1 <1>  -0.7070 
 12 C        4.2980     2.1660    -0.8060 C.3   1 <1>  -0.0590 
 13 N        2.2790     3.1450     1.9460 N.pl3 1 <1>   0.3140 
 14 C       -1.7880    -4.7470    -0.5400 C.3   1 <1>  -0.1600 
 15 C        0.7610    -5.0340    -0.2020 C.3   1 <1>  -0.1600 
 16 C       -2.7390    -2.4250    -0.6380 C.3   1 <1>  -0.1600 
 17 C        1.9170     4.1230     2.9780 C.3   1 <1>   0.0160 
 18 C       -2.9040    -3.8680    -1.1170 C.3   1 <1>  -0.1600 
 19 C        0.6750    -6.5720    -0.3470 C.3   1 <1>  -0.0170 
 20 C       -0.3390    -7.2480     0.5700 C.ar  1 <1>   0.1670 
 21 N       -0.4290    -6.7820     1.8070 N.ar  1 <1>  -0.6200 
 22 C       -1.1060    -8.2970     0.0820 C.ar  1 <1>  -0.1500 
 23 C       -1.3100    -7.3870     2.5890 C.ar  1 <1>   0.1600 
 24 C       -2.0250    -8.9120     0.9040 C.ar  1 <1>  -0.1500 
 25 C       -2.1220    -8.4360     2.1930 C.ar  1 <1>  -0.1500 
 26 H        2.7860    -0.1150    -0.6320 H     1 <1>   0.3700 
 27 H        1.7940    -2.7930     0.0220 H     1 <1>   0.0800 
 28 H        1.3160    -1.9270    -1.4120 H     1 <1>   0.0800 
 29 H       -0.5550    -2.8210     0.6710 H     1 <1>   0.4500 
 30 H        0.9000     1.5670     2.3470 H     1 <1>   0.1500 
 31 H       -0.2450    -4.2010    -1.8990 H     1 <1>   0.0800 
 32 H       -1.2020    -1.8570    -2.0170 H     1 <1>   0.0800 
 33 H       -1.2540    -0.8980    -0.5540 H     1 <1>   0.0800 
 34 H        4.9620     1.3450    -0.6100 H     1 <1>   0.0800 
 35 H        4.8820     3.0650    -0.8900 H     1 <1>   0.0800 
 36 H        3.7820     2.0060    -1.7340 H     1 <1>   0.0800 
 37 H       -1.9250    -4.8470     0.5230 H     1 <1>   0.0800 
 38 H       -1.8930    -5.7240    -0.9740 H     1 <1>   0.0800 
 39 H        0.8500    -4.7960     0.8440 H     1 <1>   0.0800 
 40 H        1.6810    -4.7470    -0.6780 H     1 <1>   0.0800 
 41 H       -3.4690    -1.8000    -1.1240 H     1 <1>   0.0800 
 42 H       -2.9170    -2.3630     0.4220 H     1 <1>   0.0800 
 43 H        0.8680     4.3390     2.9070 H     1 <1>   0.0800 
 44 H        2.4840     5.0220     2.8230 H     1 <1>   0.0800 
 45 H        2.1450     3.7140     3.9440 H     1 <1>   0.0800 
 46 H       -3.8630    -4.2480    -0.8070 H     1 <1>   0.0800 
 47 H       -2.8700    -3.9000    -2.1940 H     1 <1>   0.0800 
 48 H        1.6360    -6.9860    -0.0930 H     1 <1>   0.0800 
 49 H        0.4800    -6.8320    -1.3720 H     1 <1>   0.0800 
 50 H       -0.9880    -8.6400    -0.9300 H     1 <1>   0.1500 
 51 H       -1.3920    -7.0280     3.6010 H     1 <1>   0.1500 
 52 H       -2.6360    -9.7290     0.5580 H     1 <1>   0.1500 
 53 H       -2.8160    -8.8740     2.8880 H     1 <1>   0.1500 
@<TRIPOS>BOND
  1   1   2  2   
  2   2   3  am  
  3   2   4  1   
  4   3   5  1   
  5   3  26  1   
  6   4   6  1   
  7   4  27  1   
  8   4  28  1   
  9   5   7  1   
 10   5   8  2   
 11   6   9  1   
 12   6  10  1   
 13   6  29  1   
 14   7  11  2   
 15   7  12  1   
 16   8  13  1   
 17   8  30  1   
 18   9  14  1   
 19   9  15  1   
 20   9  31  1   
 21  10  16  1   
 22  10  32  1   
 23  10  33  1   
 24  11  13  1   
 25  12  34  1   
 26  12  35  1   
 27  12  36  1   
 28  13  17  1   
 29  14  18  1   
 30  14  37  1   
 31  14  38  1   
 32  15  19  1   
 33  15  39  1   
 34  15  40  1   
 35  16  18  1   
 36  16  41  1   
 37  16  42  1   
 38  17  43  1   
 39  17  44  1   
 40  17  45  1   
 41  18  46  1   
 42  18  47  1   
 43  19  20  1   
 44  19  48  1   
 45  19  49  1   
 46  20  21  ar  
 47  20  22  ar  
 48  21  23  ar  
 49  22  24  ar  
 50  22  50  1   
 51  23  25  ar  
 52  23  51  1   
 53  24  25  ar  
 54  24  52  1   
 55  25  53  1   
@<TRIPOS>SUBSTRUCTURE
  1 ****   6 GROUP 4 **** **** 0

# MOE 2024.06 (io_trps.svl 2023.06)
