@<TRIPOS>MOLECULE
NONAME
53 55 1 0 0 
SMALL
USER_CHARGES


@<TRIPOS>ATOM
  1 O       -0.0700     1.0570     0.5130 O.2   1 <1>  -0.5700 
  2 C       -0.2300     2.2370     0.3080 C.2   1 <1>   0.5690 
  3 N       -1.2060     2.9670     0.9310 N.am  1 <1>  -0.6600 
  4 C        0.6850     2.9240    -0.7050 C.3   1 <1>   0.1810 
  5 C       -1.4130     4.4200     0.6180 C.3   1 <1>   0.3640 
  6 C       -2.0880     2.3880     1.9850 C.3   1 <1>   0.0600 
  7 O        0.7980     4.3050    -0.4730 O.3   1 <1>  -0.5600 
  8 C       -2.8830     4.7000     0.2570 C.ar  1 <1>  -0.1430 
  9 C       -0.4450     4.9960    -0.4500 C.3   1 <1>   0.2610 
 10 C       -3.6160     4.0020    -0.7100 C.ar  1 <1>  -0.1430 
 11 C       -3.5080     5.7270     0.9550 C.ar  1 <1>  -0.1500 
 12 C       -0.2090     6.4830    -0.1670 C.2   1 <1>   0.5690 
 13 C       -4.9420     4.3430    -0.9380 C.ar  1 <1>  -0.1500 
 14 C       -3.0460     2.8600    -1.5440 C.3   1 <1>  -0.0960 
 15 C       -4.8280     6.0590     0.7170 C.ar  1 <1>  -0.1500 
 16 O       -1.0710     7.2890    -0.4220 O.2   1 <1>  -0.5700 
 17 N        0.9800     6.8620     0.3750 N.am  1 <1>  -0.7300 
 18 C       -5.5480     5.3630    -0.2320 C.ar  1 <1>  -0.1500 
 19 C        1.4190     8.2480     0.6450 C.3   1 <1>   0.1400 
 20 C        2.6450     8.6000    -0.2120 C.3   1 <1>  -0.0800 
 21 C        3.8500     7.6830     0.0870 C.3   1 <1>  -0.1600 
 22 C        3.0270    10.0750     0.0080 C.3   1 <1>  -0.1600 
 23 C        5.0820     8.0830    -0.7350 C.3   1 <1>  -0.1600 
 24 C        4.2570    10.4710    -0.8180 C.3   1 <1>  -0.1600 
 25 C        5.4480     9.5550    -0.5110 C.3   1 <1>  -0.1600 
 26 H        0.3110     2.7690    -1.7000 H     1 <1>   0.0800 
 27 H        1.6700     2.5000    -0.6350 H     1 <1>   0.0800 
 28 H       -1.1980     4.9470     1.5310 H     1 <1>   0.0800 
 29 H       -2.0340     2.9860     2.8770 H     1 <1>   0.0800 
 30 H       -1.7840     1.3830     2.2260 H     1 <1>   0.0800 
 31 H       -3.1070     2.3630     1.6390 H     1 <1>   0.0800 
 32 H       -0.8850     4.9170    -1.4270 H     1 <1>   0.0800 
 33 H       -2.9670     6.2930     1.6930 H     1 <1>   0.1500 
 34 H       -5.5200     3.8120    -1.6740 H     1 <1>   0.1500 
 35 H       -3.7000     2.6180    -2.3620 H     1 <1>   0.0800 
 36 H       -2.9360     1.9790    -0.9370 H     1 <1>   0.0800 
 37 H       -2.0940     3.1230    -1.9600 H     1 <1>   0.0800 
 38 H       -5.2910     6.8600     1.2660 H     1 <1>   0.1500 
 39 H        1.6960     6.1350     0.4670 H     1 <1>   0.3700 
 40 H       -6.5760     5.6160    -0.4220 H     1 <1>   0.1500 
 41 H        0.6150     8.9300     0.4220 H     1 <1>   0.0800 
 42 H        1.6590     8.3440     1.6900 H     1 <1>   0.0800 
 43 H        2.3680     8.4820    -1.2460 H     1 <1>   0.0800 
 44 H        4.0920     7.7380     1.1350 H     1 <1>   0.0800 
 45 H        3.6040     6.6610    -0.1430 H     1 <1>   0.0800 
 46 H        2.2010    10.7080    -0.2670 H     1 <1>   0.0800 
 47 H        3.2370    10.2410     1.0510 H     1 <1>   0.0800 
 48 H        5.9160     7.4600    -0.4610 H     1 <1>   0.0800 
 49 H        4.8800     7.9230    -1.7800 H     1 <1>   0.0800 
 50 H        4.0190    10.4060    -1.8670 H     1 <1>   0.0800 
 51 H        4.5230    11.4910    -0.6030 H     1 <1>   0.0800 
 52 H        6.2790     9.8200    -1.1410 H     1 <1>   0.0800 
 53 H        5.7520     9.6960     0.5130 H     1 <1>   0.0800 
@<TRIPOS>BOND
  1   1   2  2   
  2   2   3  am  
  3   2   4  1   
  4   3   5  1   
  5   3   6  1   
  6   4   7  1   
  7   4  26  1   
  8   4  27  1   
  9   5   8  1   
 10   5   9  1   
 11   5  28  1   
 12   6  29  1   
 13   6  30  1   
 14   6  31  1   
 15   7   9  1   
 16   8  10  ar  
 17   8  11  ar  
 18   9  12  1   
 19   9  32  1   
 20  10  13  ar  
 21  10  14  1   
 22  11  15  ar  
 23  11  33  1   
 24  12  16  2   
 25  12  17  am  
 26  13  18  ar  
 27  13  34  1   
 28  14  35  1   
 29  14  36  1   
 30  14  37  1   
 31  15  18  ar  
 32  15  38  1   
 33  17  19  1   
 34  17  39  1   
 35  18  40  1   
 36  19  20  1   
 37  19  41  1   
 38  19  42  1   
 39  20  21  1   
 40  20  22  1   
 41  20  43  1   
 42  21  23  1   
 43  21  44  1   
 44  21  45  1   
 45  22  24  1   
 46  22  46  1   
 47  22  47  1   
 48  23  25  1   
 49  23  48  1   
 50  23  49  1   
 51  24  25  1   
 52  24  50  1   
 53  24  51  1   
 54  25  52  1   
 55  25  53  1   
@<TRIPOS>SUBSTRUCTURE
  1 ****   9 GROUP 4 **** **** 0

# MOE 2024.06 (io_trps.svl 2023.06)
