@<TRIPOS>MOLECULE
NONAME
46 48 1 0 0 
SMALL
USER_CHARGES


@<TRIPOS>ATOM
  1 S        0.6980     0.6280    -0.4430 S.o2  1 <1>   1.3330 
  2 O        2.1080     0.9050    -0.2930 O.2   1 <1>  -0.6500 
  3 O       -0.0010     0.9840    -1.6570 O.2   1 <1>  -0.6500 
  4 N        0.4960    -1.0440    -0.2150 N.am  1 <1>  -0.8490 
  5 C       -0.2140     1.2950     0.9550 C.3   1 <1>  -0.0550 
  6 C        1.4580    -1.6270     0.7270 C.3   1 <1>   0.1160 
  7 C        0.5330    -1.7860    -1.4790 C.3   1 <1>   0.1160 
  8 C       -0.4280     2.8250     1.0150 C.3   1 <1>  -0.0800 
  9 C       -1.2030     3.3890    -0.1840 C.3   1 <1>   0.2000 
 10 C        0.8690     3.6490     1.0920 C.3   1 <1>   0.2090 
 11 O       -2.0830     4.3390     0.3090 O.3   1 <1>  -0.6800 
 12 C       -0.1570     4.1170    -1.0250 C.3   1 <1>   0.2090 
 13 N        0.8250     4.6170    -0.0330 N.pl3 1 <1>  -0.8380 
 14 C        2.0170     5.1010    -0.5180 C.ar  1 <1>   0.4100 
 15 N        2.8220     4.2050    -1.0590 N.ar  1 <1>  -0.6200 
 16 C        2.3720     6.4540    -0.4530 C.ar  1 <1>   0.0000 
 17 C        3.9790     4.6470    -1.5250 C.ar  1 <1>   0.4700 
 18 C        3.6080     6.7340    -0.9850 C.ar  1 <1>   0.2970 
 19 C        1.7060     7.6360     0.0610 C.2   1 <1>  -0.1810 
 20 N        4.4480     5.8790    -1.5290 N.ar  1 <1>  -0.5670 
 21 S        3.9670     8.4510    -0.8530 S.3   1 <1>  -0.0800 
 22 C        2.4180     8.7730    -0.0730 C.2   1 <1>  -0.1400 
 23 C        0.3230     7.5370     0.6860 C.3   1 <1>  -0.0590 
 24 C        2.1730    10.2250     0.2920 C.3   1 <1>  -0.0600 
 25 H       -1.1830     0.8350     0.9630 H     1 <1>   0.0800 
 26 H        0.2800     0.9920     1.8570 H     1 <1>   0.0800 
 27 H        1.2220    -2.6630     0.9030 H     1 <1>   0.0800 
 28 H        1.4210    -1.1070     1.6690 H     1 <1>   0.0800 
 29 H        2.4600    -1.5590     0.3350 H     1 <1>   0.0800 
 30 H        0.3930    -2.8380    -1.3000 H     1 <1>   0.0800 
 31 H        1.4760    -1.6320    -1.9770 H     1 <1>   0.0800 
 32 H       -0.2590    -1.4500    -2.1280 H     1 <1>   0.0800 
 33 H       -0.9890     3.0070     1.9150 H     1 <1>   0.0800 
 34 H       -1.7660     2.6580    -0.7400 H     1 <1>   0.0800 
 35 H        1.7450     3.0270     1.0150 H     1 <1>   0.0800 
 36 H        0.9170     4.1900     2.0210 H     1 <1>   0.0800 
 37 H       -1.5460     5.0930     0.6280 H     1 <1>   0.4000 
 38 H       -0.5910     4.9210    -1.5930 H     1 <1>   0.0800 
 39 H        0.3300     3.4350    -1.7010 H     1 <1>   0.0800 
 40 H        4.6200     3.8980    -1.9580 H     1 <1>   0.1500 
 41 H        0.3530     6.8710     1.5280 H     1 <1>   0.0800 
 42 H       -0.3730     7.1550    -0.0380 H     1 <1>   0.0800 
 43 H       -0.0270     8.4940     1.0220 H     1 <1>   0.0800 
 44 H        1.2160    10.3540     0.7610 H     1 <1>   0.0800 
 45 H        2.2060    10.8330    -0.5940 H     1 <1>   0.0800 
 46 H        2.9360    10.5620     0.9700 H     1 <1>   0.0800 
@<TRIPOS>BOND
  1   1   2  2   
  2   1   3  2   
  3   1   4  am  
  4   1   5  1   
  5   4   6  1   
  6   4   7  1   
  7   5   8  1   
  8   5  25  1   
  9   5  26  1   
 10   6  27  1   
 11   6  28  1   
 12   6  29  1   
 13   7  30  1   
 14   7  31  1   
 15   7  32  1   
 16   8   9  1   
 17   8  10  1   
 18   8  33  1   
 19   9  11  1   
 20   9  12  1   
 21   9  34  1   
 22  10  13  1   
 23  10  35  1   
 24  10  36  1   
 25  11  37  1   
 26  12  13  1   
 27  12  38  1   
 28  12  39  1   
 29  13  14  1   
 30  14  15  ar  
 31  14  16  ar  
 32  15  17  ar  
 33  16  18  ar  
 34  16  19  1   
 35  17  20  ar  
 36  17  40  1   
 37  18  20  ar  
 38  18  21  1   
 39  19  22  2   
 40  19  23  1   
 41  21  22  1   
 42  22  24  1   
 43  23  41  1   
 44  23  42  1   
 45  23  43  1   
 46  24  44  1   
 47  24  45  1   
 48  24  46  1   
@<TRIPOS>SUBSTRUCTURE
  1 ****  13 GROUP 4 **** **** 0

# MOE 2024.06 (io_trps.svl 2023.06)
