@<TRIPOS>MOLECULE
NONAME
48 50 1 0 0 
SMALL
USER_CHARGES


@<TRIPOS>ATOM
  1 CL      -0.8230    -0.1560    -1.0220 Cl    1 <1>  -0.1770 
  2 C       -0.6420    -1.8910    -0.8790 C.ar  1 <1>   0.1770 
  3 C       -1.7380    -2.7170    -0.6590 C.ar  1 <1>  -0.1440 
  4 C        0.6400    -2.3940    -1.0000 C.ar  1 <1>  -0.1500 
  5 C       -1.5290    -4.0980    -0.5710 C.ar  1 <1>   0.1170 
  6 C       -3.1500    -2.1430    -0.5130 C.3   1 <1>  -0.0970 
  7 C        0.8450    -3.7570    -0.9080 C.ar  1 <1>  -0.1500 
  8 N       -2.6260    -4.9540    -0.3810 N.am  1 <1>  -0.5470 
  9 C       -0.2340    -4.5960    -0.6990 C.ar  1 <1>  -0.1500 
 10 C       -2.7500    -6.2040     0.1550 C.2   1 <1>   0.6900 
 11 O       -1.7870    -6.8310     0.5540 O.2   1 <1>  -0.5700 
 12 N       -4.0010    -6.7450     0.2430 N.am  1 <1>  -0.6600 
 13 C       -5.2840    -6.0450     0.0130 C.3   1 <1>   0.1400 
 14 C       -4.2300    -8.1350     0.6870 C.3   1 <1>   0.1400 
 15 C       -6.3510    -6.9370     0.6640 C.3   1 <1>  -0.0800 
 16 C       -5.7440    -8.3520     0.6140 C.3   1 <1>  -0.0800 
 17 C       -7.7950    -6.8150     0.0870 C.3   1 <1>   0.2800 
 18 C       -6.1740    -9.0840    -0.6670 C.3   1 <1>  -0.1600 
 19 O       -7.7530    -6.3800    -1.2250 O.3   1 <1>  -0.6800 
 20 C       -8.4800    -8.1950     0.0670 C.3   1 <1>  -0.1600 
 21 C       -8.6650    -5.8050     0.8670 C.3   1 <1>  -0.1600 
 22 C       -7.7020    -9.2600    -0.7370 C.3   1 <1>  -0.1600 
 23 C       -8.1420    -4.3580     0.8940 C.3   1 <1>  -0.2400 
 24 H        1.4640    -1.7240    -1.1660 H     1 <1>   0.1500 
 25 H       -3.6440    -2.5810     0.3360 H     1 <1>   0.0800 
 26 H       -3.7210    -2.3510    -1.4000 H     1 <1>   0.0800 
 27 H       -3.1430    -1.0810    -0.3590 H     1 <1>   0.0800 
 28 H        1.8360    -4.1660    -1.0000 H     1 <1>   0.1500 
 29 H       -3.5200    -4.5720    -0.6640 H     1 <1>   0.3700 
 30 H       -0.0600    -5.6550    -0.6410 H     1 <1>   0.1500 
 31 H       -5.2750    -5.0650     0.4560 H     1 <1>   0.0800 
 32 H       -5.4270    -5.9630    -1.0500 H     1 <1>   0.0800 
 33 H       -3.6900    -8.8250     0.0610 H     1 <1>   0.0800 
 34 H       -3.8840    -8.2350     1.7020 H     1 <1>   0.0800 
 35 H       -6.3880    -6.6720     1.7060 H     1 <1>   0.0800 
 36 H       -6.0610    -8.9340     1.4630 H     1 <1>   0.0800 
 37 H       -5.8500    -8.5090    -1.5190 H     1 <1>   0.0800 
 38 H       -5.6970   -10.0470    -0.7270 H     1 <1>   0.0800 
 39 H       -8.6480    -6.4250    -1.6060 H     1 <1>   0.4000 
 40 H       -8.5600    -8.5370     1.0850 H     1 <1>   0.0800 
 41 H       -9.4830    -8.1150    -0.3120 H     1 <1>   0.0800 
 42 H       -9.6560    -5.8020     0.4470 H     1 <1>   0.0800 
 43 H       -8.7620    -6.1470     1.8830 H     1 <1>   0.0800 
 44 H       -7.9700   -10.2340    -0.3650 H     1 <1>   0.0800 
 45 H       -8.0010    -9.2170    -1.7700 H     1 <1>   0.0800 
 46 H       -7.9870    -3.9890    -0.1050 H     1 <1>   0.0800 
 47 H       -7.2170    -4.2940     1.4380 H     1 <1>   0.0800 
 48 H       -8.8590    -3.7210     1.3820 H     1 <1>   0.0800 
@<TRIPOS>BOND
  1   1   2  1   
  2   2   3  ar  
  3   2   4  ar  
  4   3   5  ar  
  5   3   6  1   
  6   4   7  ar  
  7   4  24  1   
  8   5   8  1   
  9   5   9  ar  
 10   6  25  1   
 11   6  26  1   
 12   6  27  1   
 13   7   9  ar  
 14   7  28  1   
 15   8  10  am  
 16   8  29  1   
 17   9  30  1   
 18  10  11  2   
 19  10  12  am  
 20  12  13  1   
 21  12  14  1   
 22  13  15  1   
 23  13  31  1   
 24  13  32  1   
 25  14  16  1   
 26  14  33  1   
 27  14  34  1   
 28  15  16  1   
 29  15  17  1   
 30  15  35  1   
 31  16  18  1   
 32  16  36  1   
 33  17  19  1   
 34  17  20  1   
 35  17  21  1   
 36  18  22  1   
 37  18  37  1   
 38  18  38  1   
 39  19  39  1   
 40  20  22  1   
 41  20  40  1   
 42  20  41  1   
 43  21  23  1   
 44  21  42  1   
 45  21  43  1   
 46  22  44  1   
 47  22  45  1   
 48  23  46  1   
 49  23  47  1   
 50  23  48  1   
@<TRIPOS>SUBSTRUCTURE
  1 ****  13 GROUP 4 **** **** 0

# MOE 2024.06 (io_trps.svl 2023.06)
