@<TRIPOS>MOLECULE
NONAME
39 40 1 0 0 
SMALL
USER_CHARGES


@<TRIPOS>ATOM
  1 S        0.0220     0.0050     1.0260 S.o2  1 <1>   1.3330 
  2 O       -0.9290    -1.0440     1.3170 O.2   1 <1>  -0.6500 
  3 O        0.9540     0.4280     2.0460 O.2   1 <1>  -0.6500 
  4 N        0.9120    -0.4640    -0.3430 N.am  1 <1>  -0.8490 
  5 C       -0.8670     1.4560     0.4570 C.3   1 <1>  -0.0550 
  6 C        2.1820    -1.1070     0.0100 C.3   1 <1>   0.1160 
  7 C        0.1550    -1.3230    -1.2610 C.3   1 <1>   0.1160 
  8 C        0.0250     2.5480    -0.1770 C.3   1 <1>  -0.0800 
  9 C       -0.7500     3.7430    -0.7360 C.3   1 <1>   0.2000 
 10 C        1.0510     3.1770     0.7760 C.3   1 <1>   0.1400 
 11 O       -1.7080     4.1380     0.1860 O.3   1 <1>  -0.6800 
 12 C        0.3010     4.8450    -0.8300 C.3   1 <1>   0.1400 
 13 N        1.2310     4.5770     0.2990 N.am  1 <1>  -0.6600 
 14 C        2.4220     5.2510     0.4520 C.2   1 <1>   0.7150 
 15 O        3.3660     4.6770     0.9580 O.2   1 <1>  -0.5700 
 16 C        2.5590     6.6140     0.0170 C.2   1 <1>  -0.2370 
 17 N        1.6080     7.5730     0.2350 N.pl3 1 <1>   0.0330 
 18 C        3.6020     7.2160    -0.6380 C.2   1 <1>  -0.1500 
 19 C        2.0430     8.7430    -0.2920 C.2   1 <1>  -0.3020 
 20 C        3.2730     8.5540    -0.8390 C.2   1 <1>  -0.1500 
 21 H       -1.5920     1.1500    -0.2710 H     1 <1>   0.0800 
 22 H       -1.4070     1.8700     1.2870 H     1 <1>   0.0800 
 23 H        2.7220    -1.3820    -0.8790 H     1 <1>   0.0800 
 24 H        2.0030    -1.9870     0.6050 H     1 <1>   0.0800 
 25 H        2.7950    -0.4260     0.5780 H     1 <1>   0.0800 
 26 H        0.7300    -1.5100    -2.1520 H     1 <1>   0.0800 
 27 H       -0.7650    -0.8420    -1.5450 H     1 <1>   0.0800 
 28 H       -0.0790    -2.2640    -0.7900 H     1 <1>   0.0800 
 29 H        0.5750     2.1120    -0.9930 H     1 <1>   0.0800 
 30 H       -1.2380     3.5410    -1.6750 H     1 <1>   0.0800 
 31 H        1.9810     2.6310     0.7550 H     1 <1>   0.0800 
 32 H        0.6820     3.1960     1.7870 H     1 <1>   0.0800 
 33 H       -1.2570     4.4340     1.0020 H     1 <1>   0.4000 
 34 H       -0.1500     5.8200    -0.7670 H     1 <1>   0.0800 
 35 H        0.8420     4.7600    -1.7570 H     1 <1>   0.0800 
 36 H        0.7260     7.4200     0.7370 H     1 <1>   0.2700 
 37 H        4.5220     6.7460    -0.9450 H     1 <1>   0.1500 
 38 H        1.4670     9.6500    -0.2490 H     1 <1>   0.1500 
 39 H        3.8950     9.2820    -1.3320 H     1 <1>   0.1500 
@<TRIPOS>BOND
  1   1   2  2   
  2   1   3  2   
  3   1   4  am  
  4   1   5  1   
  5   4   6  1   
  6   4   7  1   
  7   5   8  1   
  8   5  21  1   
  9   5  22  1   
 10   6  23  1   
 11   6  24  1   
 12   6  25  1   
 13   7  26  1   
 14   7  27  1   
 15   7  28  1   
 16   8   9  1   
 17   8  10  1   
 18   8  29  1   
 19   9  11  1   
 20   9  12  1   
 21   9  30  1   
 22  10  13  1   
 23  10  31  1   
 24  10  32  1   
 25  11  33  1   
 26  12  13  1   
 27  12  34  1   
 28  12  35  1   
 29  13  14  am  
 30  14  15  2   
 31  14  16  1   
 32  16  17  1   
 33  16  18  2   
 34  17  19  1   
 35  17  36  1   
 36  18  20  1   
 37  18  37  1   
 38  19  20  2   
 39  19  38  1   
 40  20  39  1   
@<TRIPOS>SUBSTRUCTURE
  1 ****  10 GROUP 4 **** **** 0

# MOE 2024.06 (io_trps.svl 2023.06)
