@<TRIPOS>MOLECULE
NONAME
47 50 1 0 0 
SMALL
USER_CHARGES


@<TRIPOS>ATOM
  1 O        0.4310    -3.5270     1.2420 O.2   1 <1>  -0.5700 
  2 C       -0.6120    -3.8220     0.6920 C.2   1 <1>   0.6900 
  3 N       -1.7630    -4.1500     1.3220 N.am  1 <1>  -0.5470 
  4 N       -0.8050    -3.8780    -0.6460 N.am  1 <1>  -0.5470 
  5 C       -2.7200    -4.4290     0.3580 C.ar  1 <1>   0.1170 
  6 C       -2.1190    -4.2590    -0.8780 C.ar  1 <1>   0.1170 
  7 C       -4.0460    -4.8140     0.4580 C.ar  1 <1>  -0.1500 
  8 C       -2.8310    -4.4720    -2.0470 C.ar  1 <1>  -0.1500 
  9 C       -4.7690    -5.0280    -0.7070 C.ar  1 <1>  -0.1430 
 10 C       -4.1580    -4.8590    -1.9510 C.ar  1 <1>  -0.1500 
 11 C       -6.2240    -5.4570    -0.6230 C.3   1 <1>   0.3530 
 12 N       -6.2500    -6.9290    -0.5450 N.pl3 1 <1>  -0.8690 
 13 C       -7.2090    -7.5980     0.1740 C.ar  1 <1>   0.4100 
 14 N       -8.3210    -6.9390     0.4680 N.ar  1 <1>  -0.6200 
 15 C       -6.9810    -8.9140     0.5500 C.ar  1 <1>  -0.1500 
 16 C       -9.2220    -7.6090     1.1640 C.ar  1 <1>   0.1600 
 17 C       -7.9260    -9.6230     1.2650 C.ar  1 <1>   0.0860 
 18 C       -9.0800    -8.9170     1.5790 C.ar  1 <1>  -0.1500 
 19 C       -7.7190   -11.0000     1.6630 C.2   1 <1>   0.5440 
 20 O       -6.7330   -11.2750     2.3190 O.2   1 <1>  -0.5700 
 21 N       -8.6030   -12.0020     1.3150 N.am  1 <1>  -0.6600 
 22 C       -8.4880   -13.3770     1.8790 C.3   1 <1>   0.1400 
 23 C       -9.6160   -11.8730     0.2290 C.3   1 <1>   0.1400 
 24 C       -8.1490   -14.3680     0.7620 C.3   1 <1>  -0.1600 
 25 C       -9.2910   -12.8550    -0.9010 C.3   1 <1>  -0.1600 
 26 C       -9.1660   -14.2960    -0.3860 C.3   1 <1>  -0.1600 
 27 H       -1.8450    -4.1860     2.3350 H     1 <1>   0.3700 
 28 H       -0.0700    -3.6680    -1.3170 H     1 <1>   0.3700 
 29 H       -4.4960    -4.9460     1.4260 H     1 <1>   0.1500 
 30 H       -2.3560    -4.3400    -3.0020 H     1 <1>   0.1500 
 31 H       -4.7250    -5.0350    -2.8500 H     1 <1>   0.1500 
 32 H       -6.7690    -5.1350    -1.4930 H     1 <1>   0.0800 
 33 H       -6.6830    -5.0230     0.2490 H     1 <1>   0.0800 
 34 H       -5.3080    -7.3210    -0.5130 H     1 <1>   0.4000 
 35 H       -6.0580    -9.3900     0.2810 H     1 <1>   0.1500 
 36 H      -10.1260    -7.0810     1.4160 H     1 <1>   0.1500 
 37 H       -9.8560    -9.3950     2.1470 H     1 <1>   0.1500 
 38 H       -9.4250   -13.6460     2.3350 H     1 <1>   0.0800 
 39 H       -7.7280   -13.4160     2.6410 H     1 <1>   0.0800 
 40 H       -9.6330   -10.8750    -0.1710 H     1 <1>   0.0800 
 41 H      -10.5910   -12.0900     0.6320 H     1 <1>   0.0800 
 42 H       -8.1280   -15.3640     1.1660 H     1 <1>   0.0800 
 43 H       -7.1640   -14.1430     0.3920 H     1 <1>   0.0800 
 44 H       -8.3660   -12.5560    -1.3630 H     1 <1>   0.0800 
 45 H      -10.0610   -12.8050    -1.6500 H     1 <1>   0.0800 
 46 H      -10.1260   -14.6340    -0.0340 H     1 <1>   0.0800 
 47 H       -8.8570   -14.9440    -1.1870 H     1 <1>   0.0800 
@<TRIPOS>BOND
  1   1   2  2   
  2   2   3  am  
  3   2   4  am  
  4   3   5  1   
  5   3  27  1   
  6   4   6  1   
  7   4  28  1   
  8   5   6  ar  
  9   5   7  ar  
 10   6   8  ar  
 11   7   9  ar  
 12   7  29  1   
 13   8  10  ar  
 14   8  30  1   
 15   9  10  ar  
 16   9  11  1   
 17  10  31  1   
 18  11  12  1   
 19  11  32  1   
 20  11  33  1   
 21  12  13  1   
 22  12  34  1   
 23  13  14  ar  
 24  13  15  ar  
 25  14  16  ar  
 26  15  17  ar  
 27  15  35  1   
 28  16  18  ar  
 29  16  36  1   
 30  17  18  ar  
 31  17  19  1   
 32  18  37  1   
 33  19  20  2   
 34  19  21  am  
 35  21  22  1   
 36  21  23  1   
 37  22  24  1   
 38  22  38  1   
 39  22  39  1   
 40  23  25  1   
 41  23  40  1   
 42  23  41  1   
 43  24  26  1   
 44  24  42  1   
 45  24  43  1   
 46  25  26  1   
 47  25  44  1   
 48  25  45  1   
 49  26  46  1   
 50  26  47  1   
@<TRIPOS>SUBSTRUCTURE
  1 ****  12 GROUP 4 **** **** 0

# MOE 2024.06 (io_trps.svl 2023.06)
