@<TRIPOS>MOLECULE
NONAME
44 47 1 0 0 
SMALL
USER_CHARGES


@<TRIPOS>ATOM
  1 S        0.1480     0.3600     0.5080 S.3   1 <1>  -0.0800 
  2 C       -1.1800     1.3890    -0.0540 C.2   1 <1>  -0.0130 
  3 C       -0.6720    -1.1050     0.0100 C.2   1 <1>  -0.1100 
  4 C       -1.0980     2.8250     0.0890 C.ar  1 <1>   0.6730 
  5 C       -2.1460     0.5860    -0.5740 C.2   1 <1>  -0.1500 
  6 C       -1.8640    -0.8110    -0.5400 C.2   1 <1>  -0.1500 
  7 N       -0.0110     3.3510     0.6600 N.ar  1 <1>  -0.6200 
  8 N       -2.1380     3.5310    -0.3720 N.ar  1 <1>  -0.6200 
  9 C        0.0290     4.6590     0.7720 C.ar  1 <1>   0.1600 
 10 C       -2.0700     4.8340    -0.2470 C.ar  1 <1>   0.1600 
 11 C       -0.9930     5.4640     0.3270 C.ar  1 <1>  -0.1430 
 12 C       -0.9390     6.9770     0.4620 C.3   1 <1>   0.2540 
 13 N        0.4220     7.4690     0.2180 N.3   1 <1>  -0.8100 
 14 C        0.6530     8.8120     0.7990 C.3   1 <1>   0.1100 
 15 C        0.8530     7.2910    -1.1840 C.3   1 <1>   0.1100 
 16 C        2.1190     9.3160     0.8140 C.3   1 <1>   0.2200 
 17 C        2.3540     7.5240    -1.4440 C.3   1 <1>  -0.0190 
 18 N        2.5270     9.8310    -0.5230 N.am  1 <1>  -0.6600 
 19 C        3.1700     8.3280     1.3770 C.3   1 <1>   0.1200 
 20 C        2.6550     8.9970    -1.5930 C.2   1 <1>   0.5690 
 21 C        3.3560     6.8340    -0.4950 C.3   1 <1>   0.1200 
 22 C        2.8040    11.2920    -0.6160 C.3   1 <1>   0.0600 
 23 O        3.1040     7.0260     0.8660 O.3   1 <1>  -0.5600 
 24 O        3.0010     9.3970    -2.6810 O.2   1 <1>  -0.5700 
 25 H       -0.1700    -2.0400     0.1840 H     1 <1>   0.1500 
 26 H       -3.0680     0.9530    -0.9900 H     1 <1>   0.1500 
 27 H       -2.5650    -1.5290    -0.9270 H     1 <1>   0.1500 
 28 H        0.9030     5.1040     1.2240 H     1 <1>   0.1500 
 29 H       -2.9000     5.4130    -0.6140 H     1 <1>   0.1500 
 30 H       -1.2390     7.2300     1.4650 H     1 <1>   0.0800 
 31 H       -1.6220     7.4470    -0.2250 H     1 <1>   0.0800 
 32 H        0.0420     9.5360     0.2870 H     1 <1>   0.0800 
 33 H        0.3290     8.7830     1.8240 H     1 <1>   0.0800 
 34 H        0.6390     6.2800    -1.4850 H     1 <1>   0.0800 
 35 H        0.2790     7.9440    -1.8210 H     1 <1>   0.0800 
 36 H        2.1310    10.1600     1.4800 H     1 <1>   0.0800 
 37 H        2.5440     7.1010    -2.4130 H     1 <1>   0.0800 
 38 H        3.0170     8.2360     2.4370 H     1 <1>   0.0800 
 39 H        4.1640     8.7070     1.2160 H     1 <1>   0.0800 
 40 H        4.3590     7.1670    -0.7020 H     1 <1>   0.0800 
 41 H        3.3150     5.7720    -0.6610 H     1 <1>   0.0800 
 42 H        3.6100    11.5540     0.0460 H     1 <1>   0.0800 
 43 H        1.9230    11.8480    -0.3460 H     1 <1>   0.0800 
 44 H        3.0840    11.5650    -1.6200 H     1 <1>   0.0800 
@<TRIPOS>BOND
  1   1   2  1   
  2   1   3  1   
  3   2   4  1   
  4   2   5  2   
  5   3   6  2   
  6   3  25  1   
  7   4   7  ar  
  8   4   8  ar  
  9   5   6  1   
 10   5  26  1   
 11   6  27  1   
 12   7   9  ar  
 13   8  10  ar  
 14   9  11  ar  
 15   9  28  1   
 16  10  11  ar  
 17  10  29  1   
 18  11  12  1   
 19  12  13  1   
 20  12  30  1   
 21  12  31  1   
 22  13  14  1   
 23  13  15  1   
 24  14  16  1   
 25  14  32  1   
 26  14  33  1   
 27  15  17  1   
 28  15  34  1   
 29  15  35  1   
 30  16  18  1   
 31  16  19  1   
 32  16  36  1   
 33  17  20  1   
 34  17  21  1   
 35  17  37  1   
 36  18  20  am  
 37  18  22  1   
 38  19  23  1   
 39  19  38  1   
 40  19  39  1   
 41  20  24  2   
 42  21  23  1   
 43  21  40  1   
 44  21  41  1   
 45  22  42  1   
 46  22  43  1   
 47  22  44  1   
@<TRIPOS>SUBSTRUCTURE
  1 ****   9 GROUP 4 **** **** 0

# MOE 2024.06 (io_trps.svl 2023.06)
