@<TRIPOS>MOLECULE
NONAME
48 49 1 0 0 
SMALL
USER_CHARGES


@<TRIPOS>ATOM
  1 S        0.4270     0.3400    -0.5750 S.o2  1 <1>   1.3330 
  2 O       -0.0130     0.3350     0.8030 O.2   1 <1>  -0.6500 
  3 O        0.4430    -0.8980    -1.3200 O.2   1 <1>  -0.6500 
  4 N       -0.5330     1.4570    -1.4190 N.am  1 <1>  -0.8490 
  5 C        2.0660     1.0560    -0.6590 C.3   1 <1>  -0.0550 
  6 C       -0.8790     2.6450    -0.6310 C.3   1 <1>   0.1160 
  7 C       -1.7480     0.8420    -1.9580 C.3   1 <1>   0.1160 
  8 C        3.1630     0.1300    -0.0970 C.3   1 <1>  -0.0800 
  9 C        4.5790     0.6760    -0.1940 C.3   1 <1>   0.2200 
 10 C        3.0290    -0.2010     1.3960 C.3   1 <1>   0.1200 
 11 N        4.6230     2.1050     0.2020 N.am  1 <1>  -0.7300 
 12 C        5.2630    -0.1460     0.8870 C.3   1 <1>   0.1200 
 13 O        4.3270    -0.2250     1.9190 O.3   1 <1>  -0.5600 
 14 C        4.6350     3.1690    -0.6540 C.2   1 <1>   0.5440 
 15 O        4.5650     2.9320    -1.8440 O.2   1 <1>  -0.5700 
 16 C        4.7050     4.5350    -0.1610 C.ar  1 <1>   0.0860 
 17 C        5.0310     5.5880    -1.0170 C.ar  1 <1>  -0.1500 
 18 C        4.4490     4.8630     1.1740 C.ar  1 <1>  -0.1500 
 19 C        5.1060     6.9000    -0.5820 C.ar  1 <1>  -0.1440 
 20 C        4.5210     6.1670     1.6270 C.ar  1 <1>  -0.1500 
 21 C        4.8510     7.1980     0.7530 C.ar  1 <1>   0.0820 
 22 C        5.4660     8.0040    -1.5660 C.3   1 <1>  -0.0970 
 23 O        4.9350     8.4940     1.1410 O.3   1 <1>  -0.3620 
 24 C        4.7140     8.8980     2.4730 C.3   1 <1>   0.0400 
 25 H        2.2970     1.2720    -1.6840 H     1 <1>   0.0800 
 26 H        2.0660     1.9850    -0.1240 H     1 <1>   0.0800 
 27 H       -1.4190     3.3480    -1.2430 H     1 <1>   0.0800 
 28 H        0.0140     3.1270    -0.2730 H     1 <1>   0.0800 
 29 H       -1.4900     2.3720     0.2140 H     1 <1>   0.0800 
 30 H       -2.3230     1.5680    -2.5060 H     1 <1>   0.0800 
 31 H       -2.3500     0.4400    -1.1600 H     1 <1>   0.0800 
 32 H       -1.4890     0.0420    -2.6310 H     1 <1>   0.0800 
 33 H        3.1270    -0.8000    -0.6390 H     1 <1>   0.0800 
 34 H        5.0210     0.5330    -1.1670 H     1 <1>   0.0800 
 35 H        2.5680    -1.1610     1.5540 H     1 <1>   0.0800 
 36 H        2.4780     0.5570     1.9280 H     1 <1>   0.0800 
 37 H        4.6830     2.2450     1.2120 H     1 <1>   0.3700 
 38 H        6.1700     0.3060     1.2490 H     1 <1>   0.0800 
 39 H        5.4620    -1.1460     0.5420 H     1 <1>   0.0800 
 40 H        5.2280     5.3610    -2.0510 H     1 <1>   0.1500 
 41 H        4.1840     4.0930     1.8740 H     1 <1>   0.1500 
 42 H        4.3160     6.3640     2.6620 H     1 <1>   0.1500 
 43 H        5.6340     7.6110    -2.5510 H     1 <1>   0.0800 
 44 H        6.3590     8.5060    -1.2390 H     1 <1>   0.0800 
 45 H        4.6660     8.7220    -1.6140 H     1 <1>   0.0800 
 46 H        4.8480     9.9630     2.5250 H     1 <1>   0.0800 
 47 H        5.4300     8.4090     3.1100 H     1 <1>   0.0800 
 48 H        3.7080     8.6420     2.7530 H     1 <1>   0.0800 
@<TRIPOS>BOND
  1   1   2  2   
  2   1   3  2   
  3   1   4  am  
  4   1   5  1   
  5   4   6  1   
  6   4   7  1   
  7   5   8  1   
  8   5  25  1   
  9   5  26  1   
 10   6  27  1   
 11   6  28  1   
 12   6  29  1   
 13   7  30  1   
 14   7  31  1   
 15   7  32  1   
 16   8   9  1   
 17   8  10  1   
 18   8  33  1   
 19   9  11  1   
 20   9  12  1   
 21   9  34  1   
 22  10  13  1   
 23  10  35  1   
 24  10  36  1   
 25  11  14  am  
 26  11  37  1   
 27  12  13  1   
 28  12  38  1   
 29  12  39  1   
 30  14  15  2   
 31  14  16  1   
 32  16  17  ar  
 33  16  18  ar  
 34  17  19  ar  
 35  17  40  1   
 36  18  20  ar  
 37  18  41  1   
 38  19  21  ar  
 39  19  22  1   
 40  20  21  ar  
 41  20  42  1   
 42  21  23  1   
 43  22  43  1   
 44  22  44  1   
 45  22  45  1   
 46  23  24  1   
 47  24  46  1   
 48  24  47  1   
 49  24  48  1   
@<TRIPOS>SUBSTRUCTURE
  1 ****  14 GROUP 4 **** **** 0

# MOE 2024.06 (io_trps.svl 2023.06)
