@<TRIPOS>MOLECULE
NONAME
46 48 1 0 0 
SMALL
USER_CHARGES


@<TRIPOS>ATOM
  1 O       -1.0950     0.7980     1.2030 O.2   1 <1>  -0.5700 
  2 C       -1.4570     1.6760     0.4310 C.2   1 <1>   0.7150 
  3 N       -2.6390     1.4670    -0.2620 N.am  1 <1>  -0.6600 
  4 C       -0.6230     2.8630     0.3120 C.2   1 <1>   0.1020 
  5 C       -3.1910     0.0840    -0.3930 C.3   1 <1>   0.1400 
  6 C       -3.4000     2.5830    -0.8980 C.3   1 <1>   0.1400 
  7 N       -0.6970     3.8640    -0.5440 N.2   1 <1>  -0.5650 
  8 N        0.4210     3.0300     1.1650 N.pl3 1 <1>   0.0330 
  9 C       -4.1830    -0.2290     0.7370 C.3   1 <1>   0.1400 
 10 C       -4.9260     2.4180    -0.8450 C.3   1 <1>  -0.1600 
 11 C        0.3180     4.6740    -0.2150 C.2   1 <1>   0.0770 
 12 C        1.0160     4.1810     0.8300 C.2   1 <1>  -0.3020 
 13 N       -5.5060     0.4390     0.5220 N.am  1 <1>  -0.6600 
 14 C       -5.4530     1.9300     0.5080 C.3   1 <1>   0.1400 
 15 C       -6.7080    -0.2130     0.3730 C.2   1 <1>   0.5690 
 16 O       -7.7440     0.3980     0.2550 O.2   1 <1>  -0.5700 
 17 C       -6.7670    -1.7330     0.3570 C.3   1 <1>  -0.0990 
 18 C       -8.1380    -2.3110    -0.0420 C.3   1 <1>   0.1760 
 19 N       -8.1620    -3.7650     0.2770 N.pl3 1 <1>   0.3140 
 20 C       -8.4770    -2.0790    -1.5280 C.3   1 <1>  -0.2400 
 21 N       -8.7900    -4.2380     1.3720 N.2   1 <1>  -0.7070 
 22 C       -7.5680    -4.7680    -0.4070 C.2   1 <1>  -0.3020 
 23 C       -8.5900    -5.5200     1.3490 C.2   1 <1>   0.1390 
 24 C       -7.8290    -5.9140     0.2570 C.2   1 <1>  -0.1500 
 25 H       -2.3790    -0.6210    -0.3400 H     1 <1>   0.0800 
 26 H       -3.6630    -0.0430    -1.3510 H     1 <1>   0.0800 
 27 H       -3.0800     2.6920    -1.9200 H     1 <1>   0.0800 
 28 H       -3.1650     3.4990    -0.3840 H     1 <1>   0.0800 
 29 H        0.6710     2.3590     1.9010 H     1 <1>   0.2700 
 30 H       -3.7650     0.0950     1.6750 H     1 <1>   0.0800 
 31 H       -4.3010    -1.2940     0.7980 H     1 <1>   0.0800 
 32 H       -5.2640     1.7670    -1.6310 H     1 <1>   0.0800 
 33 H       -5.3550     3.3840    -1.0420 H     1 <1>   0.0800 
 34 H        0.5060     5.5880    -0.7540 H     1 <1>   0.1500 
 35 H        1.8780     4.5790     1.3340 H     1 <1>   0.1500 
 36 H       -6.4400     2.3320     0.6650 H     1 <1>   0.0800 
 37 H       -4.8300     2.2850     1.3110 H     1 <1>   0.0800 
 38 H       -6.5310    -2.0700     1.3500 H     1 <1>   0.0800 
 39 H       -6.0270    -2.1060    -0.3240 H     1 <1>   0.0800 
 40 H       -8.9000    -1.8490     0.5620 H     1 <1>   0.0800 
 41 H       -7.7130    -2.4800    -2.1690 H     1 <1>   0.0800 
 42 H       -8.5700    -1.0270    -1.7300 H     1 <1>   0.0800 
 43 H       -9.4190    -2.5430    -1.7630 H     1 <1>   0.0800 
 44 H       -7.0060    -4.6180    -1.3090 H     1 <1>   0.1500 
 45 H       -8.9760    -6.1910     2.0990 H     1 <1>   0.1500 
 46 H       -7.5310    -6.9200     0.0220 H     1 <1>   0.1500 
@<TRIPOS>BOND
  1   1   2  2   
  2   2   3  am  
  3   2   4  1   
  4   3   5  1   
  5   3   6  1   
  6   4   7  2   
  7   4   8  1   
  8   5   9  1   
  9   5  25  1   
 10   5  26  1   
 11   6  10  1   
 12   6  27  1   
 13   6  28  1   
 14   7  11  1   
 15   8  12  1   
 16   8  29  1   
 17   9  13  1   
 18   9  30  1   
 19   9  31  1   
 20  10  14  1   
 21  10  32  1   
 22  10  33  1   
 23  11  12  2   
 24  11  34  1   
 25  12  35  1   
 26  13  14  1   
 27  13  15  am  
 28  14  36  1   
 29  14  37  1   
 30  15  16  2   
 31  15  17  1   
 32  17  18  1   
 33  17  38  1   
 34  17  39  1   
 35  18  19  1   
 36  18  20  1   
 37  18  40  1   
 38  19  21  1   
 39  19  22  1   
 40  20  41  1   
 41  20  42  1   
 42  20  43  1   
 43  21  23  2   
 44  22  24  2   
 45  22  44  1   
 46  23  24  1   
 47  23  45  1   
 48  24  46  1   
@<TRIPOS>SUBSTRUCTURE
  1 ****   9 GROUP 4 **** **** 0

# MOE 2024.06 (io_trps.svl 2023.06)
