@<TRIPOS>MOLECULE
NONAME
47 48 1 0 0 
SMALL
USER_CHARGES


@<TRIPOS>ATOM
  1 S        0.0000    -0.0530    -0.7630 S.3   1 <1>  -0.0800 
  2 C       -0.0270     1.4200     0.1780 C.2   1 <1>   0.4420 
  3 C       -1.7040    -0.2610    -0.4870 C.2   1 <1>  -0.1400 
  4 N        1.0960     2.1830     0.3890 N.am  1 <1>  -0.4940 
  5 N       -1.1810     1.7050     0.6360 N.2   1 <1>  -0.5650 
  6 C       -2.1630     0.7600     0.2860 C.2   1 <1>   0.1410 
  7 C       -2.3100    -1.4950    -1.1500 C.3   1 <1>   0.1000 
  8 C        2.3980     2.0210    -0.0040 C.2   1 <1>   0.5690 
  9 C       -3.5240     0.9560     0.7790 C.2   1 <1>   0.8060 
 10 C       -3.5540    -1.1570    -1.9790 C.3   1 <1>  -0.2400 
 11 C       -2.5980    -2.5880    -0.1180 C.3   1 <1>  -0.2400 
 12 O        2.7860     1.0680    -0.6330 O.2   1 <1>  -0.5700 
 13 C        3.4080     3.0880     0.3870 C.3   1 <1>   0.2370 
 14 O       -4.3160     0.0550     0.9690 O.2   1 <1>  -0.5700 
 15 O       -3.9200     2.2090     1.0460 O.3   1 <1>  -0.4300 
 16 N        4.1420     2.5670     1.5530 N.pl3 1 <1>   0.3140 
 17 C        4.3590     3.5250    -0.7640 C.3   1 <1>  -0.0800 
 18 C       -5.2100     2.5030     1.5440 C.3   1 <1>   0.0400 
 19 N        4.0920     3.1380     2.7360 N.2   1 <1>  -0.4180 
 20 C        4.9210     1.5060     1.6580 C.2   1 <1>   0.0360 
 21 C        5.3930     4.5710    -0.2800 C.3   1 <1>  -0.1600 
 22 C        3.5440     4.0750    -1.9540 C.3   1 <1>  -0.2400 
 23 N        4.8320     2.4300     3.5120 N.2   1 <1>   0.0000 
 24 N        5.3580     1.4030     2.8530 N.2   1 <1>  -0.3380 
 25 C        6.4300     4.9520    -1.3450 C.3   1 <1>  -0.2400 
 26 H        0.8810     2.9870     0.9760 H     1 <1>   0.3700 
 27 H       -1.5800    -1.8890    -1.8380 H     1 <1>   0.0800 
 28 H       -4.3750    -0.8610    -1.3550 H     1 <1>   0.0800 
 29 H       -3.8600    -2.0170    -2.5460 H     1 <1>   0.0800 
 30 H       -3.3340    -0.3590    -2.6650 H     1 <1>   0.0800 
 31 H       -3.3550    -2.2730     0.5770 H     1 <1>   0.0800 
 32 H       -1.7030    -2.8190     0.4310 H     1 <1>   0.0800 
 33 H       -2.9380    -3.4820    -0.6100 H     1 <1>   0.0800 
 34 H        2.8700     3.9580     0.7140 H     1 <1>   0.0800 
 35 H        4.8910     2.6540    -1.1100 H     1 <1>   0.0800 
 36 H       -5.2890     3.5660     1.6790 H     1 <1>   0.0800 
 37 H       -5.3430     1.9990     2.4860 H     1 <1>   0.0800 
 38 H       -5.9450     2.1640     0.8340 H     1 <1>   0.0800 
 39 H        5.1380     0.8360     0.8450 H     1 <1>   0.1500 
 40 H        4.8870     5.4630     0.0510 H     1 <1>   0.0800 
 41 H        5.9390     4.1830     0.5630 H     1 <1>   0.0800 
 42 H        3.0360     4.9850    -1.6840 H     1 <1>   0.0800 
 43 H        2.8140     3.3600    -2.2900 H     1 <1>   0.0800 
 44 H        4.1850     4.2800    -2.7920 H     1 <1>   0.0800 
 45 H        5.9800     5.5050    -2.1500 H     1 <1>   0.0800 
 46 H        6.9030     4.0720    -1.7460 H     1 <1>   0.0800 
 47 H        7.1910     5.5730    -0.9050 H     1 <1>   0.0800 
@<TRIPOS>BOND
  1   1   2  1   
  2   1   3  1   
  3   2   4  1   
  4   2   5  2   
  5   3   6  2   
  6   3   7  1   
  7   4   8  am  
  8   4  26  1   
  9   5   6  1   
 10   6   9  1   
 11   7  10  1   
 12   7  11  1   
 13   7  27  1   
 14   8  12  2   
 15   8  13  1   
 16   9  14  2   
 17   9  15  1   
 18  10  28  1   
 19  10  29  1   
 20  10  30  1   
 21  11  31  1   
 22  11  32  1   
 23  11  33  1   
 24  13  16  1   
 25  13  17  1   
 26  13  34  1   
 27  15  18  1   
 28  16  19  1   
 29  16  20  1   
 30  17  21  1   
 31  17  22  1   
 32  17  35  1   
 33  18  36  1   
 34  18  37  1   
 35  18  38  1   
 36  19  23  2   
 37  20  24  2   
 38  20  39  1   
 39  21  25  1   
 40  21  40  1   
 41  21  41  1   
 42  22  42  1   
 43  22  43  1   
 44  22  44  1   
 45  23  24  1   
 46  25  45  1   
 47  25  46  1   
 48  25  47  1   
@<TRIPOS>SUBSTRUCTURE
  1 ****   4 GROUP 4 **** **** 0

# MOE 2024.06 (io_trps.svl 2023.06)
