@<TRIPOS>MOLECULE
NONAME
50 53 1 0 0 
SMALL
USER_CHARGES


@<TRIPOS>ATOM
  1 O        1.2340    -1.1030     2.6280 O.2   1 <1>  -0.5700 
  2 C        1.1550    -1.8130     1.6380 C.2   1 <1>   0.5440 
  3 N        0.8170    -1.1890     0.4490 N.am  1 <1>  -0.6600 
  4 C        1.4370    -3.2460     1.7710 C.ar  1 <1>   0.3960 
  5 C        0.7770    -1.8150    -0.8920 C.3   1 <1>   0.1400 
  6 C        0.5050     0.2550     0.3650 C.3   1 <1>   0.1400 
  7 N        0.8950    -4.1450     0.9310 N.ar  1 <1>  -0.6200 
  8 C        2.2820    -3.6480     2.8130 C.ar  1 <1>   0.1600 
  9 C        0.6910    -0.6470    -1.8670 C.3   1 <1>  -0.1600 
 10 C        0.0290     0.4720    -1.0670 C.3   1 <1>  -0.1600 
 11 C        1.2380    -5.3880     1.1910 C.ar  1 <1>   0.4100 
 12 N        2.6460    -4.8960     3.0820 N.ar  1 <1>  -0.6200 
 13 N        0.6750    -6.3020     0.3450 N.pl3 1 <1>  -0.8690 
 14 C        2.1010    -5.7460     2.2370 C.ar  1 <1>   0.1600 
 15 C       -0.2100    -7.3540     0.8880 C.3   1 <1>   0.3530 
 16 C       -1.6070    -7.1670     0.3130 C.ar  1 <1>  -0.1430 
 17 C       -2.2670    -8.2150    -0.3330 C.ar  1 <1>   0.0830 
 18 C       -2.2350    -5.9340     0.4420 C.ar  1 <1>  -0.1500 
 19 O       -1.6240    -9.4090    -0.4230 O.3   1 <1>  -0.3630 
 20 C       -3.5460    -8.0150    -0.8550 C.ar  1 <1>  -0.1500 
 21 C       -3.5010    -5.7530    -0.0800 C.ar  1 <1>  -0.1430 
 22 C       -2.1890   -10.5080    -1.1040 C.3   1 <1>   0.0400 
 23 C       -4.1460    -6.7790    -0.7200 C.ar  1 <1>  -0.1430 
 24 C       -4.3430    -4.5040    -0.0500 C.3   1 <1>  -0.0170 
 25 C       -5.5080    -6.3490    -1.2050 C.3   1 <1>  -0.0170 
 26 C       -5.7290    -4.9980    -0.5010 C.3   1 <1>  -0.1600 
 27 H       -0.1040    -2.4310    -0.9660 H     1 <1>   0.0800 
 28 H        1.6550    -2.4140    -1.0690 H     1 <1>   0.0800 
 29 H        1.4030     0.8180     0.5570 H     1 <1>   0.0800 
 30 H       -0.2500     0.5260     1.0830 H     1 <1>   0.0800 
 31 H        2.6810    -2.8860     3.4610 H     1 <1>   0.1500 
 32 H        0.1370    -0.9050    -2.7510 H     1 <1>   0.0800 
 33 H        1.6870    -0.3540    -2.1490 H     1 <1>   0.0800 
 34 H        0.2900     1.4490    -1.4310 H     1 <1>   0.0800 
 35 H       -1.0410     0.3600    -1.0980 H     1 <1>   0.0800 
 36 H        0.1820    -5.8300    -0.4190 H     1 <1>   0.4000 
 37 H        2.3350    -6.7880     2.3540 H     1 <1>   0.1500 
 38 H       -0.2600    -7.2880     1.9620 H     1 <1>   0.0800 
 39 H        0.2000    -8.3150     0.6300 H     1 <1>   0.0800 
 40 H       -1.7460    -5.1160     0.9440 H     1 <1>   0.1500 
 41 H       -4.0820    -8.7950    -1.3590 H     1 <1>   0.1500 
 42 H       -1.4910   -11.3240    -1.0600 H     1 <1>   0.0800 
 43 H       -2.3650   -10.2300    -2.1280 H     1 <1>   0.0800 
 44 H       -3.1070   -10.7860    -0.6160 H     1 <1>   0.0800 
 45 H       -3.9470    -3.7880    -0.7480 H     1 <1>   0.0800 
 46 H       -4.3780    -4.0740     0.9360 H     1 <1>   0.0800 
 47 H       -6.2680    -7.0620    -0.9370 H     1 <1>   0.0800 
 48 H       -5.4840    -6.2210    -2.2730 H     1 <1>   0.0800 
 49 H       -6.2170    -4.2870    -1.1440 H     1 <1>   0.0800 
 50 H       -6.3390    -5.1580     0.3710 H     1 <1>   0.0800 
@<TRIPOS>BOND
  1   1   2  2   
  2   2   3  am  
  3   2   4  1   
  4   3   5  1   
  5   3   6  1   
  6   4   7  ar  
  7   4   8  ar  
  8   5   9  1   
  9   5  27  1   
 10   5  28  1   
 11   6  10  1   
 12   6  29  1   
 13   6  30  1   
 14   7  11  ar  
 15   8  12  ar  
 16   8  31  1   
 17   9  10  1   
 18   9  32  1   
 19   9  33  1   
 20  10  34  1   
 21  10  35  1   
 22  11  13  1   
 23  11  14  ar  
 24  12  14  ar  
 25  13  15  1   
 26  13  36  1   
 27  14  37  1   
 28  15  16  1   
 29  15  38  1   
 30  15  39  1   
 31  16  17  ar  
 32  16  18  ar  
 33  17  19  1   
 34  17  20  ar  
 35  18  21  ar  
 36  18  40  1   
 37  19  22  1   
 38  20  23  ar  
 39  20  41  1   
 40  21  23  ar  
 41  21  24  1   
 42  22  42  1   
 43  22  43  1   
 44  22  44  1   
 45  23  25  1   
 46  24  26  1   
 47  24  45  1   
 48  24  46  1   
 49  25  26  1   
 50  25  47  1   
 51  25  48  1   
 52  26  49  1   
 53  26  50  1   
@<TRIPOS>SUBSTRUCTURE
  1 ****  18 GROUP 4 **** **** 0

# MOE 2024.06 (io_trps.svl 2023.06)
