@<TRIPOS>MOLECULE
NONAME
26 26 1 0 0 
SMALL
USER_CHARGES


@<TRIPOS>ATOM
  1 BR      -0.3340    -0.0340    -0.1250 Br    1 <1>  -0.1110 
  2 C       -0.1010     1.8650     0.0910 C.ar  1 <1>   0.1110 
  3 C        1.0630     2.3280     0.6730 C.ar  1 <1>  -0.1500 
  4 C       -1.1060     2.7120    -0.3410 C.ar  1 <1>  -0.1500 
  5 C        1.2010     3.6970     0.8060 C.ar  1 <1>   0.1900 
  6 C       -0.9520     4.0810    -0.1840 C.ar  1 <1>   0.0820 
  7 F        2.3050     4.1490     1.3460 F     1 <1>  -0.1900 
  8 C        0.2250     4.5940     0.3810 C.ar  1 <1>   0.0830 
  9 O       -1.9710     4.8710    -0.6030 O.3   1 <1>  -0.3630 
 10 O        0.4320     5.9300     0.5210 O.3   1 <1>  -0.3630 
 11 C       -2.6340     5.6380     0.3760 C.3   1 <1>   0.1200 
 12 C        0.6830     6.6430    -0.6670 C.3   1 <1>   0.1200 
 13 C       -3.8600     6.2720    -0.2720 C.3   1 <1>  -0.2400 
 14 C        0.8800     8.1110    -0.3040 C.3   1 <1>  -0.2400 
 15 H        1.8320     1.6560     1.0060 H     1 <1>   0.1500 
 16 H       -2.0000     2.3170    -0.7880 H     1 <1>   0.1500 
 17 H       -1.9650     6.3970     0.7420 H     1 <1>   0.0800 
 18 H       -2.9200     4.9860     1.1840 H     1 <1>   0.0800 
 19 H       -0.1570     6.5240    -1.3300 H     1 <1>   0.0800 
 20 H        1.5690     6.2370    -1.1250 H     1 <1>   0.0800 
 21 H       -3.5600     6.9110    -1.0830 H     1 <1>   0.0800 
 22 H       -4.3900     6.8620     0.4530 H     1 <1>   0.0800 
 23 H       -4.5200     5.5070    -0.6410 H     1 <1>   0.0800 
 24 H       -0.0080     8.4990     0.1610 H     1 <1>   0.0800 
 25 H        1.0800     8.6820    -1.1930 H     1 <1>   0.0800 
 26 H        1.7140     8.2160     0.3670 H     1 <1>   0.0800 
@<TRIPOS>BOND
  1   1   2  1   
  2   2   3  ar  
  3   2   4  ar  
  4   3   5  ar  
  5   3  15  1   
  6   4   6  ar  
  7   4  16  1   
  8   5   7  1   
  9   5   8  ar  
 10   6   8  ar  
 11   6   9  1   
 12   8  10  1   
 13   9  11  1   
 14  10  12  1   
 15  11  13  1   
 16  11  17  1   
 17  11  18  1   
 18  12  14  1   
 19  12  19  1   
 20  12  20  1   
 21  13  21  1   
 22  13  22  1   
 23  13  23  1   
 24  14  24  1   
 25  14  25  1   
 26  14  26  1   
@<TRIPOS>SUBSTRUCTURE
  1 ****   8 GROUP 4 **** **** 0

# MOE 2024.06 (io_trps.svl 2023.06)
