@<TRIPOS>MOLECULE
NONAME
43 45 1 0 0 
SMALL
USER_CHARGES


@<TRIPOS>ATOM
  1 O       -0.4080     0.1530     2.0390 O.3   1 <1>  -0.5600 
  2 C        0.5360     0.6010     1.1110 C.3   1 <1>   0.1200 
  3 C       -1.7030     0.3100     1.5360 C.3   1 <1>   0.1200 
  4 C       -0.1840     1.6360     0.2560 C.3   1 <1>   0.2890 
  5 C       -1.5740     1.0240     0.1870 C.3   1 <1>  -0.0800 
  6 N       -0.2180     2.9300     0.9880 N.pl3 1 <1>  -0.8690 
  7 C       -2.7220     2.0030    -0.1230 C.3   1 <1>  -0.0170 
  8 C        0.5670     4.0260     0.6830 C.ar  1 <1>   0.4100 
  9 C       -4.0500     1.2680    -0.2270 C.ar  1 <1>  -0.1430 
 10 N        1.2960     3.9310    -0.4220 N.ar  1 <1>  -0.6200 
 11 C        0.5730     5.1570     1.5090 C.ar  1 <1>   0.0730 
 12 C       -4.9560     1.2460     0.8140 C.ar  1 <1>  -0.1500 
 13 C       -4.4150     0.5840    -1.3680 C.ar  1 <1>  -0.1500 
 14 C        2.0570     4.9620    -0.7370 C.ar  1 <1>   0.1670 
 15 C       -0.2420     5.2070     2.6810 C.1   1 <1>   0.4840 
 16 C        1.3810     6.2240     1.1650 C.ar  1 <1>  -0.1500 
 17 C       -6.1480     0.5540     0.6680 C.ar  1 <1>   0.1600 
 18 C       -5.6320    -0.0760    -1.4110 C.ar  1 <1>   0.1600 
 19 C        2.1430     6.1270     0.0190 C.ar  1 <1>  -0.1430 
 20 C        2.8640     4.7920    -2.0120 C.3   1 <1>  -0.0970 
 21 N       -0.8890     5.2380     3.6200 N.1   1 <1>  -0.5570 
 22 N       -6.5060    -0.1090    -0.4190 N.ar  1 <1>  -0.6200 
 23 C        3.0450     7.2920    -0.3700 C.3   1 <1>  -0.0970 
 24 H        1.3880     1.0110     1.6240 H     1 <1>   0.0800 
 25 H        0.8370    -0.2410     0.5130 H     1 <1>   0.0800 
 26 H       -2.1620    -0.6590     1.4350 H     1 <1>   0.0800 
 27 H       -2.2550     0.9020     2.2450 H     1 <1>   0.0800 
 28 H        0.2610     1.7370    -0.7190 H     1 <1>   0.0800 
 29 H       -1.5620     0.2670    -0.5770 H     1 <1>   0.0800 
 30 H       -0.4720     2.7890     1.9720 H     1 <1>   0.4000 
 31 H       -2.5190     2.5090    -1.0500 H     1 <1>   0.0800 
 32 H       -2.7920     2.7560     0.6430 H     1 <1>   0.0800 
 33 H       -4.7490     1.7590     1.7350 H     1 <1>   0.1500 
 34 H       -3.7650     0.5590    -2.2240 H     1 <1>   0.1500 
 35 H        1.4100     7.1070     1.7810 H     1 <1>   0.1500 
 36 H       -6.8430     0.5470     1.4900 H     1 <1>   0.1500 
 37 H       -5.8990    -0.6050    -2.3100 H     1 <1>   0.1500 
 38 H        2.8440     5.6910    -2.6000 H     1 <1>   0.0800 
 39 H        2.4550     3.9960    -2.6080 H     1 <1>   0.0800 
 40 H        3.8800     4.5480    -1.7670 H     1 <1>   0.0800 
 41 H        3.0910     8.0240     0.4160 H     1 <1>   0.0800 
 42 H        2.6670     7.7700    -1.2560 H     1 <1>   0.0800 
 43 H        4.0450     6.9440    -0.5590 H     1 <1>   0.0800 
@<TRIPOS>BOND
  1   1   2  1   
  2   1   3  1   
  3   2   4  1   
  4   2  24  1   
  5   2  25  1   
  6   3   5  1   
  7   3  26  1   
  8   3  27  1   
  9   4   5  1   
 10   4   6  1   
 11   4  28  1   
 12   5   7  1   
 13   5  29  1   
 14   6   8  1   
 15   6  30  1   
 16   7   9  1   
 17   7  31  1   
 18   7  32  1   
 19   8  10  ar  
 20   8  11  ar  
 21   9  12  ar  
 22   9  13  ar  
 23  10  14  ar  
 24  11  15  1   
 25  11  16  ar  
 26  12  17  ar  
 27  12  33  1   
 28  13  18  ar  
 29  13  34  1   
 30  14  19  ar  
 31  14  20  1   
 32  15  21  3   
 33  16  19  ar  
 34  16  35  1   
 35  17  22  ar  
 36  17  36  1   
 37  18  22  ar  
 38  18  37  1   
 39  19  23  1   
 40  20  38  1   
 41  20  39  1   
 42  20  40  1   
 43  23  41  1   
 44  23  42  1   
 45  23  43  1   
@<TRIPOS>SUBSTRUCTURE
  1 ****   6 GROUP 4 **** **** 0

# MOE 2024.06 (io_trps.svl 2023.06)
