@<TRIPOS>MOLECULE
NONAME
44 46 1 0 0 
SMALL
USER_CHARGES


@<TRIPOS>ATOM
  1 O        2.4730     0.8430    -0.9790 O.2   1 <1>  -0.5700 
  2 C        2.1490     1.7300    -0.2350 C.2   1 <1>   0.5690 
  3 N        1.2700     1.6130     0.7670 N.am  1 <1>  -0.7300 
  4 C        2.6710     3.1360    -0.3180 C.3   1 <1>  -0.0990 
  5 C        1.0280     2.8680     1.4900 C.3   1 <1>   0.1400 
  6 C        2.1740     3.7770     0.9990 C.3   1 <1>  -0.0190 
  7 C        1.7880     5.2450     0.8700 C.2   1 <1>   0.5690 
  8 O        0.7370     5.6160     1.3320 O.2   1 <1>  -0.5700 
  9 N        2.6810     6.0800     0.2550 N.am  1 <1>  -0.4940 
 10 C        2.6860     7.4670    -0.0260 C.2   1 <1>  -0.0880 
 11 N        1.6500     8.3520    -0.0840 N.pl3 1 <1>   0.3140 
 12 C        3.8150     8.1730    -0.3130 C.2   1 <1>  -0.0540 
 13 N        2.0850     9.5950    -0.3880 N.2   1 <1>  -0.7070 
 14 C        0.2070     8.1270     0.0670 C.3   1 <1>   0.0160 
 15 C        5.1690     7.6890    -0.3870 C.ar  1 <1>   0.0540 
 16 C        3.3640     9.4790    -0.5210 C.2   1 <1>   0.1080 
 17 C        6.1220     8.0790     0.5490 C.ar  1 <1>  -0.1500 
 18 C        5.5590     6.8110    -1.3940 C.ar  1 <1>  -0.1500 
 19 C        4.2440    10.6580    -0.8720 C.3   1 <1>  -0.0590 
 20 C        7.4220     7.6090     0.4890 C.ar  1 <1>  -0.1500 
 21 C        6.8550     6.3350    -1.4590 C.ar  1 <1>  -0.1500 
 22 C        7.7950     6.7280    -0.5210 C.ar  1 <1>   0.0820 
 23 O        9.0450     6.2160    -0.6560 O.3   1 <1>  -0.3620 
 24 C       10.0910     6.6020     0.2070 C.3   1 <1>   0.0400 
 25 H        0.7530     0.7480     0.9440 H     1 <1>   0.3700 
 26 H        2.2340     3.6070    -1.1800 H     1 <1>   0.0800 
 27 H        3.7430     3.1380    -0.3930 H     1 <1>   0.0800 
 28 H        1.0700     2.7190     2.5560 H     1 <1>   0.0800 
 29 H        0.0610     3.2530     1.2100 H     1 <1>   0.0800 
 30 H        2.9620     3.7110     1.7280 H     1 <1>   0.0800 
 31 H        3.5760     5.6400     0.0340 H     1 <1>   0.3700 
 32 H       -0.0730     7.2370    -0.4620 H     1 <1>   0.0800 
 33 H       -0.3270     8.9670    -0.3370 H     1 <1>   0.0800 
 34 H       -0.0250     8.0250     1.1100 H     1 <1>   0.0800 
 35 H        5.8320     8.7570     1.3330 H     1 <1>   0.1500 
 36 H        4.8380     6.5100    -2.1340 H     1 <1>   0.1500 
 37 H        5.0780    10.3380    -1.4680 H     1 <1>   0.0800 
 38 H        4.6040    11.1180     0.0280 H     1 <1>   0.0800 
 39 H        3.6750    11.3800    -1.4290 H     1 <1>   0.0800 
 40 H        8.1250     7.9370     1.2320 H     1 <1>   0.1500 
 41 H        7.1500     5.6580    -2.2410 H     1 <1>   0.1500 
 42 H       10.9850     6.0890    -0.1020 H     1 <1>   0.0800 
 43 H        9.8380     6.3190     1.2130 H     1 <1>   0.0800 
 44 H       10.2350     7.6650     0.1290 H     1 <1>   0.0800 
@<TRIPOS>BOND
  1   1   2  2   
  2   2   3  am  
  3   2   4  1   
  4   3   5  1   
  5   3  25  1   
  6   4   6  1   
  7   4  26  1   
  8   4  27  1   
  9   5   6  1   
 10   5  28  1   
 11   5  29  1   
 12   6   7  1   
 13   6  30  1   
 14   7   8  2   
 15   7   9  am  
 16   9  10  1   
 17   9  31  1   
 18  10  11  1   
 19  10  12  2   
 20  11  13  1   
 21  11  14  1   
 22  12  15  1   
 23  12  16  1   
 24  13  16  2   
 25  14  32  1   
 26  14  33  1   
 27  14  34  1   
 28  15  17  ar  
 29  15  18  ar  
 30  16  19  1   
 31  17  20  ar  
 32  17  35  1   
 33  18  21  ar  
 34  18  36  1   
 35  19  37  1   
 36  19  38  1   
 37  19  39  1   
 38  20  22  ar  
 39  20  40  1   
 40  21  22  ar  
 41  21  41  1   
 42  22  23  1   
 43  23  24  1   
 44  24  42  1   
 45  24  43  1   
 46  24  44  1   
@<TRIPOS>SUBSTRUCTURE
  1 ****   9 GROUP 4 **** **** 0

# MOE 2024.06 (io_trps.svl 2023.06)
