@<TRIPOS>MOLECULE
NONAME
55 57 1 0 0 
SMALL
USER_CHARGES


@<TRIPOS>ATOM
  1 O        0.8300    -0.2680    -1.2910 O.2   1 <1>  -0.5700 
  2 C        1.7230    -0.9440    -0.8400 C.2   1 <1>   0.5690 
  3 N        2.6340    -0.3930     0.0400 N.am  1 <1>  -0.6600 
  4 C        1.8040    -2.3860    -1.3470 C.3   1 <1>   0.1810 
  5 C        3.9730    -0.9750     0.3570 C.3   1 <1>   0.1400 
  6 C        2.3540     0.9150     0.6980 C.3   1 <1>   0.1400 
  7 O        2.0920    -3.3100    -0.3090 O.3   1 <1>  -0.3620 
  8 C        4.9960    -0.6090    -0.7340 C.3   1 <1>   0.3430 
  9 C        3.3870     1.9820     0.3170 C.3   1 <1>  -0.1600 
 10 C        1.1870    -4.2890    -0.0990 C.ar  1 <1>   0.0820 
 11 N        5.2470     0.8650    -0.8790 N.4   1 <1>  -0.9590 
 12 C        4.0540     1.7490    -1.0400 C.3   1 <1>   0.3430 
 13 C        0.0090    -4.0480     0.6050 C.ar  1 <1>  -0.1440 
 14 C        1.4650    -5.5520    -0.5960 C.ar  1 <1>  -0.1500 
 15 C        6.2740     1.1690    -1.9120 C.3   1 <1>   0.5240 
 16 C       -0.8900    -5.0890     0.7780 C.ar  1 <1>  -0.1500 
 17 C       -0.3150    -2.6820     1.1950 C.3   1 <1>  -0.0970 
 18 C        0.5610    -6.5830    -0.4140 C.ar  1 <1>  -0.1500 
 19 C        7.1300     2.3010    -1.3560 C.2   1 <1>   0.1080 
 20 C       -0.6180    -6.3490     0.2710 C.ar  1 <1>  -0.1500 
 21 N        7.1970     2.5620    -0.0790 N.2   1 <1>  -0.7070 
 22 C        7.9150     3.1650    -2.1100 C.2   1 <1>  -0.1500 
 23 N        8.0460     3.6090     0.0150 N.pl3 1 <1>   0.3140 
 24 C        8.4830     3.9850    -1.2020 C.2   1 <1>  -0.3020 
 25 C        8.4180     4.2220     1.3090 C.3   1 <1>   0.0960 
 26 C        9.7610     3.6780     1.8130 C.3   1 <1>  -0.2400 
 27 H        2.5760    -2.4710    -2.0860 H     1 <1>   0.0800 
 28 H        0.8650    -2.6540    -1.8000 H     1 <1>   0.0800 
 29 H        3.9120    -2.0430     0.4360 H     1 <1>   0.0800 
 30 H        4.3140    -0.6150     1.3120 H     1 <1>   0.0800 
 31 H        2.3400     0.7820     1.7670 H     1 <1>   0.0800 
 32 H        1.3730     1.2640     0.4170 H     1 <1>   0.0800 
 33 H        4.6450    -1.0070    -1.6710 H     1 <1>   0.0800 
 34 H        5.9260    -1.1010    -0.5000 H     1 <1>   0.0800 
 35 H        4.1300     2.0740     1.0880 H     1 <1>   0.0800 
 36 H        2.8700     2.9240     0.2790 H     1 <1>   0.0800 
 37 H        5.7380     1.2200    -0.0330 H     1 <1>   0.4500 
 38 H        4.3760     2.7060    -1.4190 H     1 <1>   0.0800 
 39 H        3.3490     1.3260    -1.7380 H     1 <1>   0.0800 
 40 H        2.3840    -5.7270    -1.1240 H     1 <1>   0.1500 
 41 H        5.8140     1.4580    -2.8420 H     1 <1>   0.0800 
 42 H        6.9050     0.3130    -2.0780 H     1 <1>   0.0800 
 43 H       -1.8100    -4.9260     1.3120 H     1 <1>   0.1500 
 44 H        0.5710    -2.2300     1.6020 H     1 <1>   0.0800 
 45 H       -1.0370    -2.7720     1.9860 H     1 <1>   0.0800 
 46 H       -0.7210    -2.0400     0.4330 H     1 <1>   0.0800 
 47 H        0.7740    -7.5640    -0.8020 H     1 <1>   0.1500 
 48 H       -1.3250    -7.1480     0.4130 H     1 <1>   0.1500 
 49 H        8.0410     3.1720    -3.1790 H     1 <1>   0.1500 
 50 H        9.1680     4.8010    -1.3510 H     1 <1>   0.1500 
 51 H        7.6440     4.0070     2.0220 H     1 <1>   0.0800 
 52 H        8.4760     5.2870     1.1780 H     1 <1>   0.0800 
 53 H        9.7030     2.6130     1.9510 H     1 <1>   0.0800 
 54 H       10.0060     4.1310     2.7570 H     1 <1>   0.0800 
 55 H       10.5460     3.9040     1.1120 H     1 <1>   0.0800 
@<TRIPOS>BOND
  1   1   2  2   
  2   2   3  am  
  3   2   4  1   
  4   3   5  1   
  5   3   6  1   
  6   4   7  1   
  7   4  27  1   
  8   4  28  1   
  9   5   8  1   
 10   5  29  1   
 11   5  30  1   
 12   6   9  1   
 13   6  31  1   
 14   6  32  1   
 15   7  10  1   
 16   8  11  1   
 17   8  33  1   
 18   8  34  1   
 19   9  12  1   
 20   9  35  1   
 21   9  36  1   
 22  10  13  ar  
 23  10  14  ar  
 24  11  12  1   
 25  11  15  1   
 26  11  37  1   
 27  12  38  1   
 28  12  39  1   
 29  13  16  ar  
 30  13  17  1   
 31  14  18  ar  
 32  14  40  1   
 33  15  19  1   
 34  15  41  1   
 35  15  42  1   
 36  16  20  ar  
 37  16  43  1   
 38  17  44  1   
 39  17  45  1   
 40  17  46  1   
 41  18  20  ar  
 42  18  47  1   
 43  19  21  2   
 44  19  22  1   
 45  20  48  1   
 46  21  23  1   
 47  22  24  2   
 48  22  49  1   
 49  23  24  1   
 50  23  25  1   
 51  24  50  1   
 52  25  26  1   
 53  25  51  1   
 54  25  52  1   
 55  26  53  1   
 56  26  54  1   
 57  26  55  1   
@<TRIPOS>SUBSTRUCTURE
  1 ****   5 GROUP 4 **** **** 0

# MOE 2024.06 (io_trps.svl 2023.06)
