@<TRIPOS>MOLECULE
NONAME
42 44 1 0 0 
SMALL
USER_CHARGES


@<TRIPOS>ATOM
  1 O        1.5680    -1.8980    -0.9900 O.co2 1 <1>  -0.9000 
  2 C        1.8220    -0.8900    -0.2990 C.2   1 <1>   0.9790 
  3 O        0.9530    -0.5460     0.5330 O.co2 1 <1>  -0.9000 
  4 C        3.0720    -0.1250    -0.4150 C.ar  1 <1>   0.1310 
  5 N        3.9960    -0.3510    -1.3800 N.ar  1 <1>  -0.6200 
  6 C        3.2880     0.8800     0.5360 C.ar  1 <1>   0.1600 
  7 C        5.0410     0.4410    -1.3030 C.ar  1 <1>   0.1600 
  8 N        4.3460     1.6740     0.6160 N.ar  1 <1>  -0.6200 
  9 C        5.2390     1.4320    -0.3320 C.ar  1 <1>   0.4100 
 10 N        6.3960     2.1970    -0.3130 N.pl3 1 <1>  -0.8380 
 11 C        7.6710     1.5020    -0.0070 C.3   1 <1>   0.2090 
 12 C        6.3120     3.5970     0.1740 C.3   1 <1>   0.2090 
 13 C        8.8420     2.3060    -0.5740 C.3   1 <1>  -0.1600 
 14 C        7.4800     4.4100    -0.3880 C.3   1 <1>  -0.1600 
 15 C        8.8360     3.7590    -0.0530 C.3   1 <1>  -0.0190 
 16 C       10.0010     4.5950    -0.5990 C.2   1 <1>   0.5690 
 17 O       10.4560     4.2980    -1.6800 O.2   1 <1>  -0.5700 
 18 N       10.5120     5.6540     0.1140 N.am  1 <1>  -0.6600 
 19 C        9.9870     6.1970     1.4060 C.3   1 <1>   0.1400 
 20 C       11.6800     6.4380    -0.3960 C.3   1 <1>   0.1400 
 21 C        9.7680     7.7170     1.3060 C.3   1 <1>   0.1200 
 22 C       11.3700     7.9430    -0.3930 C.3   1 <1>   0.1200 
 23 O       10.9340     8.3560     0.8720 O.3   1 <1>  -0.5600 
 24 H        2.5260     1.0300     1.2820 H     1 <1>   0.1500 
 25 H        5.8070     0.3230    -2.0440 H     1 <1>   0.1500 
 26 H        7.6660     0.5140    -0.4360 H     1 <1>   0.0800 
 27 H        7.7690     1.4050     1.0610 H     1 <1>   0.0800 
 28 H        6.3350     3.5980     1.2510 H     1 <1>   0.0800 
 29 H        5.3790     4.0320    -0.1440 H     1 <1>   0.0800 
 30 H        8.7720     2.3010    -1.6480 H     1 <1>   0.0800 
 31 H        9.7670     1.8290    -0.3050 H     1 <1>   0.0800 
 32 H        7.4370     5.4080     0.0070 H     1 <1>   0.0800 
 33 H        7.3690     4.4780    -1.4560 H     1 <1>   0.0800 
 34 H        8.9400     3.6990     1.0140 H     1 <1>   0.0800 
 35 H       10.6990     5.9970     2.1870 H     1 <1>   0.0800 
 36 H        9.0570     5.7360     1.6780 H     1 <1>   0.0800 
 37 H       11.9380     6.1360    -1.3960 H     1 <1>   0.0800 
 38 H       12.5330     6.2510     0.2330 H     1 <1>   0.0800 
 39 H        9.5130     8.1200     2.2690 H     1 <1>   0.0800 
 40 H        8.9750     7.9420     0.6150 H     1 <1>   0.0800 
 41 H       10.6060     8.1720    -1.1150 H     1 <1>   0.0800 
 42 H       12.2540     8.5050    -0.6350 H     1 <1>   0.0800 
@<TRIPOS>BOND
  1   1   2  ar  
  2   2   3  ar  
  3   2   4  1   
  4   4   5  ar  
  5   4   6  ar  
  6   5   7  ar  
  7   6   8  ar  
  8   6  24  1   
  9   7   9  ar  
 10   7  25  1   
 11   8   9  ar  
 12   9  10  1   
 13  10  11  1   
 14  10  12  1   
 15  11  13  1   
 16  11  26  1   
 17  11  27  1   
 18  12  14  1   
 19  12  28  1   
 20  12  29  1   
 21  13  15  1   
 22  13  30  1   
 23  13  31  1   
 24  14  15  1   
 25  14  32  1   
 26  14  33  1   
 27  15  16  1   
 28  15  34  1   
 29  16  17  2   
 30  16  18  am  
 31  18  19  1   
 32  18  20  1   
 33  19  21  1   
 34  19  35  1   
 35  19  36  1   
 36  20  22  1   
 37  20  37  1   
 38  20  38  1   
 39  21  23  1   
 40  21  39  1   
 41  21  40  1   
 42  22  23  1   
 43  22  41  1   
 44  22  42  1   
@<TRIPOS>SUBSTRUCTURE
  1 ****  12 GROUP 4 **** **** 0

# MOE 2024.06 (io_trps.svl 2023.06)
