@<TRIPOS>MOLECULE
NONAME
48 51 1 0 0 
SMALL
USER_CHARGES


@<TRIPOS>ATOM
  1 S       -0.6810    -1.6090     0.1170 S.3   1 <1>  -0.2820 
  2 C       -2.2330    -1.7600    -0.6580 C.2   1 <1>   0.6510 
  3 C       -0.6830     0.1190    -0.2300 C.2   1 <1>   0.5910 
  4 N       -2.8680    -2.8860    -0.7570 N.2   1 <1>  -0.6210 
  5 N       -2.6180    -0.5240    -1.1010 N.am  1 <1>  -0.0580 
  6 N       -1.7170     0.5210    -0.8440 N.2   1 <1>  -0.5120 
  7 C        0.5310     0.9030     0.2420 C.3   1 <1>  -0.1000 
  8 C       -4.0760    -2.8260    -1.4040 C.2   1 <1>   0.0330 
  9 C       -3.8470    -0.4410    -1.7380 C.2   1 <1>   0.6160 
 10 C        0.6430     1.3720     1.6620 C.3   1 <1>  -0.2000 
 11 C        0.4450     2.3670     0.5580 C.3   1 <1>  -0.2000 
 12 C       -4.5710    -1.6540    -1.8830 C.2   1 <1>  -0.1360 
 13 C       -4.8180    -4.1540    -1.5430 C.3   1 <1>   0.4810 
 14 O       -4.3030     0.6120    -2.1520 O.2   1 <1>  -0.5700 
 15 N       -4.6900    -4.8890    -0.2530 N.4   1 <1>  -0.9590 
 16 C       -4.7290    -6.3690    -0.4600 C.3   1 <1>   0.3430 
 17 C       -5.6650    -4.3930     0.7680 C.3   1 <1>   0.2630 
 18 C       -4.2480    -7.1410     0.7690 C.3   1 <1>   0.0210 
 19 C       -4.1650    -8.6030     0.3890 C.2   1 <1>  -0.1810 
 20 C       -3.0680    -9.2530    -0.1750 C.2   1 <1>   0.1080 
 21 C       -5.1160    -9.5570     0.4990 C.2   1 <1>  -0.3320 
 22 N       -3.3110   -10.5000    -0.4090 N.2   1 <1>  -0.7070 
 23 C       -1.7190    -8.6440    -0.4950 C.3   1 <1>  -0.0590 
 24 N       -4.5700   -10.6940     0.0130 N.pl3 1 <1>   0.3000 
 25 C       -6.5350    -9.5030     1.0390 C.3   1 <1>  -0.0600 
 26 H        1.4310     0.5610    -0.2370 H     1 <1>   0.1000 
 27 H        1.6010     1.3230     2.1500 H     1 <1>   0.1000 
 28 H       -0.1740     1.1980     2.3420 H     1 <1>   0.1000 
 29 H       -0.5070     2.8620     0.4700 H     1 <1>   0.1000 
 30 H        1.2670     3.0040     0.2790 H     1 <1>   0.1000 
 31 H       -5.5140    -1.5720    -2.3920 H     1 <1>   0.1500 
 32 H       -4.3490    -4.7210    -2.3310 H     1 <1>   0.0800 
 33 H       -5.8530    -3.9970    -1.7990 H     1 <1>   0.0800 
 34 H       -3.7360    -4.6180     0.0550 H     1 <1>   0.4500 
 35 H       -4.0890    -6.6330    -1.2870 H     1 <1>   0.0800 
 36 H       -5.7290    -6.6870    -0.7060 H     1 <1>   0.0800 
 37 H       -6.6740    -4.6250     0.4700 H     1 <1>   0.0800 
 38 H       -5.5730    -3.3250     0.8840 H     1 <1>   0.0800 
 39 H       -5.4730    -4.8530     1.7240 H     1 <1>   0.0800 
 40 H       -4.9350    -7.0260     1.5860 H     1 <1>   0.0800 
 41 H       -3.2770    -6.7980     1.0790 H     1 <1>   0.0800 
 42 H       -1.8310    -7.6620    -0.9100 H     1 <1>   0.0800 
 43 H       -1.2060    -9.2630    -1.2090 H     1 <1>   0.0800 
 44 H       -1.1270    -8.5930     0.4000 H     1 <1>   0.0800 
 45 H       -5.0250   -11.6140    -0.0410 H     1 <1>   0.2700 
 46 H       -6.7870    -8.5140     1.3720 H     1 <1>   0.0800 
 47 H       -6.6360   -10.1760     1.8730 H     1 <1>   0.0800 
 48 H       -7.2350    -9.7950     0.2750 H     1 <1>   0.0800 
@<TRIPOS>BOND
  1   1   2  1   
  2   1   3  1   
  3   2   4  2   
  4   2   5  1   
  5   3   6  2   
  6   3   7  1   
  7   4   8  1   
  8   5   6  1   
  9   5   9  am  
 10   7  10  1   
 11   7  11  1   
 12   7  26  1   
 13   8  12  2   
 14   8  13  1   
 15   9  12  1   
 16   9  14  2   
 17  10  11  1   
 18  10  27  1   
 19  10  28  1   
 20  11  29  1   
 21  11  30  1   
 22  12  31  1   
 23  13  15  1   
 24  13  32  1   
 25  13  33  1   
 26  15  16  1   
 27  15  17  1   
 28  15  34  1   
 29  16  18  1   
 30  16  35  1   
 31  16  36  1   
 32  17  37  1   
 33  17  38  1   
 34  17  39  1   
 35  18  19  1   
 36  18  40  1   
 37  18  41  1   
 38  19  20  1   
 39  19  21  2   
 40  20  22  2   
 41  20  23  1   
 42  21  24  1   
 43  21  25  1   
 44  22  24  1   
 45  23  42  1   
 46  23  43  1   
 47  23  44  1   
 48  24  45  1   
 49  25  46  1   
 50  25  47  1   
 51  25  48  1   
@<TRIPOS>SUBSTRUCTURE
  1 ****   4 GROUP 4 **** **** 0

# MOE 2024.06 (io_trps.svl 2023.06)
