@<TRIPOS>MOLECULE
NONAME
41 42 1 0 0 
SMALL
USER_CHARGES


@<TRIPOS>ATOM
  1 S       -0.0630    -0.4870     0.3850 S.3   1 <1>  -0.3320 
  2 C       -0.7120     1.1250    -0.0130 C.ar  1 <1>   0.7220 
  3 C       -0.7480    -1.6240    -0.9200 C.3   1 <1>   0.1310 
  4 N       -1.0480     1.3250    -1.2750 N.ar  1 <1>  -0.6200 
  5 N       -0.8220     1.9370     1.0240 N.ar  1 <1>  -0.6200 
  6 C       -1.6030    -2.7190    -0.2920 C.2   1 <1>   0.5690 
  7 C       -1.5400     2.5160    -1.5270 C.ar  1 <1>   0.1660 
  8 C       -1.3160     3.1210     0.7430 C.ar  1 <1>   0.1660 
  9 O       -1.2620    -3.8630    -0.4970 O.2   1 <1>  -0.5700 
 10 N       -2.7380    -2.4480     0.4350 N.am  1 <1>  -0.6600 
 11 C       -1.6930     3.4600    -0.5370 C.ar  1 <1>  -0.1500 
 12 C       -1.9330     2.8080    -2.9600 C.3   1 <1>  -0.0970 
 13 C       -1.4600     4.0950     1.8930 C.3   1 <1>  -0.0970 
 14 C       -3.5070    -3.5660     1.0600 C.3   1 <1>   0.3200 
 15 C       -3.3800    -1.1030     0.5660 C.3   1 <1>   0.1400 
 16 C       -4.4260    -4.2180     0.0410 C.2   1 <1>   0.0060 
 17 C       -3.1880    -0.5420     1.9820 C.3   1 <1>   0.1200 
 18 N       -5.7200    -4.2320     0.1020 N.2   1 <1>  -0.5650 
 19 N       -3.9280    -4.8580    -1.0370 N.pl3 1 <1>   0.0330 
 20 O       -3.3660     0.8330     1.9700 O.3   1 <1>  -0.6800 
 21 C       -6.0840    -4.9200    -0.9990 C.2   1 <1>   0.0770 
 22 C       -5.0020    -5.3110    -1.7070 C.2   1 <1>  -0.3020 
 23 H        0.0980    -2.0550    -1.4220 H     1 <1>   0.0800 
 24 H       -1.3290    -1.0630    -1.6230 H     1 <1>   0.0800 
 25 H       -2.0960     4.4310    -0.7550 H     1 <1>   0.1500 
 26 H       -1.0760     2.6960    -3.5990 H     1 <1>   0.0800 
 27 H       -2.3120     3.8090    -3.0610 H     1 <1>   0.0800 
 28 H       -2.6920     2.1160    -3.2750 H     1 <1>   0.0800 
 29 H       -0.5020     4.2520     2.3550 H     1 <1>   0.0800 
 30 H       -2.1350     3.6900     2.6260 H     1 <1>   0.0800 
 31 H       -1.8420     5.0400     1.5550 H     1 <1>   0.0800 
 32 H       -4.0960    -3.2000     1.8820 H     1 <1>   0.0800 
 33 H       -2.8260    -4.3040     1.4470 H     1 <1>   0.0800 
 34 H       -4.4340    -1.1930     0.3590 H     1 <1>   0.0800 
 35 H       -2.9650    -0.4240    -0.1540 H     1 <1>   0.0800 
 36 H       -2.1960    -0.7410     2.3510 H     1 <1>   0.0800 
 37 H       -3.9150    -0.9620     2.6540 H     1 <1>   0.0800 
 38 H       -2.9260    -4.9370    -1.2600 H     1 <1>   0.2700 
 39 H       -2.5210     1.2790     1.7180 H     1 <1>   0.4000 
 40 H       -7.1220    -5.0990    -1.2260 H     1 <1>   0.1500 
 41 H       -4.9390    -5.8680    -2.6240 H     1 <1>   0.1500 
@<TRIPOS>BOND
  1   1   2  1   
  2   1   3  1   
  3   2   4  ar  
  4   2   5  ar  
  5   3   6  1   
  6   3  23  1   
  7   3  24  1   
  8   4   7  ar  
  9   5   8  ar  
 10   6   9  2   
 11   6  10  am  
 12   7  11  ar  
 13   7  12  1   
 14   8  11  ar  
 15   8  13  1   
 16  10  14  1   
 17  10  15  1   
 18  11  25  1   
 19  12  26  1   
 20  12  27  1   
 21  12  28  1   
 22  13  29  1   
 23  13  30  1   
 24  13  31  1   
 25  14  16  1   
 26  14  32  1   
 27  14  33  1   
 28  15  17  1   
 29  15  34  1   
 30  15  35  1   
 31  16  18  2   
 32  16  19  1   
 33  17  20  1   
 34  17  36  1   
 35  17  37  1   
 36  18  21  1   
 37  19  22  1   
 38  19  38  1   
 39  20  39  1   
 40  21  22  2   
 41  21  40  1   
 42  22  41  1   
@<TRIPOS>SUBSTRUCTURE
  1 ****  15 GROUP 4 **** **** 0

# MOE 2024.06 (io_trps.svl 2023.06)
