@<TRIPOS>MOLECULE
NONAME
51 54 1 0 0 
SMALL
USER_CHARGES


@<TRIPOS>ATOM
  1 F        1.5660     2.4300    -2.8680 F     1 <1>  -0.1900 
  2 C        2.3980     2.4130    -1.8630 C.ar  1 <1>   0.1900 
  3 C        2.4530     3.5160    -1.0330 C.ar  1 <1>  -0.1500 
  4 C        3.1920     1.3000    -1.6710 C.ar  1 <1>  -0.1500 
  5 C        3.3450     3.5100     0.0320 C.ar  1 <1>  -0.1440 
  6 C        4.0730     1.2950    -0.6040 C.ar  1 <1>  -0.1500 
  7 C        4.1480     2.3930     0.2410 C.ar  1 <1>  -0.1500 
  8 C        3.4460     4.7120     0.9520 C.3   1 <1>   0.4870 
  9 N        4.7120     5.4330     0.6660 N.4   1 <1>  -0.9590 
 10 C        5.0440     6.4950     1.6780 C.3   1 <1>   0.4230 
 11 C        4.8810     5.7980    -0.7820 C.3   1 <1>   0.3430 
 12 C        4.4970     7.8940     1.3160 C.3   1 <1>   0.1200 
 13 C        6.5780     6.5140     1.9080 C.3   1 <1>   0.1400 
 14 C        5.9540     6.8610    -1.0960 C.3   1 <1>  -0.0800 
 15 O        5.3800     8.6020     0.4990 O.3   1 <1>  -0.5600 
 16 N        7.3340     5.8650     0.7820 N.am  1 <1>  -0.6600 
 17 C        5.4120     8.2790    -0.8500 C.3   1 <1>   0.1200 
 18 C        7.3660     6.6260    -0.5010 C.3   1 <1>   0.1400 
 19 C        7.7250     4.5560     0.8860 C.2   1 <1>   0.5690 
 20 O        7.0090     3.7970     1.5000 O.2   1 <1>  -0.5700 
 21 C        8.9620     3.9840     0.2020 C.3   1 <1>   0.1570 
 22 N       10.0420     4.9810     0.0550 N.pl3 1 <1>   0.0480 
 23 C       10.6320     5.6990     1.0500 C.2   1 <1>  -0.3020 
 24 C       10.6170     5.3740    -1.1140 C.2   1 <1>  -0.3020 
 25 C       11.5580     6.5380     0.5180 C.2   1 <1>  -0.1500 
 26 C       11.5490     6.3300    -0.8640 C.2   1 <1>  -0.1500 
 27 H        1.8020     4.3490    -1.2330 H     1 <1>   0.1500 
 28 H        3.1160     0.4600    -2.3390 H     1 <1>   0.1500 
 29 H        4.6990     0.4350    -0.4300 H     1 <1>   0.1500 
 30 H        4.8410     2.3590     1.0670 H     1 <1>   0.1500 
 31 H        3.4350     4.3750     1.9750 H     1 <1>   0.0800 
 32 H        2.6030     5.3650     0.7960 H     1 <1>   0.0800 
 33 H        5.4670     4.7380     0.8400 H     1 <1>   0.4500 
 34 H        4.5900     6.2200     2.6160 H     1 <1>   0.0800 
 35 H        5.1230     4.9000    -1.3290 H     1 <1>   0.0800 
 36 H        3.9380     6.1540    -1.1650 H     1 <1>   0.0800 
 37 H        4.4060     8.4700     2.2210 H     1 <1>   0.0800 
 38 H        3.5270     7.8470     0.8520 H     1 <1>   0.0800 
 39 H        6.7880     5.9820     2.8200 H     1 <1>   0.0800 
 40 H        6.9370     7.5190     2.0550 H     1 <1>   0.0800 
 41 H        6.0840     6.8200    -2.1630 H     1 <1>   0.0800 
 42 H        4.4240     8.4060    -1.2600 H     1 <1>   0.0800 
 43 H        6.0600     8.9990    -1.3230 H     1 <1>   0.0800 
 44 H        7.8690     7.5670    -0.3420 H     1 <1>   0.0800 
 45 H        7.9470     6.0790    -1.2220 H     1 <1>   0.0800 
 46 H        8.6920     3.6130    -0.7680 H     1 <1>   0.0800 
 47 H        9.3380     3.1660     0.7870 H     1 <1>   0.0800 
 48 H       10.3650     5.5810     2.0850 H     1 <1>   0.1500 
 49 H       10.3460     4.9560    -2.0670 H     1 <1>   0.1500 
 50 H       12.1940     7.2360     1.0350 H     1 <1>   0.1500 
 51 H       12.1800     6.8450    -1.5700 H     1 <1>   0.1500 
@<TRIPOS>BOND
  1   1   2  1   
  2   2   3  ar  
  3   2   4  ar  
  4   3   5  ar  
  5   3  27  1   
  6   4   6  ar  
  7   4  28  1   
  8   5   7  ar  
  9   5   8  1   
 10   6   7  ar  
 11   6  29  1   
 12   7  30  1   
 13   8   9  1   
 14   8  31  1   
 15   8  32  1   
 16   9  10  1   
 17   9  11  1   
 18   9  33  1   
 19  10  12  1   
 20  10  13  1   
 21  10  34  1   
 22  11  14  1   
 23  11  35  1   
 24  11  36  1   
 25  12  15  1   
 26  12  37  1   
 27  12  38  1   
 28  13  16  1   
 29  13  39  1   
 30  13  40  1   
 31  14  17  1   
 32  14  18  1   
 33  14  41  1   
 34  15  17  1   
 35  16  18  1   
 36  16  19  am  
 37  17  42  1   
 38  17  43  1   
 39  18  44  1   
 40  18  45  1   
 41  19  20  2   
 42  19  21  1   
 43  21  22  1   
 44  21  46  1   
 45  21  47  1   
 46  22  23  1   
 47  22  24  1   
 48  23  25  2   
 49  23  48  1   
 50  24  26  2   
 51  24  49  1   
 52  25  26  1   
 53  25  50  1   
 54  26  51  1   
@<TRIPOS>SUBSTRUCTURE
  1 ****   9 GROUP 4 **** **** 0

# MOE 2024.06 (io_trps.svl 2023.06)
