@<TRIPOS>MOLECULE
NONAME
49 51 1 0 0 
SMALL
USER_CHARGES


@<TRIPOS>ATOM
  1 O        0.5160     0.6710     0.4390 O.3   1 <1>  -0.6800 
  2 C        0.5790     1.9320     1.0360 C.3   1 <1>   0.2000 
  3 C       -0.1640     2.9950     0.1640 C.3   1 <1>   0.2000 
  4 C        2.0680     2.2630     1.2420 C.3   1 <1>  -0.1600 
  5 O       -0.5600     2.4220    -1.0290 O.3   1 <1>  -0.6800 
  6 C        0.7170     4.1990    -0.2020 C.3   1 <1>  -0.1600 
  7 C        2.7580     2.6250    -0.0940 C.3   1 <1>  -0.0800 
  8 C        2.0250     3.7330    -0.8780 C.3   1 <1>  -0.0800 
  9 C        4.1740     3.1570     0.1130 C.3   1 <1>   0.3430 
 10 C        3.0320     4.8680    -1.0360 C.3   1 <1>   0.3430 
 11 N        4.0450     4.6420     0.0390 N.4   1 <1>  -0.9590 
 12 C        5.3750     5.3310    -0.1670 C.3   1 <1>   0.3430 
 13 C        5.3310     6.8960    -0.1350 C.3   1 <1>   0.4230 
 14 N        6.6560     7.6180    -0.2620 N.4   1 <1>  -0.9590 
 15 C        4.7130     7.4230     1.1670 C.3   1 <1>  -0.1600 
 16 C        6.9060     8.3670     1.0060 C.3   1 <1>   0.3430 
 17 C        7.8490     6.8410    -0.7160 C.3   1 <1>   0.3430 
 18 C        5.5170     8.6640     1.5360 C.3   1 <1>  -0.1600 
 19 C        8.9530     7.8020    -1.1410 C.3   1 <1>  -0.2400 
 20 H        0.7380    -0.0320     1.0830 H     1 <1>   0.4000 
 21 H        0.0900     1.8630     1.9940 H     1 <1>   0.0800 
 22 H       -1.0530     3.3270     0.6730 H     1 <1>   0.0800 
 23 H        2.1370     3.0900     1.9250 H     1 <1>   0.0800 
 24 H        2.5620     1.4270     1.7080 H     1 <1>   0.0800 
 25 H       -0.4120     1.4510    -0.9200 H     1 <1>   0.4000 
 26 H        0.1630     4.8480    -0.8590 H     1 <1>   0.0800 
 27 H        0.9280     4.7540     0.6940 H     1 <1>   0.0800 
 28 H        2.8070     1.7320    -0.6950 H     1 <1>   0.0800 
 29 H        1.7740     3.3670    -1.8610 H     1 <1>   0.0800 
 30 H        4.8030     2.8010    -0.6870 H     1 <1>   0.0800 
 31 H        4.5820     2.8330     1.0570 H     1 <1>   0.0800 
 32 H        2.5520     5.8300    -0.9480 H     1 <1>   0.0800 
 33 H        3.4980     4.7880    -2.0060 H     1 <1>   0.0800 
 34 H        3.6090     4.9290     0.9280 H     1 <1>   0.4500 
 35 H        6.0500     5.0030     0.6080 H     1 <1>   0.0800 
 36 H        5.7800     5.0190    -1.1150 H     1 <1>   0.0800 
 37 H        4.7120     7.2180    -0.9560 H     1 <1>   0.0800 
 38 H        6.5150     8.3550    -0.9710 H     1 <1>   0.4500 
 39 H        3.6680     7.6510     1.0470 H     1 <1>   0.0800 
 40 H        4.8170     6.6960     1.9550 H     1 <1>   0.0800 
 41 H        7.4360     7.7430     1.7080 H     1 <1>   0.0800 
 42 H        7.4700     9.2710     0.8360 H     1 <1>   0.0800 
 43 H        8.2070     6.2020     0.0760 H     1 <1>   0.0800 
 44 H        7.5890     6.2270    -1.5630 H     1 <1>   0.0800 
 45 H        5.5300     8.8460     2.5980 H     1 <1>   0.0800 
 46 H        5.1230     9.5360     1.0420 H     1 <1>   0.0800 
 47 H        9.3190     8.3790    -0.3100 H     1 <1>   0.0800 
 48 H        8.6150     8.4610    -1.9200 H     1 <1>   0.0800 
 49 H        9.7820     7.2350    -1.5280 H     1 <1>   0.0800 
@<TRIPOS>BOND
  1   1   2  1   
  2   1  20  1   
  3   2   3  1   
  4   2   4  1   
  5   2  21  1   
  6   3   5  1   
  7   3   6  1   
  8   3  22  1   
  9   4   7  1   
 10   4  23  1   
 11   4  24  1   
 12   5  25  1   
 13   6   8  1   
 14   6  26  1   
 15   6  27  1   
 16   7   8  1   
 17   7   9  1   
 18   7  28  1   
 19   8  10  1   
 20   8  29  1   
 21   9  11  1   
 22   9  30  1   
 23   9  31  1   
 24  10  11  1   
 25  10  32  1   
 26  10  33  1   
 27  11  12  1   
 28  11  34  1   
 29  12  13  1   
 30  12  35  1   
 31  12  36  1   
 32  13  14  1   
 33  13  15  1   
 34  13  37  1   
 35  14  16  1   
 36  14  17  1   
 37  14  38  1   
 38  15  18  1   
 39  15  39  1   
 40  15  40  1   
 41  16  18  1   
 42  16  41  1   
 43  16  42  1   
 44  17  19  1   
 45  17  43  1   
 46  17  44  1   
 47  18  45  1   
 48  18  46  1   
 49  19  47  1   
 50  19  48  1   
 51  19  49  1   
@<TRIPOS>SUBSTRUCTURE
  1 ****  11 GROUP 4 **** **** 0

# MOE 2024.06 (io_trps.svl 2023.06)
