@<TRIPOS>MOLECULE
NONAME
35 35 1 0 0 
SMALL
USER_CHARGES


@<TRIPOS>ATOM
  1 O        0.2560     0.3350     1.1210 O.2   1 <1>  -0.5700 
  2 C        0.8140     0.8250     0.1620 C.2   1 <1>   0.7800 
  3 O        1.8870     0.2610    -0.3890 O.3   1 <1>  -0.4300 
  4 N        0.4240     1.9820    -0.4380 N.am  1 <1>  -0.5470 
  5 C        2.5260    -0.9330     0.0140 C.3   1 <1>   0.2800 
  6 C       -0.6350     2.8650    -0.1860 C.ar  1 <1>   0.1170 
  7 C        1.5660    -2.1210    -0.1260 C.3   1 <1>  -0.2400 
  8 C        3.6910    -1.1100    -0.9600 C.3   1 <1>  -0.2400 
  9 C        3.0750    -0.7870     1.4380 C.3   1 <1>  -0.2400 
 10 C       -0.5770     4.1440    -0.7200 C.ar  1 <1>  -0.1500 
 11 C       -1.7560     2.5190     0.5650 C.ar  1 <1>  -0.1500 
 12 C       -1.5950     5.0560    -0.5050 C.ar  1 <1>   0.0820 
 13 C       -2.7800     3.4260     0.7710 C.ar  1 <1>  -0.1500 
 14 O       -1.4620     6.2830    -1.0560 O.3   1 <1>  -0.3630 
 15 C       -2.7260     4.7080     0.2400 C.ar  1 <1>   0.0730 
 16 C       -1.0370     7.3160    -0.1960 C.3   1 <1>   0.0400 
 17 C       -3.8180     5.6100     0.4630 C.1   1 <1>  -0.0730 
 18 C       -4.7270     6.3570     0.6490 C.1   1 <1>  -0.1770 
 19 H        1.0570     2.2490    -1.1860 H     1 <1>   0.3700 
 20 H        1.1470    -2.1500    -1.1150 H     1 <1>   0.0800 
 21 H        0.7710    -2.0650     0.5940 H     1 <1>   0.0800 
 22 H        2.0950    -3.0400     0.0480 H     1 <1>   0.0800 
 23 H        3.3270    -1.1900    -1.9690 H     1 <1>   0.0800 
 24 H        4.2400    -2.0040    -0.7270 H     1 <1>   0.0800 
 25 H        4.3640    -0.2740    -0.8940 H     1 <1>   0.0800 
 26 H        2.2790    -0.7300     2.1570 H     1 <1>   0.0800 
 27 H        3.6860     0.0930     1.5160 H     1 <1>   0.0800 
 28 H        3.6760    -1.6430     1.6880 H     1 <1>   0.0800 
 29 H        0.2680     4.4450    -1.3090 H     1 <1>   0.1500 
 30 H       -1.8400     1.5360     0.9890 H     1 <1>   0.1500 
 31 H       -3.6370     3.1330     1.3520 H     1 <1>   0.1500 
 32 H       -0.9370     8.2160    -0.7750 H     1 <1>   0.0800 
 33 H       -0.0880     7.0440     0.2320 H     1 <1>   0.0800 
 34 H       -1.7700     7.4570     0.5780 H     1 <1>   0.0800 
 35 H       -5.5480     7.0310     0.8100 H     1 <1>   0.1770 
@<TRIPOS>BOND
  1   1   2  2   
  2   2   3  1   
  3   2   4  am  
  4   3   5  1   
  5   4   6  1   
  6   4  19  1   
  7   5   7  1   
  8   5   8  1   
  9   5   9  1   
 10   6  10  ar  
 11   6  11  ar  
 12   7  20  1   
 13   7  21  1   
 14   7  22  1   
 15   8  23  1   
 16   8  24  1   
 17   8  25  1   
 18   9  26  1   
 19   9  27  1   
 20   9  28  1   
 21  10  12  ar  
 22  10  29  1   
 23  11  13  ar  
 24  11  30  1   
 25  12  14  1   
 26  12  15  ar  
 27  13  15  ar  
 28  13  31  1   
 29  14  16  1   
 30  15  17  1   
 31  16  32  1   
 32  16  33  1   
 33  16  34  1   
 34  17  18  3   
 35  18  35  1   
@<TRIPOS>SUBSTRUCTURE
  1 ****   6 GROUP 4 **** **** 0

# MOE 2024.06 (io_trps.svl 2023.06)
