@<TRIPOS>MOLECULE
NONAME
45 47 1 0 0 
SMALL
USER_CHARGES


@<TRIPOS>ATOM
  1 CL       0.1100    -0.1970    -0.2200 Cl    1 <1>  -0.1770 
  2 C       -0.2580    -1.9030    -0.1720 C.ar  1 <1>   0.1770 
  3 C       -1.3720    -2.4030     0.4950 C.ar  1 <1>  -0.0090 
  4 C        0.6250    -2.7280    -0.8450 C.ar  1 <1>  -0.1500 
  5 S       -2.5740    -1.3790     1.3820 S.o2  1 <1>   1.4470 
  6 C       -1.5710    -3.7800     0.4360 C.ar  1 <1>  -0.1500 
  7 C        0.4290    -4.0970    -0.8830 C.ar  1 <1>   0.0830 
  8 O       -3.1380    -2.2030     2.4300 O.2   1 <1>  -0.6500 
  9 O       -2.0760    -0.0700     1.7400 O.2   1 <1>  -0.6500 
 10 N       -3.8020    -1.1640     0.2320 N.am  1 <1>  -0.8490 
 11 C       -0.6980    -4.6150    -0.2380 C.ar  1 <1>   0.1770 
 12 O        1.3740    -4.7960    -1.5650 O.3   1 <1>  -0.3630 
 13 C       -5.1300    -1.0520     0.8730 C.3   1 <1>   0.1960 
 14 C       -3.5190    -0.1230    -0.7770 C.3   1 <1>   0.1960 
 15 CL      -1.1240    -6.3150    -0.2450 Cl    1 <1>  -0.1770 
 16 C        1.7030    -6.1330    -1.2580 C.3   1 <1>   0.0400 
 17 C       -6.2390    -0.5760    -0.0980 C.3   1 <1>   0.0000 
 18 C       -4.3690     1.1350    -0.5760 C.3   1 <1>  -0.1600 
 19 C       -7.6300    -0.5830     0.5670 C.3   1 <1>   0.2000 
 20 C       -5.8790     0.8340    -0.6350 C.3   1 <1>  -0.1600 
 21 C       -6.4480    -1.6120    -1.2220 C.3   1 <1>  -0.1600 
 22 O       -7.6060    -0.1600     1.8850 O.3   1 <1>  -0.6800 
 23 C       -8.1590    -2.0150     0.4810 C.3   1 <1>  -0.1600 
 24 C       -7.3370    -2.7020    -0.6160 C.3   1 <1>  -0.1600 
 25 H        1.4770    -2.3030    -1.3450 H     1 <1>   0.1500 
 26 H       -2.4280    -4.2130     0.9230 H     1 <1>   0.1500 
 27 H       -5.3960    -2.0070     1.2930 H     1 <1>   0.0800 
 28 H       -5.0600    -0.3470     1.6860 H     1 <1>   0.0800 
 29 H       -2.4780     0.1480    -0.7680 H     1 <1>   0.0800 
 30 H       -3.7320    -0.5270    -1.7520 H     1 <1>   0.0800 
 31 H        2.6850    -6.3320    -1.6480 H     1 <1>   0.0800 
 32 H        0.9920    -6.7860    -1.7320 H     1 <1>   0.0800 
 33 H        1.7010    -6.2650    -0.1900 H     1 <1>   0.0800 
 34 H       -4.1180     1.5630     0.3800 H     1 <1>   0.0800 
 35 H       -4.1180     1.8640    -1.3260 H     1 <1>   0.0800 
 36 H       -8.2920     0.0730     0.0250 H     1 <1>   0.0800 
 37 H       -6.2280     0.9430    -1.6460 H     1 <1>   0.0800 
 38 H       -6.3810     1.5830    -0.0460 H     1 <1>   0.0800 
 39 H       -6.9800    -1.1600    -2.0420 H     1 <1>   0.0800 
 40 H       -5.5290    -2.0230    -1.6010 H     1 <1>   0.0800 
 41 H       -7.1840    -0.8330     2.4520 H     1 <1>   0.4000 
 42 H       -8.0340    -2.5420     1.4120 H     1 <1>   0.0800 
 43 H       -9.2020    -2.0020     0.2180 H     1 <1>   0.0800 
 44 H       -6.7200    -3.4690    -0.1790 H     1 <1>   0.0800 
 45 H       -7.9670    -3.1510    -1.3640 H     1 <1>   0.0800 
@<TRIPOS>BOND
  1   1   2  1   
  2   2   3  ar  
  3   2   4  ar  
  4   3   5  1   
  5   3   6  ar  
  6   4   7  ar  
  7   4  25  1   
  8   5   8  2   
  9   5   9  2   
 10   5  10  am  
 11   6  11  ar  
 12   6  26  1   
 13   7  11  ar  
 14   7  12  1   
 15  10  13  1   
 16  10  14  1   
 17  11  15  1   
 18  12  16  1   
 19  13  17  1   
 20  13  27  1   
 21  13  28  1   
 22  14  18  1   
 23  14  29  1   
 24  14  30  1   
 25  16  31  1   
 26  16  32  1   
 27  16  33  1   
 28  17  19  1   
 29  17  20  1   
 30  17  21  1   
 31  18  20  1   
 32  18  34  1   
 33  18  35  1   
 34  19  22  1   
 35  19  23  1   
 36  19  36  1   
 37  20  37  1   
 38  20  38  1   
 39  21  24  1   
 40  21  39  1   
 41  21  40  1   
 42  22  41  1   
 43  23  24  1   
 44  23  42  1   
 45  23  43  1   
 46  24  44  1   
 47  24  45  1   
@<TRIPOS>SUBSTRUCTURE
  1 ****  10 GROUP 4 **** **** 0

# MOE 2024.06 (io_trps.svl 2023.06)
