@<TRIPOS>MOLECULE
NONAME
50 54 1 0 0 
SMALL
USER_CHARGES


@<TRIPOS>ATOM
  1 S       -0.3070    -0.6590     0.6250 S.o2  1 <1>   1.3330 
  2 O       -1.3750    -1.5620     0.9710 O.2   1 <1>  -0.6500 
  3 O        0.7520    -0.3670     1.5620 O.2   1 <1>  -0.6500 
  4 N        0.3890    -1.3650    -0.7260 N.am  1 <1>  -0.9140 
  5 C       -0.9720     0.8610    -0.0180 C.3   1 <1>  -0.1350 
  6 C        1.6100    -2.1210    -0.4710 C.3   1 <1>   0.1960 
  7 C        1.3550    -3.3990     0.3510 C.3   1 <1>  -0.0800 
  8 C        0.7030    -4.4970    -0.5050 C.3   1 <1>   0.2000 
  9 C        2.6220    -4.1420     0.8350 C.3   1 <1>  -0.0800 
 10 O        1.8220    -5.1400    -0.9930 O.3   1 <1>  -0.5600 
 11 C        0.0880    -5.5920     0.3750 C.3   1 <1>  -0.1600 
 12 C        2.4350    -5.5050     0.1890 C.3   1 <1>   0.2800 
 13 C        4.0030    -3.6960     0.3320 C.3   1 <1>   0.2090 
 14 C        1.3380    -6.3290     0.8670 C.3   1 <1>  -0.1600 
 15 C        3.8330    -6.0950    -0.0070 C.3   1 <1>   0.2090 
 16 N        4.7960    -4.9470     0.1170 N.pl3 1 <1>  -0.8380 
 17 C        6.1330    -5.0690     0.0000 C.ar  1 <1>   0.4610 
 18 N        6.9100    -3.9840     0.0710 N.ar  1 <1>  -0.1790 
 19 C        6.7870    -6.3140    -0.2030 C.ar  1 <1>  -0.1500 
 20 C        8.2900    -3.9950    -0.0350 C.ar  1 <1>   0.3610 
 21 C        8.1400    -6.3980    -0.3150 C.ar  1 <1>  -0.1500 
 22 C        8.9390    -5.2260    -0.2320 C.ar  1 <1>   0.0000 
 23 C        9.0460    -2.8210     0.0510 C.ar  1 <1>  -0.1500 
 24 C       10.3350    -5.2440    -0.3380 C.ar  1 <1>  -0.1500 
 25 C       10.4160    -2.8620    -0.0560 C.ar  1 <1>  -0.1500 
 26 C       11.0610    -4.0810    -0.2510 C.ar  1 <1>  -0.1500 
 27 H       -0.3260    -2.0060    -1.0670 H     1 <1>   0.4200 
 28 H       -1.6740     0.6570    -0.8030 H     1 <1>   0.0800 
 29 H       -0.1820     1.4720    -0.4090 H     1 <1>   0.0800 
 30 H       -1.4720     1.4010     0.7610 H     1 <1>   0.0800 
 31 H        2.0420    -2.3910    -1.4210 H     1 <1>   0.0800 
 32 H        2.3140    -1.4850     0.0410 H     1 <1>   0.0800 
 33 H        0.7400    -3.1730     1.2040 H     1 <1>   0.0800 
 34 H        0.0660    -4.1530    -1.3030 H     1 <1>   0.0800 
 35 H        2.6440    -4.2300     1.9070 H     1 <1>   0.0800 
 36 H       -0.5010    -5.1810     1.1760 H     1 <1>   0.0800 
 37 H       -0.5290    -6.2400    -0.2230 H     1 <1>   0.0800 
 38 H        4.4670    -3.0450     1.0530 H     1 <1>   0.0800 
 39 H        3.9230    -3.1950    -0.6170 H     1 <1>   0.0800 
 40 H        1.3520    -7.3430     0.5070 H     1 <1>   0.0800 
 41 H        1.4290    -6.3220     1.9390 H     1 <1>   0.0800 
 42 H        3.9040    -6.5700    -0.9710 H     1 <1>   0.0800 
 43 H        4.0310    -6.8110     0.7710 H     1 <1>   0.0800 
 44 H        6.4440    -3.0950     0.2030 H     1 <1>   0.4570 
 45 H        6.1890    -7.2040    -0.2680 H     1 <1>   0.1500 
 46 H        8.6340    -7.3440    -0.4690 H     1 <1>   0.1500 
 47 H        8.5600    -1.8730     0.2020 H     1 <1>   0.1500 
 48 H       10.8420    -6.1820    -0.4890 H     1 <1>   0.1500 
 49 H       11.0050    -1.9610     0.0090 H     1 <1>   0.1500 
 50 H       12.1370    -4.1010    -0.3340 H     1 <1>   0.1500 
@<TRIPOS>BOND
  1   1   2  2   
  2   1   3  2   
  3   1   4  am  
  4   1   5  1   
  5   4   6  1   
  6   4  27  1   
  7   5  28  1   
  8   5  29  1   
  9   5  30  1   
 10   6   7  1   
 11   6  31  1   
 12   6  32  1   
 13   7   8  1   
 14   7   9  1   
 15   7  33  1   
 16   8  10  1   
 17   8  11  1   
 18   8  34  1   
 19   9  12  1   
 20   9  13  1   
 21   9  35  1   
 22  10  12  1   
 23  11  14  1   
 24  11  36  1   
 25  11  37  1   
 26  12  14  1   
 27  12  15  1   
 28  13  16  1   
 29  13  38  1   
 30  13  39  1   
 31  14  40  1   
 32  14  41  1   
 33  15  16  1   
 34  15  42  1   
 35  15  43  1   
 36  16  17  1   
 37  17  18  ar  
 38  17  19  ar  
 39  18  20  ar  
 40  18  44  1   
 41  19  21  ar  
 42  19  45  1   
 43  20  22  ar  
 44  20  23  ar  
 45  21  22  ar  
 46  21  46  1   
 47  22  24  ar  
 48  23  25  ar  
 49  23  47  1   
 50  24  26  ar  
 51  24  48  1   
 52  25  26  ar  
 53  25  49  1   
 54  26  50  1   
@<TRIPOS>SUBSTRUCTURE
  1 ****  13 GROUP 4 **** **** 0

# MOE 2024.06 (io_trps.svl 2023.06)
