@<TRIPOS>MOLECULE
NONAME
51 54 1 0 0 
SMALL
USER_CHARGES


@<TRIPOS>ATOM
  1 O        0.5510    -1.1130    -1.4250 O.2   1 <1>  -0.5700 
  2 C        1.3630    -1.1820    -0.5160 C.2   1 <1>   0.5440 
  3 N        1.0850    -1.9450     0.5970 N.am  1 <1>  -0.4200 
  4 C        2.6130    -0.4770    -0.5550 C.ar  1 <1>   0.0860 
  5 C        1.9950    -2.0020     1.6240 C.2   1 <1>   0.4500 
  6 C       -0.1800    -2.7200     0.6950 C.3   1 <1>   0.1400 
  7 C        3.4610    -0.6070     0.5520 C.ar  1 <1>   0.1790 
  8 C        3.0190     0.3250    -1.6260 C.ar  1 <1>  -0.1500 
  9 N        3.1150    -1.3860     1.6390 N.2   1 <1>  -0.6290 
 10 C       -1.3350    -1.8020     1.1130 C.3   1 <1>  -0.0990 
 11 C        4.6810     0.0620     0.5610 C.ar  1 <1>  -0.1500 
 12 C        4.2320     0.9820    -1.6030 C.ar  1 <1>  -0.1500 
 13 C       -2.6400    -2.5610     1.2800 C.2   1 <1>   0.5690 
 14 C        5.0670     0.8500    -0.5030 C.ar  1 <1>  -0.1500 
 15 O       -2.5870    -3.7660     1.3680 O.2   1 <1>  -0.5700 
 16 N       -3.8330    -1.8870     1.3320 N.am  1 <1>  -0.6600 
 17 C       -5.1340    -2.6200     1.3150 C.3   1 <1>   0.1400 
 18 C       -4.0050    -0.4100     1.2640 C.3   1 <1>   0.1400 
 19 C       -5.8750    -2.3490    -0.0090 C.3   1 <1>   0.0000 
 20 C       -4.7130    -0.0460    -0.0450 C.3   1 <1>  -0.1600 
 21 C       -7.2090    -3.1190    -0.0440 C.3   1 <1>   0.2000 
 22 C       -6.0400    -0.8130    -0.2070 C.3   1 <1>  -0.1600 
 23 C       -5.1440    -2.9780    -1.2110 C.3   1 <1>  -0.1600 
 24 O       -8.2370    -2.4540     0.6000 O.3   1 <1>  -0.6800 
 25 C       -7.5520    -3.3230    -1.5190 C.3   1 <1>  -0.1600 
 26 C       -6.2200    -3.2240    -2.2740 C.3   1 <1>  -0.1600 
 27 H        1.7230    -2.6120     2.4680 H     1 <1>   0.0600 
 28 H       -0.4020    -3.1700    -0.2590 H     1 <1>   0.0800 
 29 H       -0.0630    -3.5140     1.4130 H     1 <1>   0.0800 
 30 H        2.3670     0.4250    -2.4780 H     1 <1>   0.1500 
 31 H       -1.4660    -1.0590     0.3500 H     1 <1>   0.0800 
 32 H       -1.1020    -1.3240     2.0450 H     1 <1>   0.0800 
 33 H        5.3200    -0.0490     1.4180 H     1 <1>   0.1500 
 34 H        4.5340     1.5970    -2.4340 H     1 <1>   0.1500 
 35 H        6.0140     1.3620    -0.4840 H     1 <1>   0.1500 
 36 H       -4.9760    -3.6770     1.4390 H     1 <1>   0.0800 
 37 H       -5.7380    -2.2840     2.1410 H     1 <1>   0.0800 
 38 H       -4.6080    -0.0940     2.0990 H     1 <1>   0.0800 
 39 H       -3.0640     0.1030     1.3300 H     1 <1>   0.0800 
 40 H       -4.9100     1.0110    -0.0560 H     1 <1>   0.0800 
 41 H       -4.0540    -0.2550    -0.8690 H     1 <1>   0.0800 
 42 H       -7.0900    -4.0800     0.4290 H     1 <1>   0.0800 
 43 H       -6.4620    -0.5990    -1.1730 H     1 <1>   0.0800 
 44 H       -6.7170    -0.4310     0.5360 H     1 <1>   0.0800 
 45 H       -4.3390    -2.3740    -1.5870 H     1 <1>   0.0800 
 46 H       -4.7300    -3.9280    -0.9160 H     1 <1>   0.0800 
 47 H       -8.4120    -1.6110     0.1430 H     1 <1>   0.4000 
 48 H       -8.0030    -4.2890    -1.6630 H     1 <1>   0.0800 
 49 H       -8.2230    -2.5590    -1.8720 H     1 <1>   0.0800 
 50 H       -6.0110    -4.1220    -2.8290 H     1 <1>   0.0800 
 51 H       -6.2520    -2.3940    -2.9600 H     1 <1>   0.0800 
@<TRIPOS>BOND
  1   1   2  2   
  2   2   3  am  
  3   2   4  1   
  4   3   5  1   
  5   3   6  1   
  6   4   7  ar  
  7   4   8  ar  
  8   5   9  2   
  9   5  27  1   
 10   6  10  1   
 11   6  28  1   
 12   6  29  1   
 13   7   9  1   
 14   7  11  ar  
 15   8  12  ar  
 16   8  30  1   
 17  10  13  1   
 18  10  31  1   
 19  10  32  1   
 20  11  14  ar  
 21  11  33  1   
 22  12  14  ar  
 23  12  34  1   
 24  13  15  2   
 25  13  16  am  
 26  14  35  1   
 27  16  17  1   
 28  16  18  1   
 29  17  19  1   
 30  17  36  1   
 31  17  37  1   
 32  18  20  1   
 33  18  38  1   
 34  18  39  1   
 35  19  21  1   
 36  19  22  1   
 37  19  23  1   
 38  20  22  1   
 39  20  40  1   
 40  20  41  1   
 41  21  24  1   
 42  21  25  1   
 43  21  42  1   
 44  22  43  1   
 45  22  44  1   
 46  23  26  1   
 47  23  45  1   
 48  23  46  1   
 49  24  47  1   
 50  25  26  1   
 51  25  48  1   
 52  25  49  1   
 53  26  50  1   
 54  26  51  1   
@<TRIPOS>SUBSTRUCTURE
  1 ****  10 GROUP 4 **** **** 0

# MOE 2024.06 (io_trps.svl 2023.06)
