@<TRIPOS>MOLECULE
NONAME
51 52 1 0 0 
SMALL
USER_CHARGES


@<TRIPOS>ATOM
  1 O        0.2010     1.1220    -0.3130 O.2   1 <1>  -0.5700 
  2 C        0.0940     2.3180    -0.4050 C.2   1 <1>   0.5690 
  3 N       -0.5000     3.0360     0.5720 N.am  1 <1>  -0.7300 
  4 C        0.6000     3.0450    -1.6510 C.3   1 <1>   0.1810 
  5 C       -0.7110     4.5050     0.5150 C.3   1 <1>   0.3640 
  6 O        0.8380     4.4160    -1.4160 O.3   1 <1>  -0.5600 
  7 C       -2.1920     4.7720     0.7680 C.ar  1 <1>  -0.1440 
  8 C       -0.2510     5.1260    -0.8370 C.3   1 <1>   0.2610 
  9 C       -3.1760     4.0490     0.1040 C.ar  1 <1>   0.1600 
 10 C       -2.5880     5.7480     1.6630 C.ar  1 <1>  -0.1500 
 11 C        0.1350     6.6060    -0.6860 C.2   1 <1>   0.5690 
 12 N       -4.4790     4.2220     0.2490 N.ar  1 <1>  -0.6200 
 13 C       -3.9420     5.9400     1.8300 C.ar  1 <1>  -0.1500 
 14 O       -0.2720     7.2680     0.2420 O.2   1 <1>  -0.5700 
 15 N        0.9600     7.1610    -1.6170 N.am  1 <1>  -0.7300 
 16 C       -4.8320     5.1630     1.1090 C.ar  1 <1>   0.1600 
 17 C        1.3240     8.5880    -1.6890 C.3   1 <1>   0.1400 
 18 C        2.4950     8.8510    -0.7410 C.3   1 <1>  -0.1600 
 19 C        2.7690    10.3500    -0.6380 C.3   1 <1>   0.3430 
 20 N        3.8620    10.6090     0.3460 N.4   1 <1>  -0.9590 
 21 C        3.3560    10.5000     1.7440 C.3   1 <1>   0.3430 
 22 C        4.5080    11.9290     0.1090 C.3   1 <1>   0.3430 
 23 C        4.5220    10.2370     2.6890 C.3   1 <1>  -0.2400 
 24 C        5.4320    11.8350    -1.1000 C.3   1 <1>  -0.2400 
 25 H       -0.8480     2.5410     1.3960 H     1 <1>   0.3700 
 26 H       -0.1220     2.9510    -2.4420 H     1 <1>   0.0800 
 27 H        1.5250     2.6000    -1.9700 H     1 <1>   0.0800 
 28 H       -0.1340     4.9470     1.3100 H     1 <1>   0.0800 
 29 H       -1.0660     5.0790    -1.5360 H     1 <1>   0.0800 
 30 H       -2.8790     3.2790    -0.5890 H     1 <1>   0.1500 
 31 H       -1.8760     6.3470     2.2070 H     1 <1>   0.1500 
 32 H       -4.3090     6.6870     2.5110 H     1 <1>   0.1500 
 33 H        1.3800     6.5260    -2.3050 H     1 <1>   0.3700 
 34 H       -5.8880     5.3240     1.2470 H     1 <1>   0.1500 
 35 H        1.5810     8.8430    -2.7040 H     1 <1>   0.0800 
 36 H        0.4690     9.1760    -1.3940 H     1 <1>   0.0800 
 37 H        3.3670     8.3420    -1.1130 H     1 <1>   0.0800 
 38 H        2.2370     8.4580     0.2250 H     1 <1>   0.0800 
 39 H        1.8730    10.8700    -0.3360 H     1 <1>   0.0800 
 40 H        3.0540    10.7150    -1.6110 H     1 <1>   0.0800 
 41 H        4.5800     9.8840     0.2210 H     1 <1>   0.4500 
 42 H        2.8400    11.4040     2.0270 H     1 <1>   0.0800 
 43 H        2.6590     9.6810     1.8230 H     1 <1>   0.0800 
 44 H        3.7600    12.6900    -0.0490 H     1 <1>   0.0800 
 45 H        5.0950    12.2110     0.9680 H     1 <1>   0.0800 
 46 H        5.2120    11.0620     2.7100 H     1 <1>   0.0800 
 47 H        5.0410     9.3360     2.4130 H     1 <1>   0.0800 
 48 H        4.1420    10.1050     3.6860 H     1 <1>   0.0800 
 49 H        4.8870    11.6350    -2.0040 H     1 <1>   0.0800 
 50 H        6.1800    11.0770    -0.9500 H     1 <1>   0.0800 
 51 H        5.9390    12.7760    -1.2270 H     1 <1>   0.0800 
@<TRIPOS>BOND
  1   1   2  2   
  2   2   3  am  
  3   2   4  1   
  4   3   5  1   
  5   3  25  1   
  6   4   6  1   
  7   4  26  1   
  8   4  27  1   
  9   5   7  1   
 10   5   8  1   
 11   5  28  1   
 12   6   8  1   
 13   7   9  ar  
 14   7  10  ar  
 15   8  11  1   
 16   8  29  1   
 17   9  12  ar  
 18   9  30  1   
 19  10  13  ar  
 20  10  31  1   
 21  11  14  2   
 22  11  15  am  
 23  12  16  ar  
 24  13  16  ar  
 25  13  32  1   
 26  15  17  1   
 27  15  33  1   
 28  16  34  1   
 29  17  18  1   
 30  17  35  1   
 31  17  36  1   
 32  18  19  1   
 33  18  37  1   
 34  18  38  1   
 35  19  20  1   
 36  19  39  1   
 37  19  40  1   
 38  20  21  1   
 39  20  22  1   
 40  20  41  1   
 41  21  23  1   
 42  21  42  1   
 43  21  43  1   
 44  22  24  1   
 45  22  44  1   
 46  22  45  1   
 47  23  46  1   
 48  23  47  1   
 49  23  48  1   
 50  24  49  1   
 51  24  50  1   
 52  24  51  1   
@<TRIPOS>SUBSTRUCTURE
  1 ****  11 GROUP 4 **** **** 0

# MOE 2024.06 (io_trps.svl 2023.06)
