@<TRIPOS>MOLECULE
NONAME
49 51 1 0 0 
SMALL
USER_CHARGES


@<TRIPOS>ATOM
  1 F        1.9080    -0.5380    -2.0070 F     1 <1>  -0.1900 
  2 C        2.4010    -0.7830    -0.8210 C.ar  1 <1>   0.1900 
  3 C        1.6350    -1.4730     0.1070 C.ar  1 <1>  -0.1440 
  4 C        3.6800    -0.3360    -0.5450 C.ar  1 <1>  -0.1500 
  5 C        2.1930    -1.7130     1.3530 C.ar  1 <1>  -0.1500 
  6 C        0.2300    -1.9530    -0.2250 C.3   1 <1>  -0.0960 
  7 C        4.2270    -0.5820     0.7040 C.ar  1 <1>  -0.1430 
  8 C        3.4750    -1.2720     1.6470 C.ar  1 <1>  -0.1500 
  9 C        5.6360    -0.0990     1.0280 C.3   1 <1>   0.1270 
 10 C        6.7180    -0.8140     0.2080 C.ar  1 <1>  -0.1430 
 11 C        7.8740    -0.1350    -0.2050 C.ar  1 <1>   0.0860 
 12 C        6.5530    -2.1540    -0.1170 C.ar  1 <1>  -0.1500 
 13 C        8.1210     1.2620     0.0980 C.2   1 <1>   0.5440 
 14 C        8.8220    -0.8400    -0.9470 C.ar  1 <1>  -0.1500 
 15 C        7.5060    -2.8300    -0.8550 C.ar  1 <1>  -0.1500 
 16 O        8.1250     1.6610     1.2450 O.2   1 <1>  -0.5700 
 17 N        8.3340     2.1440    -0.9250 N.am  1 <1>  -0.7300 
 18 C        8.6450    -2.1700    -1.2730 C.ar  1 <1>  -0.1500 
 19 C        8.4660     3.6210    -0.8450 C.3   1 <1>   0.2200 
 20 C        9.6190     4.0700     0.0710 C.3   1 <1>   0.1400 
 21 C        7.1460     4.2440    -0.3890 C.3   1 <1>  -0.1600 
 22 N        9.6440     5.5540     0.2540 N.am  1 <1>  -0.6600 
 23 C        7.2430     5.7750    -0.4730 C.3   1 <1>  -0.0990 
 24 C        8.5410     6.3530     0.0750 C.2   1 <1>   0.5690 
 25 C       10.9140     6.0890     0.8150 C.3   1 <1>   0.0600 
 26 O        8.5540     7.5360     0.3160 O.2   1 <1>  -0.5700 
 27 H        4.2330     0.1910    -1.3010 H     1 <1>   0.1500 
 28 H        1.6340    -2.2450     2.1030 H     1 <1>   0.1500 
 29 H        0.2620    -2.6260    -1.0640 H     1 <1>   0.0800 
 30 H       -0.3930    -1.1140    -0.4800 H     1 <1>   0.0800 
 31 H       -0.2110    -2.4670     0.6090 H     1 <1>   0.0800 
 32 H        3.8850    -1.4720     2.6220 H     1 <1>   0.1500 
 33 H        5.8480    -0.2420     2.0730 H     1 <1>   0.0800 
 34 H        5.6540     0.9600     0.8450 H     1 <1>   0.0800 
 35 H        5.6750    -2.6900     0.2020 H     1 <1>   0.1500 
 36 H        9.7180    -0.3370    -1.2660 H     1 <1>   0.1500 
 37 H        7.3610    -3.8680    -1.1020 H     1 <1>   0.1500 
 38 H        8.2390     1.7820    -1.8760 H     1 <1>   0.3700 
 39 H        9.3910    -2.6940    -1.8450 H     1 <1>   0.1500 
 40 H        8.6850     3.9770    -1.8370 H     1 <1>   0.0800 
 41 H       10.5510     3.7490    -0.3600 H     1 <1>   0.0800 
 42 H        9.5180     3.6210     1.0420 H     1 <1>   0.0800 
 43 H        6.9530     3.9620     0.6320 H     1 <1>   0.0800 
 44 H        6.3330     3.8980    -1.0030 H     1 <1>   0.0800 
 45 H        6.4200     6.2150     0.0590 H     1 <1>   0.0800 
 46 H        7.1670     6.0810    -1.5000 H     1 <1>   0.0800 
 47 H       11.7290     5.8690     0.1480 H     1 <1>   0.0800 
 48 H       11.1060     5.6380     1.7730 H     1 <1>   0.0800 
 49 H       10.8570     7.1560     0.9440 H     1 <1>   0.0800 
@<TRIPOS>BOND
  1   1   2  1   
  2   2   3  ar  
  3   2   4  ar  
  4   3   5  ar  
  5   3   6  1   
  6   4   7  ar  
  7   4  27  1   
  8   5   8  ar  
  9   5  28  1   
 10   6  29  1   
 11   6  30  1   
 12   6  31  1   
 13   7   8  ar  
 14   7   9  1   
 15   8  32  1   
 16   9  10  1   
 17   9  33  1   
 18   9  34  1   
 19  10  11  ar  
 20  10  12  ar  
 21  11  13  1   
 22  11  14  ar  
 23  12  15  ar  
 24  12  35  1   
 25  13  16  2   
 26  13  17  am  
 27  14  18  ar  
 28  14  36  1   
 29  15  18  ar  
 30  15  37  1   
 31  17  19  1   
 32  17  38  1   
 33  18  39  1   
 34  19  20  1   
 35  19  21  1   
 36  19  40  1   
 37  20  22  1   
 38  20  41  1   
 39  20  42  1   
 40  21  23  1   
 41  21  43  1   
 42  21  44  1   
 43  22  24  am  
 44  22  25  1   
 45  23  24  1   
 46  23  45  1   
 47  23  46  1   
 48  24  26  2   
 49  25  47  1   
 50  25  48  1   
 51  25  49  1   
@<TRIPOS>SUBSTRUCTURE
  1 ****  13 GROUP 4 **** **** 0

# MOE 2024.06 (io_trps.svl 2023.06)
