@<TRIPOS>MOLECULE
NONAME
44 45 1 0 0 
SMALL
USER_CHARGES


@<TRIPOS>ATOM
  1 S       -0.0840     0.1070     0.1840 S.3   1 <1>  -0.4600 
  2 C        0.0060    -1.5820     0.8410 C.3   1 <1>   0.2140 
  3 C        1.5770     0.7600     0.4830 C.3   1 <1>   0.0700 
  4 C       -1.3340    -2.2600     0.6180 C.ar  1 <1>  -0.1440 
  5 C        1.6270     2.1780    -0.0840 C.3   1 <1>  -0.1600 
  6 C       -1.5030    -3.1550    -0.4280 C.ar  1 <1>  -0.1500 
  7 C       -2.4000    -1.9950     1.4630 C.ar  1 <1>  -0.1500 
  8 C        2.9990     2.8020     0.1540 C.3   1 <1>   0.2090 
  9 C       -2.7190    -3.7890    -0.6270 C.ar  1 <1>  -0.1430 
 10 C       -3.6180    -2.6220     1.2680 C.ar  1 <1>  -0.1500 
 11 N        3.0250     4.1480    -0.4370 N.pl3 1 <1>  -0.8690 
 12 C       -3.7760    -3.5180     0.2260 C.ar  1 <1>  -0.1500 
 13 C       -2.8910    -4.7640    -1.7770 C.3   1 <1>  -0.0970 
 14 C        4.0760     4.9910    -0.3230 C.ar  1 <1>   0.7200 
 15 N        5.2610     4.4770    -0.0130 N.ar  1 <1>  -0.6200 
 16 N        3.7760     6.2640    -0.5280 N.ar  1 <1>  -0.6200 
 17 C        6.2430     5.3370     0.0850 C.ar  1 <1>   0.1670 
 18 C        4.7740     7.1050    -0.4240 C.ar  1 <1>   0.1670 
 19 C        6.0470     6.6840    -0.1150 C.ar  1 <1>  -0.1500 
 20 C        7.6090     4.7830     0.4300 C.3   1 <1>  -0.0970 
 21 C        4.4660     8.5680    -0.6600 C.3   1 <1>  -0.0970 
 22 H        0.2370    -1.5090     1.8890 H     1 <1>   0.0800 
 23 H        0.7980    -2.0890     0.3210 H     1 <1>   0.0800 
 24 H        2.2750     0.1090    -0.0150 H     1 <1>   0.0800 
 25 H        1.7410     0.7490     1.5460 H     1 <1>   0.0800 
 26 H        0.8730     2.7770     0.3950 H     1 <1>   0.0800 
 27 H        1.4310     2.1420    -1.1410 H     1 <1>   0.0800 
 28 H       -0.6840    -3.3580    -1.0940 H     1 <1>   0.1500 
 29 H       -2.2860    -1.2940     2.2720 H     1 <1>   0.1500 
 30 H        3.7670     2.2030    -0.3050 H     1 <1>   0.0800 
 31 H        3.2020     2.8740     1.2100 H     1 <1>   0.0800 
 32 H       -4.4420    -2.4120     1.9260 H     1 <1>   0.1500 
 33 H        2.1390     4.6450    -0.5010 H     1 <1>   0.4000 
 34 H       -4.7270    -4.0000     0.0810 H     1 <1>   0.1500 
 35 H       -1.9780    -5.3070    -1.9470 H     1 <1>   0.0800 
 36 H       -3.1480    -4.2270    -2.6720 H     1 <1>   0.0800 
 37 H       -3.6710    -5.4720    -1.5600 H     1 <1>   0.0800 
 38 H        6.8580     7.3810    -0.0330 H     1 <1>   0.1500 
 39 H        7.5630     4.2800     1.3780 H     1 <1>   0.0800 
 40 H        8.3420     5.5660     0.4840 H     1 <1>   0.0800 
 41 H        7.9080     4.0750    -0.3220 H     1 <1>   0.0800 
 42 H        3.7280     8.8980     0.0490 H     1 <1>   0.0800 
 43 H        4.0730     8.6960    -1.6520 H     1 <1>   0.0800 
 44 H        5.3470     9.1720    -0.5530 H     1 <1>   0.0800 
@<TRIPOS>BOND
  1   1   2  1   
  2   1   3  1   
  3   2   4  1   
  4   2  22  1   
  5   2  23  1   
  6   3   5  1   
  7   3  24  1   
  8   3  25  1   
  9   4   6  ar  
 10   4   7  ar  
 11   5   8  1   
 12   5  26  1   
 13   5  27  1   
 14   6   9  ar  
 15   6  28  1   
 16   7  10  ar  
 17   7  29  1   
 18   8  11  1   
 19   8  30  1   
 20   8  31  1   
 21   9  12  ar  
 22   9  13  1   
 23  10  12  ar  
 24  10  32  1   
 25  11  14  1   
 26  11  33  1   
 27  12  34  1   
 28  13  35  1   
 29  13  36  1   
 30  13  37  1   
 31  14  15  ar  
 32  14  16  ar  
 33  15  17  ar  
 34  16  18  ar  
 35  17  19  ar  
 36  17  20  1   
 37  18  19  ar  
 38  18  21  1   
 39  19  38  1   
 40  20  39  1   
 41  20  40  1   
 42  20  41  1   
 43  21  42  1   
 44  21  43  1   
 45  21  44  1   
@<TRIPOS>SUBSTRUCTURE
  1 ****   5 GROUP 4 **** **** 0

# MOE 2024.06 (io_trps.svl 2023.06)
