@<TRIPOS>MOLECULE
NONAME
39 40 1 0 0 
SMALL
USER_CHARGES


@<TRIPOS>ATOM
  1 S        1.0450     1.5860    -2.0760 S.3   1 <1>  -0.3320 
  2 C        0.5940     2.4040    -0.5380 C.ar  1 <1>   0.1020 
  3 C       -0.2750     0.3420    -2.4260 C.3   1 <1>  -0.0100 
  4 C        1.4810     3.3480    -0.0570 C.ar  1 <1>  -0.1500 
  5 C       -0.5790     2.1170     0.1410 C.ar  1 <1>  -0.1500 
  6 C        1.1970     4.0300     1.1170 C.ar  1 <1>  -0.1430 
  7 C       -0.8580     2.7900     1.3180 C.ar  1 <1>  -0.1500 
  8 C        0.0250     3.7410     1.8050 C.ar  1 <1>  -0.1500 
  9 C        2.1560     5.0820     1.6350 C.3   1 <1>   0.4860 
 10 N        2.0900     6.2660     0.7290 N.4   1 <1>  -0.9590 
 11 C        3.2120     7.2100     0.9920 C.3   1 <1>   0.3430 
 12 C        0.7380     6.9140     0.7940 C.3   1 <1>   0.2630 
 13 C        3.3500     8.2050    -0.1630 C.3   1 <1>  -0.1600 
 14 C        4.6160     9.0720    -0.0220 C.3   1 <1>   0.0960 
 15 N        4.7780     9.9520    -1.1970 N.pl3 1 <1>   0.3140 
 16 N        4.8770     9.4910    -2.4220 N.2   1 <1>  -0.4180 
 17 C        4.8370    11.2690    -1.2620 C.2   1 <1>   0.0360 
 18 N        4.9880    10.5160    -3.1880 N.2   1 <1>   0.0000 
 19 N        4.9640    11.6390    -2.4770 N.2   1 <1>  -0.3380 
 20 H       -0.0040    -0.1710    -3.3320 H     1 <1>   0.0800 
 21 H       -1.2050     0.8670    -2.5500 H     1 <1>   0.0800 
 22 H       -0.3150    -0.3430    -1.5980 H     1 <1>   0.0800 
 23 H        2.3840     3.5260    -0.6150 H     1 <1>   0.1500 
 24 H       -1.2720     1.3850    -0.2260 H     1 <1>   0.1500 
 25 H       -1.7650     2.5690     1.8560 H     1 <1>   0.1500 
 26 H       -0.2180     4.2450     2.7260 H     1 <1>   0.1500 
 27 H        3.1530     4.6730     1.6420 H     1 <1>   0.0800 
 28 H        1.8920     5.3630     2.6420 H     1 <1>   0.0800 
 29 H        2.1960     5.8830    -0.2230 H     1 <1>   0.4500 
 30 H        4.1320     6.6540     1.0800 H     1 <1>   0.0800 
 31 H        3.0460     7.7360     1.9190 H     1 <1>   0.0800 
 32 H        0.5570     7.3150     1.7770 H     1 <1>   0.0800 
 33 H       -0.0330     6.1930     0.5690 H     1 <1>   0.0800 
 34 H        0.6660     7.7140     0.0740 H     1 <1>   0.0800 
 35 H        2.4930     8.8540    -0.1980 H     1 <1>   0.0800 
 36 H        3.4120     7.6540    -1.0870 H     1 <1>   0.0800 
 37 H        5.4910     8.4490     0.0410 H     1 <1>   0.0800 
 38 H        4.5620     9.6830     0.8620 H     1 <1>   0.0800 
 39 H        4.7840    11.9240    -0.4130 H     1 <1>   0.1500 
@<TRIPOS>BOND
  1   1   2  1   
  2   1   3  1   
  3   2   4  ar  
  4   2   5  ar  
  5   3  20  1   
  6   3  21  1   
  7   3  22  1   
  8   4   6  ar  
  9   4  23  1   
 10   5   7  ar  
 11   5  24  1   
 12   6   8  ar  
 13   6   9  1   
 14   7   8  ar  
 15   7  25  1   
 16   8  26  1   
 17   9  10  1   
 18   9  27  1   
 19   9  28  1   
 20  10  11  1   
 21  10  12  1   
 22  10  29  1   
 23  11  13  1   
 24  11  30  1   
 25  11  31  1   
 26  12  32  1   
 27  12  33  1   
 28  12  34  1   
 29  13  14  1   
 30  13  35  1   
 31  13  36  1   
 32  14  15  1   
 33  14  37  1   
 34  14  38  1   
 35  15  16  1   
 36  15  17  1   
 37  16  18  2   
 38  17  19  2   
 39  17  39  1   
 40  18  19  1   
@<TRIPOS>SUBSTRUCTURE
  1 ****  10 GROUP 4 **** **** 0

# MOE 2024.06 (io_trps.svl 2023.06)
