@<TRIPOS>MOLECULE
NONAME
16 16 1 0 0 
SMALL
USER_CHARGES


@<TRIPOS>ATOM
  1 F        4.3940    -1.2870     1.2780 F     1 <1>  -0.2980 
  2 C        5.0570    -1.1830     0.1300 C.3   1 <1>   0.5960 
  3 F        5.3330    -2.4040    -0.3100 F     1 <1>  -0.2980 
  4 C        6.2640    -0.2160     0.1670 C.3   1 <1>   0.0000 
  5 C        4.3740    -0.2620    -0.9090 C.3   1 <1>   0.0000 
  6 C        5.2870     0.8700    -0.3630 C.3   1 <1>   0.3910 
  7 N        4.6670     1.6410     0.6970 N.3   1 <1>  -0.9300 
  8 C        5.8430     1.7750    -1.4060 C.1   1 <1>  -0.1810 
  9 C        6.2860     2.4990    -2.2410 C.1   1 <1>  -0.1770 
 10 H        7.0190    -0.4740    -0.5580 H     1 <1>   0.0000 
 11 H        6.6530    -0.0150     1.1500 H     1 <1>   0.0000 
 12 H        3.3240    -0.0970    -0.7450 H     1 <1>   0.0000 
 13 H        4.6220    -0.5340    -1.9220 H     1 <1>   0.0000 
 14 H        4.1220     1.0160     1.3020 H     1 <1>   0.3600 
 15 H        4.0180     2.3050     0.2630 H     1 <1>   0.3600 
 16 H        6.6900     3.1570    -2.9890 H     1 <1>   0.1770 
@<TRIPOS>BOND
  1   1   2  1   
  2   2   3  1   
  3   2   4  1   
  4   2   5  1   
  5   4   6  1   
  6   4  10  1   
  7   4  11  1   
  8   5   6  1   
  9   5  12  1   
 10   5  13  1   
 11   6   7  1   
 12   6   8  1   
 13   7  14  1   
 14   7  15  1   
 15   8   9  3   
 16   9  16  1   
@<TRIPOS>SUBSTRUCTURE
  1 ****   6 GROUP 4 **** **** 0

# MOE 2024.06 (io_trps.svl 2023.06)
