@<TRIPOS>MOLECULE
NONAME
49 51 1 0 0 
SMALL
USER_CHARGES


@<TRIPOS>ATOM
  1 O        0.4530     0.7980     0.1270 O.3   1 <1>  -0.2800 
  2 C        0.7700    -0.2890     0.7910 C.2   1 <1>   0.4250 
  3 C        0.6950     1.7030     1.0310 C.2   1 <1>   0.2980 
  4 N        1.1590    -0.0530     1.9980 N.2   1 <1>  -0.3380 
  5 C        0.6610    -1.5820     0.1570 C.ar  1 <1>   0.0530 
  6 N        1.1060     1.2490     2.1500 N.2   1 <1>  -0.3380 
  7 C        0.4680     3.1770     0.7110 C.3   1 <1>   0.2900 
  8 C        0.2120    -1.7170    -1.1580 C.ar  1 <1>   0.1600 
  9 C        0.9960    -2.7550     0.8240 C.ar  1 <1>  -0.1500 
 10 N        1.4670     3.7120    -0.2580 N.3   1 <1>  -0.8100 
 11 N        0.0740    -2.8530    -1.8230 N.ar  1 <1>  -0.6200 
 12 C        0.8630    -3.9500     0.1520 C.ar  1 <1>  -0.1500 
 13 C        1.8750     5.0950     0.0080 C.3   1 <1>   0.1100 
 14 C        1.0190     3.5220    -1.6460 C.3   1 <1>   0.0300 
 15 C        0.4030    -3.9460    -1.1530 C.ar  1 <1>   0.1600 
 16 C        2.8060     5.1990     1.2400 C.3   1 <1>  -0.0800 
 17 C        3.4080     6.6110     1.3360 C.3   1 <1>   0.3430 
 18 C        3.8880     4.0970     1.2850 C.3   1 <1>  -0.2400 
 19 N        4.4190     6.8540     0.2650 N.4   1 <1>  -0.9590 
 20 C        5.8190     6.6670     0.7200 C.3   1 <1>   0.3430 
 21 C        4.3610     8.2190    -0.3110 C.3   1 <1>   0.3430 
 22 C        6.6540     7.3930    -0.3250 C.3   1 <1>  -0.1600 
 23 C        5.7100     8.3970    -0.9930 C.3   1 <1>  -0.1600 
 24 H        0.5300     3.7120     1.6400 H     1 <1>   0.0800 
 25 H       -0.5300     3.3090     0.3310 H     1 <1>   0.0800 
 26 H       -0.0530    -0.8240    -1.6970 H     1 <1>   0.1500 
 27 H        1.3520    -2.7290     1.8410 H     1 <1>   0.1500 
 28 H        1.1110    -4.8790     0.6320 H     1 <1>   0.1500 
 29 H        1.0020     5.7130     0.1400 H     1 <1>   0.0800 
 30 H        2.4040     5.4560    -0.8570 H     1 <1>   0.0800 
 31 H        0.7940     2.4850    -1.8250 H     1 <1>   0.0800 
 32 H        1.7990     3.8130    -2.3290 H     1 <1>   0.0800 
 33 H        0.1400     4.1110    -1.8450 H     1 <1>   0.0800 
 34 H        0.3010    -4.8840    -1.6720 H     1 <1>   0.1500 
 35 H        2.1960     5.0790     2.1170 H     1 <1>   0.0800 
 36 H        3.8660     6.7400     2.3040 H     1 <1>   0.0800 
 37 H        2.6090     7.3290     1.2540 H     1 <1>   0.0800 
 38 H        4.4410     4.0510     0.3650 H     1 <1>   0.0800 
 39 H        3.4290     3.1340     1.4330 H     1 <1>   0.0800 
 40 H        4.5660     4.2570     2.1040 H     1 <1>   0.0800 
 41 H        4.2590     6.1780    -0.4940 H     1 <1>   0.4500 
 42 H        6.0830     5.6240     0.7890 H     1 <1>   0.0800 
 43 H        5.9570     7.1370     1.6810 H     1 <1>   0.0800 
 44 H        4.2610     8.9450     0.4800 H     1 <1>   0.0800 
 45 H        3.5430     8.3280    -1.0060 H     1 <1>   0.0800 
 46 H        7.0260     6.6880    -1.0480 H     1 <1>   0.0800 
 47 H        7.4950     7.8810     0.1390 H     1 <1>   0.0800 
 48 H        6.0570     9.4100    -0.8800 H     1 <1>   0.0800 
 49 H        5.6190     8.1840    -2.0450 H     1 <1>   0.0800 
@<TRIPOS>BOND
  1   1   2  1   
  2   1   3  1   
  3   2   4  2   
  4   2   5  1   
  5   3   6  2   
  6   3   7  1   
  7   4   6  1   
  8   5   8  ar  
  9   5   9  ar  
 10   7  10  1   
 11   7  24  1   
 12   7  25  1   
 13   8  11  ar  
 14   8  26  1   
 15   9  12  ar  
 16   9  27  1   
 17  10  13  1   
 18  10  14  1   
 19  11  15  ar  
 20  12  15  ar  
 21  12  28  1   
 22  13  16  1   
 23  13  29  1   
 24  13  30  1   
 25  14  31  1   
 26  14  32  1   
 27  14  33  1   
 28  15  34  1   
 29  16  17  1   
 30  16  18  1   
 31  16  35  1   
 32  17  19  1   
 33  17  36  1   
 34  17  37  1   
 35  18  38  1   
 36  18  39  1   
 37  18  40  1   
 38  19  20  1   
 39  19  21  1   
 40  19  41  1   
 41  20  22  1   
 42  20  42  1   
 43  20  43  1   
 44  21  23  1   
 45  21  44  1   
 46  21  45  1   
 47  22  23  1   
 48  22  46  1   
 49  22  47  1   
 50  23  48  1   
 51  23  49  1   
@<TRIPOS>SUBSTRUCTURE
  1 ****  10 GROUP 4 **** **** 0

# MOE 2024.06 (io_trps.svl 2023.06)
