@<TRIPOS>MOLECULE
NONAME
35 36 1 0 0 
SMALL
USER_CHARGES


@<TRIPOS>ATOM
  1 I       -0.1240    -0.2120    -1.8860 I     1 <1>  -0.0810 
  2 C       -2.0040    -0.9430    -1.2100 C.ar  1 <1>   0.0810 
  3 C       -2.2480    -2.3040    -1.2240 C.ar  1 <1>   0.1600 
  4 C       -2.9490    -0.0480    -0.7670 C.ar  1 <1>  -0.1500 
  5 N       -3.3900    -2.8380    -0.8210 N.ar  1 <1>  -0.6200 
  6 C       -4.1460    -0.5950    -0.3440 C.ar  1 <1>  -0.1430 
  7 C       -4.3110    -1.9820    -0.3920 C.ar  1 <1>   0.1670 
  8 C       -5.2380     0.3430     0.1620 C.3   1 <1>   0.2840 
  9 C       -5.6160    -2.6170     0.0550 C.3   1 <1>  -0.0160 
 10 N       -6.5160    -0.3670     0.4220 N.am  1 <1>  -0.6600 
 11 C       -6.3810    -1.7180     1.0210 C.3   1 <1>   0.1400 
 12 C       -7.7150     0.2150     0.1150 C.2   1 <1>   0.7800 
 13 O       -7.7850     1.3510    -0.3090 O.2   1 <1>  -0.5700 
 14 O       -8.8150    -0.5190     0.3040 O.3   1 <1>  -0.4300 
 15 C      -10.1510    -0.1430     0.0490 C.3   1 <1>   0.2800 
 16 C      -10.3440     0.1480    -1.4440 C.3   1 <1>  -0.2400 
 17 C      -10.5480     1.0440     0.9350 C.3   1 <1>  -0.2400 
 18 C      -10.9880    -1.3620     0.4370 C.3   1 <1>  -0.2400 
 19 H       -1.4830    -2.9730    -1.5780 H     1 <1>   0.1500 
 20 H       -2.7600     1.0110    -0.7570 H     1 <1>   0.1500 
 21 H       -5.3920     1.1200    -0.5680 H     1 <1>   0.0800 
 22 H       -4.9110     0.8070     1.0760 H     1 <1>   0.0800 
 23 H       -5.4110    -3.5550     0.5390 H     1 <1>   0.0800 
 24 H       -6.2220    -2.8160    -0.8100 H     1 <1>   0.0800 
 25 H       -5.8370    -1.6370     1.9470 H     1 <1>   0.0800 
 26 H       -7.3430    -2.1500     1.2350 H     1 <1>   0.0800 
 27 H       -9.8250     1.0420    -1.7360 H     1 <1>   0.0800 
 28 H      -11.3870     0.2950    -1.6570 H     1 <1>   0.0800 
 29 H       -9.9880    -0.6760    -2.0350 H     1 <1>   0.0800 
 30 H      -10.0290     1.9380     0.6410 H     1 <1>   0.0800 
 31 H      -10.3310     0.8310     1.9650 H     1 <1>   0.0800 
 32 H      -11.6010     1.2360     0.8400 H     1 <1>   0.0800 
 33 H      -10.7060    -2.2130    -0.1580 H     1 <1>   0.0800 
 34 H      -12.0320    -1.1660     0.2740 H     1 <1>   0.0800 
 35 H      -10.8460    -1.5970     1.4760 H     1 <1>   0.0800 
@<TRIPOS>BOND
  1   1   2  1   
  2   2   3  ar  
  3   2   4  ar  
  4   3   5  ar  
  5   3  19  1   
  6   4   6  ar  
  7   4  20  1   
  8   5   7  ar  
  9   6   7  ar  
 10   6   8  1   
 11   7   9  1   
 12   8  10  1   
 13   8  21  1   
 14   8  22  1   
 15   9  11  1   
 16   9  23  1   
 17   9  24  1   
 18  10  11  1   
 19  10  12  am  
 20  11  25  1   
 21  11  26  1   
 22  12  13  2   
 23  12  14  1   
 24  14  15  1   
 25  15  16  1   
 26  15  17  1   
 27  15  18  1   
 28  16  27  1   
 29  16  28  1   
 30  16  29  1   
 31  17  30  1   
 32  17  31  1   
 33  17  32  1   
 34  18  33  1   
 35  18  34  1   
 36  18  35  1   
@<TRIPOS>SUBSTRUCTURE
  1 ****  10 GROUP 4 **** **** 0

# MOE 2024.06 (io_trps.svl 2023.06)
