@<TRIPOS>MOLECULE
NONAME
53 55 1 0 0 
SMALL
USER_CHARGES


@<TRIPOS>ATOM
  1 S        2.3720     0.8070    -0.2550 S.o2  1 <1>   1.3330 
  2 O        3.3230     1.2330     0.7460 O.2   1 <1>  -0.6500 
  3 O        2.8330     0.2860    -1.5180 O.2   1 <1>  -0.6500 
  4 N        1.3270    -0.3200     0.4610 N.am  1 <1>  -0.8490 
  5 C        1.2950     2.2080    -0.5700 C.3   1 <1>  -0.0550 
  6 C        0.5290    -1.0740    -0.5170 C.3   1 <1>   0.1160 
  7 C        2.0440    -1.2670     1.3240 C.3   1 <1>   0.1160 
  8 C        0.7050     2.8530     0.7080 C.3   1 <1>  -0.0800 
  9 C       -0.3060     3.9410     0.3410 C.3   1 <1>   0.2000 
 10 C        1.7560     3.6260     1.5140 C.3   1 <1>   0.3430 
 11 O       -1.2430     4.0480     1.3590 O.3   1 <1>  -0.6800 
 12 C        0.5030     5.2440     0.2560 C.3   1 <1>   0.3430 
 13 N        1.8540     4.9290     0.8200 N.4   1 <1>  -0.9590 
 14 C        2.4830     6.0300     1.5950 C.3   1 <1>   0.4860 
 15 C        2.5200     7.2940     0.7460 C.ar  1 <1>  -0.1440 
 16 C        3.0850     7.3140    -0.5400 C.ar  1 <1>   0.0530 
 17 C        1.9640     8.4470     1.2810 C.ar  1 <1>  -0.1500 
 18 C        3.6560     6.1480    -1.1790 C.2   1 <1>   0.0870 
 19 C        3.0640     8.5170    -1.2430 C.ar  1 <1>  -0.1500 
 20 C        1.9540     9.6260     0.5600 C.ar  1 <1>  -0.1500 
 21 O        4.3820     5.2810    -0.4850 O.3   1 <1>  -0.2800 
 22 C        3.5610     5.7060    -2.4610 C.2   1 <1>  -0.1500 
 23 C        2.5060     9.6600    -0.7050 C.ar  1 <1>  -0.1500 
 24 C        4.7640     4.3100    -1.2850 C.2   1 <1>  -0.0400 
 25 C        4.2760     4.5080    -2.5260 C.2   1 <1>  -0.1500 
 26 C        5.6500     3.2090    -0.7400 C.3   1 <1>  -0.0600 
 27 H        1.8430     2.9420    -1.1290 H     1 <1>   0.0800 
 28 H        0.4880     1.8740    -1.1930 H     1 <1>   0.0800 
 29 H       -0.1640    -1.7220    -0.0080 H     1 <1>   0.0800 
 30 H        1.1690    -1.6740    -1.1450 H     1 <1>   0.0800 
 31 H       -0.0340    -0.4030    -1.1410 H     1 <1>   0.0800 
 32 H        1.3530    -1.9590     1.7760 H     1 <1>   0.0800 
 33 H        2.5530    -0.7400     2.1130 H     1 <1>   0.0800 
 34 H        2.7720    -1.8190     0.7530 H     1 <1>   0.0800 
 35 H        0.2470     2.0800     1.3050 H     1 <1>   0.0800 
 36 H       -0.8440     3.7440    -0.5720 H     1 <1>   0.0800 
 37 H        2.7120     3.1320     1.5580 H     1 <1>   0.0800 
 38 H        1.3960     3.7750     2.5190 H     1 <1>   0.0800 
 39 H       -0.8610     3.9600     2.2540 H     1 <1>   0.4000 
 40 H        0.0110     6.0200     0.8200 H     1 <1>   0.0800 
 41 H        0.6030     5.5620    -0.7700 H     1 <1>   0.0800 
 42 H        2.5090     4.8010     0.0270 H     1 <1>   0.4500 
 43 H        1.9240     6.2140     2.4970 H     1 <1>   0.0800 
 44 H        3.4910     5.7570     1.8660 H     1 <1>   0.0800 
 45 H        1.5310     8.4490     2.2680 H     1 <1>   0.1500 
 46 H        3.4970     8.5620    -2.2270 H     1 <1>   0.1500 
 47 H        1.5210    10.5190     0.9810 H     1 <1>   0.1500 
 48 H        3.0490     6.1670    -3.2880 H     1 <1>   0.1500 
 49 H        2.5040    10.5780    -1.2690 H     1 <1>   0.1500 
 50 H        4.4100     3.9000    -3.4050 H     1 <1>   0.1500 
 51 H        5.7490     2.4170    -1.4600 H     1 <1>   0.0800 
 52 H        5.2380     2.8070     0.1660 H     1 <1>   0.0800 
 53 H        6.6250     3.6050    -0.5240 H     1 <1>   0.0800 
@<TRIPOS>BOND
  1   1   2  2   
  2   1   3  2   
  3   1   4  am  
  4   1   5  1   
  5   4   6  1   
  6   4   7  1   
  7   5   8  1   
  8   5  27  1   
  9   5  28  1   
 10   6  29  1   
 11   6  30  1   
 12   6  31  1   
 13   7  32  1   
 14   7  33  1   
 15   7  34  1   
 16   8   9  1   
 17   8  10  1   
 18   8  35  1   
 19   9  11  1   
 20   9  12  1   
 21   9  36  1   
 22  10  13  1   
 23  10  37  1   
 24  10  38  1   
 25  11  39  1   
 26  12  13  1   
 27  12  40  1   
 28  12  41  1   
 29  13  14  1   
 30  13  42  1   
 31  14  15  1   
 32  14  43  1   
 33  14  44  1   
 34  15  16  ar  
 35  15  17  ar  
 36  16  18  1   
 37  16  19  ar  
 38  17  20  ar  
 39  17  45  1   
 40  18  21  1   
 41  18  22  2   
 42  19  23  ar  
 43  19  46  1   
 44  20  23  ar  
 45  20  47  1   
 46  21  24  1   
 47  22  25  1   
 48  22  48  1   
 49  23  49  1   
 50  24  25  2   
 51  24  26  1   
 52  25  50  1   
 53  26  51  1   
 54  26  52  1   
 55  26  53  1   
@<TRIPOS>SUBSTRUCTURE
  1 ****  13 GROUP 4 **** **** 0

# MOE 2024.06 (io_trps.svl 2023.06)
