@<TRIPOS>MOLECULE
NONAME
59 62 1 0 0 
SMALL
USER_CHARGES


@<TRIPOS>ATOM
  1 O        0.7090    -0.0320     0.2650 O.2   1 <1>  -0.5700 
  2 C        1.3520    -1.0470     0.3080 C.2   1 <1>   0.5690 
  3 N        0.8900    -2.1510     0.9290 N.am  1 <1>  -0.7300 
  4 C        2.7190    -1.1250    -0.3310 C.3   1 <1>  -0.0990 
  5 C        1.6670    -3.3970     1.0790 C.3   1 <1>   0.1400 
  6 C        2.8870    -2.4730    -1.0600 C.3   1 <1>  -0.0800 
  7 C        2.4680    -3.6980    -0.2090 C.3   1 <1>  -0.0800 
  8 C        4.3340    -2.7180    -1.5180 C.3   1 <1>  -0.1600 
  9 C        3.7630    -4.4740     0.0580 C.3   1 <1>  -0.1600 
 10 C        4.6330    -4.1720    -1.1610 C.3   1 <1>   0.4230 
 11 N        6.0960    -4.4610    -1.0150 N.4   1 <1>  -0.9590 
 12 C        6.7420    -4.1980     0.3140 C.3   1 <1>   0.4860 
 13 C        6.3780    -5.8640    -1.4410 C.3   1 <1>   0.2630 
 14 C        6.8810    -2.7060     0.5470 C.ar  1 <1>  -0.1440 
 15 C        7.7120    -1.9440    -0.2650 C.ar  1 <1>  -0.1500 
 16 C        6.1690    -2.0870     1.5660 C.ar  1 <1>  -0.1500 
 17 C        7.8050    -0.5760    -0.0800 C.ar  1 <1>  -0.1500 
 18 C        6.2630    -0.7200     1.7510 C.ar  1 <1>  -0.1500 
 19 C        7.0770     0.0420     0.9300 C.ar  1 <1>   0.0820 
 20 O        7.1130     1.3820     1.1420 O.3   1 <1>  -0.1650 
 21 C        8.1990     2.1230     0.8150 C.ar  1 <1>   0.0820 
 22 C        8.0130     3.2880     0.0910 C.ar  1 <1>  -0.1500 
 23 C        9.4760     1.7450     1.2010 C.ar  1 <1>  -0.1500 
 24 C        9.0960     4.0740    -0.2710 C.ar  1 <1>  -0.1440 
 25 C       10.5590     2.5260     0.8420 C.ar  1 <1>  -0.1500 
 26 C       10.3800     3.6880     0.1060 C.ar  1 <1>  -0.1440 
 27 C        8.8500     5.3450    -1.0730 C.3   1 <1>  -0.0970 
 28 C       11.6000     4.5180    -0.2690 C.3   1 <1>  -0.0970 
 29 H       -0.0210    -2.0770     1.3910 H     1 <1>   0.3700 
 30 H        2.8340    -0.3100    -1.0230 H     1 <1>   0.0800 
 31 H        3.4520    -1.0140     0.4460 H     1 <1>   0.0800 
 32 H        2.3290    -3.2720     1.9190 H     1 <1>   0.0800 
 33 H        1.0000    -4.2140     1.2970 H     1 <1>   0.0800 
 34 H        2.2460    -2.4460    -1.9270 H     1 <1>   0.0800 
 35 H        1.8400    -4.3130    -0.8330 H     1 <1>   0.0800 
 36 H        4.9880    -2.0370    -1.0120 H     1 <1>   0.0800 
 37 H        4.4240    -2.5590    -2.5780 H     1 <1>   0.0800 
 38 H        3.5700    -5.5270     0.1620 H     1 <1>   0.0800 
 39 H        4.2040    -4.0920     0.9570 H     1 <1>   0.0800 
 40 H        4.2460    -4.7630    -1.9760 H     1 <1>   0.0800 
 41 H        6.5650    -3.8220    -1.6710 H     1 <1>   0.4500 
 42 H        6.1740    -4.6500     1.1090 H     1 <1>   0.0800 
 43 H        7.7290    -4.6310     0.3280 H     1 <1>   0.0800 
 44 H        5.8990    -6.5630    -0.7740 H     1 <1>   0.0800 
 45 H        7.4400    -6.0540    -1.4350 H     1 <1>   0.0800 
 46 H        6.0090    -6.0340    -2.4400 H     1 <1>   0.0800 
 47 H        8.2970    -2.3950    -1.0490 H     1 <1>   0.1500 
 48 H        5.5340    -2.6510     2.2270 H     1 <1>   0.1500 
 49 H        8.4380     0.0110    -0.7240 H     1 <1>   0.1500 
 50 H        5.7090    -0.2320     2.5350 H     1 <1>   0.1500 
 51 H        7.0140     3.5690    -0.1860 H     1 <1>   0.1500 
 52 H        9.6220     0.8510     1.7800 H     1 <1>   0.1500 
 53 H       11.5460     2.2220     1.1440 H     1 <1>   0.1500 
 54 H        7.8020     5.4790    -1.2700 H     1 <1>   0.0800 
 55 H        9.3670     5.2920    -2.0140 H     1 <1>   0.0800 
 56 H        9.2030     6.2000    -0.5250 H     1 <1>   0.0800 
 57 H       12.5030     4.0670     0.1020 H     1 <1>   0.0800 
 58 H       11.5180     5.5040     0.1510 H     1 <1>   0.0800 
 59 H       11.6770     4.5960    -1.3380 H     1 <1>   0.0800 
@<TRIPOS>BOND
  1   1   2  2   
  2   2   3  am  
  3   2   4  1   
  4   3   5  1   
  5   3  29  1   
  6   4   6  1   
  7   4  30  1   
  8   4  31  1   
  9   5   7  1   
 10   5  32  1   
 11   5  33  1   
 12   6   7  1   
 13   6   8  1   
 14   6  34  1   
 15   7   9  1   
 16   7  35  1   
 17   8  10  1   
 18   8  36  1   
 19   8  37  1   
 20   9  10  1   
 21   9  38  1   
 22   9  39  1   
 23  10  11  1   
 24  10  40  1   
 25  11  12  1   
 26  11  13  1   
 27  11  41  1   
 28  12  14  1   
 29  12  42  1   
 30  12  43  1   
 31  13  44  1   
 32  13  45  1   
 33  13  46  1   
 34  14  15  ar  
 35  14  16  ar  
 36  15  17  ar  
 37  15  47  1   
 38  16  18  ar  
 39  16  48  1   
 40  17  19  ar  
 41  17  49  1   
 42  18  19  ar  
 43  18  50  1   
 44  19  20  1   
 45  20  21  1   
 46  21  22  ar  
 47  21  23  ar  
 48  22  24  ar  
 49  22  51  1   
 50  23  25  ar  
 51  23  52  1   
 52  24  26  ar  
 53  24  27  1   
 54  25  26  ar  
 55  25  53  1   
 56  26  28  1   
 57  27  54  1   
 58  27  55  1   
 59  27  56  1   
 60  28  57  1   
 61  28  58  1   
 62  28  59  1   
@<TRIPOS>SUBSTRUCTURE
  1 ****  19 GROUP 4 **** **** 0

# MOE 2024.06 (io_trps.svl 2023.06)
