@<TRIPOS>MOLECULE
NONAME
47 49 1 0 0 
SMALL
USER_CHARGES


@<TRIPOS>ATOM
  1 O       -1.0530    -0.3670     0.7420 O.3   1 <1>  -0.5600 
  2 C       -1.5690     0.8350     1.2240 C.3   1 <1>   0.1200 
  3 C       -1.0550    -0.5670    -0.6350 C.3   1 <1>   0.1200 
  4 C       -3.0770     1.0240     0.9440 C.3   1 <1>   0.4230 
  5 C       -2.4600    -0.9430    -1.1330 C.3   1 <1>  -0.0800 
  6 N       -3.3090     1.4050    -0.5090 N.4   1 <1>  -0.9590 
  7 C       -3.9270    -0.1560     1.5090 C.3   1 <1>   0.2090 
  8 C       -3.1930    -1.9240    -0.1950 C.3   1 <1>   0.2090 
  9 C       -3.3410     0.2650    -1.4890 C.3   1 <1>   0.3430 
 10 C       -4.5820     2.1760    -0.6380 C.3   1 <1>   0.2630 
 11 N       -4.2950    -1.2410     0.5390 N.pl3 1 <1>  -0.8380 
 12 C       -5.6180    -1.5160     0.2580 C.ar  1 <1>   0.4100 
 13 N       -6.4080    -0.4790     0.0410 N.ar  1 <1>  -0.6200 
 14 C       -6.0930    -2.8030     0.1860 C.ar  1 <1>  -0.1500 
 15 C       -7.6610    -0.7840    -0.2440 C.ar  1 <1>   0.4700 
 16 C       -7.4140    -2.9960    -0.1320 C.ar  1 <1>   0.4100 
 17 N       -8.2140    -1.9720    -0.3530 N.ar  1 <1>  -0.6200 
 18 N       -7.9280    -4.2660    -0.2250 N.pl3 1 <1>  -0.8690 
 19 C       -9.3450    -4.5820    -0.4400 C.3   1 <1>   0.2890 
 20 C       -9.9890    -4.8240     0.9190 C.3   1 <1>  -0.2400 
 21 C       -9.4150    -5.8250    -1.3170 C.3   1 <1>  -0.2400 
 22 H       -1.4130     0.8230     2.2890 H     1 <1>   0.0800 
 23 H       -0.9920     1.6460     0.8180 H     1 <1>   0.0800 
 24 H       -0.6600     0.3040    -1.1290 H     1 <1>   0.0800 
 25 H       -0.3830    -1.3890    -0.8200 H     1 <1>   0.0800 
 26 H       -3.3510     1.8800     1.5370 H     1 <1>   0.0800 
 27 H       -2.3100    -1.4750    -2.0540 H     1 <1>   0.0800 
 28 H       -2.5320     2.0160    -0.7830 H     1 <1>   0.4500 
 29 H       -4.8300     0.2570     1.9240 H     1 <1>   0.0800 
 30 H       -3.4000    -0.6040     2.3330 H     1 <1>   0.0800 
 31 H       -2.5120    -2.3760     0.5080 H     1 <1>   0.0800 
 32 H       -3.6090    -2.7180    -0.7910 H     1 <1>   0.0800 
 33 H       -4.3560    -0.0880    -1.5850 H     1 <1>   0.0800 
 34 H       -3.0440     0.6360    -2.4570 H     1 <1>   0.0800 
 35 H       -5.4170     1.5720    -0.3250 H     1 <1>   0.0800 
 36 H       -4.7400     2.4730    -1.6620 H     1 <1>   0.0800 
 37 H       -4.5520     3.0610    -0.0240 H     1 <1>   0.0800 
 38 H       -5.4520    -3.6370     0.3760 H     1 <1>   0.1500 
 39 H       -8.3230     0.0490    -0.4150 H     1 <1>   0.1500 
 40 H       -7.3960    -5.0280     0.1930 H     1 <1>   0.4000 
 41 H       -9.8420    -3.7660    -0.9410 H     1 <1>   0.0800 
 42 H       -9.5090    -5.6380     1.4310 H     1 <1>   0.0800 
 43 H      -11.0300    -5.0600     0.7930 H     1 <1>   0.0800 
 44 H       -9.9160    -3.9330     1.5170 H     1 <1>   0.0800 
 45 H       -8.9340    -6.6580    -0.8380 H     1 <1>   0.0800 
 46 H       -8.9370    -5.6300    -2.2600 H     1 <1>   0.0800 
 47 H      -10.4410    -6.0810    -1.5050 H     1 <1>   0.0800 
@<TRIPOS>BOND
  1   1   2  1   
  2   1   3  1   
  3   2   4  1   
  4   2  22  1   
  5   2  23  1   
  6   3   5  1   
  7   3  24  1   
  8   3  25  1   
  9   4   6  1   
 10   4   7  1   
 11   4  26  1   
 12   5   8  1   
 13   5   9  1   
 14   5  27  1   
 15   6   9  1   
 16   6  10  1   
 17   6  28  1   
 18   7  11  1   
 19   7  29  1   
 20   7  30  1   
 21   8  11  1   
 22   8  31  1   
 23   8  32  1   
 24   9  33  1   
 25   9  34  1   
 26  10  35  1   
 27  10  36  1   
 28  10  37  1   
 29  11  12  1   
 30  12  13  ar  
 31  12  14  ar  
 32  13  15  ar  
 33  14  16  ar  
 34  14  38  1   
 35  15  17  ar  
 36  15  39  1   
 37  16  17  ar  
 38  16  18  1   
 39  18  19  1   
 40  18  40  1   
 41  19  20  1   
 42  19  21  1   
 43  19  41  1   
 44  20  42  1   
 45  20  43  1   
 46  20  44  1   
 47  21  45  1   
 48  21  46  1   
 49  21  47  1   
@<TRIPOS>SUBSTRUCTURE
  1 ****  12 GROUP 4 **** **** 0

# MOE 2024.06 (io_trps.svl 2023.06)
