@<TRIPOS>MOLECULE
NONAME
51 53 1 0 0 
SMALL
USER_CHARGES


@<TRIPOS>ATOM
  1 O        0.7130    -0.1970    -0.7790 O.2   1 <1>  -0.5700 
  2 C        1.3360    -1.1530    -0.3870 C.2   1 <1>   0.5690 
  3 N        0.8220    -2.0920     0.4640 N.am  1 <1>  -0.6600 
  4 C        2.7650    -1.3360    -0.8530 C.3   1 <1>  -0.0990 
  5 C        1.6660    -3.1970     0.9790 C.3   1 <1>   0.1400 
  6 C       -0.5670    -2.0110     0.9930 C.3   1 <1>   0.0600 
  7 C        3.0140    -2.8060    -1.2300 C.3   1 <1>  -0.0800 
  8 C        2.5310    -3.8020    -0.1490 C.3   1 <1>  -0.0800 
  9 C        4.4960    -3.1110    -1.4960 C.3   1 <1>  -0.1600 
 10 C        3.7970    -4.4940     0.3730 C.3   1 <1>  -0.1600 
 11 C        4.7570    -4.4490    -0.8130 C.3   1 <1>   0.4230 
 12 N        6.2020    -4.6850    -0.4990 N.4   1 <1>  -0.9590 
 13 C        6.7600    -4.1290     0.7830 C.3   1 <1>   0.4810 
 14 C        6.5030    -6.1460    -0.5860 C.3   1 <1>   0.2630 
 15 C        6.8990    -2.6110     0.7100 C.2   1 <1>  -0.0380 
 16 N        5.9830    -1.8590     1.4220 N.pl3 1 <1>  -0.6000 
 17 C        7.8670    -1.9820    -0.0240 C.2   1 <1>  -0.1240 
 18 C        6.0000    -0.4860     1.3860 C.2   1 <1>  -0.0500 
 19 C        7.9030    -0.5510    -0.0880 C.2   1 <1>   0.5410 
 20 C        8.9540    -2.7200    -0.8140 C.3   1 <1>  -0.1020 
 21 C        6.9260     0.1790     0.6510 C.2   1 <1>  -0.1240 
 22 O        8.7420     0.0260    -0.7760 O.2   1 <1>  -0.5700 
 23 C        6.9480     1.7030     0.6010 C.3   1 <1>  -0.1020 
 24 H        2.9450    -0.7000    -1.7010 H     1 <1>   0.0800 
 25 H        3.4140    -1.0260    -0.0560 H     1 <1>   0.0800 
 26 H        2.2880    -2.7950     1.7590 H     1 <1>   0.0800 
 27 H        1.0450    -3.9650     1.4090 H     1 <1>   0.0800 
 28 H       -1.1100    -2.9020     0.7320 H     1 <1>   0.0800 
 29 H       -1.0830    -1.1620     0.5750 H     1 <1>   0.0800 
 30 H       -0.5460    -1.9050     2.0630 H     1 <1>   0.0800 
 31 H        2.4500    -3.0050    -2.1290 H     1 <1>   0.0800 
 32 H        1.9290    -4.5440    -0.6470 H     1 <1>   0.0800 
 33 H        5.1030    -2.3270    -1.0890 H     1 <1>   0.0800 
 34 H        4.6820    -3.1760    -2.5530 H     1 <1>   0.0800 
 35 H        3.5870    -5.5030     0.6810 H     1 <1>   0.0800 
 36 H        4.1740    -3.9300     1.2020 H     1 <1>   0.0800 
 37 H        4.4300    -5.2060    -1.5100 H     1 <1>   0.0800 
 38 H        6.7210    -4.2030    -1.2460 H     1 <1>   0.4500 
 39 H        6.1430    -4.4070     1.6200 H     1 <1>   0.0800 
 40 H        7.7400    -4.5420     0.9540 H     1 <1>   0.0800 
 41 H        5.9710    -6.6860     0.1810 H     1 <1>   0.0800 
 42 H        7.5600    -6.3220    -0.4630 H     1 <1>   0.0800 
 43 H        6.2040    -6.5330    -1.5480 H     1 <1>   0.0800 
 44 H        5.2850    -2.2980     2.0380 H     1 <1>   0.4000 
 45 H        5.2530     0.0390     1.9640 H     1 <1>   0.1500 
 46 H        9.9220    -2.3580    -0.5080 H     1 <1>   0.0800 
 47 H        8.8450    -2.5090    -1.8640 H     1 <1>   0.0800 
 48 H        8.9440    -3.7820    -0.6710 H     1 <1>   0.0800 
 49 H        7.8920     2.0670     0.9670 H     1 <1>   0.0800 
 50 H        6.1610     2.1240     1.1990 H     1 <1>   0.0800 
 51 H        6.8250     2.0370    -0.4140 H     1 <1>   0.0800 
@<TRIPOS>BOND
  1   1   2  2   
  2   2   3  am  
  3   2   4  1   
  4   3   5  1   
  5   3   6  1   
  6   4   7  1   
  7   4  24  1   
  8   4  25  1   
  9   5   8  1   
 10   5  26  1   
 11   5  27  1   
 12   6  28  1   
 13   6  29  1   
 14   6  30  1   
 15   7   8  1   
 16   7   9  1   
 17   7  31  1   
 18   8  10  1   
 19   8  32  1   
 20   9  11  1   
 21   9  33  1   
 22   9  34  1   
 23  10  11  1   
 24  10  35  1   
 25  10  36  1   
 26  11  12  1   
 27  11  37  1   
 28  12  13  1   
 29  12  14  1   
 30  12  38  1   
 31  13  15  1   
 32  13  39  1   
 33  13  40  1   
 34  14  41  1   
 35  14  42  1   
 36  14  43  1   
 37  15  16  1   
 38  15  17  2   
 39  16  18  1   
 40  16  44  1   
 41  17  19  1   
 42  17  20  1   
 43  18  21  2   
 44  18  45  1   
 45  19  21  1   
 46  19  22  2   
 47  20  46  1   
 48  20  47  1   
 49  20  48  1   
 50  21  23  1   
 51  23  49  1   
 52  23  50  1   
 53  23  51  1   
@<TRIPOS>SUBSTRUCTURE
  1 ****   9 GROUP 4 **** **** 0

# MOE 2024.06 (io_trps.svl 2023.06)
