@<TRIPOS>MOLECULE
NONAME
47 49 1 0 0 
SMALL
USER_CHARGES


@<TRIPOS>ATOM
  1 O       -0.5660    -0.2650     0.3560 O.3   1 <1>  -0.2800 
  2 C       -1.6770    -0.9720     0.3590 C.2   1 <1>  -0.0400 
  3 C       -0.8880     0.9910     0.5910 C.2   1 <1>  -0.0100 
  4 C       -2.7420    -0.1740     0.5990 C.2   1 <1>  -0.1500 
  5 C       -1.5480    -2.4620     0.1070 C.3   1 <1>   0.0200 
  6 C       -2.2210     1.1170     0.7520 C.2   1 <1>  -0.1500 
  7 C       -2.9060    -3.1740     0.1120 C.3   1 <1>  -0.1600 
  8 C       -2.7300    -4.6710    -0.1460 C.3   1 <1>   0.3430 
  9 N       -4.0370    -5.3770    -0.0390 N.4   1 <1>  -0.9590 
 10 C       -3.8280    -6.8460     0.1140 C.3   1 <1>   0.3430 
 11 C       -4.9460    -5.0750    -1.1860 C.3   1 <1>   0.3430 
 12 C       -5.1630    -7.5340     0.3830 C.3   1 <1>  -0.1600 
 13 C       -6.3070    -5.7150    -0.9410 C.3   1 <1>  -0.1600 
 14 C       -6.1840    -7.2210    -0.7140 C.3   1 <1>   0.2000 
 15 O       -7.4270    -7.6520    -0.2870 O.3   1 <1>  -0.5600 
 16 C       -7.7480    -8.9870    -0.5910 C.3   1 <1>   0.2630 
 17 C       -9.0420    -9.4360     0.0830 C.ar  1 <1>   0.1670 
 18 N       -9.2340   -10.7480     0.1130 N.ar  1 <1>  -0.6200 
 19 C       -9.9380    -8.5160     0.6140 C.ar  1 <1>  -0.1500 
 20 C      -10.3520   -11.1560     0.6930 C.ar  1 <1>   0.1600 
 21 C      -11.0980    -8.9550     1.2150 C.ar  1 <1>  -0.1500 
 22 C      -11.3010   -10.3170     1.2500 C.ar  1 <1>  -0.1500 
 23 H       -0.1060     1.7290     0.6280 H     1 <1>   0.1500 
 24 H       -3.7850    -0.4210     0.6700 H     1 <1>   0.1500 
 25 H       -0.9090    -2.8750     0.8680 H     1 <1>   0.0800 
 26 H       -1.0620    -2.5970    -0.8450 H     1 <1>   0.0800 
 27 H       -2.7930     2.0060     0.9550 H     1 <1>   0.1500 
 28 H       -3.5210    -2.7310    -0.6510 H     1 <1>   0.0800 
 29 H       -3.3690    -3.0220     1.0710 H     1 <1>   0.0800 
 30 H       -2.0460    -5.0670     0.5890 H     1 <1>   0.0800 
 31 H       -2.3000    -4.8290    -1.1220 H     1 <1>   0.0800 
 32 H       -4.5060    -5.0500     0.8180 H     1 <1>   0.4500 
 33 H       -3.1560    -7.0400     0.9350 H     1 <1>   0.0800 
 34 H       -3.3880    -7.2480    -0.7850 H     1 <1>   0.0800 
 35 H       -4.5230    -5.4590    -2.1010 H     1 <1>   0.0800 
 36 H       -5.0730    -4.0100    -1.2930 H     1 <1>   0.0800 
 37 H       -5.5410    -7.2110     1.3380 H     1 <1>   0.0800 
 38 H       -4.9970    -8.5950     0.4340 H     1 <1>   0.0800 
 39 H       -6.9380    -5.5380    -1.7950 H     1 <1>   0.0800 
 40 H       -6.7680    -5.2510    -0.0860 H     1 <1>   0.0800 
 41 H       -5.9290    -7.7120    -1.6400 H     1 <1>   0.0800 
 42 H       -6.9500    -9.6240    -0.2540 H     1 <1>   0.0800 
 43 H       -7.8540    -9.0830    -1.6570 H     1 <1>   0.0800 
 44 H       -9.7350    -7.4620     0.5590 H     1 <1>   0.1500 
 45 H      -10.5220   -12.2190     0.7260 H     1 <1>   0.1500 
 46 H      -11.8100    -8.2660     1.6350 H     1 <1>   0.1500 
 47 H      -12.1850   -10.7270     1.7040 H     1 <1>   0.1500 
@<TRIPOS>BOND
  1   1   2  1   
  2   1   3  1   
  3   2   4  2   
  4   2   5  1   
  5   3   6  2   
  6   3  23  1   
  7   4   6  1   
  8   4  24  1   
  9   5   7  1   
 10   5  25  1   
 11   5  26  1   
 12   6  27  1   
 13   7   8  1   
 14   7  28  1   
 15   7  29  1   
 16   8   9  1   
 17   8  30  1   
 18   8  31  1   
 19   9  10  1   
 20   9  11  1   
 21   9  32  1   
 22  10  12  1   
 23  10  33  1   
 24  10  34  1   
 25  11  13  1   
 26  11  35  1   
 27  11  36  1   
 28  12  14  1   
 29  12  37  1   
 30  12  38  1   
 31  13  14  1   
 32  13  39  1   
 33  13  40  1   
 34  14  15  1   
 35  14  41  1   
 36  15  16  1   
 37  16  17  1   
 38  16  42  1   
 39  16  43  1   
 40  17  18  ar  
 41  17  19  ar  
 42  18  20  ar  
 43  19  21  ar  
 44  19  44  1   
 45  20  22  ar  
 46  20  45  1   
 47  21  22  ar  
 48  21  46  1   
 49  22  47  1   
@<TRIPOS>SUBSTRUCTURE
  1 ****  13 GROUP 4 **** **** 0

# MOE 2024.06 (io_trps.svl 2023.06)
