@<TRIPOS>MOLECULE
NONAME
49 51 1 0 0 
SMALL
USER_CHARGES


@<TRIPOS>ATOM
  1 O        1.2590     1.6560     1.2270 O.3   1 <1>  -0.0190 
  2 N        2.1310     0.6940     1.2390 N.2   1 <1>  -0.4100 
  3 C        0.9720     2.0370     0.0110 C.2   1 <1>  -0.0400 
  4 C        2.3960     0.4330     0.0090 C.2   1 <1>   0.1080 
  5 C        1.6780     1.2740    -0.8370 C.2   1 <1>  -0.1500 
  6 C        0.0010     3.1800    -0.2110 C.3   1 <1>   0.0200 
  7 C        3.3570    -0.6450    -0.4430 C.3   1 <1>  -0.0590 
  8 C        0.2900     4.3530     0.7480 C.3   1 <1>  -0.0800 
  9 C       -0.4570     5.6230     0.3370 C.3   1 <1>   0.2000 
 10 C        1.7790     4.7470     0.7410 C.3   1 <1>   0.3430 
 11 O       -0.6870     6.3740     1.4830 O.3   1 <1>  -0.6800 
 12 C        0.5700     6.3760    -0.5080 C.3   1 <1>   0.3430 
 13 N        1.8490     6.1390     0.2120 N.4   1 <1>  -0.9590 
 14 C        3.0860     6.4680    -0.5230 C.3   1 <1>   0.4810 
 15 C        3.1060     7.9640    -0.7190 C.2   1 <1>  -0.2880 
 16 C        3.8940     8.8160    -0.0400 C.2   1 <1>  -0.1780 
 17 C        3.9630    10.2540    -0.1700 C.ar  1 <1>   0.0280 
 18 C        3.4140    10.9360    -1.2550 C.ar  1 <1>  -0.1500 
 19 C        4.5960    11.0130     0.8130 C.ar  1 <1>  -0.1500 
 20 C        3.4880    12.3130    -1.3480 C.ar  1 <1>  -0.1500 
 21 C        4.6750    12.3910     0.7260 C.ar  1 <1>  -0.1500 
 22 C        4.1160    13.0540    -0.3620 C.ar  1 <1>   0.0820 
 23 O        4.1450    14.3980    -0.5270 O.3   1 <1>  -0.3620 
 24 C        4.7690    15.2430     0.4130 C.3   1 <1>   0.0400 
 25 H        1.7150     1.2720    -1.9110 H     1 <1>   0.1500 
 26 H        0.0700     3.4940    -1.2380 H     1 <1>   0.0800 
 27 H       -0.9990     2.8190    -0.0420 H     1 <1>   0.0800 
 28 H        4.1300    -0.2170    -1.0540 H     1 <1>   0.0800 
 29 H        2.8290    -1.3900    -1.0080 H     1 <1>   0.0800 
 30 H        3.8090    -1.1160     0.4120 H     1 <1>   0.0800 
 31 H        0.0070     4.0430     1.7410 H     1 <1>   0.0800 
 32 H       -1.3920     5.4570    -0.1710 H     1 <1>   0.0800 
 33 H        2.3390     4.0750     0.1110 H     1 <1>   0.0800 
 34 H        2.1840     4.7020     1.7390 H     1 <1>   0.0800 
 35 H       -1.4310     6.0090     2.0090 H     1 <1>   0.4000 
 36 H        0.3290     7.4250    -0.5710 H     1 <1>   0.0800 
 37 H        0.6150     5.9510    -1.4960 H     1 <1>   0.0800 
 38 H        1.7990     6.7690     1.0290 H     1 <1>   0.4500 
 39 H        3.9440     6.1730     0.0600 H     1 <1>   0.0800 
 40 H        3.1210     5.9580    -1.4730 H     1 <1>   0.0800 
 41 H        2.4120     8.2950    -1.4700 H     1 <1>   0.1500 
 42 H        4.5710     8.4330     0.7060 H     1 <1>   0.1500 
 43 H        2.9280    10.3960    -2.0440 H     1 <1>   0.1500 
 44 H        5.0330    10.5220     1.6630 H     1 <1>   0.1500 
 45 H        3.0600    12.8280    -2.1900 H     1 <1>   0.1500 
 46 H        5.1710    12.9320     1.5100 H     1 <1>   0.1500 
 47 H        4.6690    16.2560     0.0690 H     1 <1>   0.0800 
 48 H        5.8100    14.9810     0.4810 H     1 <1>   0.0800 
 49 H        4.2790    15.1300     1.3640 H     1 <1>   0.0800 
@<TRIPOS>BOND
  1   1   2  1   
  2   1   3  1   
  3   2   4  2   
  4   3   5  2   
  5   3   6  1   
  6   4   5  1   
  7   4   7  1   
  8   5  25  1   
  9   6   8  1   
 10   6  26  1   
 11   6  27  1   
 12   7  28  1   
 13   7  29  1   
 14   7  30  1   
 15   8   9  1   
 16   8  10  1   
 17   8  31  1   
 18   9  11  1   
 19   9  12  1   
 20   9  32  1   
 21  10  13  1   
 22  10  33  1   
 23  10  34  1   
 24  11  35  1   
 25  12  13  1   
 26  12  36  1   
 27  12  37  1   
 28  13  14  1   
 29  13  38  1   
 30  14  15  1   
 31  14  39  1   
 32  14  40  1   
 33  15  16  2   
 34  15  41  1   
 35  16  17  1   
 36  16  42  1   
 37  17  18  ar  
 38  17  19  ar  
 39  18  20  ar  
 40  18  43  1   
 41  19  21  ar  
 42  19  44  1   
 43  20  22  ar  
 44  20  45  1   
 45  21  22  ar  
 46  21  46  1   
 47  22  23  1   
 48  23  24  1   
 49  24  47  1   
 50  24  48  1   
 51  24  49  1   
@<TRIPOS>SUBSTRUCTURE
  1 ****  14 GROUP 4 **** **** 0

# MOE 2024.06 (io_trps.svl 2023.06)
