@<TRIPOS>MOLECULE
NONAME
40 42 1 0 0 
SMALL
USER_CHARGES


@<TRIPOS>ATOM
  1 F        0.3490     0.7130     0.1950 F     1 <1>  -0.1900 
  2 C        0.3750     2.0010     0.4120 C.ar  1 <1>   0.1900 
  3 C       -0.5540     2.8180    -0.2150 C.ar  1 <1>  -0.1440 
  4 C        1.3410     2.4960     1.2660 C.ar  1 <1>  -0.1500 
  5 C       -0.4930     4.1800     0.0340 C.ar  1 <1>  -0.1500 
  6 C       -1.6110     2.2370    -1.1440 C.3   1 <1>  -0.0960 
  7 C        1.3880     3.8580     1.5030 C.ar  1 <1>  -0.1500 
  8 C        0.4750     4.7050     0.8840 C.ar  1 <1>  -0.1440 
  9 C        0.5390     6.2020     1.1210 C.3   1 <1>   0.4870 
 10 N        1.7910     6.7250     0.5120 N.4   1 <1>  -0.9590 
 11 C        2.1210     8.1240     0.9690 C.3   1 <1>   0.3430 
 12 C        1.8700     6.4640    -0.9660 C.3   1 <1>   0.3430 
 13 C        3.5500     8.6180     0.6040 C.3   1 <1>   0.2200 
 14 C        3.2820     6.6080    -1.5520 C.3   1 <1>  -0.0190 
 15 N        3.6340     8.9420    -0.8380 N.am  1 <1>  -0.7300 
 16 C        4.6710     7.6230     0.9990 C.3   1 <1>   0.1200 
 17 C        3.5300     8.0620    -1.8480 C.2   1 <1>   0.5690 
 18 C        4.4400     5.9860    -0.7390 C.3   1 <1>   0.1200 
 19 O        4.3860     6.2970     0.6290 O.3   1 <1>  -0.5600 
 20 O        3.6000     8.4330    -2.9870 O.2   1 <1>  -0.5700 
 21 H        2.0370     1.8210     1.7330 H     1 <1>   0.1500 
 22 H       -1.2110     4.8290    -0.4410 H     1 <1>   0.1500 
 23 H       -2.2610     3.0030    -1.5250 H     1 <1>   0.0800 
 24 H       -2.2080     1.5160    -0.6130 H     1 <1>   0.0800 
 25 H       -1.1380     1.7430    -1.9740 H     1 <1>   0.0800 
 26 H        2.1410     4.2400     2.1730 H     1 <1>   0.1500 
 27 H        0.5340     6.3900     2.1820 H     1 <1>   0.0800 
 28 H       -0.3190     6.6840     0.6830 H     1 <1>   0.0800 
 29 H        2.5680     6.1440     0.8870 H     1 <1>   0.4500 
 30 H        1.4040     8.8190     0.5630 H     1 <1>   0.0800 
 31 H        2.0330     8.1590     2.0420 H     1 <1>   0.0800 
 32 H        1.5480     5.4530    -1.1580 H     1 <1>   0.0800 
 33 H        1.1970     7.1220    -1.4930 H     1 <1>   0.0800 
 34 H        3.7270     9.5350     1.1400 H     1 <1>   0.0800 
 35 H        3.2740     6.1130    -2.5070 H     1 <1>   0.0800 
 36 H        3.8570     9.9080    -1.1060 H     1 <1>   0.3700 
 37 H        4.7830     7.6240     2.0690 H     1 <1>   0.0800 
 38 H        5.6150     7.9140     0.5690 H     1 <1>   0.0800 
 39 H        5.3950     6.3000    -1.1290 H     1 <1>   0.0800 
 40 H        4.3910     4.9130    -0.8150 H     1 <1>   0.0800 
@<TRIPOS>BOND
  1   1   2  1   
  2   2   3  ar  
  3   2   4  ar  
  4   3   5  ar  
  5   3   6  1   
  6   4   7  ar  
  7   4  21  1   
  8   5   8  ar  
  9   5  22  1   
 10   6  23  1   
 11   6  24  1   
 12   6  25  1   
 13   7   8  ar  
 14   7  26  1   
 15   8   9  1   
 16   9  10  1   
 17   9  27  1   
 18   9  28  1   
 19  10  11  1   
 20  10  12  1   
 21  10  29  1   
 22  11  13  1   
 23  11  30  1   
 24  11  31  1   
 25  12  14  1   
 26  12  32  1   
 27  12  33  1   
 28  13  15  1   
 29  13  16  1   
 30  13  34  1   
 31  14  17  1   
 32  14  18  1   
 33  14  35  1   
 34  15  17  am  
 35  15  36  1   
 36  16  19  1   
 37  16  37  1   
 38  16  38  1   
 39  17  20  2   
 40  18  19  1   
 41  18  39  1   
 42  18  40  1   
@<TRIPOS>SUBSTRUCTURE
  1 ****  12 GROUP 4 **** **** 0

# MOE 2024.06 (io_trps.svl 2023.06)
