@<TRIPOS>MOLECULE
NONAME
35 34 1 0 0 
SMALL
USER_CHARGES


@<TRIPOS>ATOM
  1 O       -0.0500    -0.4120     0.2410 O.2   1 <1>  -0.5700 
  2 C       -0.0550    -1.2630    -0.6230 C.2   1 <1>   0.7800 
  3 O        1.0090    -2.0170    -0.8870 O.3   1 <1>  -0.4300 
  4 N       -1.1420    -1.5230    -1.3820 N.am  1 <1>  -0.7300 
  5 C        2.2650    -1.9660    -0.2450 C.3   1 <1>   0.2800 
  6 C       -2.4420    -0.8290    -1.2910 C.3   1 <1>   0.1400 
  7 C        2.1180    -2.3160     1.2400 C.3   1 <1>  -0.2400 
  8 C        3.1100    -3.0380    -0.9340 C.3   1 <1>  -0.2400 
  9 C        2.9160    -0.5940    -0.4610 C.3   1 <1>  -0.2400 
 10 C       -3.4110    -1.6990    -0.4890 C.3   1 <1>  -0.1600 
 11 C       -4.8410    -1.1400    -0.4830 C.3   1 <1>   0.2610 
 12 O       -4.7980     0.1780    -0.0220 O.3   1 <1>  -0.6800 
 13 C       -5.7850    -2.0050     0.3700 C.2   1 <1>   0.6590 
 14 O       -5.9680    -1.7820     1.5420 O.2   1 <1>  -0.5700 
 15 O       -6.3720    -3.0210    -0.2550 O.3   1 <1>  -0.4300 
 16 C       -7.2550    -3.8940     0.4200 C.3   1 <1>   0.0400 
 17 H       -1.0480    -2.2670    -2.0710 H     1 <1>   0.3700 
 18 H       -2.8210    -0.6530    -2.2830 H     1 <1>   0.0800 
 19 H       -2.3120     0.1250    -0.8040 H     1 <1>   0.0800 
 20 H        1.5970    -3.2490     1.3550 H     1 <1>   0.0800 
 21 H        1.5870    -1.5470     1.7700 H     1 <1>   0.0800 
 22 H        3.0880    -2.4100     1.6930 H     1 <1>   0.0800 
 23 H        2.6560    -4.0050    -0.8140 H     1 <1>   0.0800 
 24 H        4.0950    -3.0710    -0.5050 H     1 <1>   0.0800 
 25 H        3.2040    -2.8220    -1.9830 H     1 <1>   0.0800 
 26 H        2.3850     0.1750     0.0690 H     1 <1>   0.0800 
 27 H        2.9390    -0.3510    -1.5080 H     1 <1>   0.0800 
 28 H        3.9240    -0.6050    -0.0900 H     1 <1>   0.0800 
 29 H       -3.0580    -1.7840     0.5240 H     1 <1>   0.0800 
 30 H       -3.4380    -2.6850    -0.9180 H     1 <1>   0.0800 
 31 H       -5.2190    -1.1070    -1.4890 H     1 <1>   0.0800 
 32 H       -4.8380     0.1690     0.9590 H     1 <1>   0.4000 
 33 H       -7.6070    -4.6320    -0.2790 H     1 <1>   0.0800 
 34 H       -8.0820    -3.3240     0.8050 H     1 <1>   0.0800 
 35 H       -6.7250    -4.3700     1.2270 H     1 <1>   0.0800 
@<TRIPOS>BOND
  1   1   2  2   
  2   2   3  1   
  3   2   4  am  
  4   3   5  1   
  5   4   6  1   
  6   4  17  1   
  7   5   7  1   
  8   5   8  1   
  9   5   9  1   
 10   6  10  1   
 11   6  18  1   
 12   6  19  1   
 13   7  20  1   
 14   7  21  1   
 15   7  22  1   
 16   8  23  1   
 17   8  24  1   
 18   8  25  1   
 19   9  26  1   
 20   9  27  1   
 21   9  28  1   
 22  10  11  1   
 23  10  29  1   
 24  10  30  1   
 25  11  12  1   
 26  11  13  1   
 27  11  31  1   
 28  12  32  1   
 29  13  14  2   
 30  13  15  1   
 31  15  16  1   
 32  16  33  1   
 33  16  34  1   
 34  16  35  1   
@<TRIPOS>SUBSTRUCTURE
  1 ****   4 GROUP 4 **** **** 0

# MOE 2024.06 (io_trps.svl 2023.06)
