@<TRIPOS>MOLECULE
NONAME
40 41 1 0 0 
SMALL
USER_CHARGES


@<TRIPOS>ATOM
  1 F       -1.4330     5.0600     1.8840 F     1 <1>  -0.1900 
  2 C       -0.7140     4.6130     0.8910 C.ar  1 <1>   0.1900 
  3 C       -1.3530     4.0050    -0.1710 C.ar  1 <1>  -0.1500 
  4 C        0.6610     4.7690     0.9410 C.ar  1 <1>  -0.1500 
  5 C       -0.5540     3.5520    -1.2010 C.ar  1 <1>   0.1900 
  6 C        1.4430     4.3050    -0.1110 C.ar  1 <1>  -0.1440 
  7 F       -1.1190     2.9710    -2.2250 F     1 <1>  -0.1900 
  8 C        0.8250     3.6900    -1.1930 C.ar  1 <1>  -0.1500 
  9 C        2.9500     4.4810    -0.0680 C.3   1 <1>   0.2840 
 10 N        3.2460     5.9160    -0.2220 N.am  1 <1>  -0.7300 
 11 C        4.0700     6.6270     0.5850 C.2   1 <1>   0.5690 
 12 O        4.7030     6.1000     1.4660 O.2   1 <1>  -0.5700 
 13 C        4.1850     8.1370     0.3910 C.3   1 <1>  -0.0190 
 14 C        2.8220     8.8410     0.5500 C.3   1 <1>  -0.1600 
 15 C        4.8550     8.5010    -0.9570 C.3   1 <1>  -0.1600 
 16 C        2.9550    10.3780     0.5170 C.3   1 <1>   0.2000 
 17 C        4.5300     9.9280    -1.4440 C.3   1 <1>  -0.1600 
 18 O        1.7930    10.9000    -0.0800 O.3   1 <1>  -0.5600 
 19 C        4.1980    10.8620    -0.2770 C.3   1 <1>   0.2000 
 20 C        0.6920    11.0140     0.7680 C.3   1 <1>   0.0400 
 21 O        3.9470    12.1160    -0.7930 O.3   1 <1>  -0.6800 
 22 H       -2.4210     3.8910    -0.1950 H     1 <1>   0.1500 
 23 H        1.1120     5.2500     1.7920 H     1 <1>   0.1500 
 24 H        1.3950     3.3170    -2.0260 H     1 <1>   0.1500 
 25 H        3.4220     3.9320    -0.8640 H     1 <1>   0.0800 
 26 H        3.3360     4.1170     0.8700 H     1 <1>   0.0800 
 27 H        2.6940     6.3950    -0.9340 H     1 <1>   0.3700 
 28 H        4.8220     8.4980     1.1800 H     1 <1>   0.0800 
 29 H        2.3760     8.5460     1.4830 H     1 <1>   0.0800 
 30 H        2.1750     8.5250    -0.2500 H     1 <1>   0.0800 
 31 H        5.9200     8.3990    -0.8390 H     1 <1>   0.0800 
 32 H        4.5550     7.8090    -1.7250 H     1 <1>   0.0800 
 33 H        3.0370    10.7660     1.5180 H     1 <1>   0.0800 
 34 H        3.6760     9.8880    -2.1000 H     1 <1>   0.0800 
 35 H        5.3640    10.3190    -2.0000 H     1 <1>   0.0800 
 36 H        5.0520    10.9370     0.3730 H     1 <1>   0.0800 
 37 H       -0.1240    11.4280     0.2020 H     1 <1>   0.0800 
 38 H        0.9370    11.6750     1.5810 H     1 <1>   0.0800 
 39 H        0.4180    10.0420     1.1370 H     1 <1>   0.0800 
 40 H        2.9760    12.1490    -0.9540 H     1 <1>   0.4000 
@<TRIPOS>BOND
  1   1   2  1   
  2   2   3  ar  
  3   2   4  ar  
  4   3   5  ar  
  5   3  22  1   
  6   4   6  ar  
  7   4  23  1   
  8   5   7  1   
  9   5   8  ar  
 10   6   8  ar  
 11   6   9  1   
 12   8  24  1   
 13   9  10  1   
 14   9  25  1   
 15   9  26  1   
 16  10  11  am  
 17  10  27  1   
 18  11  12  2   
 19  11  13  1   
 20  13  14  1   
 21  13  15  1   
 22  13  28  1   
 23  14  16  1   
 24  14  29  1   
 25  14  30  1   
 26  15  17  1   
 27  15  31  1   
 28  15  32  1   
 29  16  18  1   
 30  16  19  1   
 31  16  33  1   
 32  17  19  1   
 33  17  34  1   
 34  17  35  1   
 35  18  20  1   
 36  19  21  1   
 37  19  36  1   
 38  20  37  1   
 39  20  38  1   
 40  20  39  1   
 41  21  40  1   
@<TRIPOS>SUBSTRUCTURE
  1 ****  10 GROUP 4 **** **** 0

# MOE 2024.06 (io_trps.svl 2023.06)
