@<TRIPOS>MOLECULE
NONAME
30 30 1 0 0 
SMALL
USER_CHARGES


@<TRIPOS>ATOM
  1 CL      -0.0330     0.8210     1.4770 Cl    1 <1>  -0.1770 
  2 C        1.5950     1.2850     1.0610 C.ar  1 <1>   0.1770 
  3 C        1.8110     2.4700     0.3860 C.ar  1 <1>  -0.1500 
  4 C        2.6450     0.4640     1.4140 C.ar  1 <1>  -0.1500 
  5 C        3.1010     2.8520     0.0450 C.ar  1 <1>  -0.1440 
  6 C        3.9350     0.8370     1.0800 C.ar  1 <1>  -0.1500 
  7 C        4.1700     2.0230     0.3920 C.ar  1 <1>  -0.1430 
  8 C        3.2770     4.1840    -0.6830 C.3   1 <1>  -0.0160 
  9 C        5.5980     2.3770     0.0370 C.3   1 <1>   0.4870 
 10 C        3.5950     5.3050     0.3140 C.3   1 <1>  -0.1600 
 11 N        5.8870     1.7120    -1.2470 N.4   1 <1>  -0.8530 
 12 C        3.8040     6.6470    -0.3990 C.3   1 <1>  -0.1600 
 13 C        4.1210     7.7570     0.6060 C.3   1 <1>  -0.2400 
 14 H        0.9630     3.0850     0.1400 H     1 <1>   0.1500 
 15 H        2.4470    -0.4510     1.9460 H     1 <1>   0.1500 
 16 H        4.7440     0.1880     1.3720 H     1 <1>   0.1500 
 17 H        2.3660     4.4310    -1.2030 H     1 <1>   0.0800 
 18 H        4.0500     4.1190    -1.4260 H     1 <1>   0.0800 
 19 H        6.2670     2.0250     0.8060 H     1 <1>   0.0800 
 20 H        5.7070     3.4460    -0.0540 H     1 <1>   0.0800 
 21 H        4.4770     5.0600     0.8790 H     1 <1>   0.0800 
 22 H        2.7770     5.3970     1.0100 H     1 <1>   0.0800 
 23 H        5.7740     0.6990    -1.1380 H     1 <1>   0.4500 
 24 H        6.8310     1.9180    -1.5870 H     1 <1>   0.4500 
 25 H        5.1960     2.0150    -1.9420 H     1 <1>   0.4500 
 26 H        2.9120     6.9130    -0.9420 H     1 <1>   0.0800 
 27 H        4.6140     6.5710    -1.1050 H     1 <1>   0.0800 
 28 H        3.3140     7.8730     1.3080 H     1 <1>   0.0800 
 29 H        4.2580     8.6920     0.0910 H     1 <1>   0.0800 
 30 H        5.0220     7.5340     1.1500 H     1 <1>   0.0800 
@<TRIPOS>BOND
  1   1   2  1   
  2   2   3  ar  
  3   2   4  ar  
  4   3   5  ar  
  5   3  14  1   
  6   4   6  ar  
  7   4  15  1   
  8   5   7  ar  
  9   5   8  1   
 10   6   7  ar  
 11   6  16  1   
 12   7   9  1   
 13   8  10  1   
 14   8  17  1   
 15   8  18  1   
 16   9  11  1   
 17   9  19  1   
 18   9  20  1   
 19  10  12  1   
 20  10  21  1   
 21  10  22  1   
 22  11  23  1   
 23  11  24  1   
 24  11  25  1   
 25  12  13  1   
 26  12  26  1   
 27  12  27  1   
 28  13  28  1   
 29  13  29  1   
 30  13  30  1   
@<TRIPOS>SUBSTRUCTURE
  1 ****   5 GROUP 4 **** **** 0

# MOE 2024.06 (io_trps.svl 2023.06)
