@<TRIPOS>MOLECULE
NONAME
49 52 1 0 0 
SMALL
USER_CHARGES


@<TRIPOS>ATOM
  1 O       -0.1130    -0.0430     0.5640 O.2   1 <1>  -0.5700 
  2 C       -1.1140     0.6420     0.6620 C.2   1 <1>   0.7160 
  3 N       -2.3430     0.0250     0.6040 N.am  1 <1>  -0.6600 
  4 C       -1.0080     2.0730     0.8260 C.2   1 <1>  -0.0860 
  5 C       -3.5980     0.7050     0.1920 C.3   1 <1>   0.1400 
  6 C       -2.4800    -1.4470     0.4560 C.3   1 <1>   0.1400 
  7 C       -0.2260     3.0110     0.2180 C.2   1 <1>  -0.3320 
  8 C       -1.7600     2.8220     1.7300 C.2   1 <1>   0.1390 
  9 C       -4.4180    -0.3810    -0.4990 C.3   1 <1>   0.2000 
 10 C       -3.9560    -1.6900     0.1340 C.3   1 <1>  -0.0800 
 11 N       -0.5180     4.2370     0.7460 N.pl3 1 <1>   0.5930 
 12 C        0.8070     2.7610    -0.8760 C.3   1 <1>  -0.0600 
 13 N       -1.5010     4.0850     1.6850 N.2   1 <1>  -0.7070 
 14 O       -5.7770    -0.2010    -0.3000 O.3   1 <1>  -0.6800 
 15 C       -4.1980    -2.9150    -0.7590 C.3   1 <1>   0.0210 
 16 C        0.0160     5.5340     0.4040 C.ar  1 <1>   0.2870 
 17 C       -3.6480    -4.1730    -0.1150 C.2   1 <1>   0.1080 
 18 N        1.2870     5.6380    -0.0110 N.ar  1 <1>  -0.6200 
 19 C       -0.8120     6.6530     0.5200 C.ar  1 <1>  -0.1500 
 20 N       -4.0880    -4.6340     1.0140 N.2   1 <1>  -0.7070 
 21 C       -2.6250    -4.9550    -0.6400 C.2   1 <1>  -0.1500 
 22 C        1.7210     6.8520    -0.3050 C.ar  1 <1>   0.1600 
 23 C       -0.3470     7.9110     0.2080 C.ar  1 <1>  -0.1500 
 24 N       -3.3520    -5.7380     1.2410 N.pl3 1 <1>   0.3000 
 25 C       -2.4560    -5.9520     0.2540 C.2   1 <1>  -0.3320 
 26 C        0.9600     8.0030    -0.2160 C.ar  1 <1>  -0.1500 
 27 C       -1.4800    -7.1130     0.2250 C.3   1 <1>  -0.0600 
 28 H       -4.1090     1.0650     1.0680 H     1 <1>   0.0800 
 29 H       -3.3940     1.5180    -0.4830 H     1 <1>   0.0800 
 30 H       -1.8490    -1.7820    -0.3510 H     1 <1>   0.0800 
 31 H       -2.1890    -1.9520     1.3620 H     1 <1>   0.0800 
 32 H       -2.4840     2.3910     2.4000 H     1 <1>   0.1500 
 33 H       -4.2240    -0.3630    -1.5580 H     1 <1>   0.0800 
 34 H       -4.4620    -1.8360     1.0730 H     1 <1>   0.0800 
 35 H        0.7780     1.7380    -1.2060 H     1 <1>   0.0800 
 36 H        1.7950     2.9650    -0.5010 H     1 <1>   0.0800 
 37 H        0.6190     3.3980    -1.7220 H     1 <1>   0.0800 
 38 H       -6.0210    -0.4270     0.6190 H     1 <1>   0.4000 
 39 H       -3.7350    -2.7740    -1.7190 H     1 <1>   0.0800 
 40 H       -5.2550    -3.0440    -0.9130 H     1 <1>   0.0800 
 41 H       -1.8250     6.5300     0.8610 H     1 <1>   0.1500 
 42 H       -2.0980    -4.7800    -1.5610 H     1 <1>   0.1500 
 43 H        2.7420     6.9350    -0.6350 H     1 <1>   0.1500 
 44 H       -0.9750     8.7810     0.2940 H     1 <1>   0.1500 
 45 H       -3.4850    -6.3220     2.0750 H     1 <1>   0.2700 
 46 H        1.3860     8.9550    -0.4740 H     1 <1>   0.1500 
 47 H       -0.8740    -7.0650    -0.6620 H     1 <1>   0.0800 
 48 H       -2.0130    -8.0480     0.2250 H     1 <1>   0.0800 
 49 H       -0.8330    -7.0770     1.0830 H     1 <1>   0.0800 
@<TRIPOS>BOND
  1   1   2  2   
  2   2   3  am  
  3   2   4  1   
  4   3   5  1   
  5   3   6  1   
  6   4   7  2   
  7   4   8  1   
  8   5   9  1   
  9   5  28  1   
 10   5  29  1   
 11   6  10  1   
 12   6  30  1   
 13   6  31  1   
 14   7  11  1   
 15   7  12  1   
 16   8  13  2   
 17   8  32  1   
 18   9  10  1   
 19   9  14  1   
 20   9  33  1   
 21  10  15  1   
 22  10  34  1   
 23  11  13  1   
 24  11  16  1   
 25  12  35  1   
 26  12  36  1   
 27  12  37  1   
 28  14  38  1   
 29  15  17  1   
 30  15  39  1   
 31  15  40  1   
 32  16  18  ar  
 33  16  19  ar  
 34  17  20  2   
 35  17  21  1   
 36  18  22  ar  
 37  19  23  ar  
 38  19  41  1   
 39  20  24  1   
 40  21  25  2   
 41  21  42  1   
 42  22  26  ar  
 43  22  43  1   
 44  23  26  ar  
 45  23  44  1   
 46  24  25  1   
 47  24  45  1   
 48  25  27  1   
 49  26  46  1   
 50  27  47  1   
 51  27  48  1   
 52  27  49  1   
@<TRIPOS>SUBSTRUCTURE
  1 ****   2 GROUP 4 **** **** 0

# MOE 2024.06 (io_trps.svl 2023.06)
