@<TRIPOS>MOLECULE
NONAME
51 53 1 0 0 
SMALL
USER_CHARGES


@<TRIPOS>ATOM
  1 S       -0.9070    -0.0080    -1.0920 S.3   1 <1>  -0.3320 
  2 C       -0.6550     1.7460    -0.9000 C.ar  1 <1>   0.7220 
  3 C       -1.3720    -0.5810     0.6110 C.3   1 <1>   0.1310 
  4 N       -0.8700     2.2290     0.3150 N.ar  1 <1>  -0.6200 
  5 N       -0.2840     2.3740    -2.0010 N.ar  1 <1>  -0.6200 
  6 C       -1.5900    -2.0880     0.6300 C.2   1 <1>   0.5690 
  7 C       -0.6740     3.5220     0.4320 C.ar  1 <1>   0.1660 
  8 C       -0.0980     3.6660    -1.8490 C.ar  1 <1>   0.1600 
  9 O       -0.9010    -2.7410     1.3790 O.2   1 <1>  -0.5700 
 10 N       -2.5510    -2.7030    -0.1400 N.am  1 <1>  -0.6600 
 11 C       -0.2810     4.2940    -0.6390 C.ar  1 <1>  -0.1500 
 12 C       -0.8980     4.1300     1.8000 C.3   1 <1>  -0.0970 
 13 C       -2.6030    -4.1860    -0.2410 C.3   1 <1>   0.1400 
 14 C       -3.6670    -2.0070    -0.8380 C.3   1 <1>   0.1400 
 15 C       -3.9190    -4.6940     0.3830 C.3   1 <1>   0.4230 
 16 C       -4.9930    -2.4960    -0.2360 C.3   1 <1>  -0.1600 
 17 N       -3.9970    -6.2100     0.5050 N.4   1 <1>  -0.9590 
 18 C       -5.1730    -4.0430    -0.2750 C.3   1 <1>   0.0000 
 19 C       -5.3860    -6.7380     0.7040 C.3   1 <1>   0.3430 
 20 C       -3.3070    -6.9840    -0.5800 C.3   1 <1>   0.2630 
 21 C       -6.4360    -4.4210     0.5560 C.3   1 <1>  -0.1600 
 22 C       -5.3210    -4.5270    -1.7470 C.3   1 <1>   0.1200 
 23 C       -6.2710    -5.7020     1.3960 C.3   1 <1>  -0.1600 
 24 O       -6.3350    -3.8570    -2.4100 O.3   1 <1>  -0.6800 
 25 H       -0.5610    -0.3140     1.2630 H     1 <1>   0.0800 
 26 H       -2.2610    -0.0560     0.9040 H     1 <1>   0.0800 
 27 H        0.2090     4.2350    -2.7110 H     1 <1>   0.1500 
 28 H       -0.1220     5.3510    -0.5410 H     1 <1>   0.1500 
 29 H       -0.7030     5.1860     1.7910 H     1 <1>   0.0800 
 30 H       -0.2450     3.6610     2.5140 H     1 <1>   0.0800 
 31 H       -1.9160     3.9670     2.1050 H     1 <1>   0.0800 
 32 H       -2.5300    -4.4560    -1.2790 H     1 <1>   0.0800 
 33 H       -1.7690    -4.6240     0.2770 H     1 <1>   0.0800 
 34 H       -3.5950    -0.9400    -0.7210 H     1 <1>   0.0800 
 35 H       -3.6250    -2.2220    -1.8930 H     1 <1>   0.0800 
 36 H       -3.9060    -4.3140     1.3920 H     1 <1>   0.0800 
 37 H       -5.0240    -2.1490     0.7830 H     1 <1>   0.0800 
 38 H       -5.8040    -2.0080    -0.7490 H     1 <1>   0.0800 
 39 H       -3.4890    -6.4190     1.3790 H     1 <1>   0.4500 
 40 H       -5.8260    -6.9780    -0.2500 H     1 <1>   0.0800 
 41 H       -5.3540    -7.6420     1.2910 H     1 <1>   0.0800 
 42 H       -3.7580    -6.7790    -1.5370 H     1 <1>   0.0800 
 43 H       -3.3800    -8.0430    -0.3880 H     1 <1>   0.0800 
 44 H       -2.2620    -6.7240    -0.6270 H     1 <1>   0.0800 
 45 H       -6.6940    -3.6250     1.2360 H     1 <1>   0.0800 
 46 H       -7.2860    -4.5380    -0.0940 H     1 <1>   0.0800 
 47 H       -5.5470    -5.5770    -1.7990 H     1 <1>   0.0800 
 48 H       -4.4220    -4.3460    -2.3090 H     1 <1>   0.0800 
 49 H       -7.2410    -6.1310     1.5790 H     1 <1>   0.0800 
 50 H       -5.8470    -5.4640     2.3570 H     1 <1>   0.0800 
 51 H       -7.2170    -4.0450    -2.0320 H     1 <1>   0.4000 
@<TRIPOS>BOND
  1   1   2  1   
  2   1   3  1   
  3   2   4  ar  
  4   2   5  ar  
  5   3   6  1   
  6   3  25  1   
  7   3  26  1   
  8   4   7  ar  
  9   5   8  ar  
 10   6   9  2   
 11   6  10  am  
 12   7  11  ar  
 13   7  12  1   
 14   8  11  ar  
 15   8  27  1   
 16  10  13  1   
 17  10  14  1   
 18  11  28  1   
 19  12  29  1   
 20  12  30  1   
 21  12  31  1   
 22  13  15  1   
 23  13  32  1   
 24  13  33  1   
 25  14  16  1   
 26  14  34  1   
 27  14  35  1   
 28  15  17  1   
 29  15  18  1   
 30  15  36  1   
 31  16  18  1   
 32  16  37  1   
 33  16  38  1   
 34  17  19  1   
 35  17  20  1   
 36  17  39  1   
 37  18  21  1   
 38  18  22  1   
 39  19  23  1   
 40  19  40  1   
 41  19  41  1   
 42  20  42  1   
 43  20  43  1   
 44  20  44  1   
 45  21  23  1   
 46  21  45  1   
 47  21  46  1   
 48  22  24  1   
 49  22  47  1   
 50  22  48  1   
 51  23  49  1   
 52  23  50  1   
 53  24  51  1   
@<TRIPOS>SUBSTRUCTURE
  1 ****  10 GROUP 4 **** **** 0

# MOE 2024.06 (io_trps.svl 2023.06)
