@<TRIPOS>MOLECULE
NONAME
49 51 1 0 0 
SMALL
USER_CHARGES


@<TRIPOS>ATOM
  1 S        1.6310     1.6870     0.2880 S.3   1 <1>  -0.0800 
  2 C        2.0890     1.8670    -1.3730 C.2   1 <1>   0.4420 
  3 C        0.9030     0.1790    -0.1530 C.2   1 <1>   0.1980 
  4 N        1.7130     0.8730    -2.0930 N.2   1 <1>  -0.3380 
  5 N        2.7750     3.0140    -1.7010 N.am  1 <1>  -0.4940 
  6 N        1.0370    -0.0870    -1.3900 N.2   1 <1>  -0.3380 
  7 C        0.2280    -0.6490     0.9270 C.3   1 <1>   0.3000 
  8 C        3.3260     3.4230    -2.8780 C.2   1 <1>   0.5690 
  9 O       -0.6550     0.1410     1.6710 O.3   1 <1>  -0.5600 
 10 O        3.3280     2.7780    -3.8950 O.2   1 <1>  -0.5700 
 11 C        3.9830     4.8030    -2.8610 C.3   1 <1>   0.1710 
 12 C       -1.3630    -0.5560     2.6450 C.3   1 <1>   0.0400 
 13 N        4.3640     5.2590    -1.4890 N.3   1 <1>  -0.8100 
 14 C        4.5440     6.7290    -1.4660 C.3   1 <1>   0.1100 
 15 C        5.5970     4.5860    -1.0380 C.3   1 <1>   0.1100 
 16 C        4.8490     7.2320    -0.0470 C.3   1 <1>   0.2000 
 17 C        5.9130     4.9910     0.4060 C.3   1 <1>  -0.1600 
 18 O        5.1150     8.5980    -0.1330 O.3   1 <1>  -0.5600 
 19 C        6.0710     6.5130     0.5410 C.3   1 <1>  -0.1600 
 20 C        4.8990     9.3230     1.0510 C.3   1 <1>   0.2640 
 21 C        5.1650    10.8170     0.8750 C.ar  1 <1>   0.1670 
 22 N        4.8760    11.5670     1.9310 N.ar  1 <1>  -0.6200 
 23 C        5.6750    11.3290    -0.3120 C.ar  1 <1>  -0.1500 
 24 C        5.1010    12.8650     1.7990 C.ar  1 <1>   0.1600 
 25 C        5.9040    12.6830    -0.4350 C.ar  1 <1>  -0.1500 
 26 C        5.6050    13.4650     0.6590 C.ar  1 <1>  -0.1500 
 27 H        2.9470     3.6850    -0.9490 H     1 <1>   0.3700 
 28 H        0.9710    -1.0520     1.5920 H     1 <1>   0.0800 
 29 H       -0.3250    -1.4500     0.4700 H     1 <1>   0.0800 
 30 H        3.2710     5.4890    -3.2820 H     1 <1>   0.0800 
 31 H        4.8470     4.7900    -3.5030 H     1 <1>   0.0800 
 32 H       -2.0040     0.1410     3.1560 H     1 <1>   0.0800 
 33 H       -0.6730    -0.9930     3.3460 H     1 <1>   0.0800 
 34 H       -1.9620    -1.3170     2.1750 H     1 <1>   0.0800 
 35 H        3.6420     7.2060    -1.8090 H     1 <1>   0.0800 
 36 H        5.3530     7.0050    -2.1210 H     1 <1>   0.0800 
 37 H        6.4200     4.8560    -1.6800 H     1 <1>   0.0800 
 38 H        5.4730     3.5170    -1.0840 H     1 <1>   0.0800 
 39 H        3.9770     7.0770     0.5660 H     1 <1>   0.0800 
 40 H        6.8210     4.5070     0.7190 H     1 <1>   0.0800 
 41 H        5.1200     4.6470     1.0460 H     1 <1>   0.0800 
 42 H        6.1910     6.7640     1.5790 H     1 <1>   0.0800 
 43 H        6.9520     6.8230     0.0060 H     1 <1>   0.0800 
 44 H        5.5500     8.9430     1.8170 H     1 <1>   0.0800 
 45 H        3.8760     9.1860     1.3520 H     1 <1>   0.0800 
 46 H        5.8930    10.6770    -1.1380 H     1 <1>   0.1500 
 47 H        4.8710    13.4850     2.6480 H     1 <1>   0.1500 
 48 H        6.2980    13.1060    -1.3420 H     1 <1>   0.1500 
 49 H        5.7600    14.5280     0.6310 H     1 <1>   0.1500 
@<TRIPOS>BOND
  1   1   2  1   
  2   1   3  1   
  3   2   4  2   
  4   2   5  1   
  5   3   6  2   
  6   3   7  1   
  7   4   6  1   
  8   5   8  am  
  9   5  27  1   
 10   7   9  1   
 11   7  28  1   
 12   7  29  1   
 13   8  10  2   
 14   8  11  1   
 15   9  12  1   
 16  11  13  1   
 17  11  30  1   
 18  11  31  1   
 19  12  32  1   
 20  12  33  1   
 21  12  34  1   
 22  13  14  1   
 23  13  15  1   
 24  14  16  1   
 25  14  35  1   
 26  14  36  1   
 27  15  17  1   
 28  15  37  1   
 29  15  38  1   
 30  16  18  1   
 31  16  19  1   
 32  16  39  1   
 33  17  19  1   
 34  17  40  1   
 35  17  41  1   
 36  18  20  1   
 37  19  42  1   
 38  19  43  1   
 39  20  21  1   
 40  20  44  1   
 41  20  45  1   
 42  21  22  ar  
 43  21  23  ar  
 44  22  24  ar  
 45  23  25  ar  
 46  23  46  1   
 47  24  26  ar  
 48  24  47  1   
 49  25  26  ar  
 50  25  48  1   
 51  26  49  1   
@<TRIPOS>SUBSTRUCTURE
  1 ****  13 GROUP 4 **** **** 0

# MOE 2024.06 (io_trps.svl 2023.06)
