@<TRIPOS>MOLECULE
NONAME
46 48 1 0 0 
SMALL
USER_CHARGES


@<TRIPOS>ATOM
  1 S        0.5040     0.4780    -0.2910 S.o2  1 <1>   1.3330 
  2 O        0.3390    -0.1220     1.0140 O.2   1 <1>  -0.6500 
  3 O        0.3110    -0.3300    -1.4740 O.2   1 <1>  -0.6500 
  4 N       -0.5410     1.8120    -0.3810 N.am  1 <1>  -0.8490 
  5 C        2.1290     1.2200    -0.3970 C.3   1 <1>  -0.0550 
  6 C       -0.6800     2.5300     0.8910 C.3   1 <1>   0.1160 
  7 C       -1.8640     1.4420    -0.8910 C.3   1 <1>   0.1160 
  8 C        3.2710     0.1830    -0.4100 C.3   1 <1>  -0.0800 
  9 C        4.6620     0.7600    -0.6230 C.3   1 <1>   0.2200 
 10 C        3.4220    -0.6060     0.8970 C.3   1 <1>   0.1200 
 11 N        4.8290     2.0210     0.1340 N.am  1 <1>  -0.7300 
 12 C        5.5220    -0.3250     0.0110 C.3   1 <1>   0.1200 
 13 O        4.7930    -0.7800     1.1090 O.3   1 <1>  -0.5600 
 14 C        4.7370     3.2880    -0.3610 C.2   1 <1>   0.7160 
 15 O        4.5410     3.4250    -1.5570 O.2   1 <1>  -0.5700 
 16 C        4.8310     4.4200     0.5500 C.2   1 <1>   0.2030 
 17 N        4.9020     4.3310     1.8710 N.2   1 <1>  -0.7070 
 18 C        4.8500     5.7670     0.1660 C.2   1 <1>  -0.1810 
 19 N        4.9710     5.5980     2.3150 N.pl3 1 <1>   0.3000 
 20 C        4.9300     6.4770     1.2990 C.2   1 <1>  -0.3320 
 21 C        4.7980     6.4130    -1.2110 C.3   1 <1>   0.3010 
 22 C        4.9750     7.9900     1.3030 C.3   1 <1>   0.0200 
 23 O        5.1740     7.7670    -1.1090 O.3   1 <1>  -0.5600 
 24 C        4.5440     8.4990    -0.0880 C.3   1 <1>   0.1200 
 25 H        2.1830     1.7990    -1.2990 H     1 <1>   0.0800 
 26 H        2.2610     1.8890     0.4290 H     1 <1>   0.0800 
 27 H       -1.2870     3.4090     0.7540 H     1 <1>   0.0800 
 28 H        0.2860     2.8400     1.2510 H     1 <1>   0.0800 
 29 H       -1.1400     1.8980     1.6330 H     1 <1>   0.0800 
 30 H       -2.4960     2.3110    -0.9550 H     1 <1>   0.0800 
 31 H       -2.3240     0.7130    -0.2450 H     1 <1>   0.0800 
 32 H       -1.7730     1.0200    -1.8780 H     1 <1>   0.0800 
 33 H        3.0800    -0.5250    -1.1980 H     1 <1>   0.0800 
 34 H        4.8970     0.9100    -1.6640 H     1 <1>   0.0800 
 35 H        2.9500    -1.5730     0.8400 H     1 <1>   0.0800 
 36 H        3.0300    -0.0640     1.7400 H     1 <1>   0.0800 
 37 H        4.9610     1.9300     1.1470 H     1 <1>   0.3700 
 38 H        6.4810     0.0380     0.3350 H     1 <1>   0.0800 
 39 H        5.6500    -1.1520    -0.6650 H     1 <1>   0.0800 
 40 H        5.0470     5.8330     3.3130 H     1 <1>   0.2700 
 41 H        3.8040     6.3610    -1.6200 H     1 <1>   0.0800 
 42 H        5.4840     5.9310    -1.8850 H     1 <1>   0.0800 
 43 H        5.9760     8.3260     1.5130 H     1 <1>   0.0800 
 44 H        4.3150     8.3900     2.0510 H     1 <1>   0.0800 
 45 H        4.8140     9.5340    -0.2090 H     1 <1>   0.0800 
 46 H        3.4790     8.4000    -0.2140 H     1 <1>   0.0800 
@<TRIPOS>BOND
  1   1   2  2   
  2   1   3  2   
  3   1   4  am  
  4   1   5  1   
  5   4   6  1   
  6   4   7  1   
  7   5   8  1   
  8   5  25  1   
  9   5  26  1   
 10   6  27  1   
 11   6  28  1   
 12   6  29  1   
 13   7  30  1   
 14   7  31  1   
 15   7  32  1   
 16   8   9  1   
 17   8  10  1   
 18   8  33  1   
 19   9  11  1   
 20   9  12  1   
 21   9  34  1   
 22  10  13  1   
 23  10  35  1   
 24  10  36  1   
 25  11  14  am  
 26  11  37  1   
 27  12  13  1   
 28  12  38  1   
 29  12  39  1   
 30  14  15  2   
 31  14  16  1   
 32  16  17  2   
 33  16  18  1   
 34  17  19  1   
 35  18  20  2   
 36  18  21  1   
 37  19  20  1   
 38  19  40  1   
 39  20  22  1   
 40  21  23  1   
 41  21  41  1   
 42  21  42  1   
 43  22  24  1   
 44  22  43  1   
 45  22  44  1   
 46  23  24  1   
 47  24  45  1   
 48  24  46  1   
@<TRIPOS>SUBSTRUCTURE
  1 ****  14 GROUP 4 **** **** 0

# MOE 2024.06 (io_trps.svl 2023.06)
