@<TRIPOS>MOLECULE
NONAME
52 54 1 0 0 
SMALL
USER_CHARGES


@<TRIPOS>ATOM
  1 S        1.2020     1.4530     1.2130 S.o2  1 <1>   1.3330 
  2 O       -0.1530     1.1630     1.6230 O.2   1 <1>  -0.6500 
  3 O        2.0100     2.3510     2.0090 O.2   1 <1>  -0.6500 
  4 N        2.0430    -0.0130     1.0610 N.am  1 <1>  -0.8490 
  5 C        1.1410     2.0690    -0.4680 C.3   1 <1>  -0.0550 
  6 C        3.4980     0.1490     1.0080 C.3   1 <1>   0.1160 
  7 C        1.6850    -0.9690     2.1130 C.3   1 <1>   0.1160 
  8 C        0.1960     3.2700    -0.6460 C.3   1 <1>  -0.0800 
  9 C        0.2170     3.7910    -2.0810 C.3   1 <1>   0.2000 
 10 C        0.5490     4.4860     0.2210 C.3   1 <1>   0.1400 
 11 O       -0.6830     3.0820    -2.8600 O.3   1 <1>  -0.6800 
 12 C       -0.1480     5.2660    -1.9800 C.3   1 <1>   0.1400 
 13 N        0.3810     5.6730    -0.6560 N.am  1 <1>  -0.6600 
 14 C        0.9370     6.9140    -0.4510 C.2   1 <1>   0.5440 
 15 O        0.6660     7.8070    -1.2290 O.2   1 <1>  -0.5700 
 16 C        1.8240     7.1960     0.6450 C.ar  1 <1>   0.0860 
 17 C        3.1000     6.6490     0.7710 C.ar  1 <1>   0.3100 
 18 C        1.4290     8.0670     1.6380 C.ar  1 <1>   0.1600 
 19 N        3.8540     6.9410     1.8240 N.ar  1 <1>  -0.6200 
 20 C        3.6550     5.7380    -0.2120 C.ar  1 <1>   0.0000 
 21 N        2.1730     8.3670     2.6780 N.ar  1 <1>  -0.6200 
 22 C        3.3540     7.7750     2.7110 C.ar  1 <1>   0.4770 
 23 C        3.6570     6.0270    -1.5780 C.ar  1 <1>  -0.1500 
 24 C        4.2050     4.5190     0.1850 C.ar  1 <1>  -0.1500 
 25 C        4.2210     8.1010     3.9020 C.3   1 <1>  -0.0970 
 26 C        4.1580     5.1310    -2.5030 C.ar  1 <1>  -0.1500 
 27 C        4.7170     3.6230    -0.7340 C.ar  1 <1>  -0.1500 
 28 C        4.6880     3.9240    -2.0840 C.ar  1 <1>  -0.1500 
 29 H        2.1290     2.3430    -0.7820 H     1 <1>   0.0800 
 30 H        0.8020     1.2790    -1.1110 H     1 <1>   0.0800 
 31 H        3.9700    -0.8030     0.8370 H     1 <1>   0.0800 
 32 H        3.8660     0.5620     1.9330 H     1 <1>   0.0800 
 33 H        3.7660     0.8090     0.2020 H     1 <1>   0.0800 
 34 H        2.2180    -1.8940     1.9750 H     1 <1>   0.0800 
 35 H        0.6290    -1.1820     2.0750 H     1 <1>   0.0800 
 36 H        1.9200    -0.5650     3.0840 H     1 <1>   0.0800 
 37 H       -0.8070     2.9750    -0.3840 H     1 <1>   0.0800 
 38 H        1.1970     3.6950    -2.5190 H     1 <1>   0.0800 
 39 H        1.5610     4.4230     0.5730 H     1 <1>   0.0800 
 40 H       -0.1100     4.5540     1.0700 H     1 <1>   0.0800 
 41 H       -1.5880     3.1600    -2.5000 H     1 <1>   0.4000 
 42 H       -1.2140     5.4080    -1.9900 H     1 <1>   0.0800 
 43 H        0.3120     5.8330    -2.7730 H     1 <1>   0.0800 
 44 H        0.4600     8.5310     1.5630 H     1 <1>   0.1500 
 45 H        3.2620     6.9680    -1.9240 H     1 <1>   0.1500 
 46 H        4.2290     4.2750     1.2350 H     1 <1>   0.1500 
 47 H        3.7070     7.8280     4.8040 H     1 <1>   0.0800 
 48 H        4.4260     9.1550     3.9180 H     1 <1>   0.0800 
 49 H        5.1510     7.5640     3.8520 H     1 <1>   0.0800 
 50 H        4.1420     5.3750    -3.5520 H     1 <1>   0.1500 
 51 H        5.1460     2.6950    -0.4000 H     1 <1>   0.1500 
 52 H        5.0850     3.2290    -2.8040 H     1 <1>   0.1500 
@<TRIPOS>BOND
  1   1   2  2   
  2   1   3  2   
  3   1   4  am  
  4   1   5  1   
  5   4   6  1   
  6   4   7  1   
  7   5   8  1   
  8   5  29  1   
  9   5  30  1   
 10   6  31  1   
 11   6  32  1   
 12   6  33  1   
 13   7  34  1   
 14   7  35  1   
 15   7  36  1   
 16   8   9  1   
 17   8  10  1   
 18   8  37  1   
 19   9  11  1   
 20   9  12  1   
 21   9  38  1   
 22  10  13  1   
 23  10  39  1   
 24  10  40  1   
 25  11  41  1   
 26  12  13  1   
 27  12  42  1   
 28  12  43  1   
 29  13  14  am  
 30  14  15  2   
 31  14  16  1   
 32  16  17  ar  
 33  16  18  ar  
 34  17  19  ar  
 35  17  20  1   
 36  18  21  ar  
 37  18  44  1   
 38  19  22  ar  
 39  20  23  ar  
 40  20  24  ar  
 41  21  22  ar  
 42  22  25  1   
 43  23  26  ar  
 44  23  45  1   
 45  24  27  ar  
 46  24  46  1   
 47  25  47  1   
 48  25  48  1   
 49  25  49  1   
 50  26  28  ar  
 51  26  50  1   
 52  27  28  ar  
 53  27  51  1   
 54  28  52  1   
@<TRIPOS>SUBSTRUCTURE
  1 ****  10 GROUP 4 **** **** 0

# MOE 2024.06 (io_trps.svl 2023.06)
