@<TRIPOS>MOLECULE
NONAME
60 63 1 0 0 
SMALL
USER_CHARGES


@<TRIPOS>ATOM
  1 O       -4.2510    -2.5110     3.3400 O.co2 1 <1>  -0.9000 
  2 C       -3.6520    -2.2130     2.2980 C.2   1 <1>   0.9060 
  3 O       -3.5220    -1.0400     1.9270 O.co2 1 <1>  -0.9000 
  4 C       -2.9660    -3.3160     1.5060 C.3   1 <1>   0.0140 
  5 O       -3.7910    -3.8770     0.4840 O.3   1 <1>  -0.3630 
  6 C       -3.3990    -4.9650    -0.2160 C.ar  1 <1>   0.0830 
  7 C       -4.3310    -5.5180    -1.0760 C.ar  1 <1>  -0.1500 
  8 C       -2.1390    -5.5430    -0.1080 C.ar  1 <1>  -0.1500 
  9 C       -4.0260    -6.6490    -1.8100 C.ar  1 <1>  -0.1500 
 10 C       -1.8320    -6.6760    -0.8400 C.ar  1 <1>  -0.1500 
 11 C       -2.7770    -7.2420    -1.6850 C.ar  1 <1>  -0.1440 
 12 C       -2.4580    -8.5130    -2.4430 C.3   1 <1>   0.4870 
 13 N       -3.2610    -9.6170    -1.8560 N.4   1 <1>  -0.9590 
 14 C       -3.0410    -9.7910    -0.3860 C.3   1 <1>   0.3430 
 15 C       -3.1790   -10.8930    -2.6080 C.3   1 <1>   0.3430 
 16 C       -3.7990   -11.0100     0.1480 C.3   1 <1>  -0.1600 
 17 C       -4.2960   -11.8460    -2.1610 C.3   1 <1>  -0.1600 
 18 C       -4.9120   -11.4880    -0.7940 C.3   1 <1>   0.4240 
 19 O       -5.7450   -10.3640    -0.9910 O.3   1 <1>  -0.5600 
 20 C       -5.6630   -12.6750    -0.1630 C.ar  1 <1>  -0.1430 
 21 C       -7.0800   -10.5980    -1.3400 C.3   1 <1>   0.1200 
 22 C       -7.0180   -12.6020     0.1240 C.ar  1 <1>  -0.1430 
 23 C       -4.9920   -13.8530     0.1410 C.ar  1 <1>  -0.1500 
 24 C       -7.7770   -11.3320    -0.1990 C.3   1 <1>  -0.0170 
 25 C       -7.6750   -13.6760     0.7020 C.ar  1 <1>  -0.1500 
 26 C       -5.6290   -14.9400     0.7130 C.ar  1 <1>   0.0830 
 27 C       -7.0020   -14.8570     1.0060 C.ar  1 <1>   0.0830 
 28 O       -4.7990   -16.0030     0.9300 O.3   1 <1>  -0.3630 
 29 O       -7.6560   -15.9110     1.5770 O.3   1 <1>  -0.3620 
 30 C       -5.2300   -17.2310     1.4730 C.3   1 <1>   0.0400 
 31 C       -9.0180   -15.8550     1.9420 C.3   1 <1>   0.0400 
 32 H       -2.7000    -4.0960     2.1930 H     1 <1>   0.0800 
 33 H       -2.0900    -2.9060     1.0460 H     1 <1>   0.0800 
 34 H       -5.2960    -5.0480    -1.1550 H     1 <1>   0.1500 
 35 H       -1.3960    -5.1180     0.5410 H     1 <1>   0.1500 
 36 H       -4.7760    -7.0530    -2.4680 H     1 <1>   0.1500 
 37 H       -0.8500    -7.1060    -0.7370 H     1 <1>   0.1500 
 38 H       -1.4060    -8.7340    -2.3650 H     1 <1>   0.0800 
 39 H       -2.7080    -8.3820    -3.4830 H     1 <1>   0.0800 
 40 H       -4.2560    -9.3290    -1.8980 H     1 <1>   0.4500 
 41 H       -3.3970    -8.9100     0.1260 H     1 <1>   0.0800 
 42 H       -1.9900    -9.8970    -0.1730 H     1 <1>   0.0800 
 43 H       -2.2210   -11.3530    -2.4250 H     1 <1>   0.0800 
 44 H       -3.2700   -10.7120    -3.6670 H     1 <1>   0.0800 
 45 H       -4.2200   -10.7760     1.1100 H     1 <1>   0.0800 
 46 H       -3.0930   -11.8040     0.3060 H     1 <1>   0.0800 
 47 H       -3.8730   -12.8320    -2.1210 H     1 <1>   0.0800 
 48 H       -5.0660   -11.8840    -2.9090 H     1 <1>   0.0800 
 49 H       -7.1140   -11.1810    -2.2440 H     1 <1>   0.0800 
 50 H       -7.5510    -9.6470    -1.5140 H     1 <1>   0.0800 
 51 H       -3.9430   -13.9570    -0.0620 H     1 <1>   0.1500 
 52 H       -8.7850   -11.5650    -0.4930 H     1 <1>   0.0800 
 53 H       -7.8170   -10.6980     0.6690 H     1 <1>   0.0800 
 54 H       -8.7220   -13.5710     0.9090 H     1 <1>   0.1500 
 55 H       -4.3850   -17.8930     1.5170 H     1 <1>   0.0800 
 56 H       -5.9890   -17.6470     0.8360 H     1 <1>   0.0800 
 57 H       -5.6110   -17.0590     2.4640 H     1 <1>   0.0800 
 58 H       -9.2810   -16.7960     2.3910 H     1 <1>   0.0800 
 59 H       -9.6110   -15.6940     1.0590 H     1 <1>   0.0800 
 60 H       -9.1570   -15.0610     2.6540 H     1 <1>   0.0800 
@<TRIPOS>BOND
  1   1   2  ar  
  2   2   3  ar  
  3   2   4  1   
  4   4   5  1   
  5   4  32  1   
  6   4  33  1   
  7   5   6  1   
  8   6   7  ar  
  9   6   8  ar  
 10   7   9  ar  
 11   7  34  1   
 12   8  10  ar  
 13   8  35  1   
 14   9  11  ar  
 15   9  36  1   
 16  10  11  ar  
 17  10  37  1   
 18  11  12  1   
 19  12  13  1   
 20  12  38  1   
 21  12  39  1   
 22  13  14  1   
 23  13  15  1   
 24  13  40  1   
 25  14  16  1   
 26  14  41  1   
 27  14  42  1   
 28  15  17  1   
 29  15  43  1   
 30  15  44  1   
 31  16  18  1   
 32  16  45  1   
 33  16  46  1   
 34  17  18  1   
 35  17  47  1   
 36  17  48  1   
 37  18  19  1   
 38  18  20  1   
 39  19  21  1   
 40  20  22  ar  
 41  20  23  ar  
 42  21  24  1   
 43  21  49  1   
 44  21  50  1   
 45  22  24  1   
 46  22  25  ar  
 47  23  26  ar  
 48  23  51  1   
 49  24  52  1   
 50  24  53  1   
 51  25  27  ar  
 52  25  54  1   
 53  26  27  ar  
 54  26  28  1   
 55  27  29  1   
 56  28  30  1   
 57  29  31  1   
 58  30  55  1   
 59  30  56  1   
 60  30  57  1   
 61  31  58  1   
 62  31  59  1   
 63  31  60  1   
@<TRIPOS>SUBSTRUCTURE
  1 ****  19 GROUP 4 **** **** 0

# MOE 2024.06 (io_trps.svl 2023.06)
