@<TRIPOS>MOLECULE
NONAME
48 51 1 0 0 
SMALL
USER_CHARGES


@<TRIPOS>ATOM
  1 O       -0.3030    -1.2240    -0.1260 O.2   1 <1>  -0.5700 
  2 C       -1.4370    -0.8740    -0.3450 C.2   1 <1>   0.5690 
  3 N       -1.8860     0.4010    -0.3860 N.am  1 <1>  -0.6600 
  4 C       -2.5570    -1.8420    -0.6070 C.3   1 <1>  -0.0990 
  5 C       -1.0220     1.5960    -0.2010 C.3   1 <1>   0.2200 
  6 C       -3.3300     0.4630    -0.6850 C.3   1 <1>   0.1400 
  7 C       -3.8170    -0.9710    -0.4330 C.3   1 <1>  -0.0800 
  8 C       -1.5060     2.4490     0.9720 C.3   1 <1>  -0.1600 
  9 C       -1.0920     2.5280    -1.4080 C.3   1 <1>  -0.1600 
 10 C       -4.3800    -1.0750     0.9920 C.3   1 <1>   0.2090 
 11 C       -2.3960     3.5580     0.3930 C.3   1 <1>  -0.1600 
 12 C       -2.2280     3.5160    -1.1300 C.3   1 <1>  -0.1600 
 13 N       -4.9260    -2.4400     1.2360 N.pl3 1 <1>  -0.8380 
 14 C       -6.0850    -2.8540     0.6130 C.ar  1 <1>   0.4100 
 15 C       -4.5410    -3.0380     2.5430 C.3   1 <1>   0.1290 
 16 N       -7.0220    -1.9620     0.4570 N.ar  1 <1>  -0.6200 
 17 C       -6.2480    -4.1940     0.1740 C.ar  1 <1>   0.0000 
 18 C       -8.1720    -2.3910    -0.0710 C.ar  1 <1>   0.4700 
 19 C       -7.5050    -4.5200    -0.3470 C.ar  1 <1>   0.3100 
 20 C       -5.2550    -5.1950     0.2030 C.ar  1 <1>  -0.1500 
 21 N       -8.4720    -3.5880    -0.4620 N.ar  1 <1>  -0.6200 
 22 C       -7.7550    -5.8330    -0.7700 C.ar  1 <1>  -0.1500 
 23 C       -5.5160    -6.4720    -0.2240 C.ar  1 <1>  -0.1500 
 24 C       -6.7840    -6.7980    -0.7100 C.ar  1 <1>  -0.1500 
 25 H       -2.5180    -2.6720     0.0740 H     1 <1>   0.0800 
 26 H       -2.4760    -2.1990    -1.6160 H     1 <1>   0.0800 
 27 H       -0.0080     1.2710    -0.0360 H     1 <1>   0.0800 
 28 H       -3.4670     0.7320    -1.7180 H     1 <1>   0.0800 
 29 H       -3.8340     1.1740    -0.0540 H     1 <1>   0.0800 
 30 H       -4.5870    -1.2310    -1.1380 H     1 <1>   0.0800 
 31 H       -0.6470     2.9050     1.4300 H     1 <1>   0.0800 
 32 H       -2.0120     1.8590     1.7150 H     1 <1>   0.0800 
 33 H       -1.2210     1.9900    -2.3300 H     1 <1>   0.0800 
 34 H       -0.1680     3.0760    -1.4590 H     1 <1>   0.0800 
 35 H       -5.1640    -0.3500     1.1330 H     1 <1>   0.0800 
 36 H       -3.6000    -0.8570     1.7030 H     1 <1>   0.0800 
 37 H       -2.0910     4.5150     0.7810 H     1 <1>   0.0800 
 38 H       -3.4260     3.3960     0.6580 H     1 <1>   0.0800 
 39 H       -3.1370     3.1640    -1.5850 H     1 <1>   0.0800 
 40 H       -2.0010     4.4900    -1.5290 H     1 <1>   0.0800 
 41 H       -3.5000    -3.3120     2.5260 H     1 <1>   0.0800 
 42 H       -5.1320    -3.9140     2.7450 H     1 <1>   0.0800 
 43 H       -4.7070    -2.3260     3.3330 H     1 <1>   0.0800 
 44 H       -8.9340    -1.6370    -0.1730 H     1 <1>   0.1500 
 45 H       -4.2750    -4.9390     0.5630 H     1 <1>   0.1500 
 46 H       -8.7360    -6.0580    -1.1480 H     1 <1>   0.1500 
 47 H       -4.7530    -7.2300    -0.1920 H     1 <1>   0.1500 
 48 H       -6.9840    -7.8040    -1.0380 H     1 <1>   0.1500 
@<TRIPOS>BOND
  1   1   2  2   
  2   2   3  am  
  3   2   4  1   
  4   3   5  1   
  5   3   6  1   
  6   4   7  1   
  7   4  25  1   
  8   4  26  1   
  9   5   8  1   
 10   5   9  1   
 11   5  27  1   
 12   6   7  1   
 13   6  28  1   
 14   6  29  1   
 15   7  10  1   
 16   7  30  1   
 17   8  11  1   
 18   8  31  1   
 19   8  32  1   
 20   9  12  1   
 21   9  33  1   
 22   9  34  1   
 23  10  13  1   
 24  10  35  1   
 25  10  36  1   
 26  11  12  1   
 27  11  37  1   
 28  11  38  1   
 29  12  39  1   
 30  12  40  1   
 31  13  14  1   
 32  13  15  1   
 33  14  16  ar  
 34  14  17  ar  
 35  15  41  1   
 36  15  42  1   
 37  15  43  1   
 38  16  18  ar  
 39  17  19  ar  
 40  17  20  ar  
 41  18  21  ar  
 42  18  44  1   
 43  19  21  ar  
 44  19  22  ar  
 45  20  23  ar  
 46  20  45  1   
 47  22  24  ar  
 48  22  46  1   
 49  23  24  ar  
 50  23  47  1   
 51  24  48  1   
@<TRIPOS>SUBSTRUCTURE
  1 ****   7 GROUP 4 **** **** 0

# MOE 2024.06 (io_trps.svl 2023.06)
