@<TRIPOS>MOLECULE
NONAME
47 48 1 0 0 
SMALL
USER_CHARGES


@<TRIPOS>ATOM
  1 F        1.6760     2.4480    -1.9870 F     1 <1>  -0.1500 
  2 C        2.2230     1.9950    -0.8800 C.2   1 <1>   0.1640 
  3 C        1.4960     2.0520     0.3480 C.2   1 <1>   0.4960 
  4 C        3.4870     1.5280    -0.9140 C.2   1 <1>  -0.0410 
  5 N        2.0590     1.7650     1.4760 N.2   1 <1>  -0.6610 
  6 N        0.1860     2.4310     0.4440 N.am  1 <1>  -0.4900 
  7 N        4.0500     1.1230     0.2840 N.am  1 <1>  -0.4690 
  8 C        3.3490     1.3190     1.4650 C.2   1 <1>   0.8410 
  9 C       -0.8660     2.0660    -0.3270 C.2   1 <1>   0.7800 
 10 C        5.4380     0.5860     0.4100 C.3   1 <1>   0.5000 
 11 O        3.8890     1.0900     2.5330 O.2   1 <1>  -0.5700 
 12 O       -0.7790     1.3130    -1.2730 O.2   1 <1>  -0.5700 
 13 O       -2.0420     2.5590     0.0430 O.3   1 <1>  -0.4300 
 14 O        6.0470     0.6380    -0.8560 O.3   1 <1>  -0.5600 
 15 C        5.4900    -0.8940     0.8470 C.3   1 <1>   0.2000 
 16 C       -3.2180     2.2310    -0.6640 C.3   1 <1>   0.1200 
 17 C        6.2710    -0.6460    -1.3670 C.3   1 <1>   0.2000 
 18 O        6.7020    -1.1730     1.4980 O.3   1 <1>  -0.6800 
 19 C        5.4670    -1.6180    -0.4870 C.3   1 <1>   0.2000 
 20 C       -4.3930     2.9520    -0.0040 C.3   1 <1>  -0.1600 
 21 C        5.9550    -0.6480    -2.8650 C.3   1 <1>  -0.2400 
 22 O        4.1490    -1.7420    -0.9310 O.3   1 <1>  -0.6800 
 23 C       -5.7100     2.6350    -0.7240 C.3   1 <1>  -0.1600 
 24 C       -6.8900     3.3580    -0.0630 C.3   1 <1>  -0.1600 
 25 C       -8.2030     3.0390    -0.7820 C.3   1 <1>  -0.2400 
 26 H        4.0590     1.4850    -1.8260 H     1 <1>   0.1500 
 27 H       -0.0850     2.7710     1.3600 H     1 <1>   0.3700 
 28 H        5.9980     1.2050     1.0920 H     1 <1>   0.0800 
 29 H        4.6890    -1.1860     1.5040 H     1 <1>   0.0800 
 30 H       -3.0990     2.5430    -1.6880 H     1 <1>   0.0800 
 31 H       -3.3510     1.1620    -0.6260 H     1 <1>   0.0800 
 32 H        7.3200    -0.8510    -1.2310 H     1 <1>   0.0800 
 33 H        7.4580    -0.7610     1.0350 H     1 <1>   0.4000 
 34 H        5.8950    -2.6040    -0.4370 H     1 <1>   0.0800 
 35 H       -4.4640     2.6420     1.0240 H     1 <1>   0.0800 
 36 H       -4.2160     4.0130    -0.0350 H     1 <1>   0.0800 
 37 H        4.9320    -0.3750    -3.0490 H     1 <1>   0.0800 
 38 H        6.1190    -1.6310    -3.2680 H     1 <1>   0.0800 
 39 H        6.6030     0.0410    -3.3760 H     1 <1>   0.0800 
 40 H        3.7500    -0.8570    -1.0490 H     1 <1>   0.4000 
 41 H       -5.6380     2.9380    -1.7540 H     1 <1>   0.0800 
 42 H       -5.8850     1.5720    -0.6990 H     1 <1>   0.0800 
 43 H       -6.9690     3.0570     0.9680 H     1 <1>   0.0800 
 44 H       -6.7230     4.4220    -0.0880 H     1 <1>   0.0800 
 45 H       -8.4030     1.9820    -0.7500 H     1 <1>   0.0800 
 46 H       -8.1560     3.3530    -1.8100 H     1 <1>   0.0800 
 47 H       -9.0180     3.5550    -0.3050 H     1 <1>   0.0800 
@<TRIPOS>BOND
  1   1   2  1   
  2   2   3  1   
  3   2   4  2   
  4   3   5  2   
  5   3   6  1   
  6   4   7  1   
  7   4  26  1   
  8   5   8  1   
  9   6   9  am  
 10   6  27  1   
 11   7   8  am  
 12   7  10  1   
 13   8  11  2   
 14   9  12  2   
 15   9  13  1   
 16  10  14  1   
 17  10  15  1   
 18  10  28  1   
 19  13  16  1   
 20  14  17  1   
 21  15  18  1   
 22  15  19  1   
 23  15  29  1   
 24  16  20  1   
 25  16  30  1   
 26  16  31  1   
 27  17  19  1   
 28  17  21  1   
 29  17  32  1   
 30  18  33  1   
 31  19  22  1   
 32  19  34  1   
 33  20  23  1   
 34  20  35  1   
 35  20  36  1   
 36  21  37  1   
 37  21  38  1   
 38  21  39  1   
 39  22  40  1   
 40  23  24  1   
 41  23  41  1   
 42  23  42  1   
 43  24  25  1   
 44  24  43  1   
 45  24  44  1   
 46  25  45  1   
 47  25  46  1   
 48  25  47  1   
@<TRIPOS>SUBSTRUCTURE
  1 ****   3 GROUP 4 **** **** 0

# MOE 2024.06 (io_trps.svl 2023.06)
