@<TRIPOS>MOLECULE
NONAME
55 58 1 0 0 
SMALL
USER_CHARGES


@<TRIPOS>ATOM
  1 O       -1.0450     0.3400     0.7170 O.2   1 <1>  -0.5700 
  2 C       -2.0340     1.0450     0.6140 C.2   1 <1>   0.6160 
  3 N       -3.2800     0.4980     0.8410 N.am  1 <1>  -0.6600 
  4 C       -1.8500     2.4380     0.3320 C.2   1 <1>   0.0290 
  5 C       -3.4920    -0.9740     1.0100 C.3   1 <1>   0.1400 
  6 C       -4.5460     1.2830     0.8860 C.3   1 <1>   0.1400 
  7 C       -2.2380     2.9380    -0.9480 C.2   1 <1>   0.6160 
  8 C       -1.3050     3.3080     1.2440 C.2   1 <1>  -0.1500 
  9 C       -4.4450    -1.4840    -0.0820 C.3   1 <1>   0.2000 
 10 C       -5.5150     0.7730    -0.1900 C.3   1 <1>  -0.1600 
 11 O       -2.7230     2.2670    -1.8470 O.2   1 <1>  -0.5700 
 12 N       -2.0640     4.2710    -1.2030 N.am  1 <1>  -0.5390 
 13 C       -1.1450     4.6780     0.9360 C.2   1 <1>  -0.1380 
 14 O       -4.6310    -2.8490     0.0740 O.3   1 <1>  -0.6800 
 15 C       -5.8110    -0.7510    -0.0600 C.3   1 <1>  -0.1060 
 16 C       -1.5240     5.1400    -0.2920 C.2   1 <1>  -0.0290 
 17 C       -0.5410     5.5910     1.9950 C.3   1 <1>  -0.0220 
 18 C       -6.5400    -1.0870     1.2580 C.2   1 <1>   0.9060 
 19 C       -6.6640    -1.2370    -1.2630 C.3   1 <1>  -0.0160 
 20 C       -1.3880     6.5950    -0.7170 C.3   1 <1>  -0.0220 
 21 C       -0.7940     7.0740     1.6930 C.3   1 <1>  -0.1600 
 22 O       -7.0060    -0.1930     1.9730 O.co2 1 <1>  -0.9000 
 23 O       -6.6350    -2.2780     1.5930 O.co2 1 <1>  -0.9000 
 24 C       -7.8610    -0.3540    -1.6110 C.ar  1 <1>  -0.1440 
 25 C       -0.4770     7.3920     0.2270 C.3   1 <1>  -0.1600 
 26 C       -8.9660    -0.3030    -0.7760 C.ar  1 <1>  -0.1500 
 27 C       -7.8550     0.4080    -2.7700 C.ar  1 <1>  -0.1500 
 28 C      -10.0510     0.4950    -1.0940 C.ar  1 <1>  -0.1500 
 29 C       -8.9410     1.2050    -3.0930 C.ar  1 <1>  -0.1500 
 30 C      -10.0400     1.2490    -2.2540 C.ar  1 <1>  -0.1500 
 31 H       -2.5590    -1.5030     0.9340 H     1 <1>   0.0800 
 32 H       -3.9160    -1.1590     1.9820 H     1 <1>   0.0800 
 33 H       -4.9890     1.1740     1.8620 H     1 <1>   0.0800 
 34 H       -4.3640     2.3300     0.7320 H     1 <1>   0.0800 
 35 H       -0.9920     2.9480     2.2090 H     1 <1>   0.1500 
 36 H       -3.9620    -1.3420    -1.0340 H     1 <1>   0.0800 
 37 H       -6.4330     1.3270    -0.0990 H     1 <1>   0.0800 
 38 H       -5.1000     0.9870    -1.1590 H     1 <1>   0.0800 
 39 H       -2.3610     4.5640    -2.1330 H     1 <1>   0.3700 
 40 H       -5.3850    -2.9430     0.7350 H     1 <1>   0.4000 
 41 H       -0.9530     5.3540     2.9610 H     1 <1>   0.0800 
 42 H        0.5200     5.4110     2.0350 H     1 <1>   0.0800 
 43 H       -6.0320    -1.3090    -2.1290 H     1 <1>   0.0800 
 44 H       -7.0220    -2.2330    -1.0630 H     1 <1>   0.0800 
 45 H       -0.9900     6.6480    -1.7150 H     1 <1>   0.0800 
 46 H       -2.3690     7.0380    -0.7250 H     1 <1>   0.0800 
 47 H       -1.8270     7.3060     1.8920 H     1 <1>   0.0800 
 48 H       -0.1870     7.6820     2.3410 H     1 <1>   0.0800 
 49 H        0.5500     7.1380     0.0250 H     1 <1>   0.0800 
 50 H       -0.6010     8.4450     0.0430 H     1 <1>   0.0800 
 51 H       -8.9800    -0.8820     0.1350 H     1 <1>   0.1500 
 52 H       -7.0030     0.3830    -3.4250 H     1 <1>   0.1500 
 53 H      -10.8960     0.5260    -0.4300 H     1 <1>   0.1500 
 54 H       -8.9270     1.7910    -3.9940 H     1 <1>   0.1500 
 55 H      -10.8830     1.8690    -2.4990 H     1 <1>   0.1500 
@<TRIPOS>BOND
  1   1   2  2   
  2   2   3  am  
  3   2   4  1   
  4   3   5  1   
  5   3   6  1   
  6   4   7  1   
  7   4   8  2   
  8   5   9  1   
  9   5  31  1   
 10   5  32  1   
 11   6  10  1   
 12   6  33  1   
 13   6  34  1   
 14   7  11  2   
 15   7  12  am  
 16   8  13  1   
 17   8  35  1   
 18   9  14  1   
 19   9  15  1   
 20   9  36  1   
 21  10  15  1   
 22  10  37  1   
 23  10  38  1   
 24  12  16  1   
 25  12  39  1   
 26  13  16  2   
 27  13  17  1   
 28  14  40  1   
 29  15  18  1   
 30  15  19  1   
 31  16  20  1   
 32  17  21  1   
 33  17  41  1   
 34  17  42  1   
 35  18  22  ar  
 36  18  23  ar  
 37  19  24  1   
 38  19  43  1   
 39  19  44  1   
 40  20  25  1   
 41  20  45  1   
 42  20  46  1   
 43  21  25  1   
 44  21  47  1   
 45  21  48  1   
 46  24  26  ar  
 47  24  27  ar  
 48  25  49  1   
 49  25  50  1   
 50  26  28  ar  
 51  26  51  1   
 52  27  29  ar  
 53  27  52  1   
 54  28  30  ar  
 55  28  53  1   
 56  29  30  ar  
 57  29  54  1   
 58  30  55  1   
@<TRIPOS>SUBSTRUCTURE
  1 ****   6 GROUP 4 **** **** 0

# MOE 2024.06 (io_trps.svl 2023.06)
