@<TRIPOS>MOLECULE
NONAME
45 47 1 0 0 
SMALL
USER_CHARGES


@<TRIPOS>ATOM
  1 F        2.7500    -1.6330     3.0590 F     1 <1>  -0.1900 
  2 C        2.5120    -1.8760     1.7980 C.ar  1 <1>   0.1900 
  3 C        2.4730    -3.1890     1.3700 C.ar  1 <1>  -0.1500 
  4 C        2.3070    -0.8110     0.9420 C.ar  1 <1>  -0.1500 
  5 C        2.2180    -3.4500     0.0310 C.ar  1 <1>  -0.1440 
  6 C        2.0540    -1.0780    -0.3930 C.ar  1 <1>  -0.1500 
  7 C        2.0110    -2.3900    -0.8420 C.ar  1 <1>  -0.1500 
  8 C        2.1600    -4.8810    -0.4760 C.3   1 <1>  -0.0160 
  9 C        0.7170    -5.3930    -0.4610 C.3   1 <1>  -0.0990 
 10 C        0.6490    -6.8300    -0.9240 C.2   1 <1>   0.5690 
 11 O        0.6030    -7.0670    -2.1050 O.2   1 <1>  -0.5700 
 12 N        0.6420    -7.8130     0.0060 N.am  1 <1>  -0.7300 
 13 C        0.6240    -9.2640    -0.2940 C.3   1 <1>   0.2200 
 14 C       -0.7440    -9.8700    -0.0100 C.3   1 <1>  -0.0800 
 15 C        1.4690    -9.9860     0.7450 C.3   1 <1>   0.1200 
 16 C       -0.6870   -10.1670     1.4940 C.3   1 <1>   0.1200 
 17 C       -1.9580    -9.0290    -0.4460 C.3   1 <1>  -0.0170 
 18 O        0.6550   -10.0620     1.8750 O.3   1 <1>  -0.5600 
 19 C       -3.2560    -9.7810    -0.1970 C.ar  1 <1>  -0.1430 
 20 C       -3.7180   -10.7390    -1.0760 C.ar  1 <1>  -0.1500 
 21 C       -4.0380    -9.5480     0.9160 C.ar  1 <1>  -0.1500 
 22 C       -4.9030   -11.4040    -0.8040 C.ar  1 <1>   0.1600 
 23 C       -5.2080   -10.2690     1.0940 C.ar  1 <1>   0.1600 
 24 N       -5.6570   -11.1930     0.2620 N.ar  1 <1>  -0.6200 
 25 H        2.6390    -3.9820     2.0760 H     1 <1>   0.1500 
 26 H        2.3460     0.1960     1.3140 H     1 <1>   0.1500 
 27 H        1.8910    -0.2670    -1.0830 H     1 <1>   0.1500 
 28 H        1.8120    -2.5830    -1.8820 H     1 <1>   0.1500 
 29 H        2.5490    -4.9280    -1.4790 H     1 <1>   0.0800 
 30 H        2.7770    -5.5120     0.1410 H     1 <1>   0.0800 
 31 H        0.1150    -4.7920    -1.1180 H     1 <1>   0.0800 
 32 H        0.3100    -5.3130     0.5300 H     1 <1>   0.0800 
 33 H        0.6590    -7.6000     1.0060 H     1 <1>   0.3700 
 34 H        0.9610    -9.4500    -1.3000 H     1 <1>   0.0800 
 35 H       -0.7940   -10.8160    -0.5200 H     1 <1>   0.0800 
 36 H        2.3780    -9.4630     0.9830 H     1 <1>   0.0800 
 37 H        1.6920   -10.9900     0.4280 H     1 <1>   0.0800 
 38 H       -1.0380   -11.1600     1.7170 H     1 <1>   0.0800 
 39 H       -1.2450    -9.4460     2.0660 H     1 <1>   0.0800 
 40 H       -1.8740    -8.7990    -1.4950 H     1 <1>   0.0800 
 41 H       -1.9810    -8.0950     0.0860 H     1 <1>   0.0800 
 42 H       -3.1690   -10.9750    -1.9690 H     1 <1>   0.1500 
 43 H       -3.7530    -8.8130     1.6470 H     1 <1>   0.1500 
 44 H       -5.2470   -12.1490    -1.5010 H     1 <1>   0.1500 
 45 H       -5.8050   -10.0740     1.9690 H     1 <1>   0.1500 
@<TRIPOS>BOND
  1   1   2  1   
  2   2   3  ar  
  3   2   4  ar  
  4   3   5  ar  
  5   3  25  1   
  6   4   6  ar  
  7   4  26  1   
  8   5   7  ar  
  9   5   8  1   
 10   6   7  ar  
 11   6  27  1   
 12   7  28  1   
 13   8   9  1   
 14   8  29  1   
 15   8  30  1   
 16   9  10  1   
 17   9  31  1   
 18   9  32  1   
 19  10  11  2   
 20  10  12  am  
 21  12  13  1   
 22  12  33  1   
 23  13  14  1   
 24  13  15  1   
 25  13  34  1   
 26  14  16  1   
 27  14  17  1   
 28  14  35  1   
 29  15  18  1   
 30  15  36  1   
 31  15  37  1   
 32  16  18  1   
 33  16  38  1   
 34  16  39  1   
 35  17  19  1   
 36  17  40  1   
 37  17  41  1   
 38  19  20  ar  
 39  19  21  ar  
 40  20  22  ar  
 41  20  42  1   
 42  21  23  ar  
 43  21  43  1   
 44  22  24  ar  
 45  22  44  1   
 46  23  24  ar  
 47  23  45  1   
@<TRIPOS>SUBSTRUCTURE
  1 ****  12 GROUP 4 **** **** 0

# MOE 2024.06 (io_trps.svl 2023.06)
