@<TRIPOS>MOLECULE
NONAME
46 48 1 0 0 
SMALL
USER_CHARGES


@<TRIPOS>ATOM
  1 O        1.3370     1.4320    -1.4940 O.3   1 <1>  -0.0190 
  2 N        2.1440     0.4240    -1.3550 N.2   1 <1>  -0.4100 
  3 C        0.7800     1.7680    -0.3610 C.2   1 <1>  -0.0400 
  4 C        2.0890     0.0870    -0.1160 C.2   1 <1>   0.1080 
  5 C        1.2240     0.9260     0.5830 C.2   1 <1>  -0.1500 
  6 C       -0.1600     2.9570    -0.3070 C.3   1 <1>   0.0200 
  7 C        2.8620    -1.0640     0.4880 C.3   1 <1>  -0.0590 
  8 C        0.4500     4.1540    -1.0610 C.3   1 <1>  -0.0800 
  9 C       -0.2720     5.4920    -0.9070 C.3   1 <1>   0.2000 
 10 C        1.8970     4.4480    -0.6460 C.3   1 <1>   0.3430 
 11 O       -0.5590     5.7140     0.4460 O.3   1 <1>  -0.5600 
 12 C        0.8170     6.4800    -1.3230 C.3   1 <1>   0.3430 
 13 N        2.0940     5.9260    -0.7620 N.4   1 <1>  -0.9590 
 14 C       -1.9200     5.7410     0.7640 C.3   1 <1>   0.0400 
 15 C        2.3950     6.5140     0.5740 C.3   1 <1>   0.5240 
 16 C        2.6150     7.9980     0.4130 C.2   1 <1>  -0.1810 
 17 C        3.6500     8.6700    -0.1180 C.2   1 <1>  -0.0400 
 18 C        1.7350     9.0090     0.8000 C.2   1 <1>   0.1080 
 19 O        3.3690     9.9420    -0.0580 O.3   1 <1>  -0.0190 
 20 C        4.9750     8.2450    -0.7200 C.3   1 <1>  -0.0600 
 21 N        2.2110    10.1580     0.4920 N.2   1 <1>  -0.4100 
 22 C        0.3980     8.8350     1.4940 C.3   1 <1>  -0.0590 
 23 H        0.9970     0.8720     1.6330 H     1 <1>   0.1500 
 24 H       -1.0990     2.6840    -0.7580 H     1 <1>   0.0800 
 25 H       -0.3420     3.1990     0.7250 H     1 <1>   0.0800 
 26 H        3.4810    -0.7110     1.2920 H     1 <1>   0.0800 
 27 H        3.4870    -1.5190    -0.2590 H     1 <1>   0.0800 
 28 H        2.1790    -1.8040     0.8650 H     1 <1>   0.0800 
 29 H        0.4680     3.9070    -2.1090 H     1 <1>   0.0800 
 30 H       -1.1610     5.5800    -1.5110 H     1 <1>   0.0800 
 31 H        2.5830     3.9070    -1.2800 H     1 <1>   0.0800 
 32 H        2.0470     4.1310     0.3730 H     1 <1>   0.0800 
 33 H        0.6030     7.4750    -0.9700 H     1 <1>   0.0800 
 34 H        0.8780     6.4990    -2.3980 H     1 <1>   0.0800 
 35 H        2.8730     6.1580    -1.3900 H     1 <1>   0.4500 
 36 H       -2.0170     5.8810     1.8270 H     1 <1>   0.0800 
 37 H       -2.3770     4.8070     0.4830 H     1 <1>   0.0800 
 38 H       -2.3920     6.5600     0.2500 H     1 <1>   0.0800 
 39 H        1.5780     6.3340     1.2540 H     1 <1>   0.0800 
 40 H        3.2860     6.0650     0.9820 H     1 <1>   0.0800 
 41 H        5.0960     7.1790    -0.6800 H     1 <1>   0.0800 
 42 H        5.7810     8.7040    -0.1730 H     1 <1>   0.0800 
 43 H        5.0320     8.5700    -1.7440 H     1 <1>   0.0800 
 44 H        0.4480     8.0540     2.2290 H     1 <1>   0.0800 
 45 H       -0.3650     8.6020     0.7760 H     1 <1>   0.0800 
 46 H        0.1290     9.7510     1.9910 H     1 <1>   0.0800 
@<TRIPOS>BOND
  1   1   2  1   
  2   1   3  1   
  3   2   4  2   
  4   3   5  2   
  5   3   6  1   
  6   4   5  1   
  7   4   7  1   
  8   5  23  1   
  9   6   8  1   
 10   6  24  1   
 11   6  25  1   
 12   7  26  1   
 13   7  27  1   
 14   7  28  1   
 15   8   9  1   
 16   8  10  1   
 17   8  29  1   
 18   9  11  1   
 19   9  12  1   
 20   9  30  1   
 21  10  13  1   
 22  10  31  1   
 23  10  32  1   
 24  11  14  1   
 25  12  13  1   
 26  12  33  1   
 27  12  34  1   
 28  13  15  1   
 29  13  35  1   
 30  14  36  1   
 31  14  37  1   
 32  14  38  1   
 33  15  16  1   
 34  15  39  1   
 35  15  40  1   
 36  16  17  2   
 37  16  18  1   
 38  17  19  1   
 39  17  20  1   
 40  18  21  2   
 41  18  22  1   
 42  19  21  1   
 43  20  41  1   
 44  20  42  1   
 45  20  43  1   
 46  22  44  1   
 47  22  45  1   
 48  22  46  1   
@<TRIPOS>SUBSTRUCTURE
  1 ****  10 GROUP 4 **** **** 0

# MOE 2024.06 (io_trps.svl 2023.06)
