@<TRIPOS>MOLECULE
NONAME
51 54 1 0 0 
SMALL
USER_CHARGES


@<TRIPOS>ATOM
  1 O        0.5540     1.6010    -0.4280 O.2   1 <1>  -0.5700 
  2 C        0.0750     2.6780    -0.7010 C.2   1 <1>   0.5690 
  3 N       -0.9100     3.2790     0.0380 N.am  1 <1>  -0.5090 
  4 C        0.5980     3.4100    -1.9300 C.3   1 <1>   0.1810 
  5 C       -1.4610     4.6170    -0.3590 C.3   1 <1>   0.3640 
  6 C       -1.2830     2.7900     1.3890 C.3   1 <1>   0.0490 
  7 O        0.6390     4.7930    -1.7020 O.3   1 <1>  -0.5600 
  8 C       -2.8890     4.4630    -0.8850 C.ar  1 <1>  -0.1440 
  9 C       -0.6180     5.3880    -1.4180 C.3   1 <1>   0.2610 
 10 C       -1.7920     1.3900     1.5310 C.3   1 <1>  -0.2000 
 11 C       -2.7170     2.5420     1.7500 C.3   1 <1>  -0.2000 
 12 C       -3.2600     3.3870    -1.6820 C.ar  1 <1>   0.1600 
 13 C       -3.8440     5.4140    -0.5810 C.ar  1 <1>  -0.1500 
 14 C       -0.4320     6.8420    -0.9660 C.2   1 <1>   0.5690 
 15 N       -4.4660     3.1990    -2.1930 N.ar  1 <1>  -0.6200 
 16 C       -5.1070     5.2300    -1.0990 C.ar  1 <1>  -0.1500 
 17 O       -1.3990     7.4930    -0.6470 O.2   1 <1>  -0.5700 
 18 N        0.8110     7.3810    -0.9220 N.am  1 <1>  -0.7300 
 19 C       -5.3610     4.1230    -1.8890 C.ar  1 <1>   0.1600 
 20 C        1.1210     8.7560    -0.5210 C.3   1 <1>   0.2010 
 21 C        2.6250     9.0960    -0.5640 C.2   1 <1>   0.5690 
 22 O        3.4300     8.2500    -0.9520 O.2   1 <1>  -0.5700 
 23 N        3.0450    10.3370    -0.1670 N.am  1 <1>  -0.6600 
 24 C        2.1900    11.4450     0.3140 C.3   1 <1>   0.1400 
 25 C        4.4720    10.7270    -0.1670 C.3   1 <1>   0.1400 
 26 C        3.1220    12.6500     0.3870 C.3   1 <1>  -0.1600 
 27 C        4.5130    12.0530     0.5830 C.3   1 <1>  -0.1600 
 28 H       -0.0280     3.2110    -2.7810 H     1 <1>   0.0800 
 29 H        1.5990     3.0820    -2.1430 H     1 <1>   0.0800 
 30 H       -1.5030     5.2150     0.5360 H     1 <1>   0.0800 
 31 H       -0.6170     3.1570     2.1530 H     1 <1>   0.1000 
 32 H       -1.1610     5.4170    -2.3450 H     1 <1>   0.0800 
 33 H       -1.9020     0.7920     0.6430 H     1 <1>   0.1000 
 34 H       -1.4760     0.8120     2.3810 H     1 <1>   0.1000 
 35 H       -3.0410     2.7400     2.7560 H     1 <1>   0.1000 
 36 H       -3.5090     2.6720     1.0340 H     1 <1>   0.1000 
 37 H       -2.5320     2.6300    -1.9170 H     1 <1>   0.1500 
 38 H       -3.6220     6.2740     0.0310 H     1 <1>   0.1500 
 39 H       -5.8900     5.9390    -0.8970 H     1 <1>   0.1500 
 40 H        1.5990     6.8030    -1.1990 H     1 <1>   0.3700 
 41 H       -6.3520     3.9900    -2.2900 H     1 <1>   0.1500 
 42 H        0.5970     9.4480    -1.1810 H     1 <1>   0.0800 
 43 H        0.7630     8.9220     0.4950 H     1 <1>   0.0800 
 44 H        1.3690    11.6280    -0.3590 H     1 <1>   0.0800 
 45 H        1.8160    11.2040     1.2950 H     1 <1>   0.0800 
 46 H        5.0770     9.9760     0.3130 H     1 <1>   0.0800 
 47 H        4.7990    10.8550    -1.1850 H     1 <1>   0.0800 
 48 H        3.0820    13.1790    -0.5490 H     1 <1>   0.0800 
 49 H        2.8470    13.3220     1.1810 H     1 <1>   0.0800 
 50 H        4.6830    11.8560     1.6270 H     1 <1>   0.0800 
 51 H        5.2930    12.6960     0.2160 H     1 <1>   0.0800 
@<TRIPOS>BOND
  1   1   2  2   
  2   2   3  am  
  3   2   4  1   
  4   3   5  1   
  5   3   6  1   
  6   4   7  1   
  7   4  28  1   
  8   4  29  1   
  9   5   8  1   
 10   5   9  1   
 11   5  30  1   
 12   6  10  1   
 13   6  11  1   
 14   6  31  1   
 15   7   9  1   
 16   8  12  ar  
 17   8  13  ar  
 18   9  14  1   
 19   9  32  1   
 20  10  11  1   
 21  10  33  1   
 22  10  34  1   
 23  11  35  1   
 24  11  36  1   
 25  12  15  ar  
 26  12  37  1   
 27  13  16  ar  
 28  13  38  1   
 29  14  17  2   
 30  14  18  am  
 31  15  19  ar  
 32  16  19  ar  
 33  16  39  1   
 34  18  20  1   
 35  18  40  1   
 36  19  41  1   
 37  20  21  1   
 38  20  42  1   
 39  20  43  1   
 40  21  22  2   
 41  21  23  am  
 42  23  24  1   
 43  23  25  1   
 44  24  26  1   
 45  24  44  1   
 46  24  45  1   
 47  25  27  1   
 48  25  46  1   
 49  25  47  1   
 50  26  27  1   
 51  26  48  1   
 52  26  49  1   
 53  27  50  1   
 54  27  51  1   
@<TRIPOS>SUBSTRUCTURE
  1 ****  14 GROUP 4 **** **** 0

# MOE 2024.06 (io_trps.svl 2023.06)
