@<TRIPOS>MOLECULE
NONAME
42 44 1 0 0 
SMALL
USER_CHARGES


@<TRIPOS>ATOM
  1 O       -2.1520     0.7790    -2.0880 O.2   1 <1>  -0.5700 
  2 C       -2.1260     1.0320    -0.8950 C.2   1 <1>   0.7160 
  3 N       -2.2280    -0.0010    -0.0100 N.am  1 <1>  -0.7300 
  4 C       -2.0050     2.3890    -0.3880 C.2   1 <1>   0.2030 
  5 C       -2.4540    -1.4230    -0.3420 C.3   1 <1>   0.2200 
  6 N       -2.0280     2.7310     0.8900 N.2   1 <1>  -0.7070 
  7 C       -1.8510     3.5270    -1.1870 C.2   1 <1>  -0.1500 
  8 C       -3.9160    -1.7600    -0.1070 C.3   1 <1>  -0.0800 
  9 C       -1.7410    -2.3210     0.6700 C.3   1 <1>   0.1200 
 10 N       -1.8890     4.0620     0.9070 N.pl3 1 <1>   0.3140 
 11 C       -1.7810     4.5710    -0.3390 C.2   1 <1>  -0.3320 
 12 C       -3.9190    -2.0770     1.3890 C.3   1 <1>   0.1200 
 13 C       -4.3630    -2.9630    -0.9580 C.3   1 <1>  -0.0160 
 14 O       -2.6650    -2.6180     1.6790 O.3   1 <1>  -0.5600 
 15 C       -1.8650     4.8130     2.1690 C.3   1 <1>   0.0160 
 16 C       -1.6130     6.0440    -0.6690 C.3   1 <1>  -0.0600 
 17 C       -5.8340    -3.2790    -0.7380 C.ar  1 <1>  -0.1430 
 18 C       -6.8320    -2.4960    -1.2790 C.ar  1 <1>  -0.1500 
 19 C       -6.2470    -4.3610     0.0140 C.ar  1 <1>  -0.1500 
 20 C       -8.1580    -2.8190    -1.0450 C.ar  1 <1>   0.1600 
 21 C       -7.6010    -4.5960     0.1870 C.ar  1 <1>   0.1600 
 22 N       -8.5670    -3.8500    -0.3240 N.ar  1 <1>  -0.6200 
 23 H       -2.2390     0.2600     0.9810 H     1 <1>   0.3700 
 24 H       -2.1320    -1.6210    -1.3510 H     1 <1>   0.0800 
 25 H       -1.8050     3.5180    -2.2620 H     1 <1>   0.1500 
 26 H       -4.5520    -0.9210    -0.3260 H     1 <1>   0.0800 
 27 H       -0.8770    -1.8470     1.1020 H     1 <1>   0.0800 
 28 H       -1.4550    -3.2510     0.2130 H     1 <1>   0.0800 
 29 H       -4.6830    -2.7750     1.6780 H     1 <1>   0.0800 
 30 H       -4.0230    -1.1740     1.9660 H     1 <1>   0.0800 
 31 H       -3.7670    -3.8280    -0.7240 H     1 <1>   0.0800 
 32 H       -4.2130    -2.7370    -2.0000 H     1 <1>   0.0800 
 33 H       -2.6770     5.5150     2.1770 H     1 <1>   0.0800 
 34 H       -0.9290     5.3310     2.2530 H     1 <1>   0.0800 
 35 H       -1.9730     4.1280     2.9890 H     1 <1>   0.0800 
 36 H       -1.5510     6.1790    -1.7350 H     1 <1>   0.0800 
 37 H       -0.7110     6.4260    -0.2250 H     1 <1>   0.0800 
 38 H       -2.4520     6.6070    -0.3020 H     1 <1>   0.0800 
 39 H       -6.5920    -1.6370    -1.8790 H     1 <1>   0.1500 
 40 H       -5.5300    -5.0200     0.4700 H     1 <1>   0.1500 
 41 H       -8.9240    -2.1950    -1.4750 H     1 <1>   0.1500 
 42 H       -7.9050    -5.4440     0.7770 H     1 <1>   0.1500 
@<TRIPOS>BOND
  1   1   2  2   
  2   2   3  am  
  3   2   4  1   
  4   3   5  1   
  5   3  23  1   
  6   4   6  2   
  7   4   7  1   
  8   5   8  1   
  9   5   9  1   
 10   5  24  1   
 11   6  10  1   
 12   7  11  2   
 13   7  25  1   
 14   8  12  1   
 15   8  13  1   
 16   8  26  1   
 17   9  14  1   
 18   9  27  1   
 19   9  28  1   
 20  10  11  1   
 21  10  15  1   
 22  11  16  1   
 23  12  14  1   
 24  12  29  1   
 25  12  30  1   
 26  13  17  1   
 27  13  31  1   
 28  13  32  1   
 29  15  33  1   
 30  15  34  1   
 31  15  35  1   
 32  16  36  1   
 33  16  37  1   
 34  16  38  1   
 35  17  18  ar  
 36  17  19  ar  
 37  18  20  ar  
 38  18  39  1   
 39  19  21  ar  
 40  19  40  1   
 41  20  22  ar  
 42  20  41  1   
 43  21  22  ar  
 44  21  42  1   
@<TRIPOS>SUBSTRUCTURE
  1 ****   3 GROUP 4 **** **** 0

# MOE 2024.06 (io_trps.svl 2023.06)
