@<TRIPOS>MOLECULE
NONAME
60 64 1 0 0 
SMALL
USER_CHARGES


@<TRIPOS>ATOM
  1 O        1.9260     0.1740     2.1540 O.3   1 <1>  -0.6800 
  2 C        1.5320    -0.0540     0.8370 C.3   1 <1>   0.2000 
  3 C        2.0110    -1.4320     0.3800 C.3   1 <1>  -0.0800 
  4 C        2.3410     0.8730    -0.0740 C.3   1 <1>   0.3430 
  5 C        3.4950    -1.2290     0.0500 C.3   1 <1>   0.3430 
  6 C        1.7550    -2.6080     1.3470 C.3   1 <1>  -0.0160 
  7 N        3.6990     0.2370    -0.1880 N.4   1 <1>  -0.9590 
  8 C        2.4570    -3.8660     0.8470 C.ar  1 <1>  -0.1430 
  9 C        4.6510     0.7970     0.8210 C.3   1 <1>   0.4860 
 10 C        2.0020    -4.5960    -0.2780 C.ar  1 <1>   0.0000 
 11 C        3.5820    -4.3150     1.4770 C.ar  1 <1>  -0.1500 
 12 C        4.8180     2.2810     0.6000 C.ar  1 <1>  -0.1430 
 13 C        2.7900    -5.6900    -0.7130 C.ar  1 <1>   0.3100 
 14 C        0.8130    -4.3130    -0.9910 C.ar  1 <1>  -0.1500 
 15 C        4.2710    -5.4290     0.9830 C.ar  1 <1>   0.1600 
 16 C        4.2200     3.1940     1.4360 C.ar  1 <1>   0.1600 
 17 C        5.5600     2.7870    -0.4400 C.ar  1 <1>   0.1600 
 18 N        3.9190    -6.0850    -0.0760 N.ar  1 <1>  -0.6200 
 19 C        2.3930    -6.4050    -1.8540 C.ar  1 <1>  -0.1500 
 20 C        0.4510    -5.0350    -2.0960 C.ar  1 <1>  -0.1500 
 21 N        4.3170     4.4820     1.2400 N.ar  1 <1>  -0.6200 
 22 N        5.6710     4.0700    -0.6540 N.ar  1 <1>  -0.6200 
 23 C        1.2520    -6.0890    -2.5390 C.ar  1 <1>  -0.1500 
 24 C        5.0410     4.8840     0.1950 C.ar  1 <1>   0.7200 
 25 N        5.1430     6.2410    -0.0280 N.pl3 1 <1>  -0.8380 
 26 C        4.3680     7.2530     0.7490 C.3   1 <1>   0.2090 
 27 C        6.1490     6.8360    -0.9560 C.3   1 <1>   0.2090 
 28 C        3.6610     8.2130    -0.2140 C.3   1 <1>  -0.1600 
 29 C        5.4490     7.7850    -1.9340 C.3   1 <1>  -0.1600 
 30 C        4.6420     8.8640    -1.1980 C.3   1 <1>  -0.1600 
 31 H        1.2500    -0.1550     2.7860 H     1 <1>   0.4000 
 32 H        0.4690     0.0990     0.7490 H     1 <1>   0.0800 
 33 H        1.5200    -1.6510    -0.5510 H     1 <1>   0.0800 
 34 H        2.3750     1.8750     0.3190 H     1 <1>   0.0800 
 35 H        1.8760     0.8980    -1.0450 H     1 <1>   0.0800 
 36 H        3.7690    -1.8110    -0.8170 H     1 <1>   0.0800 
 37 H        4.0930    -1.5550     0.8860 H     1 <1>   0.0800 
 38 H        0.7000    -2.7910     1.4510 H     1 <1>   0.0800 
 39 H        2.1300    -2.3720     2.3280 H     1 <1>   0.0800 
 40 H        4.0750     0.4080    -1.1300 H     1 <1>   0.4500 
 41 H        4.2740     0.6220     1.8160 H     1 <1>   0.0800 
 42 H        5.6100     0.3120     0.7330 H     1 <1>   0.0800 
 43 H        3.9750    -3.8380     2.3570 H     1 <1>   0.1500 
 44 H        0.1660    -3.5250    -0.6610 H     1 <1>   0.1500 
 45 H        5.1510    -5.7580     1.5100 H     1 <1>   0.1500 
 46 H        3.6390     2.8680     2.2850 H     1 <1>   0.1500 
 47 H        6.0760     2.1330    -1.1230 H     1 <1>   0.1500 
 48 H        3.0180    -7.2190    -2.1700 H     1 <1>   0.1500 
 49 H       -0.4550    -4.8100    -2.6350 H     1 <1>   0.1500 
 50 H        0.9590    -6.6470    -3.4120 H     1 <1>   0.1500 
 51 H        3.6290     6.7890     1.3790 H     1 <1>   0.0800 
 52 H        5.0450     7.8010     1.3810 H     1 <1>   0.0800 
 53 H        6.8740     7.3820    -0.3770 H     1 <1>   0.0800 
 54 H        6.6760     6.0820    -1.5130 H     1 <1>   0.0800 
 55 H        2.9150     7.6610    -0.7580 H     1 <1>   0.0800 
 56 H        3.1570     8.9750     0.3530 H     1 <1>   0.0800 
 57 H        6.1850     8.2500    -2.5640 H     1 <1>   0.0800 
 58 H        4.7950     7.2060    -2.5620 H     1 <1>   0.0800 
 59 H        5.3150     9.5080    -0.6590 H     1 <1>   0.0800 
 60 H        4.1010     9.4640    -1.9100 H     1 <1>   0.0800 
@<TRIPOS>BOND
  1   1   2  1   
  2   1  31  1   
  3   2   3  1   
  4   2   4  1   
  5   2  32  1   
  6   3   5  1   
  7   3   6  1   
  8   3  33  1   
  9   4   7  1   
 10   4  34  1   
 11   4  35  1   
 12   5   7  1   
 13   5  36  1   
 14   5  37  1   
 15   6   8  1   
 16   6  38  1   
 17   6  39  1   
 18   7   9  1   
 19   7  40  1   
 20   8  10  ar  
 21   8  11  ar  
 22   9  12  1   
 23   9  41  1   
 24   9  42  1   
 25  10  13  ar  
 26  10  14  ar  
 27  11  15  ar  
 28  11  43  1   
 29  12  16  ar  
 30  12  17  ar  
 31  13  18  ar  
 32  13  19  ar  
 33  14  20  ar  
 34  14  44  1   
 35  15  18  ar  
 36  15  45  1   
 37  16  21  ar  
 38  16  46  1   
 39  17  22  ar  
 40  17  47  1   
 41  19  23  ar  
 42  19  48  1   
 43  20  23  ar  
 44  20  49  1   
 45  21  24  ar  
 46  22  24  ar  
 47  23  50  1   
 48  24  25  1   
 49  25  26  1   
 50  25  27  1   
 51  26  28  1   
 52  26  51  1   
 53  26  52  1   
 54  27  29  1   
 55  27  53  1   
 56  27  54  1   
 57  28  30  1   
 58  28  55  1   
 59  28  56  1   
 60  29  30  1   
 61  29  57  1   
 62  29  58  1   
 63  30  59  1   
 64  30  60  1   
@<TRIPOS>SUBSTRUCTURE
  1 ****   7 GROUP 4 **** **** 0

# MOE 2024.06 (io_trps.svl 2023.06)
