@<TRIPOS>MOLECULE
NONAME
47 50 1 0 0 
SMALL
USER_CHARGES


@<TRIPOS>ATOM
  1 O        1.2010    -0.6530     1.8160 O.co2 1 <1>  -0.9000 
  2 C        1.1140     0.2580     0.9760 C.2   1 <1>   0.9060 
  3 O        0.2740     1.1500     1.0740 O.co2 1 <1>  -0.9000 
  4 C        2.1100     0.2610    -0.1970 C.3   1 <1>  -0.1060 
  5 C        3.4940    -0.1380     0.3610 C.3   1 <1>   0.4230 
  6 C        2.2510     1.6850    -0.8110 C.3   1 <1>  -0.1600 
  7 C        1.6320    -0.7400    -1.2900 C.3   1 <1>  -0.1600 
  8 N        3.4590    -1.5690     0.8230 N.4   1 <1>  -0.9590 
  9 C        3.9640     0.8990     1.4140 C.3   1 <1>   0.2090 
 10 C        2.7830     2.7180     0.1980 C.3   1 <1>   0.2090 
 11 C        2.6490    -1.8620    -1.5500 C.3   1 <1>  -0.1600 
 12 C        3.1130    -2.5430    -0.2540 C.3   1 <1>   0.3430 
 13 C        4.6170    -2.0100     1.6440 C.3   1 <1>   0.2630 
 14 N        4.0830     2.2450     0.7690 N.pl3 1 <1>  -0.8220 
 15 C        5.2650     2.5280     0.0550 C.2   1 <1>   0.2700 
 16 N        6.0680     1.6100    -0.3610 N.2   1 <1>  -0.3380 
 17 N        5.7380     3.7380    -0.3170 N.pl3 1 <1>   0.5930 
 18 N        7.0390     2.2390    -1.0120 N.2   1 <1>   0.0000 
 19 N        6.8590     3.5050    -1.0020 N.2   1 <1>  -0.4180 
 20 C        5.2320     5.0480    -0.0630 C.ar  1 <1>  -0.0230 
 21 C        5.3010     6.0350    -1.0440 C.ar  1 <1>  -0.1500 
 22 C        4.6610     5.3750     1.1650 C.ar  1 <1>  -0.1500 
 23 C        4.8070     7.3060    -0.8090 C.ar  1 <1>  -0.1500 
 24 C        4.1650     6.6440     1.4010 C.ar  1 <1>  -0.1500 
 25 C        4.2370     7.6110     0.4140 C.ar  1 <1>  -0.1500 
 26 H        4.2020    -0.0790    -0.4470 H     1 <1>   0.0800 
 27 H        1.2890     2.0210    -1.1580 H     1 <1>   0.0800 
 28 H        2.9120     1.6610    -1.6590 H     1 <1>   0.0800 
 29 H        0.7030    -1.1880    -0.9730 H     1 <1>   0.0800 
 30 H        1.4230    -0.2280    -2.2140 H     1 <1>   0.0800 
 31 H        2.6030    -1.5350     1.4420 H     1 <1>   0.4500 
 32 H        4.9260     0.6230     1.8060 H     1 <1>   0.0800 
 33 H        3.2690     0.9570     2.2340 H     1 <1>   0.0800 
 34 H        2.0730     2.8610     0.9980 H     1 <1>   0.0800 
 35 H        2.9070     3.6660    -0.2940 H     1 <1>   0.0800 
 36 H        3.5060    -1.4640    -2.0660 H     1 <1>   0.0800 
 37 H        2.2090    -2.6020    -2.1960 H     1 <1>   0.0800 
 38 H        3.9650    -3.1640    -0.4750 H     1 <1>   0.0800 
 39 H        2.3210    -3.1810     0.1050 H     1 <1>   0.0800 
 40 H        5.5270    -1.9460     1.0700 H     1 <1>   0.0800 
 41 H        4.4750    -3.0280     1.9660 H     1 <1>   0.0800 
 42 H        4.7110    -1.3890     2.5200 H     1 <1>   0.0800 
 43 H        5.7450     5.8110    -2.0000 H     1 <1>   0.1500 
 44 H        4.5980     4.6340     1.9450 H     1 <1>   0.1500 
 45 H        4.8660     8.0580    -1.5760 H     1 <1>   0.1500 
 46 H        3.7220     6.8800     2.3540 H     1 <1>   0.1500 
 47 H        3.8520     8.6000     0.5980 H     1 <1>   0.1500 
@<TRIPOS>BOND
  1   1   2  ar  
  2   2   3  ar  
  3   2   4  1   
  4   4   5  1   
  5   4   6  1   
  6   4   7  1   
  7   5   8  1   
  8   5   9  1   
  9   5  26  1   
 10   6  10  1   
 11   6  27  1   
 12   6  28  1   
 13   7  11  1   
 14   7  29  1   
 15   7  30  1   
 16   8  12  1   
 17   8  13  1   
 18   8  31  1   
 19   9  14  1   
 20   9  32  1   
 21   9  33  1   
 22  10  14  1   
 23  10  34  1   
 24  10  35  1   
 25  11  12  1   
 26  11  36  1   
 27  11  37  1   
 28  12  38  1   
 29  12  39  1   
 30  13  40  1   
 31  13  41  1   
 32  13  42  1   
 33  14  15  1   
 34  15  16  2   
 35  15  17  1   
 36  16  18  1   
 37  17  19  1   
 38  17  20  1   
 39  18  19  2   
 40  20  21  ar  
 41  20  22  ar  
 42  21  23  ar  
 43  21  43  1   
 44  22  24  ar  
 45  22  44  1   
 46  23  25  ar  
 47  23  45  1   
 48  24  25  ar  
 49  24  46  1   
 50  25  47  1   
@<TRIPOS>SUBSTRUCTURE
  1 ****  14 GROUP 4 **** **** 0

# MOE 2024.06 (io_trps.svl 2023.06)
