@<TRIPOS>MOLECULE
NONAME
52 55 1 0 0 
SMALL
USER_CHARGES


@<TRIPOS>ATOM
  1 O       -0.4030     0.9880     1.1870 O.2   1 <1>  -0.5700 
  2 C       -0.1940     2.1180     0.7870 C.2   1 <1>   0.6900 
  3 N       -1.1690     3.0790     0.8840 N.am  1 <1>  -0.6600 
  4 N        1.0170     2.4680     0.2610 N.am  1 <1>  -0.5470 
  5 C       -1.2750     4.2650    -0.0050 C.3   1 <1>   0.1400 
  6 C       -2.3730     2.8730     1.7310 C.3   1 <1>   0.1400 
  7 C        2.1380     1.7100    -0.1000 C.ar  1 <1>   0.1170 
  8 C       -2.4860     4.0920    -0.9260 C.3   1 <1>  -0.1600 
  9 C       -3.5980     2.6850     0.8330 C.3   1 <1>  -0.1600 
 10 C        3.3700     2.3130    -0.1760 C.ar  1 <1>  -0.1500 
 11 C        2.0470     0.3420    -0.4140 C.ar  1 <1>  -0.1500 
 12 C       -3.7920     3.8570    -0.1480 C.3   1 <1>   0.2800 
 13 C        4.5310     1.6100    -0.5490 C.ar  1 <1>   0.0000 
 14 C        3.1550    -0.3700    -0.7790 C.ar  1 <1>  -0.1500 
 15 O       -4.0070     5.0150     0.6230 O.3   1 <1>  -0.5600 
 16 C       -4.9470     3.5920    -1.1420 C.3   1 <1>  -0.1600 
 17 C        4.4240     0.2380    -0.8580 C.ar  1 <1>   0.0000 
 18 C        5.7990     2.2220    -0.6280 C.ar  1 <1>  -0.1500 
 19 C       -5.2490     5.6580     0.6110 C.3   1 <1>   0.1200 
 20 C       -6.3540     3.7090    -0.5260 C.3   1 <1>   0.2800 
 21 C        5.5840    -0.4680    -1.2320 C.ar  1 <1>  -0.1500 
 22 C        6.9100     1.5130    -0.9940 C.ar  1 <1>  -0.1500 
 23 C       -6.3730     4.6270     0.7010 C.3   1 <1>  -0.1600 
 24 O       -7.1550     4.2940    -1.4790 O.3   1 <1>  -0.6800 
 25 C       -6.9960     2.3540    -0.2290 C.3   1 <1>  -0.2400 
 26 C        6.8010     0.1520    -1.3000 C.ar  1 <1>  -0.1500 
 27 H        1.1440     3.4720     0.2480 H     1 <1>   0.3700 
 28 H       -0.3900     4.3840    -0.6030 H     1 <1>   0.0800 
 29 H       -1.3980     5.1490     0.6000 H     1 <1>   0.0800 
 30 H       -2.5110     3.7340     2.3620 H     1 <1>   0.0800 
 31 H       -2.2490     2.0120     2.3660 H     1 <1>   0.0800 
 32 H       -2.3000     3.2560    -1.5750 H     1 <1>   0.0800 
 33 H       -2.5890     4.9660    -1.5430 H     1 <1>   0.0800 
 34 H       -4.4620     2.5690     1.4560 H     1 <1>   0.0800 
 35 H       -3.4720     1.7690     0.2830 H     1 <1>   0.0800 
 36 H        3.4700     3.3560     0.0580 H     1 <1>   0.1500 
 37 H        1.0890    -0.1420    -0.3660 H     1 <1>   0.1500 
 38 H        3.0720    -1.4160    -1.0140 H     1 <1>   0.1500 
 39 H       -4.8200     2.6190    -1.5790 H     1 <1>   0.0800 
 40 H       -4.8480     4.3010    -1.9440 H     1 <1>   0.0800 
 41 H        5.8790     3.2680    -0.3910 H     1 <1>   0.1500 
 42 H       -5.3220     6.2390    -0.2920 H     1 <1>   0.0800 
 43 H       -5.2770     6.3240     1.4560 H     1 <1>   0.0800 
 44 H        5.4930    -1.5130    -1.4650 H     1 <1>   0.1500 
 45 H        7.8750     1.9860    -1.0520 H     1 <1>   0.1500 
 46 H       -7.3270     5.1150     0.7910 H     1 <1>   0.0800 
 47 H       -6.2260     4.0570     1.6000 H     1 <1>   0.0800 
 48 H       -6.7990     5.1680    -1.7170 H     1 <1>   0.4000 
 49 H       -6.4240     1.8100     0.4980 H     1 <1>   0.0800 
 50 H       -7.0530     1.7630    -1.1260 H     1 <1>   0.0800 
 51 H       -7.9900     2.4930     0.1590 H     1 <1>   0.0800 
 52 H        7.6840    -0.3930    -1.5870 H     1 <1>   0.1500 
@<TRIPOS>BOND
  1   1   2  2   
  2   2   3  am  
  3   2   4  am  
  4   3   5  1   
  5   3   6  1   
  6   4   7  1   
  7   4  27  1   
  8   5   8  1   
  9   5  28  1   
 10   5  29  1   
 11   6   9  1   
 12   6  30  1   
 13   6  31  1   
 14   7  10  ar  
 15   7  11  ar  
 16   8  12  1   
 17   8  32  1   
 18   8  33  1   
 19   9  12  1   
 20   9  34  1   
 21   9  35  1   
 22  10  13  ar  
 23  10  36  1   
 24  11  14  ar  
 25  11  37  1   
 26  12  15  1   
 27  12  16  1   
 28  13  17  ar  
 29  13  18  ar  
 30  14  17  ar  
 31  14  38  1   
 32  15  19  1   
 33  16  20  1   
 34  16  39  1   
 35  16  40  1   
 36  17  21  ar  
 37  18  22  ar  
 38  18  41  1   
 39  19  23  1   
 40  19  42  1   
 41  19  43  1   
 42  20  23  1   
 43  20  24  1   
 44  20  25  1   
 45  21  26  ar  
 46  21  44  1   
 47  22  26  ar  
 48  22  45  1   
 49  23  46  1   
 50  23  47  1   
 51  24  48  1   
 52  25  49  1   
 53  25  50  1   
 54  25  51  1   
 55  26  52  1   
@<TRIPOS>SUBSTRUCTURE
  1 ****   2 GROUP 4 **** **** 0

# MOE 2024.06 (io_trps.svl 2023.06)
