@<TRIPOS>MOLECULE
NONAME
40 41 1 0 0 
SMALL
USER_CHARGES


@<TRIPOS>ATOM
  1 S        0.1980    -0.3130    -0.7460 S.3   1 <1>  -0.0800 
  2 C       -1.2170    -1.0870    -0.0550 C.2   1 <1>  -0.1400 
  3 C       -0.4230     1.2840    -0.3640 C.2   1 <1>  -0.1400 
  4 C       -2.0720    -0.1570     0.4200 C.2   1 <1>  -0.1500 
  5 C       -1.2240    -2.6040    -0.1090 C.3   1 <1>   0.5230 
  6 C       -1.6200     1.1880     0.2410 C.2   1 <1>  -0.1500 
  7 C        0.4230     2.4830    -0.7520 C.3   1 <1>   0.0200 
  8 N       -2.5420    -3.1090     0.3570 N.4   1 <1>  -0.9590 
  9 C        1.6880     2.5700     0.1100 C.3   1 <1>  -0.1600 
 10 C       -2.5430    -4.6120     0.5680 C.3   1 <1>   0.3170 
 11 C       -3.6070    -2.9160    -0.6560 C.3   1 <1>   0.3430 
 12 C        2.5320     3.7990    -0.2500 C.3   1 <1>  -0.1600 
 13 C       -1.6570    -5.3870    -0.4400 C.2   1 <1>   0.9060 
 14 C       -4.0240    -5.0200     0.4380 C.3   1 <1>  -0.1600 
 15 C       -4.7390    -3.8020    -0.1430 C.3   1 <1>   0.2000 
 16 C        3.7920     3.8730     0.6170 C.3   1 <1>  -0.2400 
 17 O       -1.8670    -5.2060    -1.6470 O.co2 1 <1>  -0.9000 
 18 O       -0.7040    -6.0330    -0.0090 O.co2 1 <1>  -0.9000 
 19 O       -5.3650    -3.1370     0.9060 O.3   1 <1>  -0.6800 
 20 H       -3.0180    -0.3410     0.8990 H     1 <1>   0.1500 
 21 H       -0.4380    -2.9880     0.5200 H     1 <1>   0.0800 
 22 H       -1.0380    -2.9390    -1.1180 H     1 <1>   0.0800 
 23 H       -2.2150     2.0200     0.5770 H     1 <1>   0.1500 
 24 H        0.6890     2.4060    -1.7920 H     1 <1>   0.0800 
 25 H       -0.1600     3.3780    -0.6220 H     1 <1>   0.0800 
 26 H       -2.8320    -2.6450     1.2220 H     1 <1>   0.4500 
 27 H        1.4030     2.6190     1.1470 H     1 <1>   0.0800 
 28 H        2.2770     1.6800    -0.0300 H     1 <1>   0.0800 
 29 H       -2.1740    -4.8500     1.5490 H     1 <1>   0.0800 
 30 H       -3.9120    -1.8870    -0.7420 H     1 <1>   0.0800 
 31 H       -3.2680    -3.2820    -1.6130 H     1 <1>   0.0800 
 32 H        2.8190     3.7510    -1.2870 H     1 <1>   0.0800 
 33 H        1.9510     4.6950    -0.1050 H     1 <1>   0.0800 
 34 H       -4.4230    -5.3220     1.3890 H     1 <1>   0.0800 
 35 H       -4.1070    -5.8530    -0.2400 H     1 <1>   0.0800 
 36 H       -5.4650    -4.0380    -0.9040 H     1 <1>   0.0800 
 37 H        4.4000     2.9970     0.4730 H     1 <1>   0.0800 
 38 H        3.5300     3.9450     1.6580 H     1 <1>   0.0800 
 39 H        4.3720     4.7390     0.3500 H     1 <1>   0.0800 
 40 H       -6.1320    -3.6530     1.2290 H     1 <1>   0.4000 
@<TRIPOS>BOND
  1   1   2  1   
  2   1   3  1   
  3   2   4  2   
  4   2   5  1   
  5   3   6  2   
  6   3   7  1   
  7   4   6  1   
  8   4  20  1   
  9   5   8  1   
 10   5  21  1   
 11   5  22  1   
 12   6  23  1   
 13   7   9  1   
 14   7  24  1   
 15   7  25  1   
 16   8  10  1   
 17   8  11  1   
 18   8  26  1   
 19   9  12  1   
 20   9  27  1   
 21   9  28  1   
 22  10  13  1   
 23  10  14  1   
 24  10  29  1   
 25  11  15  1   
 26  11  30  1   
 27  11  31  1   
 28  12  16  1   
 29  12  32  1   
 30  12  33  1   
 31  13  17  ar  
 32  13  18  ar  
 33  14  15  1   
 34  14  34  1   
 35  14  35  1   
 36  15  19  1   
 37  15  36  1   
 38  16  37  1   
 39  16  38  1   
 40  16  39  1   
 41  19  40  1   
@<TRIPOS>SUBSTRUCTURE
  1 ****   2 GROUP 4 **** **** 0

# MOE 2024.06 (io_trps.svl 2023.06)
