@<TRIPOS>MOLECULE
NONAME
42 44 1 0 0 
SMALL
USER_CHARGES


@<TRIPOS>ATOM
  1 O        0.0600    -0.5030     0.4690 O.2   1 <1>  -0.5700 
  2 C        1.0630    -0.8960    -0.1050 C.2   1 <1>   0.5440 
  3 N        2.0230    -0.0050    -0.5070 N.am  1 <1>  -0.4930 
  4 C        1.2670    -2.3180    -0.3550 C.ar  1 <1>   0.3960 
  5 C        2.1900     1.3810    -0.2520 C.2   1 <1>   0.0630 
  6 N        2.4000    -2.7330    -0.9490 N.ar  1 <1>  -0.6200 
  7 C        0.2790    -3.2330     0.0320 C.ar  1 <1>   0.1600 
  8 C        3.4390     1.9580     0.0050 C.2   1 <1>   0.3720 
  9 C        1.3160     2.4110    -0.2050 C.2   1 <1>  -0.3320 
 10 C        2.4540    -4.0420    -1.1120 C.ar  1 <1>   0.1600 
 11 N        0.3370    -4.5460    -0.1340 N.ar  1 <1>  -0.6200 
 12 N        3.3640     3.2330     0.2250 N.2   1 <1>  -0.7070 
 13 N        4.6500     1.2390     0.0240 N.pl3 1 <1>  -0.8210 
 14 N        2.0470     3.5120     0.1040 N.pl3 1 <1>   0.3140 
 15 C       -0.1860     2.4280    -0.4470 C.3   1 <1>  -0.0600 
 16 C        1.4560    -4.9280    -0.7180 C.ar  1 <1>   0.1670 
 17 C        5.6330     1.7490    -0.9690 C.3   1 <1>   0.2090 
 18 C        5.2880     1.2750     1.3680 C.3   1 <1>   0.2090 
 19 C        1.5520     4.8810     0.2950 C.3   1 <1>   0.0160 
 20 C        1.6070    -6.4180    -0.9460 C.3   1 <1>  -0.0970 
 21 C        6.9810     1.7460    -0.2640 C.3   1 <1>  -0.1600 
 22 C        6.6240     1.9850     1.1930 C.3   1 <1>  -0.1600 
 23 H        2.9040    -0.4430    -0.7940 H     1 <1>   0.3700 
 24 H       -0.6070    -2.8470     0.5050 H     1 <1>   0.1500 
 25 H        3.3370    -4.4370    -1.5820 H     1 <1>   0.1500 
 26 H       -0.4920     1.5310    -0.9540 H     1 <1>   0.0800 
 27 H       -0.4620     3.2650    -1.0630 H     1 <1>   0.0800 
 28 H       -0.7090     2.4870     0.4900 H     1 <1>   0.0800 
 29 H        5.3800     2.7530    -1.2690 H     1 <1>   0.0800 
 30 H        5.6470     1.1160    -1.8390 H     1 <1>   0.0800 
 31 H        5.4460     0.2630     1.6970 H     1 <1>   0.0800 
 32 H        4.6710     1.7850     2.0910 H     1 <1>   0.0800 
 33 H        0.7280     4.8650     0.9820 H     1 <1>   0.0800 
 34 H        1.2360     5.2750    -0.6520 H     1 <1>   0.0800 
 35 H        2.3430     5.4880     0.6930 H     1 <1>   0.0800 
 36 H        2.5390    -6.6480    -1.4280 H     1 <1>   0.0800 
 37 H        0.8000    -6.7710    -1.5630 H     1 <1>   0.0800 
 38 H        1.5670    -6.9320    -0.0030 H     1 <1>   0.0800 
 39 H        7.6380     2.5010    -0.6560 H     1 <1>   0.0800 
 40 H        7.4360     0.7780    -0.3800 H     1 <1>   0.0800 
 41 H        7.3690     1.6120     1.8720 H     1 <1>   0.0800 
 42 H        6.4780     3.0370     1.3670 H     1 <1>   0.0800 
@<TRIPOS>BOND
  1   1   2  2   
  2   2   3  am  
  3   2   4  1   
  4   3   5  1   
  5   3  23  1   
  6   4   6  ar  
  7   4   7  ar  
  8   5   8  1   
  9   5   9  2   
 10   6  10  ar  
 11   7  11  ar  
 12   7  24  1   
 13   8  12  2   
 14   8  13  1   
 15   9  14  1   
 16   9  15  1   
 17  10  16  ar  
 18  10  25  1   
 19  11  16  ar  
 20  12  14  1   
 21  13  17  1   
 22  13  18  1   
 23  14  19  1   
 24  15  26  1   
 25  15  27  1   
 26  15  28  1   
 27  16  20  1   
 28  17  21  1   
 29  17  29  1   
 30  17  30  1   
 31  18  22  1   
 32  18  31  1   
 33  18  32  1   
 34  19  33  1   
 35  19  34  1   
 36  19  35  1   
 37  20  36  1   
 38  20  37  1   
 39  20  38  1   
 40  21  22  1   
 41  21  39  1   
 42  21  40  1   
 43  22  41  1   
 44  22  42  1   
@<TRIPOS>SUBSTRUCTURE
  1 ****   3 GROUP 4 **** **** 0

# MOE 2024.06 (io_trps.svl 2023.06)
