@<TRIPOS>MOLECULE
NONAME
58 61 1 0 0 
SMALL
USER_CHARGES


@<TRIPOS>ATOM
  1 S        3.3900    -0.1470     0.3880 S.3   1 <1>  -0.0800 
  2 C        2.1220    -1.1320     1.0690 C.2   1 <1>  -0.1400 
  3 C        4.2540    -0.2620     1.9030 C.2   1 <1>   0.2280 
  4 C        2.4540    -1.4490     2.3310 C.2   1 <1>   0.0460 
  5 C        0.9140    -1.4360     0.2030 C.3   1 <1>   0.3200 
  6 N        3.6810    -0.9860     2.7790 N.2   1 <1>  -0.5650 
  7 C        1.6270    -2.2540     3.3120 C.3   1 <1>  -0.0590 
  8 N        0.9520    -2.8490    -0.2830 N.am  1 <1>  -0.6600 
  9 C       -0.1060    -3.6760    -0.0380 C.2   1 <1>   0.5690 
 10 C        2.0850    -3.2400    -1.1770 C.3   1 <1>   0.1400 
 11 O       -0.9050    -3.4410     0.8330 O.2   1 <1>  -0.5700 
 12 C       -0.3100    -4.9260    -0.8640 C.3   1 <1>  -0.0990 
 13 C        2.7660    -4.5910    -0.8050 C.3   1 <1>   0.2800 
 14 C        0.7600    -5.9780    -0.5900 C.3   1 <1>   0.1200 
 15 O        1.9670    -5.6600    -1.2260 O.3   1 <1>  -0.5600 
 16 C        4.0570    -4.7650    -1.6220 C.3   1 <1>  -0.1600 
 17 C        3.1070    -4.7580     0.6920 C.3   1 <1>  -0.1600 
 18 C        5.1890    -3.8510    -1.1570 C.3   1 <1>   0.3430 
 19 C        4.2280    -3.8280     1.1340 C.3   1 <1>   0.3430 
 20 N        5.4240    -4.0510     0.2940 N.4   1 <1>  -0.9590 
 21 C        6.6110    -3.2970     0.7800 C.3   1 <1>   0.5240 
 22 C        7.8450    -4.1150     0.4140 C.2   1 <1>   0.1080 
 23 N        7.7870    -5.3950     0.1730 N.2   1 <1>  -0.7070 
 24 C        9.1370    -3.6170     0.2940 C.2   1 <1>  -0.1500 
 25 N        9.0600    -5.7540    -0.1010 N.pl3 1 <1>   0.3140 
 26 C        9.8840    -4.6900    -0.0360 C.2   1 <1>  -0.3020 
 27 C        9.4450    -7.1460    -0.4170 C.3   1 <1>   0.0960 
 28 C       10.0090    -7.8580     0.8190 C.3   1 <1>  -0.2400 
 29 H        5.1880     0.2680     1.9800 H     1 <1>   0.1500 
 30 H        0.8860    -0.7680    -0.6400 H     1 <1>   0.0800 
 31 H        0.0230    -1.2580     0.7810 H     1 <1>   0.0800 
 32 H        0.7060    -2.5810     2.8640 H     1 <1>   0.0800 
 33 H        1.3940    -1.6470     4.1680 H     1 <1>   0.0800 
 34 H        2.1770    -3.1150     3.6430 H     1 <1>   0.0800 
 35 H        2.8220    -2.4610    -1.1520 H     1 <1>   0.0800 
 36 H        1.7270    -3.2970    -2.1910 H     1 <1>   0.0800 
 37 H       -0.3390    -4.6850    -1.9100 H     1 <1>   0.0800 
 38 H       -1.2660    -5.3410    -0.6030 H     1 <1>   0.0800 
 39 H        0.4360    -6.9170    -1.0060 H     1 <1>   0.0800 
 40 H        0.9150    -6.1230     0.4640 H     1 <1>   0.0800 
 41 H        3.8560    -4.5720    -2.6610 H     1 <1>   0.0800 
 42 H        4.3960    -5.7830    -1.5440 H     1 <1>   0.0800 
 43 H        3.4070    -5.7730     0.8850 H     1 <1>   0.0800 
 44 H        2.2500    -4.5460     1.3030 H     1 <1>   0.0800 
 45 H        4.9340    -2.8220    -1.3490 H     1 <1>   0.0800 
 46 H        6.0870    -4.0890    -1.7070 H     1 <1>   0.0800 
 47 H        4.4590    -4.0060     2.1730 H     1 <1>   0.0800 
 48 H        3.9090    -2.8080     1.0290 H     1 <1>   0.0800 
 49 H        5.7570    -5.0310     0.3960 H     1 <1>   0.4500 
 50 H        6.5730    -3.1970     1.8520 H     1 <1>   0.0800 
 51 H        6.6560    -2.3180     0.3340 H     1 <1>   0.0800 
 52 H        9.4620    -2.6010     0.4370 H     1 <1>   0.1500 
 53 H       10.9420    -4.7570    -0.2210 H     1 <1>   0.1500 
 54 H       10.1780    -7.1290    -1.2030 H     1 <1>   0.0800 
 55 H        8.5740    -7.6660    -0.7740 H     1 <1>   0.0800 
 56 H       10.8920    -7.3560     1.1730 H     1 <1>   0.0800 
 57 H       10.2710    -8.8710     0.5680 H     1 <1>   0.0800 
 58 H        9.2730    -7.8810     1.6030 H     1 <1>   0.0800 
@<TRIPOS>BOND
  1   1   2  1   
  2   1   3  1   
  3   2   4  2   
  4   2   5  1   
  5   3   6  2   
  6   3  29  1   
  7   4   6  1   
  8   4   7  1   
  9   5   8  1   
 10   5  30  1   
 11   5  31  1   
 12   7  32  1   
 13   7  33  1   
 14   7  34  1   
 15   8   9  am  
 16   8  10  1   
 17   9  11  2   
 18   9  12  1   
 19  10  13  1   
 20  10  35  1   
 21  10  36  1   
 22  12  14  1   
 23  12  37  1   
 24  12  38  1   
 25  13  15  1   
 26  13  16  1   
 27  13  17  1   
 28  14  15  1   
 29  14  39  1   
 30  14  40  1   
 31  16  18  1   
 32  16  41  1   
 33  16  42  1   
 34  17  19  1   
 35  17  43  1   
 36  17  44  1   
 37  18  20  1   
 38  18  45  1   
 39  18  46  1   
 40  19  20  1   
 41  19  47  1   
 42  19  48  1   
 43  20  21  1   
 44  20  49  1   
 45  21  22  1   
 46  21  50  1   
 47  21  51  1   
 48  22  23  2   
 49  22  24  1   
 50  23  25  1   
 51  24  26  2   
 52  24  52  1   
 53  25  26  1   
 54  25  27  1   
 55  26  53  1   
 56  27  28  1   
 57  27  54  1   
 58  27  55  1   
 59  28  56  1   
 60  28  57  1   
 61  28  58  1   
@<TRIPOS>SUBSTRUCTURE
  1 ****  19 GROUP 4 **** **** 0

# MOE 2024.06 (io_trps.svl 2023.06)
