@<TRIPOS>MOLECULE
NONAME
45 47 1 0 0 
SMALL
USER_CHARGES


@<TRIPOS>ATOM
  1 S        0.0740    -0.4730    -1.2350 S.o2  1 <1>   1.3330 
  2 O        1.3730    -0.5630    -1.8630 O.2   1 <1>  -0.6500 
  3 O       -1.1040    -0.8040    -2.0030 O.2   1 <1>  -0.6500 
  4 N        0.0800    -1.4850     0.1280 N.am  1 <1>  -0.8490 
  5 C       -0.1370     1.1920    -0.5720 C.3   1 <1>  -0.0550 
  6 C        0.8190    -2.7300    -0.1060 C.3   1 <1>   0.1160 
  7 C       -1.2650    -1.8010     0.6250 C.3   1 <1>   0.1160 
  8 C        0.9750     1.8180     0.3100 C.3   1 <1>  -0.0800 
  9 C        2.3730     1.7950    -0.3080 C.3   1 <1>   0.2200 
 10 C        1.1780     1.1600     1.6870 C.3   1 <1>   0.1200 
 11 N        3.0470     3.0820    -0.0100 N.am  1 <1>  -0.7300 
 12 C        3.0570     0.7080     0.5130 C.3   1 <1>   0.1200 
 13 O        2.5430     0.8910     1.7910 O.3   1 <1>  -0.5600 
 14 C        3.0890     4.1560    -0.8530 C.2   1 <1>   0.7030 
 15 O        2.4600     4.1060    -1.8910 O.2   1 <1>  -0.5700 
 16 C        3.8480     5.3570    -0.5450 C.2   1 <1>   0.2770 
 17 N        3.8940     6.4830    -1.3520 N.pl3 1 <1>  -0.7000 
 18 C        4.6360     5.6390     0.5210 C.2   1 <1>   0.2000 
 19 C        4.6810     7.4040    -0.7870 C.cat 1 <1>   0.7910 
 20 N        5.1550     6.9080     0.3800 N.pl3 1 <1>  -0.6290 
 21 C        5.0390     8.6930    -1.2160 C.2   1 <1>  -0.1410 
 22 C        5.9980     7.6650     1.1680 C.2   1 <1>   0.2290 
 23 C        5.8750     9.4540    -0.4450 C.2   1 <1>  -0.1500 
 24 C        6.3580     8.9200     0.7680 C.2   1 <1>  -0.1500 
 25 H       -0.2690     1.8460    -1.4120 H     1 <1>   0.0800 
 26 H       -1.0560     1.2220    -0.0210 H     1 <1>   0.0800 
 27 H        0.8160    -3.3390     0.7820 H     1 <1>   0.0800 
 28 H        1.8430    -2.5120    -0.3580 H     1 <1>   0.0800 
 29 H        0.3740    -3.2820    -0.9180 H     1 <1>   0.0800 
 30 H       -1.1970    -2.3660     1.5390 H     1 <1>   0.0800 
 31 H       -1.8100    -2.3800    -0.1040 H     1 <1>   0.0800 
 32 H       -1.8120    -0.8960     0.8240 H     1 <1>   0.0800 
 33 H        0.6740     2.8380     0.4770 H     1 <1>   0.0800 
 34 H        2.3900     1.5970    -1.3670 H     1 <1>   0.0800 
 35 H        0.6460     0.2340     1.7970 H     1 <1>   0.0800 
 36 H        0.9040     1.8210     2.4910 H     1 <1>   0.0800 
 37 H        3.4130     3.1010     0.9450 H     1 <1>   0.3700 
 38 H        4.1280     0.8020     0.5300 H     1 <1>   0.0800 
 39 H        2.7850    -0.2780     0.1790 H     1 <1>   0.0800 
 40 H        3.3930     6.5530    -2.2440 H     1 <1>   0.4500 
 41 H        4.8610     5.0140     1.3700 H     1 <1>   0.1500 
 42 H        4.6450     9.0550    -2.1480 H     1 <1>   0.1500 
 43 H        6.3570     7.2370     2.0920 H     1 <1>   0.1500 
 44 H        6.1730    10.4490    -0.7400 H     1 <1>   0.1500 
 45 H        7.0160     9.5230     1.3720 H     1 <1>   0.1500 
@<TRIPOS>BOND
  1   1   2  2   
  2   1   3  2   
  3   1   4  am  
  4   1   5  1   
  5   4   6  1   
  6   4   7  1   
  7   5   8  1   
  8   5  25  1   
  9   5  26  1   
 10   6  27  1   
 11   6  28  1   
 12   6  29  1   
 13   7  30  1   
 14   7  31  1   
 15   7  32  1   
 16   8   9  1   
 17   8  10  1   
 18   8  33  1   
 19   9  11  1   
 20   9  12  1   
 21   9  34  1   
 22  10  13  1   
 23  10  35  1   
 24  10  36  1   
 25  11  14  am  
 26  11  37  1   
 27  12  13  1   
 28  12  38  1   
 29  12  39  1   
 30  14  15  2   
 31  14  16  1   
 32  16  17  1   
 33  16  18  2   
 34  17  19  ar  
 35  17  40  1   
 36  18  20  1   
 37  18  41  1   
 38  19  20  ar  
 39  19  21  1   
 40  20  22  1   
 41  21  23  2   
 42  21  42  1   
 43  22  24  2   
 44  22  43  1   
 45  23  24  1   
 46  23  44  1   
 47  24  45  1   
@<TRIPOS>SUBSTRUCTURE
  1 ****  11 GROUP 4 **** **** 0

# MOE 2024.06 (io_trps.svl 2023.06)
