@<TRIPOS>MOLECULE
NONAME
59 62 1 0 0 
SMALL
USER_CHARGES


@<TRIPOS>ATOM
  1 O       -1.5190     0.6170     2.2840 O.2   1 <1>  -0.5700 
  2 C       -1.6970     1.1500     1.2010 C.2   1 <1>   0.5440 
  3 N       -2.4090     0.4400     0.2630 N.am  1 <1>  -0.6600 
  4 C       -1.2280     2.5000     0.9540 C.ar  1 <1>   0.0860 
  5 C       -2.5070    -1.0220     0.3510 C.3   1 <1>   0.1400 
  6 C       -3.5560     1.0270    -0.4660 C.3   1 <1>   0.1400 
  7 C       -0.4990     2.8380    -0.2010 C.ar  1 <1>   0.0000 
  8 C       -1.4990     3.5020     1.8850 C.ar  1 <1>  -0.1500 
  9 C       -3.8440    -1.2620     1.0690 C.3   1 <1>   0.4230 
 10 C       -4.8890     0.4870     0.1190 C.3   1 <1>  -0.1600 
 11 C       -0.1360     1.8550    -1.1980 C.ar  1 <1>   0.0000 
 12 C       -0.1010     4.1580    -0.3880 C.ar  1 <1>  -0.1500 
 13 C       -1.0920     4.8070     1.6860 C.ar  1 <1>  -0.1500 
 14 N       -3.8230    -2.3890     2.0740 N.4   1 <1>  -0.9590 
 15 C       -5.0600    -1.1290     0.0310 C.3   1 <1>   0.0000 
 16 C        0.8750     0.9120    -0.9900 C.ar  1 <1>  -0.1430 
 17 C       -0.8150     1.8370    -2.4140 C.ar  1 <1>  -0.1500 
 18 C       -0.3930     5.1370     0.5410 C.ar  1 <1>  -0.1500 
 19 C       -3.4380    -3.6730     1.4620 C.3   1 <1>   0.3430 
 20 C       -2.9400    -2.0390     3.2340 C.3   1 <1>   0.2630 
 21 C       -5.2160    -2.7310    -0.1430 C.3   1 <1>  -0.1600 
 22 C       -6.3130    -0.9370    -0.9480 C.3   1 <1>   0.1200 
 23 C        1.1650    -0.0240    -1.9690 C.ar  1 <1>  -0.1500 
 24 C        1.6790     0.8960     0.3040 C.3   1 <1>  -0.0970 
 25 C       -0.5220     0.9030    -3.3890 C.ar  1 <1>  -0.1500 
 26 C       -4.0530    -3.7320     0.0750 C.3   1 <1>  -0.1600 
 27 O       -5.8540    -0.6720    -2.2360 O.3   1 <1>  -0.6800 
 28 C        0.4700    -0.0330    -3.1650 C.ar  1 <1>  -0.1500 
 29 H       -2.5060    -1.4360    -0.6420 H     1 <1>   0.0800 
 30 H       -1.6690    -1.4120     0.8990 H     1 <1>   0.0800 
 31 H       -3.5300     2.1010    -0.3910 H     1 <1>   0.0800 
 32 H       -3.4820     0.7650    -1.5090 H     1 <1>   0.0800 
 33 H       -2.0370     3.2480     2.7820 H     1 <1>   0.1500 
 34 H       -3.8990    -0.4210     1.7370 H     1 <1>   0.0800 
 35 H       -5.0180     0.8530     1.1260 H     1 <1>   0.0800 
 36 H       -5.5890     1.1140    -0.4080 H     1 <1>   0.0800 
 37 H        0.4520     4.4140    -1.2750 H     1 <1>   0.1500 
 38 H       -1.3160     5.5640     2.4180 H     1 <1>   0.1500 
 39 H       -4.7880    -2.4810     2.4130 H     1 <1>   0.4500 
 40 H       -1.5860     2.5660    -2.5940 H     1 <1>   0.1500 
 41 H       -0.0730     6.1530     0.3770 H     1 <1>   0.1500 
 42 H       -2.3650    -3.7500     1.3840 H     1 <1>   0.0800 
 43 H       -3.8000    -4.4890     2.0670 H     1 <1>   0.0800 
 44 H       -1.9180    -1.9210     2.9110 H     1 <1>   0.0800 
 45 H       -2.9790    -2.8090     3.9870 H     1 <1>   0.0800 
 46 H       -3.2550    -1.1070     3.6760 H     1 <1>   0.0800 
 47 H       -6.0360    -3.0590     0.4770 H     1 <1>   0.0800 
 48 H       -5.4660    -3.0040    -1.1600 H     1 <1>   0.0800 
 49 H       -6.9930    -0.1550    -0.6530 H     1 <1>   0.0800 
 50 H       -7.0020    -1.7650    -1.0280 H     1 <1>   0.0800 
 51 H        1.9410    -0.7520    -1.8100 H     1 <1>   0.1500 
 52 H        2.5790     0.3200     0.1890 H     1 <1>   0.0800 
 53 H        1.0960     0.4640     1.0970 H     1 <1>   0.0800 
 54 H        1.9580     1.8960     0.5840 H     1 <1>   0.0800 
 55 H       -1.0610     0.9050    -4.3200 H     1 <1>   0.1500 
 56 H       -3.2850    -3.5590    -0.6590 H     1 <1>   0.0800 
 57 H       -4.4050    -4.7360    -0.0950 H     1 <1>   0.0800 
 58 H       -6.5990    -0.5610    -2.8620 H     1 <1>   0.4000 
 59 H        0.7040    -0.7620    -3.9210 H     1 <1>   0.1500 
@<TRIPOS>BOND
  1   1   2  2   
  2   2   3  am  
  3   2   4  1   
  4   3   5  1   
  5   3   6  1   
  6   4   7  ar  
  7   4   8  ar  
  8   5   9  1   
  9   5  29  1   
 10   5  30  1   
 11   6  10  1   
 12   6  31  1   
 13   6  32  1   
 14   7  11  1   
 15   7  12  ar  
 16   8  13  ar  
 17   8  33  1   
 18   9  14  1   
 19   9  15  1   
 20   9  34  1   
 21  10  15  1   
 22  10  35  1   
 23  10  36  1   
 24  11  16  ar  
 25  11  17  ar  
 26  12  18  ar  
 27  12  37  1   
 28  13  18  ar  
 29  13  38  1   
 30  14  19  1   
 31  14  20  1   
 32  14  39  1   
 33  15  21  1   
 34  15  22  1   
 35  16  23  ar  
 36  16  24  1   
 37  17  25  ar  
 38  17  40  1   
 39  18  41  1   
 40  19  26  1   
 41  19  42  1   
 42  19  43  1   
 43  20  44  1   
 44  20  45  1   
 45  20  46  1   
 46  21  26  1   
 47  21  47  1   
 48  21  48  1   
 49  22  27  1   
 50  22  49  1   
 51  22  50  1   
 52  23  28  ar  
 53  23  51  1   
 54  24  52  1   
 55  24  53  1   
 56  24  54  1   
 57  25  28  ar  
 58  25  55  1   
 59  26  56  1   
 60  26  57  1   
 61  27  58  1   
 62  28  59  1   
@<TRIPOS>SUBSTRUCTURE
  1 ****   3 GROUP 4 **** **** 0

# MOE 2024.06 (io_trps.svl 2023.06)
