@<TRIPOS>MOLECULE
NONAME
48 51 1 0 0 
SMALL
USER_CHARGES


@<TRIPOS>ATOM
  1 S       -0.4390     0.2370     0.3350 S.o2  1 <1>   1.0900 
  2 O       -0.6770     1.4810     1.0260 O.2   1 <1>  -0.6500 
  3 O        0.8940    -0.2390     0.0510 O.2   1 <1>  -0.6500 
  4 C       -1.3210    -1.0880     1.1070 C.3   1 <1>  -0.0550 
  5 C       -1.3810     0.1680    -1.1820 C.3   1 <1>  -0.0550 
  6 C       -1.6510    -2.0350    -0.0440 C.3   1 <1>   0.1760 
  7 C       -2.1470    -1.1680    -1.2210 C.3   1 <1>  -0.1600 
  8 N       -2.6610    -3.0480     0.3530 N.pl3 1 <1>   0.3140 
  9 N       -3.7980    -2.6870     0.9770 N.2   1 <1>  -0.7070 
 10 C       -2.6200    -4.3870     0.1320 C.2   1 <1>  -0.3320 
 11 C       -4.4580    -3.7910     1.1370 C.2   1 <1>   0.1080 
 12 C       -3.7710    -4.8950     0.6230 C.2   1 <1>   0.0630 
 13 C       -1.4740    -5.1150    -0.5580 C.3   1 <1>  -0.0600 
 14 C       -5.8060    -3.8120     1.8230 C.3   1 <1>  -0.0590 
 15 N       -4.1410    -6.2630     0.6090 N.am  1 <1>  -0.4930 
 16 C       -5.3220    -6.8660     0.2770 C.2   1 <1>   0.7160 
 17 O       -6.3070    -6.1990     0.0030 O.2   1 <1>  -0.5700 
 18 C       -5.3520    -8.3170     0.2500 C.2   1 <1>   0.2030 
 19 N       -4.3140    -9.0980     0.5030 N.2   1 <1>  -0.7070 
 20 C       -6.4760    -9.0900    -0.0490 C.2   1 <1>  -0.1500 
 21 N       -4.7870   -10.3470     0.3660 N.pl3 1 <1>   0.3000 
 22 C       -6.0940   -10.3900     0.0310 C.2   1 <1>  -0.2050 
 23 C       -6.7840   -11.6370    -0.1640 C.ar  1 <1>   0.3630 
 24 N       -6.0720   -12.7520     0.0140 N.ar  1 <1>  -0.6200 
 25 C       -8.1310   -11.6600    -0.5210 C.ar  1 <1>  -0.1500 
 26 C       -6.7130   -13.8950    -0.1660 C.ar  1 <1>   0.1600 
 27 C       -8.7860   -12.8570    -0.7050 C.ar  1 <1>  -0.1500 
 28 C       -8.0460   -14.0040    -0.5200 C.ar  1 <1>  -0.1500 
 29 H       -2.2270    -0.7110     1.5440 H     1 <1>   0.0800 
 30 H       -0.7280    -1.5720     1.8590 H     1 <1>   0.0800 
 31 H       -0.7220     0.2500    -2.0260 H     1 <1>   0.0800 
 32 H       -2.0820     0.9820    -1.2180 H     1 <1>   0.0800 
 33 H       -0.7480    -2.5390    -0.3360 H     1 <1>   0.0800 
 34 H       -1.9950    -1.6740    -2.1580 H     1 <1>   0.0800 
 35 H       -3.1990    -0.9650    -1.1010 H     1 <1>   0.0800 
 36 H       -1.3200    -4.7160    -1.5450 H     1 <1>   0.0800 
 37 H       -1.6920    -6.1640    -0.6520 H     1 <1>   0.0800 
 38 H       -0.5670    -5.0080     0.0110 H     1 <1>   0.0800 
 39 H       -5.8780    -2.9920     2.5130 H     1 <1>   0.0800 
 40 H       -5.9370    -4.7320     2.3600 H     1 <1>   0.0800 
 41 H       -6.5830    -3.7190     1.0870 H     1 <1>   0.0800 
 42 H       -3.3870    -6.9390     0.7420 H     1 <1>   0.3700 
 43 H       -7.4420    -8.6840    -0.2920 H     1 <1>   0.1500 
 44 H       -4.2240   -11.1990     0.4990 H     1 <1>   0.2700 
 45 H       -8.6610   -10.7360    -0.6530 H     1 <1>   0.1500 
 46 H       -6.1450   -14.7990    -0.0240 H     1 <1>   0.1500 
 47 H       -9.8260   -12.8960    -0.9810 H     1 <1>   0.1500 
 48 H       -8.4950   -14.9720    -0.6480 H     1 <1>   0.1500 
@<TRIPOS>BOND
  1   1   2  2   
  2   1   3  2   
  3   1   4  1   
  4   1   5  1   
  5   4   6  1   
  6   4  29  1   
  7   4  30  1   
  8   5   7  1   
  9   5  31  1   
 10   5  32  1   
 11   6   7  1   
 12   6   8  1   
 13   6  33  1   
 14   7  34  1   
 15   7  35  1   
 16   8   9  1   
 17   8  10  1   
 18   9  11  2   
 19  10  12  2   
 20  10  13  1   
 21  11  12  1   
 22  11  14  1   
 23  12  15  1   
 24  13  36  1   
 25  13  37  1   
 26  13  38  1   
 27  14  39  1   
 28  14  40  1   
 29  14  41  1   
 30  15  16  am  
 31  15  42  1   
 32  16  17  2   
 33  16  18  1   
 34  18  19  2   
 35  18  20  1   
 36  19  21  1   
 37  20  22  2   
 38  20  43  1   
 39  21  22  1   
 40  21  44  1   
 41  22  23  1   
 42  23  24  ar  
 43  23  25  ar  
 44  24  26  ar  
 45  25  27  ar  
 46  25  45  1   
 47  26  28  ar  
 48  26  46  1   
 49  27  28  ar  
 50  27  47  1   
 51  28  48  1   
@<TRIPOS>SUBSTRUCTURE
  1 ****  15 GROUP 4 **** **** 0

# MOE 2024.06 (io_trps.svl 2023.06)
