@<TRIPOS>MOLECULE
NONAME
56 60 1 0 0 
SMALL
USER_CHARGES


@<TRIPOS>ATOM
  1 O        2.4540     0.8000     1.9580 O.2   1 <1>  -0.5700 
  2 C        2.4770    -0.2940     1.4090 C.2   1 <1>   0.5650 
  3 N        2.7990    -0.4680     0.0340 N.pl3 1 <1>   0.5610 
  4 C        2.1640    -1.4710     2.1520 C.2   1 <1>  -0.1360 
  5 N        3.1370     0.4510    -0.9330 N.2   1 <1>  -0.7070 
  6 C        2.7830    -1.7260    -0.5210 C.2   1 <1>  -0.0680 
  7 C        2.1580    -2.7110     1.5930 C.2   1 <1>  -0.0380 
  8 C        3.3190    -0.2370    -2.0130 C.2   1 <1>   0.1080 
  9 N        2.4610    -2.8500     0.2580 N.pl3 1 <1>  -0.5840 
 10 C        3.1140    -1.6000    -1.8240 C.2   1 <1>  -0.1500 
 11 C        1.8400    -3.9840     2.3760 C.3   1 <1>   0.2480 
 12 C        3.7120     0.4110    -3.3200 C.3   1 <1>  -0.0590 
 13 N        0.8540    -4.8320     1.6640 N.3   1 <1>  -0.8100 
 14 C       -0.4550    -4.1560     1.5150 C.3   1 <1>   0.1100 
 15 C        0.7130    -6.1460     2.3230 C.3   1 <1>   0.1100 
 16 C       -1.4710    -5.0420     0.7630 C.3   1 <1>   0.3430 
 17 C       -0.2870    -7.0540     1.5760 C.3   1 <1>   0.3430 
 18 N       -1.6300    -6.3920     1.4180 N.4   1 <1>  -0.9590 
 19 C       -2.6220    -7.2990     0.7540 C.3   1 <1>   0.4230 
 20 C       -2.3000    -7.5920    -0.7210 C.3   1 <1>  -0.0170 
 21 C       -4.0300    -6.7140     0.8800 C.3   1 <1>  -0.1600 
 22 C       -3.4020    -8.4130    -1.3730 C.ar  1 <1>  -0.1430 
 23 C       -5.0630    -7.7650     0.4610 C.3   1 <1>  -0.0170 
 24 C       -4.6820    -8.4810    -0.8290 C.ar  1 <1>  -0.1430 
 25 C       -3.1170    -9.0970    -2.5450 C.ar  1 <1>  -0.1500 
 26 C       -5.6540    -9.2360    -1.4680 C.ar  1 <1>  -0.1500 
 27 C       -4.0930    -9.8470    -3.1750 C.ar  1 <1>  -0.1500 
 28 C       -5.3630    -9.9170    -2.6360 C.ar  1 <1>  -0.1500 
 29 H        1.9370    -1.3120     3.1890 H     1 <1>   0.1500 
 30 H        2.4310    -3.7860    -0.1710 H     1 <1>   0.4000 
 31 H        3.2080    -2.3660    -2.5710 H     1 <1>   0.1500 
 32 H        1.4740    -3.7320     3.3570 H     1 <1>   0.0800 
 33 H        2.7580    -4.5350     2.4960 H     1 <1>   0.0800 
 34 H        2.9610     1.1230    -3.6080 H     1 <1>   0.0800 
 35 H        3.8140    -0.3270    -4.0940 H     1 <1>   0.0800 
 36 H        4.6480     0.9250    -3.1970 H     1 <1>   0.0800 
 37 H       -0.3270    -3.2450     0.9560 H     1 <1>   0.0800 
 38 H       -0.8500    -3.8940     2.4820 H     1 <1>   0.0800 
 39 H        0.3900    -6.0170     3.3430 H     1 <1>   0.0800 
 40 H        1.6720    -6.6370     2.3410 H     1 <1>   0.0800 
 41 H       -1.1210    -5.1640    -0.2480 H     1 <1>   0.0800 
 42 H       -2.4200    -4.5330     0.7260 H     1 <1>   0.0800 
 43 H       -0.3950    -7.9810     2.1150 H     1 <1>   0.0800 
 44 H        0.1240    -7.2790     0.6060 H     1 <1>   0.0800 
 45 H       -1.9800    -6.2160     2.3670 H     1 <1>   0.4500 
 46 H       -2.6220    -8.2420     1.2760 H     1 <1>   0.0800 
 47 H       -1.3780    -8.1400    -0.7900 H     1 <1>   0.0800 
 48 H       -2.2080    -6.6810    -1.2820 H     1 <1>   0.0800 
 49 H       -4.1380    -5.8600     0.2340 H     1 <1>   0.0800 
 50 H       -4.2330    -6.4170     1.8930 H     1 <1>   0.0800 
 51 H       -6.0240    -7.2920     0.3400 H     1 <1>   0.0800 
 52 H       -5.1610    -8.5050     1.2380 H     1 <1>   0.0800 
 53 H       -2.1350    -9.0510    -2.9820 H     1 <1>   0.1500 
 54 H       -6.6480    -9.3010    -1.0600 H     1 <1>   0.1500 
 55 H       -3.8660   -10.3760    -4.0850 H     1 <1>   0.1500 
 56 H       -6.1240   -10.5000    -3.1240 H     1 <1>   0.1500 
@<TRIPOS>BOND
  1   1   2  2   
  2   2   3  1   
  3   2   4  1   
  4   3   5  1   
  5   3   6  1   
  6   4   7  2   
  7   4  29  1   
  8   5   8  2   
  9   6   9  1   
 10   6  10  2   
 11   7   9  1   
 12   7  11  1   
 13   8  10  1   
 14   8  12  1   
 15   9  30  1   
 16  10  31  1   
 17  11  13  1   
 18  11  32  1   
 19  11  33  1   
 20  12  34  1   
 21  12  35  1   
 22  12  36  1   
 23  13  14  1   
 24  13  15  1   
 25  14  16  1   
 26  14  37  1   
 27  14  38  1   
 28  15  17  1   
 29  15  39  1   
 30  15  40  1   
 31  16  18  1   
 32  16  41  1   
 33  16  42  1   
 34  17  18  1   
 35  17  43  1   
 36  17  44  1   
 37  18  19  1   
 38  18  45  1   
 39  19  20  1   
 40  19  21  1   
 41  19  46  1   
 42  20  22  1   
 43  20  47  1   
 44  20  48  1   
 45  21  23  1   
 46  21  49  1   
 47  21  50  1   
 48  22  24  ar  
 49  22  25  ar  
 50  23  24  1   
 51  23  51  1   
 52  23  52  1   
 53  24  26  ar  
 54  25  27  ar  
 55  25  53  1   
 56  26  28  ar  
 57  26  54  1   
 58  27  28  ar  
 59  27  55  1   
 60  28  56  1   
@<TRIPOS>SUBSTRUCTURE
  1 ****  16 GROUP 4 **** **** 0

# MOE 2024.06 (io_trps.svl 2023.06)
