@<TRIPOS>MOLECULE
NONAME
49 52 1 0 0 
SMALL
USER_CHARGES


@<TRIPOS>ATOM
  1 O        1.2710     0.3740    -0.5820 O.2   1 <1>  -0.5700 
  2 C        2.0770    -0.2900     0.0580 C.2   1 <1>   0.5440 
  3 N        3.2730     0.2760     0.4880 N.am  1 <1>  -0.2980 
  4 C        1.8320    -1.6710     0.3770 C.ar  1 <1>   0.0860 
  5 N        4.2420    -0.4110     1.1790 N.2   1 <1>  -0.5120 
  6 C        3.5540     1.7120     0.2140 C.3   1 <1>   0.1400 
  7 C        2.8250    -2.3580     1.0860 C.ar  1 <1>   0.0860 
  8 C        0.6650    -2.3510     0.0150 C.ar  1 <1>  -0.1500 
  9 C        4.0100    -1.6450     1.4480 C.2   1 <1>   0.3040 
 10 C        4.0220     1.9070    -1.2290 C.3   1 <1>   0.2090 
 11 C        2.6230    -3.7040     1.4120 C.ar  1 <1>  -0.1500 
 12 C        0.4820    -3.6770     0.3440 C.ar  1 <1>  -0.1500 
 13 N        4.0980     3.3590    -1.5590 N.pl3 1 <1>  -0.8690 
 14 C        1.4670    -4.3570     1.0470 C.ar  1 <1>  -0.1500 
 15 C        5.1940     4.1500    -1.3470 C.ar  1 <1>   0.4100 
 16 N        6.2160     3.6220    -0.6870 N.ar  1 <1>  -0.6200 
 17 C        5.1990     5.4610    -1.8150 C.ar  1 <1>  -0.1500 
 18 C        7.2600     4.4090    -0.4950 C.ar  1 <1>   0.1600 
 19 C        6.2890     6.2690    -1.5980 C.ar  1 <1>  -0.1500 
 20 C        7.3700     5.7370    -0.9000 C.ar  1 <1>   0.0860 
 21 C        8.5620     6.4970    -0.6050 C.2   1 <1>   0.5440 
 22 O        9.6510     5.9730    -0.7460 O.2   1 <1>  -0.5700 
 23 N        8.5090     7.8010    -0.1570 N.am  1 <1>  -0.6600 
 24 C        9.7180     8.6810    -0.1400 C.3   1 <1>   0.1400 
 25 C        7.3610     8.3710     0.6120 C.3   1 <1>   0.1400 
 26 C       10.0410     9.1310     1.2930 C.3   1 <1>   0.1200 
 27 C        7.8230     8.8540     1.9990 C.3   1 <1>   0.1200 
 28 O        8.9170     9.7190     1.8870 O.3   1 <1>  -0.5600 
 29 H        4.3200     2.0600     0.8840 H     1 <1>   0.0800 
 30 H        2.6600     2.2830     0.3860 H     1 <1>   0.0800 
 31 H       -0.0980    -1.8210    -0.5310 H     1 <1>   0.1500 
 32 H        4.7570    -2.2000     1.9870 H     1 <1>   0.0600 
 33 H        3.3290     1.4360    -1.9040 H     1 <1>   0.0800 
 34 H        4.9890     1.4510    -1.3550 H     1 <1>   0.0800 
 35 H        3.3850    -4.2340     1.9570 H     1 <1>   0.1500 
 36 H       -0.4230    -4.1880     0.0590 H     1 <1>   0.1500 
 37 H        3.3040     3.7320    -2.0810 H     1 <1>   0.4000 
 38 H        1.3190    -5.3940     1.3020 H     1 <1>   0.1500 
 39 H        4.3430     5.8270    -2.3480 H     1 <1>   0.1500 
 40 H        8.1000     3.9800     0.0260 H     1 <1>   0.1500 
 41 H        6.3190     7.2820    -1.9580 H     1 <1>   0.1500 
 42 H        9.5310     9.5480    -0.7480 H     1 <1>   0.0800 
 43 H       10.5700     8.1690    -0.5530 H     1 <1>   0.0800 
 44 H        6.5870     7.6360     0.7430 H     1 <1>   0.0800 
 45 H        6.9480     9.2030     0.0690 H     1 <1>   0.0800 
 46 H       10.8290     9.8620     1.2840 H     1 <1>   0.0800 
 47 H       10.3520     8.2910     1.8900 H     1 <1>   0.0800 
 48 H        8.1060     8.0190     2.6160 H     1 <1>   0.0800 
 49 H        7.0300     9.3910     2.4880 H     1 <1>   0.0800 
@<TRIPOS>BOND
  1   1   2  2   
  2   2   3  am  
  3   2   4  1   
  4   3   5  1   
  5   3   6  1   
  6   4   7  ar  
  7   4   8  ar  
  8   5   9  2   
  9   6  10  1   
 10   6  29  1   
 11   6  30  1   
 12   7   9  1   
 13   7  11  ar  
 14   8  12  ar  
 15   8  31  1   
 16   9  32  1   
 17  10  13  1   
 18  10  33  1   
 19  10  34  1   
 20  11  14  ar  
 21  11  35  1   
 22  12  14  ar  
 23  12  36  1   
 24  13  15  1   
 25  13  37  1   
 26  14  38  1   
 27  15  16  ar  
 28  15  17  ar  
 29  16  18  ar  
 30  17  19  ar  
 31  17  39  1   
 32  18  20  ar  
 33  18  40  1   
 34  19  20  ar  
 35  19  41  1   
 36  20  21  1   
 37  21  22  2   
 38  21  23  am  
 39  23  24  1   
 40  23  25  1   
 41  24  26  1   
 42  24  42  1   
 43  24  43  1   
 44  25  27  1   
 45  25  44  1   
 46  25  45  1   
 47  26  28  1   
 48  26  46  1   
 49  26  47  1   
 50  27  28  1   
 51  27  48  1   
 52  27  49  1   
@<TRIPOS>SUBSTRUCTURE
  1 ****  16 GROUP 4 **** **** 0

# MOE 2024.06 (io_trps.svl 2023.06)
