@<TRIPOS>MOLECULE
NONAME
46 48 1 0 0 
SMALL
USER_CHARGES


@<TRIPOS>ATOM
  1 CL      -1.9660     0.9130     0.6860 Cl    1 <1>  -0.1770 
  2 C       -1.5560     2.3940    -0.1460 C.ar  1 <1>   0.1770 
  3 C       -1.6010     3.5880     0.5330 C.ar  1 <1>  -0.1500 
  4 C       -1.1910     2.3180    -1.4950 C.ar  1 <1>  -0.1500 
  5 C       -1.2680     4.7490    -0.1600 C.ar  1 <1>   0.2270 
  6 C       -0.8610     3.4660    -2.1820 C.ar  1 <1>  -0.1500 
  7 N       -1.2330     6.0380     0.2770 N.2   1 <1>  -0.5650 
  8 C       -0.9050     4.6820    -1.4940 C.ar  1 <1>  -0.1520 
  9 C       -0.8640     6.7200    -0.7520 C.2   1 <1>   0.0060 
 10 N       -0.6500     5.9630    -1.8590 N.pl3 1 <1>   0.0330 
 11 C       -0.6790     8.2300    -0.7740 C.3   1 <1>   0.0200 
 12 C       -0.5740     8.8100     0.6410 C.3   1 <1>   0.1100 
 13 N       -0.2580    10.2540     0.6140 N.3   1 <1>  -0.8100 
 14 C        0.2670    10.6830     1.9510 C.3   1 <1>   0.1710 
 15 C       -1.4510    11.0510     0.2640 C.3   1 <1>   0.0300 
 16 C        1.0010    12.0250     1.9310 C.2   1 <1>   0.5690 
 17 O        1.1220    12.6510     2.9600 O.2   1 <1>  -0.5700 
 18 N        1.4870    12.4360     0.7300 N.am  1 <1>  -0.4930 
 19 C        2.1930    13.6100     0.3760 C.2   1 <1>   0.0630 
 20 C        2.6020    13.9640    -0.8620 C.2   1 <1>  -0.3320 
 21 C        2.6200    14.6500     1.2020 C.2   1 <1>   0.1390 
 22 N        3.2350    15.1570    -0.7320 N.pl3 1 <1>   0.3140 
 23 C        2.4290    13.2300    -2.1840 C.3   1 <1>  -0.0600 
 24 N        3.2450    15.5800     0.5420 N.2   1 <1>  -0.7070 
 25 C        3.8580    15.9530    -1.7960 C.3   1 <1>   0.0160 
 26 H       -1.8810     3.6460     1.5660 H     1 <1>   0.1500 
 27 H       -1.1740     1.3560    -1.9750 H     1 <1>   0.1500 
 28 H       -0.5770     3.4340    -3.2200 H     1 <1>   0.1500 
 29 H       -0.3540     6.2850    -2.7830 H     1 <1>   0.2700 
 30 H       -1.5150     8.6640    -1.2890 H     1 <1>   0.0800 
 31 H        0.2240     8.4660    -1.3080 H     1 <1>   0.0800 
 32 H        0.2140     8.2790     1.1480 H     1 <1>   0.0800 
 33 H       -1.4890     8.6330     1.1830 H     1 <1>   0.0800 
 34 H        0.9730     9.9560     2.3100 H     1 <1>   0.0800 
 35 H       -0.5370    10.7370     2.6640 H     1 <1>   0.0800 
 36 H       -1.7840    10.8120    -0.7310 H     1 <1>   0.0800 
 37 H       -1.2230    12.1030     0.2910 H     1 <1>   0.0800 
 38 H       -2.2530    10.8560     0.9560 H     1 <1>   0.0800 
 39 H        1.2410    11.8000    -0.0320 H     1 <1>   0.3700 
 40 H        2.4530    14.6820     2.2650 H     1 <1>   0.1500 
 41 H        1.8950    12.3090    -2.0400 H     1 <1>   0.0800 
 42 H        3.3910    13.0030    -2.6090 H     1 <1>   0.0800 
 43 H        1.8750    13.8400    -2.8760 H     1 <1>   0.0800 
 44 H        4.6370    15.3760    -2.2580 H     1 <1>   0.0800 
 45 H        4.2760    16.8450    -1.3680 H     1 <1>   0.0800 
 46 H        3.1130    16.2170    -2.5220 H     1 <1>   0.0800 
@<TRIPOS>BOND
  1   1   2  1   
  2   2   3  ar  
  3   2   4  ar  
  4   3   5  ar  
  5   3  26  1   
  6   4   6  ar  
  7   4  27  1   
  8   5   7  1   
  9   5   8  ar  
 10   6   8  ar  
 11   6  28  1   
 12   7   9  2   
 13   8  10  1   
 14   9  10  1   
 15   9  11  1   
 16  10  29  1   
 17  11  12  1   
 18  11  30  1   
 19  11  31  1   
 20  12  13  1   
 21  12  32  1   
 22  12  33  1   
 23  13  14  1   
 24  13  15  1   
 25  14  16  1   
 26  14  34  1   
 27  14  35  1   
 28  15  36  1   
 29  15  37  1   
 30  15  38  1   
 31  16  17  2   
 32  16  18  am  
 33  18  19  1   
 34  18  39  1   
 35  19  20  2   
 36  19  21  1   
 37  20  22  1   
 38  20  23  1   
 39  21  24  2   
 40  21  40  1   
 41  22  24  1   
 42  22  25  1   
 43  23  41  1   
 44  23  42  1   
 45  23  43  1   
 46  25  44  1   
 47  25  45  1   
 48  25  46  1   
@<TRIPOS>SUBSTRUCTURE
  1 ****  12 GROUP 4 **** **** 0

# MOE 2024.06 (io_trps.svl 2023.06)
