@<TRIPOS>MOLECULE
NONAME
49 50 1 0 0 
SMALL
USER_CHARGES


@<TRIPOS>ATOM
  1 S       -1.4830    -0.1960    -0.1670 S.3   1 <1>  -0.4600 
  2 C       -0.3470    -1.6210    -0.1200 C.3   1 <1>   0.0700 
  3 C       -0.7960     0.8740    -1.4620 C.3   1 <1>   0.0700 
  4 C       -0.8020    -2.5710     0.9960 C.3   1 <1>   0.3430 
  5 C        0.4170     1.6030    -0.8890 C.3   1 <1>  -0.2400 
  6 N       -2.2880    -2.7560     0.9690 N.4   1 <1>  -0.9590 
  7 C       -2.6970    -3.5460    -0.2490 C.3   1 <1>   0.3430 
  8 C       -2.7710    -3.2800     2.2760 C.3   1 <1>   0.3430 
  9 C       -3.6050    -4.7640     0.0220 C.3   1 <1>   0.0000 
 10 C       -4.2680    -3.5880     2.2480 C.3   1 <1>  -0.1600 
 11 C       -4.7360    -4.2520     0.9450 C.3   1 <1>   0.2000 
 12 C       -4.2620    -5.1510    -1.3240 C.3   1 <1>   0.1200 
 13 C       -2.8400    -6.0040     0.6070 C.3   1 <1>  -0.0170 
 14 O       -5.6260    -5.2690     1.2420 O.3   1 <1>  -0.6800 
 15 O       -3.2930    -5.2750    -2.3080 O.3   1 <1>  -0.6800 
 16 C       -1.3160    -5.9000     0.6930 C.ar  1 <1>  -0.1440 
 17 C       -0.6790    -5.8890     1.9270 C.ar  1 <1>  -0.1500 
 18 C       -0.5420    -5.8420    -0.4580 C.ar  1 <1>  -0.1500 
 19 C        0.6980    -5.7690     2.0100 C.ar  1 <1>  -0.1500 
 20 C        0.8350    -5.7230    -0.3780 C.ar  1 <1>  -0.1500 
 21 C        1.4550    -5.6790     0.8570 C.ar  1 <1>  -0.1500 
 22 H       -0.3760    -2.0970    -1.0840 H     1 <1>   0.0800 
 23 H        0.6450    -1.2520     0.0710 H     1 <1>   0.0800 
 24 H       -0.5380     0.2570    -2.3050 H     1 <1>   0.0800 
 25 H       -1.5700     1.5690    -1.7400 H     1 <1>   0.0800 
 26 H       -0.5150    -2.1390     1.9400 H     1 <1>   0.0800 
 27 H       -0.3010    -3.5210     0.8970 H     1 <1>   0.0800 
 28 H        1.1950     0.9100    -0.6270 H     1 <1>   0.0800 
 29 H        0.1340     2.1650    -0.0170 H     1 <1>   0.0800 
 30 H        0.8060     2.2870    -1.6220 H     1 <1>   0.0800 
 31 H       -2.6590    -1.7960     0.8410 H     1 <1>   0.4500 
 32 H       -3.2260    -2.8830    -0.9130 H     1 <1>   0.0800 
 33 H       -1.8260    -3.8760    -0.7870 H     1 <1>   0.0800 
 34 H       -2.2410    -4.1850     2.5070 H     1 <1>   0.0800 
 35 H       -2.5630    -2.5690     3.0590 H     1 <1>   0.0800 
 36 H       -4.8080    -2.6670     2.3760 H     1 <1>   0.0800 
 37 H       -4.4950    -4.2090     3.0970 H     1 <1>   0.0800 
 38 H       -5.3040    -3.5160     0.3990 H     1 <1>   0.0800 
 39 H       -4.9580    -4.3950    -1.6500 H     1 <1>   0.0800 
 40 H       -4.7920    -6.0870    -1.2420 H     1 <1>   0.0800 
 41 H       -3.2100    -6.2300     1.5900 H     1 <1>   0.0800 
 42 H       -3.0620    -6.8770     0.0160 H     1 <1>   0.0800 
 43 H       -5.2480    -5.9270     1.8570 H     1 <1>   0.4000 
 44 H       -3.6840    -5.6270    -3.1370 H     1 <1>   0.4000 
 45 H       -1.2430    -5.9860     2.8380 H     1 <1>   0.1500 
 46 H       -1.0020    -5.8990    -1.4290 H     1 <1>   0.1500 
 47 H        1.1840    -5.7620     2.9710 H     1 <1>   0.1500 
 48 H        1.4240    -5.6780    -1.2790 H     1 <1>   0.1500 
 49 H        2.5270    -5.5930     0.9190 H     1 <1>   0.1500 
@<TRIPOS>BOND
  1   1   2  1   
  2   1   3  1   
  3   2   4  1   
  4   2  22  1   
  5   2  23  1   
  6   3   5  1   
  7   3  24  1   
  8   3  25  1   
  9   4   6  1   
 10   4  26  1   
 11   4  27  1   
 12   5  28  1   
 13   5  29  1   
 14   5  30  1   
 15   6   7  1   
 16   6   8  1   
 17   6  31  1   
 18   7   9  1   
 19   7  32  1   
 20   7  33  1   
 21   8  10  1   
 22   8  34  1   
 23   8  35  1   
 24   9  11  1   
 25   9  12  1   
 26   9  13  1   
 27  10  11  1   
 28  10  36  1   
 29  10  37  1   
 30  11  14  1   
 31  11  38  1   
 32  12  15  1   
 33  12  39  1   
 34  12  40  1   
 35  13  16  1   
 36  13  41  1   
 37  13  42  1   
 38  14  43  1   
 39  15  44  1   
 40  16  17  ar  
 41  16  18  ar  
 42  17  19  ar  
 43  17  45  1   
 44  18  20  ar  
 45  18  46  1   
 46  19  21  ar  
 47  19  47  1   
 48  20  21  ar  
 49  20  48  1   
 50  21  49  1   
@<TRIPOS>SUBSTRUCTURE
  1 ****   7 GROUP 4 **** **** 0

# MOE 2024.06 (io_trps.svl 2023.06)
