@<TRIPOS>MOLECULE
NONAME
66 69 1 0 0 
SMALL
USER_CHARGES


@<TRIPOS>ATOM
  1 O        0.9910    -1.2060    -0.1760 O.3   1 <1>  -0.5600 
  2 C        0.6190    -2.5100     0.2020 C.3   1 <1>   0.2800 
  3 C        0.1870    -0.1420     0.2580 C.3   1 <1>   0.1200 
  4 C       -0.8480    -2.7790    -0.2010 C.3   1 <1>  -0.1600 
  5 C        0.9250    -2.7160     1.7000 C.3   1 <1>  -0.1600 
  6 C        1.5420    -3.4550    -0.5920 C.3   1 <1>  -0.1600 
  7 C       -1.2340    -0.3070    -0.2800 C.3   1 <1>  -0.1600 
  8 C       -1.8250    -1.6510     0.1420 C.3   1 <1>   0.2800 
  9 C        2.3870    -2.4250     2.0610 C.3   1 <1>   0.3430 
 10 C        2.9770    -3.5410    -0.0580 C.3   1 <1>   0.3430 
 11 O       -2.0100    -1.6330     1.5040 O.3   1 <1>  -0.6800 
 12 C       -3.2010    -1.8870    -0.4750 C.3   1 <1>  -0.2400 
 13 N        3.2410    -2.3930     0.8440 N.4   1 <1>  -0.9590 
 14 C        4.6830    -2.1920     1.1320 C.3   1 <1>   0.4860 
 15 C        5.4080    -1.8970    -0.1650 C.ar  1 <1>  -0.1430 
 16 C        6.1800    -2.8860    -0.7650 C.ar  1 <1>   0.0830 
 17 C        5.3030    -0.6460    -0.7550 C.ar  1 <1>  -0.1500 
 18 O        6.2440    -4.0930    -0.1430 O.3   1 <1>  -0.3630 
 19 C        6.8380    -2.6110    -1.9610 C.ar  1 <1>  -0.1500 
 20 C        5.9600    -0.3800    -1.9420 C.ar  1 <1>  -0.1500 
 21 C        7.1740    -5.0710    -0.5600 C.3   1 <1>   0.1200 
 22 C        6.7260    -1.3620    -2.5440 C.ar  1 <1>  -0.1500 
 23 C        7.1260    -6.2400     0.4250 C.3   1 <1>  -0.1600 
 24 C        8.1350    -7.3290     0.0300 C.3   1 <1>  -0.1600 
 25 C        8.1150    -8.5040     1.0170 C.3   1 <1>   0.0960 
 26 N        9.0960    -9.5280     0.6110 N.pl3 1 <1>   0.0480 
 27 C       10.3850    -9.6440     1.0020 C.2   1 <1>   0.0360 
 28 C        8.9060   -10.5510    -0.2420 C.2   1 <1>  -0.3020 
 29 N       11.0100   -10.6420     0.4680 N.2   1 <1>  -0.5650 
 30 C       10.0800   -11.2160    -0.3170 C.2   1 <1>   0.0770 
 31 H        0.6190     0.7690    -0.1170 H     1 <1>   0.0800 
 32 H        0.1920    -0.1070     1.3330 H     1 <1>   0.0800 
 33 H       -1.1920    -3.7000     0.2360 H     1 <1>   0.0800 
 34 H       -0.8750    -2.9140    -1.2680 H     1 <1>   0.0800 
 35 H        0.7070    -3.7370     1.9560 H     1 <1>   0.0800 
 36 H        0.2900    -2.1170     2.3230 H     1 <1>   0.0800 
 37 H        1.5660    -3.1450    -1.6220 H     1 <1>   0.0800 
 38 H        1.1360    -4.4510    -0.5800 H     1 <1>   0.0800 
 39 H       -1.1970    -0.2500    -1.3530 H     1 <1>   0.0800 
 40 H       -1.8550     0.4990     0.0660 H     1 <1>   0.0800 
 41 H        2.7420    -3.1750     2.7490 H     1 <1>   0.0800 
 42 H        2.4390    -1.4660     2.5510 H     1 <1>   0.0800 
 43 H        3.6650    -3.5350    -0.8890 H     1 <1>   0.0800 
 44 H        3.1140    -4.4630     0.4840 H     1 <1>   0.0800 
 45 H       -2.7810    -1.0730     1.7160 H     1 <1>   0.4000 
 46 H       -3.1230    -1.9250    -1.5470 H     1 <1>   0.0800 
 47 H       -3.8780    -1.0910    -0.2210 H     1 <1>   0.0800 
 48 H       -3.6090    -2.8230    -0.1360 H     1 <1>   0.0800 
 49 H        2.9010    -1.5790     0.2980 H     1 <1>   0.4500 
 50 H        5.0960    -3.0720     1.5960 H     1 <1>   0.0800 
 51 H        4.8120    -1.3590     1.8040 H     1 <1>   0.0800 
 52 H        4.7140     0.1330    -0.3020 H     1 <1>   0.1500 
 53 H        7.4400    -3.3490    -2.4590 H     1 <1>   0.1500 
 54 H        5.8790     0.5910    -2.4010 H     1 <1>   0.1500 
 55 H        8.1550    -4.6260    -0.5700 H     1 <1>   0.0800 
 56 H        6.9060    -5.3970    -1.5510 H     1 <1>   0.0800 
 57 H        7.2370    -1.1510    -3.4690 H     1 <1>   0.1500 
 58 H        6.1330    -6.6560     0.4320 H     1 <1>   0.0800 
 59 H        7.3600    -5.8770     1.4110 H     1 <1>   0.0800 
 60 H        9.1260    -6.9080     0.0070 H     1 <1>   0.0800 
 61 H        7.8990    -7.6950    -0.9560 H     1 <1>   0.0800 
 62 H        7.1390    -8.9560     1.0430 H     1 <1>   0.0800 
 63 H        8.3620    -8.1650     2.0070 H     1 <1>   0.0800 
 64 H       10.8350    -8.9550     1.6950 H     1 <1>   0.1500 
 65 H        7.9750   -10.7480    -0.7400 H     1 <1>   0.1500 
 66 H       10.3080   -12.0910    -0.9020 H     1 <1>   0.1500 
@<TRIPOS>BOND
  1   1   2  1   
  2   1   3  1   
  3   2   4  1   
  4   2   5  1   
  5   2   6  1   
  6   3   7  1   
  7   3  31  1   
  8   3  32  1   
  9   4   8  1   
 10   4  33  1   
 11   4  34  1   
 12   5   9  1   
 13   5  35  1   
 14   5  36  1   
 15   6  10  1   
 16   6  37  1   
 17   6  38  1   
 18   7   8  1   
 19   7  39  1   
 20   7  40  1   
 21   8  11  1   
 22   8  12  1   
 23   9  13  1   
 24   9  41  1   
 25   9  42  1   
 26  10  13  1   
 27  10  43  1   
 28  10  44  1   
 29  11  45  1   
 30  12  46  1   
 31  12  47  1   
 32  12  48  1   
 33  13  14  1   
 34  13  49  1   
 35  14  15  1   
 36  14  50  1   
 37  14  51  1   
 38  15  16  ar  
 39  15  17  ar  
 40  16  18  1   
 41  16  19  ar  
 42  17  20  ar  
 43  17  52  1   
 44  18  21  1   
 45  19  22  ar  
 46  19  53  1   
 47  20  22  ar  
 48  20  54  1   
 49  21  23  1   
 50  21  55  1   
 51  21  56  1   
 52  22  57  1   
 53  23  24  1   
 54  23  58  1   
 55  23  59  1   
 56  24  25  1   
 57  24  60  1   
 58  24  61  1   
 59  25  26  1   
 60  25  62  1   
 61  25  63  1   
 62  26  27  1   
 63  26  28  1   
 64  27  29  2   
 65  27  64  1   
 66  28  30  2   
 67  28  65  1   
 68  29  30  1   
 69  30  66  1   
@<TRIPOS>SUBSTRUCTURE
  1 ****  10 GROUP 4 **** **** 0

# MOE 2024.06 (io_trps.svl 2023.06)
