@<TRIPOS>MOLECULE
NONAME
37 38 1 0 0 
SMALL
USER_CHARGES


@<TRIPOS>ATOM
  1 CL       0.0250     0.1320     0.9060 Cl    1 <1>  -0.1770 
  2 C       -1.3590     1.0240     0.2900 C.ar  1 <1>   0.1770 
  3 C       -1.2620     2.4330     0.1800 C.ar  1 <1>   0.4100 
  4 C       -2.5080     0.3960    -0.0800 C.ar  1 <1>   0.2170 
  5 N       -2.2620     3.1600    -0.2890 N.ar  1 <1>  -0.6200 
  6 N       -0.1340     3.0850     0.5520 N.pl3 1 <1>  -0.8690 
  7 N       -3.5110     1.1890    -0.5450 N.ar  1 <1>  -0.1790 
  8 C       -2.7580    -1.1060    -0.0160 C.3   1 <1>  -0.0970 
  9 C       -3.3650     2.5260    -0.6360 C.ar  1 <1>   0.7710 
 10 C        0.0660     4.5610     0.6180 C.3   1 <1>   0.2090 
 11 N       -4.3590     3.2790    -1.0940 N.pl3 1 <1>  -0.9000 
 12 C        0.6730     5.0680    -0.6890 C.3   1 <1>   0.0960 
 13 N        0.8670     6.5270    -0.6060 N.pl3 1 <1>   0.0480 
 14 C        1.9240     7.2130    -0.1210 C.2   1 <1>  -0.3320 
 15 C       -0.0210     7.4740    -0.9750 C.2   1 <1>   0.0360 
 16 C        1.6020     8.5240    -0.2270 C.2   1 <1>   0.0460 
 17 C        3.1860     6.5500     0.4130 C.3   1 <1>  -0.0600 
 18 N        0.3800     8.6820    -0.7620 N.2   1 <1>  -0.5650 
 19 C        2.3970     9.7520     0.1560 C.3   1 <1>  -0.0590 
 20 H        0.6620     2.5370     0.9060 H     1 <1>   0.4000 
 21 H       -4.4040     0.8020    -0.8380 H     1 <1>   0.4570 
 22 H       -1.9010    -1.6330     0.3660 H     1 <1>   0.0800 
 23 H       -2.9710    -1.4950    -0.9960 H     1 <1>   0.0800 
 24 H       -3.5890    -1.3220     0.6330 H     1 <1>   0.0800 
 25 H        0.7210     4.7920     1.4400 H     1 <1>   0.0800 
 26 H       -0.8780     5.0510     0.7910 H     1 <1>   0.0800 
 27 H       -5.2890     3.0000    -1.4120 H     1 <1>   0.4000 
 28 H       -4.2030     4.2930    -1.1370 H     1 <1>   0.4000 
 29 H        0.0100     4.8540    -1.5070 H     1 <1>   0.0800 
 30 H        1.6210     4.5980    -0.8700 H     1 <1>   0.0800 
 31 H       -0.9750     7.2290    -1.4040 H     1 <1>   0.1500 
 32 H        2.9520     5.9230     1.2540 H     1 <1>   0.0800 
 33 H        3.8990     7.2870     0.7330 H     1 <1>   0.0800 
 34 H        3.6440     5.9540    -0.3560 H     1 <1>   0.0800 
 35 H        3.3490     9.4860     0.5720 H     1 <1>   0.0800 
 36 H        1.8450    10.3220     0.8810 H     1 <1>   0.0800 
 37 H        2.5540    10.3600    -0.7160 H     1 <1>   0.0800 
@<TRIPOS>BOND
  1   1   2  1   
  2   2   3  ar  
  3   2   4  ar  
  4   3   5  ar  
  5   3   6  1   
  6   4   7  ar  
  7   4   8  1   
  8   5   9  ar  
  9   6  10  1   
 10   6  20  1   
 11   7   9  ar  
 12   7  21  1   
 13   8  22  1   
 14   8  23  1   
 15   8  24  1   
 16   9  11  1   
 17  10  12  1   
 18  10  25  1   
 19  10  26  1   
 20  11  27  1   
 21  11  28  1   
 22  12  13  1   
 23  12  29  1   
 24  12  30  1   
 25  13  14  1   
 26  13  15  1   
 27  14  16  2   
 28  14  17  1   
 29  15  18  2   
 30  15  31  1   
 31  16  18  1   
 32  16  19  1   
 33  17  32  1   
 34  17  33  1   
 35  17  34  1   
 36  19  35  1   
 37  19  36  1   
 38  19  37  1   
@<TRIPOS>SUBSTRUCTURE
  1 ****  10 GROUP 4 **** **** 0

# MOE 2024.06 (io_trps.svl 2023.06)
