@<TRIPOS>MOLECULE
NONAME
49 52 1 0 0 
SMALL
USER_CHARGES


@<TRIPOS>ATOM
  1 O       -1.0070    -1.3060    -1.9970 O.3   1 <1>  -0.6800 
  2 C       -1.6290    -2.3050    -1.2660 C.3   1 <1>   0.2000 
  3 C       -3.0460    -2.5460    -1.8200 C.3   1 <1>   0.2090 
  4 C       -1.6580    -1.8620     0.1990 C.3   1 <1>  -0.1600 
  5 N       -3.7990    -3.5100    -0.9480 N.pl3 1 <1>  -0.8380 
  6 C       -2.4700    -2.8570     1.0430 C.3   1 <1>  -0.1600 
  7 C       -4.2540    -4.7230    -1.3550 C.ar  1 <1>   0.4100 
  8 C       -3.8800    -3.0590     0.4780 C.3   1 <1>   0.2090 
  9 N       -4.2850    -5.6990    -0.4660 N.ar  1 <1>  -0.6200 
 10 C       -4.6880    -4.9300    -2.6800 C.ar  1 <1>  -0.1500 
 11 C       -4.6880    -6.8950    -0.8610 C.ar  1 <1>   0.7710 
 12 C       -5.1370    -6.1530    -3.0480 C.ar  1 <1>   0.2110 
 13 N       -5.1290    -7.1270    -2.1110 N.ar  1 <1>  -0.1790 
 14 N       -4.6720    -7.9060     0.0320 N.3   1 <1>  -0.5900 
 15 C       -5.5760    -7.9910     1.2300 C.3   1 <1>   0.2450 
 16 C       -4.7800    -9.4010    -0.1140 C.3   1 <1>   0.2450 
 17 C       -6.1250    -9.3130     0.6410 C.3   1 <1>   0.0850 
 18 N       -7.2910    -9.0980    -0.2570 N.pl3 1 <1>   0.4850 
 19 N       -7.1810    -8.9100    -1.6030 N.2   1 <1>  -0.7070 
 20 C       -8.5860    -9.0560     0.1290 C.2   1 <1>  -0.3320 
 21 C       -8.4040    -8.7820    -2.0200 C.2   1 <1>   0.1080 
 22 C       -9.3230    -8.8560    -0.9830 C.2   1 <1>  -0.1500 
 23 C       -9.0830    -9.2170     1.5590 C.3   1 <1>  -0.0600 
 24 C       -8.7730    -8.5840    -3.4730 C.3   1 <1>  -0.0590 
 25 H       -0.6790    -1.6480    -2.8500 H     1 <1>   0.4000 
 26 H       -1.0430    -3.2030    -1.3630 H     1 <1>   0.0800 
 27 H       -2.9600    -2.9250    -2.8200 H     1 <1>   0.0800 
 28 H       -3.5800    -1.6110    -1.8450 H     1 <1>   0.0800 
 29 H       -2.1110    -0.8880     0.2680 H     1 <1>   0.0800 
 30 H       -0.6530    -1.8010     0.5780 H     1 <1>   0.0800 
 31 H       -2.5430    -2.4960     2.0530 H     1 <1>   0.0800 
 32 H       -1.9710    -3.8100     1.0710 H     1 <1>   0.0800 
 33 H       -4.4140    -3.7730     1.0820 H     1 <1>   0.0800 
 34 H       -4.4220    -2.1300     0.5200 H     1 <1>   0.0800 
 35 H       -4.6820    -4.1070    -3.3690 H     1 <1>   0.1500 
 36 H       -5.5080    -6.3760    -4.0350 H     1 <1>   0.1500 
 37 H       -5.6250    -8.0220    -2.2380 H     1 <1>   0.4570 
 38 H       -6.2930    -7.1900     1.2690 H     1 <1>   0.0000 
 39 H       -5.0070    -8.1200     2.1340 H     1 <1>   0.0000 
 40 H       -4.0080    -9.8930     0.4510 H     1 <1>   0.0000 
 41 H       -4.8320    -9.7280    -1.1360 H     1 <1>   0.0000 
 42 H       -6.2880   -10.0970     1.3590 H     1 <1>   0.0000 
 43 H      -10.3930    -8.7740    -1.0750 H     1 <1>   0.1500 
 44 H       -8.6760    -8.4460     2.1900 H     1 <1>   0.0800 
 45 H       -8.7990   -10.1780     1.9500 H     1 <1>   0.0800 
 46 H      -10.1560    -9.1450     1.5870 H     1 <1>   0.0800 
 47 H       -8.2510    -9.2990    -4.0830 H     1 <1>   0.0800 
 48 H       -8.5130    -7.5900    -3.7870 H     1 <1>   0.0800 
 49 H       -9.8300    -8.7250    -3.6090 H     1 <1>   0.0800 
@<TRIPOS>BOND
  1   1   2  1   
  2   1  25  1   
  3   2   3  1   
  4   2   4  1   
  5   2  26  1   
  6   3   5  1   
  7   3  27  1   
  8   3  28  1   
  9   4   6  1   
 10   4  29  1   
 11   4  30  1   
 12   5   7  1   
 13   5   8  1   
 14   6   8  1   
 15   6  31  1   
 16   6  32  1   
 17   7   9  ar  
 18   7  10  ar  
 19   8  33  1   
 20   8  34  1   
 21   9  11  ar  
 22  10  12  ar  
 23  10  35  1   
 24  11  13  ar  
 25  11  14  1   
 26  12  13  ar  
 27  12  36  1   
 28  13  37  1   
 29  14  15  1   
 30  14  16  1   
 31  15  17  1   
 32  15  38  1   
 33  15  39  1   
 34  16  17  1   
 35  16  40  1   
 36  16  41  1   
 37  17  18  1   
 38  17  42  1   
 39  18  19  1   
 40  18  20  1   
 41  19  21  2   
 42  20  22  2   
 43  20  23  1   
 44  21  22  1   
 45  21  24  1   
 46  22  43  1   
 47  23  44  1   
 48  23  45  1   
 49  23  46  1   
 50  24  47  1   
 51  24  48  1   
 52  24  49  1   
@<TRIPOS>SUBSTRUCTURE
  1 ****  11 GROUP 4 **** **** 0

# MOE 2024.06 (io_trps.svl 2023.06)
