@<TRIPOS>MOLECULE
NONAME
44 45 1 0 0 
SMALL
USER_CHARGES


@<TRIPOS>ATOM
  1 CL      -0.2170     0.4500    -1.2310 Cl    1 <1>  -0.1770 
  2 C       -1.8390     0.8360    -0.7220 C.ar  1 <1>   0.1770 
  3 C       -2.6500    -0.1610    -0.2140 C.ar  1 <1>  -0.1500 
  4 C       -2.2960     2.1350    -0.8310 C.ar  1 <1>  -0.1500 
  5 C       -3.9360     0.1510     0.1900 C.ar  1 <1>  -0.1500 
  6 C       -3.5840     2.4350    -0.4250 C.ar  1 <1>  -0.1500 
  7 C       -4.4340     1.4530     0.0920 C.ar  1 <1>   0.0530 
  8 C       -5.7680     1.7950     0.5190 C.2   1 <1>   0.0870 
  9 O       -5.9740     2.9440     1.1140 O.3   1 <1>  -0.0190 
 10 C       -6.9720     1.1580     0.4640 C.2   1 <1>  -0.0860 
 11 N       -7.2170     3.1240     1.4680 N.2   1 <1>  -0.4100 
 12 C       -7.8350     2.0710     1.0820 C.2   1 <1>   0.3720 
 13 C       -7.3350    -0.1150    -0.0830 C.2   1 <1>   0.7160 
 14 N       -9.2000     1.9450     1.2920 N.pl3 1 <1>  -0.8520 
 15 O       -6.6510    -0.6580    -0.9290 O.2   1 <1>  -0.5700 
 16 N       -8.4650    -0.7510     0.3310 N.am  1 <1>  -0.7300 
 17 C      -10.0330     2.1210     0.0700 C.3   1 <1>   0.2090 
 18 C       -9.0560    -1.9660    -0.2800 C.3   1 <1>   0.1400 
 19 C      -11.4820     1.7290     0.3570 C.3   1 <1>   0.1200 
 20 C      -10.5950    -1.9200    -0.2310 C.3   1 <1>   0.2000 
 21 O      -12.1730     1.6600    -0.8510 O.3   1 <1>  -0.5600 
 22 O      -11.0200    -1.6740     1.0640 O.3   1 <1>  -0.6800 
 23 C      -11.2330    -3.2320    -0.6760 C.3   1 <1>  -0.2400 
 24 C      -13.4640     1.1580    -0.7250 C.3   1 <1>   0.0400 
 25 H       -2.2760    -1.1670    -0.1390 H     1 <1>   0.1500 
 26 H       -1.6490     2.8960    -1.2280 H     1 <1>   0.1500 
 27 H       -4.5620    -0.6270     0.5880 H     1 <1>   0.1500 
 28 H       -3.9420     3.4460    -0.5090 H     1 <1>   0.1500 
 29 H       -9.4640     2.6660     1.9730 H     1 <1>   0.4000 
 30 H       -9.0870    -0.2310     0.9670 H     1 <1>   0.3700 
 31 H       -9.9940     3.1480    -0.2520 H     1 <1>   0.0800 
 32 H       -9.6540     1.4960    -0.7210 H     1 <1>   0.0800 
 33 H       -8.7360    -2.0470    -1.3050 H     1 <1>   0.0800 
 34 H       -8.6990    -2.8340     0.2460 H     1 <1>   0.0800 
 35 H      -11.9560     2.4620     0.9850 H     1 <1>   0.0800 
 36 H      -11.5150     0.7630     0.8280 H     1 <1>   0.0800 
 37 H      -10.9500    -1.1130    -0.8510 H     1 <1>   0.0800 
 38 H      -10.7170    -2.3890     1.6560 H     1 <1>   0.4000 
 39 H      -10.9040    -4.0500    -0.0610 H     1 <1>   0.0800 
 40 H      -10.9600    -3.4410    -1.6950 H     1 <1>   0.0800 
 41 H      -12.3050    -3.1540    -0.6270 H     1 <1>   0.0800 
 42 H      -13.9160     1.1460    -1.7010 H     1 <1>   0.0800 
 43 H      -14.0320     1.7950    -0.0690 H     1 <1>   0.0800 
 44 H      -13.4180     0.1560    -0.3330 H     1 <1>   0.0800 
@<TRIPOS>BOND
  1   1   2  1   
  2   2   3  ar  
  3   2   4  ar  
  4   3   5  ar  
  5   3  25  1   
  6   4   6  ar  
  7   4  26  1   
  8   5   7  ar  
  9   5  27  1   
 10   6   7  ar  
 11   6  28  1   
 12   7   8  1   
 13   8   9  1   
 14   8  10  2   
 15   9  11  1   
 16  10  12  1   
 17  10  13  1   
 18  11  12  2   
 19  12  14  1   
 20  13  15  2   
 21  13  16  am  
 22  14  17  1   
 23  14  29  1   
 24  16  18  1   
 25  16  30  1   
 26  17  19  1   
 27  17  31  1   
 28  17  32  1   
 29  18  20  1   
 30  18  33  1   
 31  18  34  1   
 32  19  21  1   
 33  19  35  1   
 34  19  36  1   
 35  20  22  1   
 36  20  23  1   
 37  20  37  1   
 38  21  24  1   
 39  22  38  1   
 40  23  39  1   
 41  23  40  1   
 42  23  41  1   
 43  24  42  1   
 44  24  43  1   
 45  24  44  1   
@<TRIPOS>SUBSTRUCTURE
  1 ****  10 GROUP 4 **** **** 0

# MOE 2024.06 (io_trps.svl 2023.06)
