@<TRIPOS>MOLECULE
NONAME
41 43 1 0 0 
SMALL
USER_CHARGES


@<TRIPOS>ATOM
  1 S       -0.2210    -0.1030     0.6960 S.3   1 <1>  -0.0800 
  2 C       -1.5450    -0.8040    -0.1780 C.2   1 <1>   0.4420 
  3 C       -0.7010     1.4300     0.0550 C.2   1 <1>   0.1980 
  4 N       -2.2070     0.0750    -0.8370 N.2   1 <1>  -0.3380 
  5 N       -1.7090    -2.1680    -0.0520 N.am  1 <1>  -0.4940 
  6 N       -1.7200     1.3460    -0.7000 N.2   1 <1>  -0.3380 
  7 C        0.1160     2.6450     0.4510 C.3   1 <1>   0.0200 
  8 C       -2.6540    -2.9930    -0.6090 C.2   1 <1>   0.5440 
  9 C       -0.4280     3.9180    -0.1940 C.3   1 <1>   0.1200 
 10 O       -3.5140    -2.5480    -1.3350 O.2   1 <1>  -0.5700 
 11 C       -2.6130    -4.4030    -0.3130 C.ar  1 <1>   0.0860 
 12 O        0.3690     4.9820     0.2150 O.3   1 <1>  -0.5600 
 13 C       -3.7160    -5.1000     0.1970 C.ar  1 <1>   0.0000 
 14 C       -1.4770    -5.1730    -0.5030 C.ar  1 <1>  -0.1500 
 15 C       -0.0230     6.2080    -0.3050 C.3   1 <1>   0.1200 
 16 C       -3.5750    -6.4360     0.4770 C.ar  1 <1>   0.3970 
 17 C       -5.0520    -4.8540     0.5700 C.2   1 <1>   0.1080 
 18 C       -1.4590    -6.5320    -0.1840 C.ar  1 <1>   0.1660 
 19 C        0.9380     7.2610     0.2300 C.3   1 <1>  -0.2400 
 20 O       -4.7230    -6.8730     0.9620 O.3   1 <1>  -0.0190 
 21 N       -2.4840    -7.1850     0.3110 N.ar  1 <1>  -0.5670 
 22 N       -5.6150    -5.9130     1.0190 N.2   1 <1>  -0.4100 
 23 C       -5.7720    -3.5240     0.4670 C.3   1 <1>  -0.0590 
 24 C       -0.2000    -7.3450    -0.4090 C.3   1 <1>  -0.0970 
 25 H       -1.0480    -2.6150     0.5770 H     1 <1>   0.3700 
 26 H        1.1330     2.4990     0.1380 H     1 <1>   0.0800 
 27 H        0.0880     2.7510     1.5190 H     1 <1>   0.0800 
 28 H       -1.4420     4.0980     0.1230 H     1 <1>   0.0800 
 29 H       -0.3880     3.8440    -1.2680 H     1 <1>   0.0800 
 30 H       -0.5920    -4.7210    -0.9130 H     1 <1>   0.1500 
 31 H       -1.0310     6.4160     0.0130 H     1 <1>   0.0800 
 32 H        0.0240     6.1620    -1.3800 H     1 <1>   0.0800 
 33 H        0.8930     7.2890     1.3040 H     1 <1>   0.0800 
 34 H        0.6670     8.2290    -0.1510 H     1 <1>   0.0800 
 35 H        1.9420     7.0370    -0.0810 H     1 <1>   0.0800 
 36 H       -5.1880    -2.7450     0.9240 H     1 <1>   0.0800 
 37 H       -6.7230    -3.5780     0.9650 H     1 <1>   0.0800 
 38 H       -5.9390    -3.2780    -0.5660 H     1 <1>   0.0800 
 39 H        0.5890    -6.7440    -0.8200 H     1 <1>   0.0800 
 40 H       -0.4110    -8.1520    -1.0880 H     1 <1>   0.0800 
 41 H        0.1300    -7.7630     0.5250 H     1 <1>   0.0800 
@<TRIPOS>BOND
  1   1   2  1   
  2   1   3  1   
  3   2   4  2   
  4   2   5  1   
  5   3   6  2   
  6   3   7  1   
  7   4   6  1   
  8   5   8  am  
  9   5  25  1   
 10   7   9  1   
 11   7  26  1   
 12   7  27  1   
 13   8  10  2   
 14   8  11  1   
 15   9  12  1   
 16   9  28  1   
 17   9  29  1   
 18  11  13  ar  
 19  11  14  ar  
 20  12  15  1   
 21  13  16  ar  
 22  13  17  1   
 23  14  18  ar  
 24  14  30  1   
 25  15  19  1   
 26  15  31  1   
 27  15  32  1   
 28  16  20  1   
 29  16  21  ar  
 30  17  22  2   
 31  17  23  1   
 32  18  21  ar  
 33  18  24  1   
 34  19  33  1   
 35  19  34  1   
 36  19  35  1   
 37  20  22  1   
 38  23  36  1   
 39  23  37  1   
 40  23  38  1   
 41  24  39  1   
 42  24  40  1   
 43  24  41  1   
@<TRIPOS>SUBSTRUCTURE
  1 ****   5 GROUP 4 **** **** 0

# MOE 2024.06 (io_trps.svl 2023.06)
