@<TRIPOS>MOLECULE
NONAME
43 45 1 0 0 
SMALL
USER_CHARGES


@<TRIPOS>ATOM
  1 O        0.5210    -0.5240    -2.0980 O.2   1 <1>  -0.5700 
  2 C        1.2910    -1.0410    -1.3120 C.2   1 <1>   0.5440 
  3 N        2.1350    -0.2420    -0.5750 N.am  1 <1>  -0.6600 
  4 C        1.2920    -2.4820    -1.1630 C.ar  1 <1>   0.0860 
  5 C        2.1320     1.2340    -0.6890 C.3   1 <1>   0.1400 
  6 C        2.8380    -0.6740     0.6540 C.3   1 <1>   0.1400 
  7 C        0.1430    -3.1890    -0.8680 C.ar  1 <1>  -0.1500 
  8 C        2.4370    -3.2550    -1.3110 C.ar  1 <1>  -0.1500 
  9 C        2.5960     1.7310     0.6750 C.3   1 <1>  -0.1600 
 10 C        3.4580     0.5980     1.2230 C.3   1 <1>  -0.1600 
 11 C        0.1710    -4.5680    -0.7160 C.ar  1 <1>   0.4100 
 12 C        2.3730    -4.6220    -1.1420 C.ar  1 <1>   0.1600 
 13 N        1.2740    -5.2920    -0.8440 N.ar  1 <1>  -0.6200 
 14 N       -0.9980    -5.2310    -0.4200 N.pl3 1 <1>  -0.8690 
 15 C       -1.0850    -6.7060    -0.4560 C.3   1 <1>   0.2090 
 16 C       -2.4810    -7.1290    -0.0070 C.3   1 <1>  -0.1600 
 17 C       -2.6250    -8.6570    -0.0110 C.3   1 <1>   0.0200 
 18 C       -4.0080    -9.1130     0.4210 C.2   1 <1>  -0.0400 
 19 O       -4.2540   -10.4080     0.4180 O.3   1 <1>  -0.2800 
 20 C       -5.1010    -8.4290     0.8300 C.2   1 <1>  -0.1500 
 21 C       -5.4970   -10.5820     0.8210 C.2   1 <1>  -0.0100 
 22 C       -6.0790    -9.3960     1.0930 C.2   1 <1>  -0.1500 
 23 H        1.1510     1.6070    -0.9320 H     1 <1>   0.0800 
 24 H        2.8280     1.5260    -1.4570 H     1 <1>   0.0800 
 25 H        3.5950    -1.4070     0.4340 H     1 <1>   0.0800 
 26 H        2.1220    -1.0850     1.3460 H     1 <1>   0.0800 
 27 H       -0.7840    -2.6630    -0.7520 H     1 <1>   0.1500 
 28 H        3.3680    -2.7810    -1.5610 H     1 <1>   0.1500 
 29 H        1.7340     1.8730     1.3030 H     1 <1>   0.0800 
 30 H        3.1330     2.6590     0.6000 H     1 <1>   0.0800 
 31 H        4.4630     0.6930     0.8510 H     1 <1>   0.0800 
 32 H        3.4830     0.5850     2.2980 H     1 <1>   0.0800 
 33 H        3.2730    -5.2010    -1.2600 H     1 <1>   0.1500 
 34 H       -1.8530    -4.7580    -0.7140 H     1 <1>   0.4000 
 35 H       -0.3410    -7.1210     0.2040 H     1 <1>   0.0800 
 36 H       -0.8870    -7.0500    -1.4570 H     1 <1>   0.0800 
 37 H       -3.2120    -6.7060    -0.6730 H     1 <1>   0.0800 
 38 H       -2.6560    -6.7610     0.9880 H     1 <1>   0.0800 
 39 H       -1.9010    -9.0920     0.6550 H     1 <1>   0.0800 
 40 H       -2.4380    -9.0360    -1.0000 H     1 <1>   0.0800 
 41 H       -5.2340    -7.3690     0.9450 H     1 <1>   0.1500 
 42 H       -5.8850   -11.5830     0.8850 H     1 <1>   0.1500 
 43 H       -7.0780    -9.1990     1.4390 H     1 <1>   0.1500 
@<TRIPOS>BOND
  1   1   2  2   
  2   2   3  am  
  3   2   4  1   
  4   3   5  1   
  5   3   6  1   
  6   4   7  ar  
  7   4   8  ar  
  8   5   9  1   
  9   5  23  1   
 10   5  24  1   
 11   6  10  1   
 12   6  25  1   
 13   6  26  1   
 14   7  11  ar  
 15   7  27  1   
 16   8  12  ar  
 17   8  28  1   
 18   9  10  1   
 19   9  29  1   
 20   9  30  1   
 21  10  31  1   
 22  10  32  1   
 23  11  13  ar  
 24  11  14  1   
 25  12  13  ar  
 26  12  33  1   
 27  14  15  1   
 28  14  34  1   
 29  15  16  1   
 30  15  35  1   
 31  15  36  1   
 32  16  17  1   
 33  16  37  1   
 34  16  38  1   
 35  17  18  1   
 36  17  39  1   
 37  17  40  1   
 38  18  19  1   
 39  18  20  2   
 40  19  21  1   
 41  20  22  1   
 42  20  41  1   
 43  21  22  2   
 44  21  42  1   
 45  22  43  1   
@<TRIPOS>SUBSTRUCTURE
  1 ****  11 GROUP 4 **** **** 0

# MOE 2024.06 (io_trps.svl 2023.06)
