@<TRIPOS>MOLECULE
NONAME
41 43 1 0 0 
SMALL
USER_CHARGES


@<TRIPOS>ATOM
  1 S        0.6970    -0.1500    -1.3830 S.o2  1 <1>   1.4470 
  2 O        0.2080     0.2690    -2.6740 O.2   1 <1>  -0.6500 
  3 O        1.8020    -1.0840    -1.3490 O.2   1 <1>  -0.6500 
  4 N        1.3260     1.2520    -0.6560 N.am  1 <1>  -0.8490 
  5 C       -0.7130    -0.6540    -0.3660 C.ar  1 <1>  -0.0090 
  6 C        1.8320     1.1060     0.7380 C.3   1 <1>   0.2760 
  7 C        2.0890     2.0860    -1.6100 C.3   1 <1>   0.1960 
  8 C       -0.5650    -1.4710     0.7490 C.ar  1 <1>   0.1900 
  9 C       -2.0030    -0.2200    -0.6580 C.ar  1 <1>  -0.1500 
 10 C        1.9170     2.4600     1.4630 C.3   1 <1>   0.1200 
 11 C        3.1730     0.3320     0.8900 C.3   1 <1>   0.3430 
 12 C        3.4280     2.6640    -1.1200 C.3   1 <1>  -0.0800 
 13 F        0.6280    -1.8810     1.0900 F     1 <1>  -0.1900 
 14 C       -1.6210    -1.8740     1.5510 C.ar  1 <1>  -0.1500 
 15 C       -3.0600    -0.6150     0.1420 C.ar  1 <1>   0.1900 
 16 O        3.1440     3.0790     1.2300 O.3   1 <1>  -0.5600 
 17 N        4.0130     0.2840    -0.3550 N.4   1 <1>  -0.9590 
 18 C        3.2650     3.7020    -0.0020 C.3   1 <1>   0.1200 
 19 C        4.5170     1.6200    -0.8040 C.3   1 <1>   0.3430 
 20 C       -2.8980    -1.4370     1.2420 C.ar  1 <1>  -0.1500 
 21 F       -4.2590    -0.1950    -0.1540 F     1 <1>  -0.1900 
 22 C        5.1280    -0.6930    -0.1990 C.3   1 <1>   0.2630 
 23 H        1.0920     0.5620     1.2950 H     1 <1>   0.0800 
 24 H        2.3000     1.5190    -2.5030 H     1 <1>   0.0800 
 25 H        1.4510     2.8990    -1.9170 H     1 <1>   0.0800 
 26 H       -2.1910     0.4190    -1.5060 H     1 <1>   0.1500 
 27 H        1.8560     2.2970     2.5250 H     1 <1>   0.0800 
 28 H        1.1100     3.1150     1.1790 H     1 <1>   0.0800 
 29 H        2.9310    -0.6780     1.1780 H     1 <1>   0.0800 
 30 H        3.7390     0.7670     1.6970 H     1 <1>   0.0800 
 31 H        3.8080     3.2290    -1.9520 H     1 <1>   0.0800 
 32 H       -1.4480    -2.5140     2.3990 H     1 <1>   0.1500 
 33 H        3.3700    -0.1000    -1.0790 H     1 <1>   0.4500 
 34 H        2.4120     4.3420    -0.1660 H     1 <1>   0.0800 
 35 H        4.1430     4.3240     0.0500 H     1 <1>   0.0800 
 36 H        5.1740     2.0260    -0.0510 H     1 <1>   0.0800 
 37 H        5.1030     1.4750    -1.6970 H     1 <1>   0.0800 
 38 H       -3.7490    -1.7230     1.8350 H     1 <1>   0.1500 
 39 H        5.8020    -0.3720     0.5780 H     1 <1>   0.0800 
 40 H        5.6770    -0.7820    -1.1220 H     1 <1>   0.0800 
 41 H        4.7370    -1.6640     0.0580 H     1 <1>   0.0800 
@<TRIPOS>BOND
  1   1   2  2   
  2   1   3  2   
  3   1   4  am  
  4   1   5  1   
  5   4   6  1   
  6   4   7  1   
  7   5   8  ar  
  8   5   9  ar  
  9   6  10  1   
 10   6  11  1   
 11   6  23  1   
 12   7  12  1   
 13   7  24  1   
 14   7  25  1   
 15   8  13  1   
 16   8  14  ar  
 17   9  15  ar  
 18   9  26  1   
 19  10  16  1   
 20  10  27  1   
 21  10  28  1   
 22  11  17  1   
 23  11  29  1   
 24  11  30  1   
 25  12  18  1   
 26  12  19  1   
 27  12  31  1   
 28  14  20  ar  
 29  14  32  1   
 30  15  20  ar  
 31  15  21  1   
 32  16  18  1   
 33  17  19  1   
 34  17  22  1   
 35  17  33  1   
 36  18  34  1   
 37  18  35  1   
 38  19  36  1   
 39  19  37  1   
 40  20  38  1   
 41  22  39  1   
 42  22  40  1   
 43  22  41  1   
@<TRIPOS>SUBSTRUCTURE
  1 ****   4 GROUP 4 **** **** 0

# MOE 2024.06 (io_trps.svl 2023.06)
