@<TRIPOS>MOLECULE
NONAME
43 44 1 0 0 
SMALL
USER_CHARGES


@<TRIPOS>ATOM
  1 O        2.2650    -0.9620     2.4160 O.2   1 <1>  -0.5700 
  2 C        2.1680    -1.1950     1.2280 C.2   1 <1>   0.5440 
  3 N        2.3600    -0.1850     0.3180 N.am  1 <1>  -0.4940 
  4 C        1.8640    -2.5370     0.7670 C.ar  1 <1>   0.0860 
  5 C        2.6850     1.1640     0.4900 C.2   1 <1>   0.2040 
  6 C        1.2280    -2.8140    -0.4530 C.ar  1 <1>   0.0830 
  7 C        2.2120    -3.6380     1.5520 C.ar  1 <1>  -0.1500 
  8 O        2.9370     1.6900     1.6660 O.3   1 <1>  -0.0190 
  9 C        2.8030     2.1450    -0.4280 C.2   1 <1>  -0.1810 
 10 O        0.8240    -1.8200    -1.2740 O.3   1 <1>  -0.3630 
 11 C        0.9870    -4.1130    -0.8680 C.ar  1 <1>  -0.1500 
 12 C        1.9780    -4.9400     1.1530 C.ar  1 <1>   0.0830 
 13 N        3.2170     2.9660     1.5800 N.2   1 <1>  -0.4100 
 14 C        3.1440     3.2630     0.3320 C.2   1 <1>   0.1080 
 15 C        2.6190     2.0840    -1.9350 C.3   1 <1>  -0.0590 
 16 C       -0.5060    -1.3790    -1.1040 C.3   1 <1>   0.0400 
 17 C        1.3490    -5.1950    -0.0750 C.ar  1 <1>   0.0830 
 18 O        2.3830    -5.9060     2.0240 O.3   1 <1>  -0.3630 
 19 C        3.4040     4.6610    -0.2040 C.3   1 <1>   0.0210 
 20 O        1.0920    -6.4770    -0.4500 O.3   1 <1>  -0.3630 
 21 C        3.0750    -7.0350     1.5370 C.3   1 <1>   0.0400 
 22 C        4.8600     4.8220    -0.6540 C.3   1 <1>  -0.2400 
 23 C        0.3870    -6.7980    -1.6290 C.3   1 <1>   0.0400 
 24 H        2.1670    -0.4690    -0.6430 H     1 <1>   0.3700 
 25 H        2.6870    -3.4720     2.5030 H     1 <1>   0.1500 
 26 H        0.5110    -4.2520    -1.8190 H     1 <1>   0.1500 
 27 H        2.3580     1.0890    -2.2460 H     1 <1>   0.0800 
 28 H        3.5310     2.3690    -2.4280 H     1 <1>   0.0800 
 29 H        1.8350     2.7550    -2.2360 H     1 <1>   0.0800 
 30 H       -0.7000    -0.6000    -1.8190 H     1 <1>   0.0800 
 31 H       -0.6250    -0.9980    -0.1040 H     1 <1>   0.0800 
 32 H       -1.1750    -2.2060    -1.2710 H     1 <1>   0.0800 
 33 H        3.1910     5.3740     0.5730 H     1 <1>   0.0800 
 34 H        2.7410     4.8610    -1.0250 H     1 <1>   0.0800 
 35 H        3.6670    -7.4370     2.3400 H     1 <1>   0.0800 
 36 H        3.7110    -6.7380     0.7220 H     1 <1>   0.0800 
 37 H        2.3600    -7.7690     1.2140 H     1 <1>   0.0800 
 38 H        5.5200     4.6370     0.1750 H     1 <1>   0.0800 
 39 H        5.0290     5.8210    -1.0140 H     1 <1>   0.0800 
 40 H        5.0900     4.1250    -1.4390 H     1 <1>   0.0800 
 41 H        0.2900    -7.8670    -1.6790 H     1 <1>   0.0800 
 42 H        0.9430    -6.4420    -2.4780 H     1 <1>   0.0800 
 43 H       -0.5880    -6.3460    -1.5870 H     1 <1>   0.0800 
@<TRIPOS>BOND
  1   1   2  2   
  2   2   3  am  
  3   2   4  1   
  4   3   5  1   
  5   3  24  1   
  6   4   6  ar  
  7   4   7  ar  
  8   5   8  1   
  9   5   9  2   
 10   6  10  1   
 11   6  11  ar  
 12   7  12  ar  
 13   7  25  1   
 14   8  13  1   
 15   9  14  1   
 16   9  15  1   
 17  10  16  1   
 18  11  17  ar  
 19  11  26  1   
 20  12  17  ar  
 21  12  18  1   
 22  13  14  2   
 23  14  19  1   
 24  15  27  1   
 25  15  28  1   
 26  15  29  1   
 27  16  30  1   
 28  16  31  1   
 29  16  32  1   
 30  17  20  1   
 31  18  21  1   
 32  19  22  1   
 33  19  33  1   
 34  19  34  1   
 35  20  23  1   
 36  21  35  1   
 37  21  36  1   
 38  21  37  1   
 39  22  38  1   
 40  22  39  1   
 41  22  40  1   
 42  23  41  1   
 43  23  42  1   
 44  23  43  1   
@<TRIPOS>SUBSTRUCTURE
  1 ****   2 GROUP 4 **** **** 0

# MOE 2024.06 (io_trps.svl 2023.06)
