@<TRIPOS>MOLECULE
NONAME
49 52 1 0 0 
SMALL
USER_CHARGES


@<TRIPOS>ATOM
  1 O        4.0170    -2.0220    -3.1720 O.2   1 <1>  -0.5700 
  2 C        3.5900    -2.0800    -2.0450 C.2   1 <1>   0.5690 
  3 N        3.6000    -0.9540    -1.2470 N.am  1 <1>  -0.6600 
  4 C        3.0710    -3.4400    -1.5750 C.3   1 <1>   0.1810 
  5 C        3.3940    -0.9990     0.2520 C.3   1 <1>   0.2200 
  6 C        3.6350     0.3710    -1.9540 C.3   1 <1>   0.1400 
  7 O        1.8350    -3.3090    -0.8870 O.3   1 <1>  -0.3630 
  8 C        2.1080    -0.2790     0.6830 C.3   1 <1>   0.1200 
  9 C        4.6220    -0.4610     1.0270 C.3   1 <1>   0.3430 
 10 C        3.6890     1.6190    -1.0560 C.3   1 <1>  -0.0800 
 11 C        1.1900    -4.3880    -0.3830 C.ar  1 <1>   0.0820 
 12 O        2.3450     1.0840     0.8720 O.3   1 <1>  -0.5600 
 13 N        5.5330     0.3820     0.1790 N.4   1 <1>  -0.9590 
 14 C        2.3810     1.8500    -0.2850 C.3   1 <1>   0.1200 
 15 C        4.9320     1.7110    -0.1520 C.3   1 <1>   0.3430 
 16 C        0.0100    -4.1440     0.2990 C.ar  1 <1>  -0.1500 
 17 C        1.6460    -5.6970    -0.5100 C.ar  1 <1>  -0.1500 
 18 C        6.8800     0.5330     0.8030 C.3   1 <1>   0.2630 
 19 C       -0.7090    -5.1860     0.8530 C.ar  1 <1>  -0.1500 
 20 C        0.9250    -6.7390     0.0450 C.ar  1 <1>  -0.1500 
 21 C       -0.2640    -6.5000     0.7320 C.ar  1 <1>  -0.0230 
 22 N       -1.0130    -7.5710     1.3010 N.pl3 1 <1>   0.5930 
 23 N       -1.6550    -7.5160     2.4570 N.2   1 <1>  -0.4180 
 24 C       -1.2260    -8.7880     0.8210 C.2   1 <1>   0.0360 
 25 N       -2.2100    -8.6610     2.6350 N.2   1 <1>   0.0000 
 26 N       -1.9510    -9.4720     1.6170 N.2   1 <1>  -0.3380 
 27 H        3.7870    -3.8960    -0.9180 H     1 <1>   0.0800 
 28 H        2.9100    -4.0690    -2.4330 H     1 <1>   0.0800 
 29 H        3.2740    -2.0200     0.5610 H     1 <1>   0.0800 
 30 H        4.4880     0.3840    -2.6130 H     1 <1>   0.0800 
 31 H        2.7630     0.4340    -2.5840 H     1 <1>   0.0800 
 32 H        1.7860    -0.6670     1.6340 H     1 <1>   0.0800 
 33 H        1.3100    -0.4270    -0.0260 H     1 <1>   0.0800 
 34 H        5.1730    -1.3090     1.3960 H     1 <1>   0.0800 
 35 H        4.2870     0.1010     1.8840 H     1 <1>   0.0800 
 36 H        3.7540     2.4540    -1.7310 H     1 <1>   0.0800 
 37 H        5.6110    -0.1360    -0.7140 H     1 <1>   0.4500 
 38 H        1.5140     1.6310    -0.8870 H     1 <1>   0.0800 
 39 H        2.3180     2.8800     0.0250 H     1 <1>   0.0800 
 40 H        4.6730     2.2330     0.7560 H     1 <1>   0.0800 
 41 H        5.6730     2.3010    -0.6670 H     1 <1>   0.0800 
 42 H       -0.3470    -3.1330     0.3930 H     1 <1>   0.1500 
 43 H        2.5550    -5.9270    -1.0360 H     1 <1>   0.1500 
 44 H        6.8010     1.0600     1.7400 H     1 <1>   0.0800 
 45 H        7.5340     1.0870     0.1490 H     1 <1>   0.0800 
 46 H        7.3190    -0.4340     0.9850 H     1 <1>   0.0800 
 47 H       -1.6240    -4.9760     1.3830 H     1 <1>   0.1500 
 48 H        1.2980    -7.7440    -0.0590 H     1 <1>   0.1500 
 49 H       -0.8320    -9.1270    -0.1180 H     1 <1>   0.1500 
@<TRIPOS>BOND
  1   1   2  2   
  2   2   3  am  
  3   2   4  1   
  4   3   5  1   
  5   3   6  1   
  6   4   7  1   
  7   4  27  1   
  8   4  28  1   
  9   5   8  1   
 10   5   9  1   
 11   5  29  1   
 12   6  10  1   
 13   6  30  1   
 14   6  31  1   
 15   7  11  1   
 16   8  12  1   
 17   8  32  1   
 18   8  33  1   
 19   9  13  1   
 20   9  34  1   
 21   9  35  1   
 22  10  14  1   
 23  10  15  1   
 24  10  36  1   
 25  11  16  ar  
 26  11  17  ar  
 27  12  14  1   
 28  13  15  1   
 29  13  18  1   
 30  13  37  1   
 31  14  38  1   
 32  14  39  1   
 33  15  40  1   
 34  15  41  1   
 35  16  19  ar  
 36  16  42  1   
 37  17  20  ar  
 38  17  43  1   
 39  18  44  1   
 40  18  45  1   
 41  18  46  1   
 42  19  21  ar  
 43  19  47  1   
 44  20  21  ar  
 45  20  48  1   
 46  21  22  1   
 47  22  23  1   
 48  22  24  1   
 49  23  25  2   
 50  24  26  2   
 51  24  49  1   
 52  25  26  1   
@<TRIPOS>SUBSTRUCTURE
  1 ****   7 GROUP 4 **** **** 0

# MOE 2024.06 (io_trps.svl 2023.06)
