@<TRIPOS>MOLECULE
NONAME
49 50 1 0 0 
SMALL
USER_CHARGES


@<TRIPOS>ATOM
  1 S        0.5360     0.9740     0.3600 S.o2  1 <1>   1.3330 
  2 O        0.3870    -0.4330     0.0620 O.2   1 <1>  -0.6500 
  3 O       -0.5960     1.8600     0.2130 O.2   1 <1>  -0.6500 
  4 N        1.0710     1.1090     1.9670 N.am  1 <1>  -0.8490 
  5 C        1.9090     1.6040    -0.6080 C.3   1 <1>  -0.0550 
  6 C        0.3840     0.1670     2.8550 C.3   1 <1>   0.1160 
  7 C        0.9560     2.4700     2.5050 C.3   1 <1>   0.1160 
  8 C        3.1730     0.7180    -0.5750 C.3   1 <1>  -0.0800 
  9 C        4.2790     1.1500    -1.5260 C.3   1 <1>   0.2200 
 10 C        3.8930     0.6600     0.7770 C.3   1 <1>   0.1200 
 11 N        4.4460     2.6220    -1.5070 N.am  1 <1>  -0.7300 
 12 C        5.4880     0.5010    -0.8670 C.3   1 <1>   0.1200 
 13 O        5.2650     0.6160     0.5050 O.3   1 <1>  -0.5600 
 14 C        3.9950     3.4830    -2.4540 C.2   1 <1>   0.5690 
 15 O        3.3870     3.0910    -3.4210 O.2   1 <1>  -0.5700 
 16 C        4.2400     4.9790    -2.2980 C.3   1 <1>   0.1810 
 17 O        4.6040     5.3070    -0.9630 O.3   1 <1>  -0.3630 
 18 C        4.8730     6.5880    -0.6060 C.ar  1 <1>   0.0820 
 19 C        5.2810     6.8000     0.7000 C.ar  1 <1>  -0.1500 
 20 C        4.7610     7.6730    -1.4730 C.ar  1 <1>  -0.1500 
 21 C        5.5780     8.0740     1.1530 C.ar  1 <1>   0.0820 
 22 C        5.0560     8.9490    -1.0250 C.ar  1 <1>  -0.1500 
 23 O        5.9710     8.1880     2.4470 O.3   1 <1>  -0.3620 
 24 C        5.4630     9.1550     0.2820 C.ar  1 <1>  -0.1500 
 25 C        6.3280     9.4360     2.9990 C.3   1 <1>   0.0400 
 26 H        1.5880     1.6840    -1.6300 H     1 <1>   0.0800 
 27 H        2.1500     2.5940    -0.2750 H     1 <1>   0.0800 
 28 H        0.7520     0.2660     3.8620 H     1 <1>   0.0800 
 29 H        0.5620    -0.8440     2.5300 H     1 <1>   0.0800 
 30 H       -0.6780     0.3510     2.8460 H     1 <1>   0.0800 
 31 H        1.3850     2.5150     3.4920 H     1 <1>   0.0800 
 32 H       -0.0780     2.7700     2.5580 H     1 <1>   0.0800 
 33 H        1.4840     3.1660     1.8760 H     1 <1>   0.0800 
 34 H        2.8900    -0.2880    -0.8360 H     1 <1>   0.0800 
 35 H        4.1240     0.7990    -2.5330 H     1 <1>   0.0800 
 36 H        3.6180    -0.2150     1.3410 H     1 <1>   0.0800 
 37 H        3.7100     1.5420     1.3650 H     1 <1>   0.0800 
 38 H        4.9220     2.9960    -0.6790 H     1 <1>   0.3700 
 39 H        6.4150     0.9810    -1.1270 H     1 <1>   0.0800 
 40 H        5.5360    -0.5470    -1.1050 H     1 <1>   0.0800 
 41 H        3.3390     5.5100    -2.5440 H     1 <1>   0.0800 
 42 H        5.0370     5.2790    -2.9530 H     1 <1>   0.0800 
 43 H        5.3710     5.9690     1.3730 H     1 <1>   0.1500 
 44 H        4.4470     7.5510    -2.4920 H     1 <1>   0.1500 
 45 H        4.9680     9.7870    -1.6950 H     1 <1>   0.1500 
 46 H        5.6850    10.1550     0.6020 H     1 <1>   0.1500 
 47 H        6.6140     9.2790     4.0230 H     1 <1>   0.0800 
 48 H        5.4770    10.0940     2.9540 H     1 <1>   0.0800 
 49 H        7.1570     9.8390     2.4460 H     1 <1>   0.0800 
@<TRIPOS>BOND
  1   1   2  2   
  2   1   3  2   
  3   1   4  am  
  4   1   5  1   
  5   4   6  1   
  6   4   7  1   
  7   5   8  1   
  8   5  26  1   
  9   5  27  1   
 10   6  28  1   
 11   6  29  1   
 12   6  30  1   
 13   7  31  1   
 14   7  32  1   
 15   7  33  1   
 16   8   9  1   
 17   8  10  1   
 18   8  34  1   
 19   9  11  1   
 20   9  12  1   
 21   9  35  1   
 22  10  13  1   
 23  10  36  1   
 24  10  37  1   
 25  11  14  am  
 26  11  38  1   
 27  12  13  1   
 28  12  39  1   
 29  12  40  1   
 30  14  15  2   
 31  14  16  1   
 32  16  17  1   
 33  16  41  1   
 34  16  42  1   
 35  17  18  1   
 36  18  19  ar  
 37  18  20  ar  
 38  19  21  ar  
 39  19  43  1   
 40  20  22  ar  
 41  20  44  1   
 42  21  23  1   
 43  21  24  ar  
 44  22  24  ar  
 45  22  45  1   
 46  23  25  1   
 47  24  46  1   
 48  25  47  1   
 49  25  48  1   
 50  25  49  1   
@<TRIPOS>SUBSTRUCTURE
  1 ****  17 GROUP 4 **** **** 0

# MOE 2024.06 (io_trps.svl 2023.06)
