@<TRIPOS>MOLECULE
NONAME
53 56 1 0 0 
SMALL
USER_CHARGES


@<TRIPOS>ATOM
  1 O       -0.7210     0.4170    -1.6510 O.2   1 <1>  -0.5700 
  2 C       -1.3300     0.9220    -0.7290 C.2   1 <1>   0.5440 
  3 N       -2.1230     0.1270     0.0690 N.am  1 <1>  -0.6600 
  4 C       -1.2200     2.3410    -0.5050 C.ar  1 <1>   0.0860 
  5 C       -2.1600    -1.3650    -0.0740 C.3   1 <1>   0.1400 
  6 C       -3.1910     0.6540     0.9770 C.3   1 <1>   0.1400 
  7 C       -0.6350     2.8730     0.6470 C.ar  1 <1>   0.0000 
  8 C       -1.7010     3.2800    -1.4000 C.ar  1 <1>  -0.1500 
  9 C       -3.5870    -1.8610    -0.3650 C.3   1 <1>   0.3440 
 10 C       -4.5690     0.0510     0.6200 C.3   1 <1>   0.2000 
 11 C       -0.6390     4.2340     0.8200 C.ar  1 <1>   0.3970 
 12 C        0.0240     2.4200     1.8050 C.2   1 <1>   0.1080 
 13 C       -1.6340     4.6470    -1.1200 C.ar  1 <1>   0.1660 
 14 O       -4.4750    -1.3470     0.5940 O.3   1 <1>  -0.5600 
 15 C       -3.6380    -3.3860    -0.3460 C.ar  1 <1>  -0.1440 
 16 C       -5.6810     0.4400     1.6230 C.3   1 <1>  -0.0800 
 17 O       -0.0660     4.4940     1.9820 O.3   1 <1>  -0.0190 
 18 N       -1.1240     5.1500    -0.0190 N.ar  1 <1>  -0.5670 
 19 N        0.3360     3.3930     2.5750 N.2   1 <1>  -0.4100 
 20 C        0.3560     0.9740     2.1180 C.3   1 <1>  -0.0590 
 21 C       -2.1740     5.6470    -2.1220 C.3   1 <1>  -0.0970 
 22 C       -3.8830    -4.0900     0.8250 C.ar  1 <1>  -0.1500 
 23 C       -3.4210    -4.0920    -1.5210 C.ar  1 <1>  -0.1500 
 24 C       -7.0260    -0.2070     1.2490 C.3   1 <1>  -0.2400 
 25 C       -5.8780     1.9630     1.7150 C.3   1 <1>  -0.2400 
 26 C       -3.9090    -5.4740     0.8230 C.ar  1 <1>  -0.1500 
 27 C       -3.4460    -5.4760    -1.5260 C.ar  1 <1>  -0.1500 
 28 C       -3.6900    -6.1680    -0.3530 C.ar  1 <1>  -0.1500 
 29 H       -1.5090    -1.6920    -0.8650 H     1 <1>   0.0800 
 30 H       -1.8140    -1.8160     0.8390 H     1 <1>   0.0800 
 31 H       -2.9500     0.4000     1.9940 H     1 <1>   0.0800 
 32 H       -3.2470     1.7240     0.9060 H     1 <1>   0.0800 
 33 H       -2.1360     2.9430    -2.3230 H     1 <1>   0.1500 
 34 H       -3.9030    -1.5070    -1.3310 H     1 <1>   0.0800 
 35 H       -4.8580     0.3810    -0.3630 H     1 <1>   0.0800 
 36 H       -5.3940     0.0800     2.5970 H     1 <1>   0.0800 
 37 H        0.7580     0.4890     1.2470 H     1 <1>   0.0800 
 38 H       -0.5260     0.4530     2.4390 H     1 <1>   0.0800 
 39 H        1.0880     0.9290     2.9040 H     1 <1>   0.0800 
 40 H       -2.5680     5.1560    -2.9930 H     1 <1>   0.0800 
 41 H       -1.3860     6.3110    -2.4270 H     1 <1>   0.0800 
 42 H       -2.9550     6.2270    -1.6660 H     1 <1>   0.0800 
 43 H       -4.0580    -3.5600     1.7460 H     1 <1>   0.1500 
 44 H       -3.2290    -3.5690    -2.4420 H     1 <1>   0.1500 
 45 H       -7.3410     0.1090     0.2710 H     1 <1>   0.0800 
 46 H       -7.7860     0.0630     1.9610 H     1 <1>   0.0800 
 47 H       -6.9410    -1.2800     1.2480 H     1 <1>   0.0800 
 48 H       -6.0990     2.3770     0.7470 H     1 <1>   0.0800 
 49 H       -5.0030     2.4460     2.1110 H     1 <1>   0.0800 
 50 H       -6.6970     2.1910     2.3750 H     1 <1>   0.0800 
 51 H       -4.1020    -6.0080     1.7360 H     1 <1>   0.1500 
 52 H       -3.2770    -6.0140    -2.4420 H     1 <1>   0.1500 
 53 H       -3.7110    -7.2440    -0.3560 H     1 <1>   0.1500 
@<TRIPOS>BOND
  1   1   2  2   
  2   2   3  am  
  3   2   4  1   
  4   3   5  1   
  5   3   6  1   
  6   4   7  ar  
  7   4   8  ar  
  8   5   9  1   
  9   5  29  1   
 10   5  30  1   
 11   6  10  1   
 12   6  31  1   
 13   6  32  1   
 14   7  11  ar  
 15   7  12  1   
 16   8  13  ar  
 17   8  33  1   
 18   9  14  1   
 19   9  15  1   
 20   9  34  1   
 21  10  14  1   
 22  10  16  1   
 23  10  35  1   
 24  11  17  1   
 25  11  18  ar  
 26  12  19  2   
 27  12  20  1   
 28  13  18  ar  
 29  13  21  1   
 30  15  22  ar  
 31  15  23  ar  
 32  16  24  1   
 33  16  25  1   
 34  16  36  1   
 35  17  19  1   
 36  20  37  1   
 37  20  38  1   
 38  20  39  1   
 39  21  40  1   
 40  21  41  1   
 41  21  42  1   
 42  22  26  ar  
 43  22  43  1   
 44  23  27  ar  
 45  23  44  1   
 46  24  45  1   
 47  24  46  1   
 48  24  47  1   
 49  25  48  1   
 50  25  49  1   
 51  25  50  1   
 52  26  28  ar  
 53  26  51  1   
 54  27  28  ar  
 55  27  52  1   
 56  28  53  1   
@<TRIPOS>SUBSTRUCTURE
  1 ****   3 GROUP 4 **** **** 0

# MOE 2024.06 (io_trps.svl 2023.06)
