@<TRIPOS>MOLECULE
NONAME
46 48 1 0 0 
SMALL
USER_CHARGES


@<TRIPOS>ATOM
  1 CL      -0.2060     0.4740    -0.6290 Cl    1 <1>  -0.1770 
  2 C       -0.1420     2.2010    -0.3890 C.ar  1 <1>   0.1770 
  3 C       -0.7440     3.0360    -1.3110 C.ar  1 <1>  -0.1500 
  4 C        0.5090     2.7090     0.7180 C.ar  1 <1>  -0.1500 
  5 C       -0.6930     4.4060    -1.1170 C.ar  1 <1>  -0.1500 
  6 C        0.5570     4.0800     0.9050 C.ar  1 <1>  -0.1500 
  7 C       -0.0430     4.9390    -0.0100 C.ar  1 <1>  -0.1430 
  8 C        0.0050     6.4540     0.1860 C.3   1 <1>   0.0640 
  9 C        1.4570     6.9520     0.0960 C.3   1 <1>   0.2090 
 10 C       -0.6800     6.8440     1.5070 C.3   1 <1>  -0.2400 
 11 N        1.5200     8.4290     0.2180 N.pl3 1 <1>  -0.8690 
 12 C        2.7000     9.1310     0.2690 C.ar  1 <1>   0.4100 
 13 N        3.7840     8.4850    -0.1560 N.ar  1 <1>  -0.6200 
 14 C        2.7140    10.4520     0.7520 C.ar  1 <1>   0.0860 
 15 C        4.9240     9.1420    -0.0900 C.ar  1 <1>   0.1600 
 16 C        1.4910    11.0960     1.1660 C.2   1 <1>   0.5440 
 17 C        3.9360    11.1070     0.8160 C.ar  1 <1>  -0.1500 
 18 C        5.0570    10.4350     0.3830 C.ar  1 <1>  -0.1500 
 19 O        0.7740    10.5700     2.0020 O.2   1 <1>  -0.5700 
 20 N        1.0990    12.3040     0.6290 N.am  1 <1>  -0.6600 
 21 C       -0.1560    12.9850     1.0240 C.3   1 <1>   0.1400 
 22 C        1.5990    12.8320    -0.6610 C.3   1 <1>   0.1400 
 23 C       -0.5930    13.7480    -0.2200 C.3   1 <1>  -0.1600 
 24 C        0.7020    14.0250    -0.9760 C.3   1 <1>  -0.1600 
 25 H       -1.2440     2.6170    -2.1650 H     1 <1>   0.1500 
 26 H        0.9700     2.0400     1.4210 H     1 <1>   0.1500 
 27 H       -1.1620     5.0560    -1.8360 H     1 <1>   0.1500 
 28 H        1.0640     4.4740     1.7690 H     1 <1>   0.1500 
 29 H       -0.5390     6.9180    -0.6180 H     1 <1>   0.0800 
 30 H        1.8800     6.6600    -0.8500 H     1 <1>   0.0800 
 31 H        2.0500     6.5100     0.8780 H     1 <1>   0.0800 
 32 H       -0.1080     6.5010     2.3510 H     1 <1>   0.0800 
 33 H       -1.6600     6.4050     1.5550 H     1 <1>   0.0800 
 34 H       -0.7870     7.9110     1.5800 H     1 <1>   0.0800 
 35 H        0.7890     8.8210     0.8300 H     1 <1>   0.4000 
 36 H        5.8050     8.6240    -0.4310 H     1 <1>   0.1500 
 37 H        3.9960    12.1110     1.1970 H     1 <1>   0.1500 
 38 H        6.0250    10.9030     0.4120 H     1 <1>   0.1500 
 39 H        0.0560    13.6640     1.8320 H     1 <1>   0.0800 
 40 H       -0.9070    12.2780     1.3360 H     1 <1>   0.0800 
 41 H        1.4940    12.0730    -1.4190 H     1 <1>   0.0800 
 42 H        2.6290    13.1330    -0.5870 H     1 <1>   0.0800 
 43 H       -1.1260    14.6480     0.0300 H     1 <1>   0.0800 
 44 H       -1.2330    13.1130    -0.8090 H     1 <1>   0.0800 
 45 H        0.5440    14.1380    -2.0340 H     1 <1>   0.0800 
 46 H        1.1630    14.9190    -0.5930 H     1 <1>   0.0800 
@<TRIPOS>BOND
  1   1   2  1   
  2   2   3  ar  
  3   2   4  ar  
  4   3   5  ar  
  5   3  25  1   
  6   4   6  ar  
  7   4  26  1   
  8   5   7  ar  
  9   5  27  1   
 10   6   7  ar  
 11   6  28  1   
 12   7   8  1   
 13   8   9  1   
 14   8  10  1   
 15   8  29  1   
 16   9  11  1   
 17   9  30  1   
 18   9  31  1   
 19  10  32  1   
 20  10  33  1   
 21  10  34  1   
 22  11  12  1   
 23  11  35  1   
 24  12  13  ar  
 25  12  14  ar  
 26  13  15  ar  
 27  14  16  1   
 28  14  17  ar  
 29  15  18  ar  
 30  15  36  1   
 31  16  19  2   
 32  16  20  am  
 33  17  18  ar  
 34  17  37  1   
 35  18  38  1   
 36  20  21  1   
 37  20  22  1   
 38  21  23  1   
 39  21  39  1   
 40  21  40  1   
 41  22  24  1   
 42  22  41  1   
 43  22  42  1   
 44  23  24  1   
 45  23  43  1   
 46  23  44  1   
 47  24  45  1   
 48  24  46  1   
@<TRIPOS>SUBSTRUCTURE
  1 ****  11 GROUP 4 **** **** 0

# MOE 2024.06 (io_trps.svl 2023.06)
