@<TRIPOS>MOLECULE
NONAME
55 60 1 0 0 
SMALL
USER_CHARGES


@<TRIPOS>ATOM
  1 O        0.4130     2.1730    -1.9760 O.2   1 <1>  -0.5700 
  2 C       -0.2090     2.5750    -1.0120 C.2   1 <1>   0.5440 
  3 N       -1.5610     2.3250    -0.9310 N.am  1 <1>  -0.6600 
  4 C        0.4760     3.3060     0.0230 C.ar  1 <1>   0.0860 
  5 C       -2.4390     2.9760     0.1030 C.3   1 <1>   0.1400 
  6 C       -2.2340     1.4660    -1.9520 C.3   1 <1>   0.1400 
  7 C        0.7820     2.7340     1.2630 C.ar  1 <1>   0.0000 
  8 C        0.8690     4.6260    -0.0970 C.ar  1 <1>  -0.1440 
  9 C       -3.8560     3.2490    -0.4340 C.3   1 <1>   0.1440 
 10 C       -3.5280     0.8640    -1.3940 C.3   1 <1>  -0.1600 
 11 C        1.3910     3.5030     2.2270 C.ar  1 <1>   0.3970 
 12 C        0.6480     1.4890     1.9030 C.2   1 <1>   0.1080 
 13 C        1.4850     5.2890     0.9490 C.ar  1 <1>   0.1660 
 14 C        0.7050     5.5280    -1.2990 C.3   1 <1>  -0.0160 
 15 C       -4.6430     3.9620     0.6520 C.ar  1 <1>   0.1660 
 16 C       -4.5250     1.9200    -0.8720 C.3   1 <1>  -0.1600 
 17 C       -3.8310     4.3080    -1.5770 C.3   1 <1>  -0.1600 
 18 O        1.5540     2.7460     3.2980 O.3   1 <1>  -0.0190 
 19 N        1.7610     4.7840     2.1280 N.ar  1 <1>  -0.5670 
 20 N        1.1050     1.5270     3.0980 N.2   1 <1>  -0.4100 
 21 C        0.0530     0.2470     1.2710 C.3   1 <1>  -0.0590 
 22 C        1.8120     6.7110     0.5690 C.3   1 <1>  -0.0170 
 23 C        1.5610     6.7570    -0.9500 C.3   1 <1>  -0.1600 
 24 N       -5.0640     3.4120     1.7710 N.ar  1 <1>  -0.6200 
 25 C       -4.8530     5.2740     0.3530 C.ar  1 <1>  -0.1430 
 26 C       -4.2390     5.6610    -0.9670 C.3   1 <1>  -0.0160 
 27 C       -5.7250     4.2340     2.5740 C.ar  1 <1>   0.4770 
 28 C       -5.5510     6.0360     1.2570 C.ar  1 <1>   0.1600 
 29 N       -5.9980     5.5180     2.3820 N.ar  1 <1>  -0.6200 
 30 C       -6.2340     3.6380     3.8630 C.3   1 <1>  -0.0970 
 31 H       -2.0050     3.9050     0.4290 H     1 <1>   0.0800 
 32 H       -2.5110     2.3270     0.9580 H     1 <1>   0.0800 
 33 H       -1.5690     0.6720    -2.2500 H     1 <1>   0.0800 
 34 H       -2.4500     2.0600    -2.8230 H     1 <1>   0.0800 
 35 H       -3.2620     0.2020    -0.5880 H     1 <1>   0.0800 
 36 H       -4.0010     0.2660    -2.1520 H     1 <1>   0.0800 
 37 H       -0.3300     5.8020    -1.4080 H     1 <1>   0.0800 
 38 H        1.0510     5.0500    -2.2010 H     1 <1>   0.0800 
 39 H       -5.2780     2.1120    -1.6160 H     1 <1>   0.0800 
 40 H       -5.0380     1.4850    -0.0320 H     1 <1>   0.0800 
 41 H       -4.5530     4.0560    -2.3330 H     1 <1>   0.0800 
 42 H       -2.8690     4.3790    -2.0530 H     1 <1>   0.0800 
 43 H        0.5050     0.0680     0.3120 H     1 <1>   0.0800 
 44 H       -1.0070     0.3690     1.1450 H     1 <1>   0.0800 
 45 H        0.2300    -0.6060     1.9010 H     1 <1>   0.0800 
 46 H        2.8320     6.9490     0.8100 H     1 <1>   0.0800 
 47 H        1.1500     7.3780     1.0910 H     1 <1>   0.0800 
 48 H        1.0840     7.6750    -1.2480 H     1 <1>   0.0800 
 49 H        2.5070     6.6760    -1.4590 H     1 <1>   0.0800 
 50 H       -4.9440     6.1800    -1.5930 H     1 <1>   0.0800 
 51 H       -3.3750     6.2790    -0.7970 H     1 <1>   0.0800 
 52 H       -5.7450     7.0770     1.0630 H     1 <1>   0.1500 
 53 H       -5.6770     2.7540     4.1120 H     1 <1>   0.0800 
 54 H       -7.2710     3.3830     3.7500 H     1 <1>   0.0800 
 55 H       -6.1310     4.3500     4.6610 H     1 <1>   0.0800 
@<TRIPOS>BOND
  1   1   2  2   
  2   2   3  am  
  3   2   4  1   
  4   3   5  1   
  5   3   6  1   
  6   4   7  ar  
  7   4   8  ar  
  8   5   9  1   
  9   5  31  1   
 10   5  32  1   
 11   6  10  1   
 12   6  33  1   
 13   6  34  1   
 14   7  11  ar  
 15   7  12  1   
 16   8  13  ar  
 17   8  14  1   
 18   9  15  1   
 19   9  16  1   
 20   9  17  1   
 21  10  16  1   
 22  10  35  1   
 23  10  36  1   
 24  11  18  1   
 25  11  19  ar  
 26  12  20  2   
 27  12  21  1   
 28  13  19  ar  
 29  13  22  1   
 30  14  23  1   
 31  14  37  1   
 32  14  38  1   
 33  15  24  ar  
 34  15  25  ar  
 35  16  39  1   
 36  16  40  1   
 37  17  26  1   
 38  17  41  1   
 39  17  42  1   
 40  18  20  1   
 41  21  43  1   
 42  21  44  1   
 43  21  45  1   
 44  22  23  1   
 45  22  46  1   
 46  22  47  1   
 47  23  48  1   
 48  23  49  1   
 49  24  27  ar  
 50  25  26  1   
 51  25  28  ar  
 52  26  50  1   
 53  26  51  1   
 54  27  29  ar  
 55  27  30  1   
 56  28  29  ar  
 57  28  52  1   
 58  30  53  1   
 59  30  54  1   
 60  30  55  1   
@<TRIPOS>SUBSTRUCTURE
  1 ****   5 GROUP 4 **** **** 0

# MOE 2024.06 (io_trps.svl 2023.06)
