@<TRIPOS>MOLECULE
NONAME
43 46 1 0 0 
SMALL
USER_CHARGES


@<TRIPOS>ATOM
  1 O       -0.1070     1.9750     1.8520 O.3   1 <1>  -0.5160 
  2 C        0.6830     2.2170     0.7080 C.3   1 <1>   0.2580 
  3 C       -0.9300     1.0310     1.1670 C.3   1 <1>   0.2580 
  4 C        1.9910     1.4240     0.7910 C.3   1 <1>  -0.1600 
  5 C        0.9080     3.7200     0.5590 C.3   1 <1>  -0.1600 
  6 C       -0.4360     1.6180    -0.1600 C.3   1 <1>   0.0000 
  7 C        2.8900     1.7630    -0.3940 C.3   1 <1>   0.3430 
  8 C        1.8250     4.0010    -0.6250 C.3   1 <1>   0.3430 
  9 N        3.1030     3.2380    -0.4640 N.4   1 <1>  -0.9590 
 10 C        4.0930     3.5990    -1.5120 C.3   1 <1>   0.5240 
 11 C        4.4440     5.0590    -1.3350 C.2   1 <1>  -0.1810 
 12 C        4.1530     6.0730    -2.2380 C.2   1 <1>   0.1390 
 13 C        5.0660     5.6860    -0.3110 C.2   1 <1>  -0.3020 
 14 N        4.5400     7.2280    -1.8080 N.2   1 <1>  -0.7070 
 15 N        5.1320     7.0120    -0.6050 N.pl3 1 <1>   0.5930 
 16 C        5.6750     8.0450     0.2120 C.ar  1 <1>  -0.0230 
 17 C        5.1000     9.3130     0.2230 C.ar  1 <1>  -0.1500 
 18 C        6.7860     7.8140     1.0210 C.ar  1 <1>  -0.1500 
 19 C        5.6100    10.3170     1.0270 C.ar  1 <1>  -0.1500 
 20 C        7.2970     8.8170     1.8260 C.ar  1 <1>  -0.1500 
 21 C        6.7080    10.0690     1.8310 C.ar  1 <1>  -0.1500 
 22 H       -1.9670     1.2120     1.3860 H     1 <1>   0.0000 
 23 H       -0.5900     0.0310     1.3720 H     1 <1>   0.0000 
 24 H        1.7940     0.3670     0.7940 H     1 <1>   0.0800 
 25 H        2.5020     1.6690     1.7060 H     1 <1>   0.0800 
 26 H        1.3560     4.1090     1.4560 H     1 <1>   0.0800 
 27 H       -0.0310     4.2240     0.4140 H     1 <1>   0.0800 
 28 H       -0.1090     0.8800    -0.8710 H     1 <1>   0.0000 
 29 H       -1.1130     2.3440    -0.5760 H     1 <1>   0.0000 
 30 H        2.4280     1.4160    -1.3050 H     1 <1>   0.0800 
 31 H        3.8360     1.2560    -0.2790 H     1 <1>   0.0800 
 32 H        2.0250     5.0610    -0.6710 H     1 <1>   0.0800 
 33 H        1.3340     3.7100    -1.5390 H     1 <1>   0.0800 
 34 H        3.5160     3.5470     0.4260 H     1 <1>   0.4500 
 35 H        3.6840     3.4290    -2.4950 H     1 <1>   0.0800 
 36 H        4.9860     3.0050    -1.4020 H     1 <1>   0.0800 
 37 H        3.6600     5.9450    -3.1890 H     1 <1>   0.1500 
 38 H        5.4660     5.2990     0.6080 H     1 <1>   0.1500 
 39 H        4.2490     9.5180    -0.4040 H     1 <1>   0.1500 
 40 H        7.2670     6.8520     1.0250 H     1 <1>   0.1500 
 41 H        5.1540    11.2920     1.0250 H     1 <1>   0.1500 
 42 H        8.1550     8.6280     2.4480 H     1 <1>   0.1500 
 43 H        7.1050    10.8500     2.4560 H     1 <1>   0.1500 
@<TRIPOS>BOND
  1   1   2  1   
  2   1   3  1   
  3   2   4  1   
  4   2   5  1   
  5   2   6  1   
  6   3   6  1   
  7   3  22  1   
  8   3  23  1   
  9   4   7  1   
 10   4  24  1   
 11   4  25  1   
 12   5   8  1   
 13   5  26  1   
 14   5  27  1   
 15   6  28  1   
 16   6  29  1   
 17   7   9  1   
 18   7  30  1   
 19   7  31  1   
 20   8   9  1   
 21   8  32  1   
 22   8  33  1   
 23   9  10  1   
 24   9  34  1   
 25  10  11  1   
 26  10  35  1   
 27  10  36  1   
 28  11  12  1   
 29  11  13  2   
 30  12  14  2   
 31  12  37  1   
 32  13  15  1   
 33  13  38  1   
 34  14  15  1   
 35  15  16  1   
 36  16  17  ar  
 37  16  18  ar  
 38  17  19  ar  
 39  17  39  1   
 40  18  20  ar  
 41  18  40  1   
 42  19  21  ar  
 43  19  41  1   
 44  20  21  ar  
 45  20  42  1   
 46  21  43  1   
@<TRIPOS>SUBSTRUCTURE
  1 ****  13 GROUP 4 **** **** 0

# MOE 2024.06 (io_trps.svl 2023.06)
