@<TRIPOS>MOLECULE
NONAME
48 50 1 0 0 
SMALL
USER_CHARGES


@<TRIPOS>ATOM
  1 S        0.4550     0.1450    -0.4650 S.o2  1 <1>   1.3330 
  2 O        0.5960     0.1510    -1.9030 O.2   1 <1>  -0.6500 
  3 O        1.6300     0.0390     0.3710 O.2   1 <1>  -0.6500 
  4 N       -0.6010    -1.1120    -0.0370 N.am  1 <1>  -0.8490 
  5 C       -0.4600     1.6140    -0.0070 C.3   1 <1>  -0.0550 
  6 C       -0.5500    -1.4580     1.3870 C.3   1 <1>   0.1160 
  7 C       -0.3860    -2.3140    -0.8490 C.3   1 <1>   0.1160 
  8 C        0.2520     2.9230    -0.4020 C.3   1 <1>  -0.0800 
  9 C       -0.5790     4.1860    -0.1600 C.3   1 <1>   0.2000 
 10 C        1.5660     3.1810     0.3500 C.3   1 <1>   0.1400 
 11 O       -1.1630     4.1110     1.0950 O.3   1 <1>  -0.6800 
 12 C        0.4630     5.3000    -0.1280 C.3   1 <1>   0.1400 
 13 N        1.6570     4.6590     0.4800 N.am  1 <1>  -0.6600 
 14 C        2.8230     5.3040     0.8230 C.2   1 <1>   0.5440 
 15 O        3.8090     4.6360     1.0620 O.2   1 <1>  -0.5700 
 16 C        2.9040     6.7510     0.8890 C.ar  1 <1>   0.0860 
 17 C        3.8330     7.4430     0.1200 C.ar  1 <1>  -0.1500 
 18 C        2.0690     7.4950     1.7210 C.ar  1 <1>  -0.1500 
 19 C        3.9420     8.8280     0.1420 C.ar  1 <1>   0.0540 
 20 C        2.1540     8.8740     1.7640 C.ar  1 <1>  -0.1500 
 21 C        4.9230     9.5070    -0.6780 C.2   1 <1>  -0.0540 
 22 C        3.0820     9.5330     0.9790 C.ar  1 <1>  -0.1500 
 23 C        4.8600    10.8060    -1.1930 C.2   1 <1>   0.1390 
 24 C        6.1180     9.0510    -1.1350 C.2   1 <1>  -0.3020 
 25 N        5.9030    11.1290    -1.8940 N.2   1 <1>  -0.7070 
 26 N        6.6820    10.0350    -1.8550 N.pl3 1 <1>   0.3000 
 27 H       -1.4150     1.5860    -0.4950 H     1 <1>   0.0800 
 28 H       -0.6380     1.6050     1.0510 H     1 <1>   0.0800 
 29 H       -1.2980    -2.1980     1.6150 H     1 <1>   0.0800 
 30 H       -0.7420    -0.5860     1.9890 H     1 <1>   0.0800 
 31 H        0.4210    -1.8490     1.6460 H     1 <1>   0.0800 
 32 H       -1.0820    -3.0850    -0.5660 H     1 <1>   0.0800 
 33 H        0.6200    -2.6770    -0.7200 H     1 <1>   0.0800 
 34 H       -0.5410    -2.0880    -1.8910 H     1 <1>   0.0800 
 35 H        0.4850     2.8810    -1.4520 H     1 <1>   0.0800 
 36 H       -1.3510     4.3430    -0.8940 H     1 <1>   0.0800 
 37 H        2.4140     2.7900    -0.1890 H     1 <1>   0.0800 
 38 H        1.5480     2.7450     1.3350 H     1 <1>   0.0800 
 39 H       -0.4520     4.1420     1.7690 H     1 <1>   0.4000 
 40 H        0.1160     6.1470     0.4380 H     1 <1>   0.0800 
 41 H        0.7040     5.6090    -1.1300 H     1 <1>   0.0800 
 42 H        4.4900     6.8740    -0.5140 H     1 <1>   0.1500 
 43 H        1.3550     6.9830     2.3420 H     1 <1>   0.1500 
 44 H        1.5020     9.4350     2.4120 H     1 <1>   0.1500 
 45 H        3.1450    10.6050     1.0270 H     1 <1>   0.1500 
 46 H        4.0330    11.4760    -1.0330 H     1 <1>   0.1500 
 47 H        6.5830     8.0950    -0.9790 H     1 <1>   0.1500 
 48 H        7.5930     9.9960    -2.3310 H     1 <1>   0.2700 
@<TRIPOS>BOND
  1   1   2  2   
  2   1   3  2   
  3   1   4  am  
  4   1   5  1   
  5   4   6  1   
  6   4   7  1   
  7   5   8  1   
  8   5  27  1   
  9   5  28  1   
 10   6  29  1   
 11   6  30  1   
 12   6  31  1   
 13   7  32  1   
 14   7  33  1   
 15   7  34  1   
 16   8   9  1   
 17   8  10  1   
 18   8  35  1   
 19   9  11  1   
 20   9  12  1   
 21   9  36  1   
 22  10  13  1   
 23  10  37  1   
 24  10  38  1   
 25  11  39  1   
 26  12  13  1   
 27  12  40  1   
 28  12  41  1   
 29  13  14  am  
 30  14  15  2   
 31  14  16  1   
 32  16  17  ar  
 33  16  18  ar  
 34  17  19  ar  
 35  17  42  1   
 36  18  20  ar  
 37  18  43  1   
 38  19  21  1   
 39  19  22  ar  
 40  20  22  ar  
 41  20  44  1   
 42  21  23  1   
 43  21  24  2   
 44  22  45  1   
 45  23  25  2   
 46  23  46  1   
 47  24  26  1   
 48  24  47  1   
 49  25  26  1   
 50  26  48  1   
@<TRIPOS>SUBSTRUCTURE
  1 ****  13 GROUP 4 **** **** 0

# MOE 2024.06 (io_trps.svl 2023.06)
