@<TRIPOS>MOLECULE
NONAME
44 47 1 0 0 
SMALL
USER_CHARGES


@<TRIPOS>ATOM
  1 S        0.3610    -0.9310     0.3700 S.3   1 <1>  -0.0800 
  2 C       -1.0490     0.0010     0.8550 C.2   1 <1>  -0.1400 
  3 C        1.1090     0.4880    -0.3400 C.2   1 <1>  -0.1100 
  4 C       -0.9140     1.2870     0.4830 C.2   1 <1>  -0.1500 
  5 C       -2.1550    -0.7350     1.5830 C.3   1 <1>   0.3200 
  6 C        0.3150     1.5650    -0.1980 C.2   1 <1>  -0.1500 
  7 N       -2.7590    -1.7040     0.6570 N.am  1 <1>  -0.7300 
  8 C       -4.0800    -1.9920     0.5570 C.2   1 <1>   0.5690 
  9 O       -4.8850    -1.5040     1.3150 O.2   1 <1>  -0.5700 
 10 C       -4.5630    -2.9580    -0.5310 C.3   1 <1>   0.2610 
 11 O       -3.4550    -3.5380    -1.2060 O.3   1 <1>  -0.5600 
 12 C       -5.5440    -3.9970     0.0880 C.3   1 <1>   0.3640 
 13 C       -3.7900    -4.5720    -2.0930 C.3   1 <1>   0.1810 
 14 N       -5.2820    -5.4230    -0.3000 N.am  1 <1>  -0.5090 
 15 C       -6.9740    -3.6080    -0.2920 C.ar  1 <1>  -0.1430 
 16 C       -4.4560    -5.7240    -1.3500 C.2   1 <1>   0.5690 
 17 C       -5.7410    -6.4600     0.6590 C.3   1 <1>   0.0490 
 18 C       -7.7200    -2.8170     0.5720 C.ar  1 <1>   0.1600 
 19 C       -7.5560    -4.0140    -1.4800 C.ar  1 <1>  -0.1500 
 20 O       -4.2210    -6.8520    -1.7160 O.2   1 <1>  -0.5700 
 21 C       -6.5390    -7.6150     0.1400 C.3   1 <1>  -0.2000 
 22 C       -7.1920    -6.5930     1.0120 C.3   1 <1>  -0.2000 
 23 N       -8.9620    -2.4160     0.3530 N.ar  1 <1>  -0.6200 
 24 C       -8.8490    -3.6040    -1.7220 C.ar  1 <1>  -0.1500 
 25 C       -9.4970    -2.8180    -0.7870 C.ar  1 <1>   0.1600 
 26 H        2.0760     0.3640    -0.7930 H     1 <1>   0.1500 
 27 H       -1.6340     2.0690     0.6560 H     1 <1>   0.1500 
 28 H       -2.9010    -0.0360     1.9240 H     1 <1>   0.0800 
 29 H       -1.7520    -1.2530     2.4360 H     1 <1>   0.0800 
 30 H        0.5410     2.5580    -0.5460 H     1 <1>   0.1500 
 31 H       -2.1130    -2.1340    -0.0130 H     1 <1>   0.3700 
 32 H       -5.0910    -2.3690    -1.2590 H     1 <1>   0.0800 
 33 H       -5.4580    -3.9460     1.1610 H     1 <1>   0.0800 
 34 H       -4.4440    -4.1870    -2.8530 H     1 <1>   0.0800 
 35 H       -2.8820    -4.9200    -2.5510 H     1 <1>   0.0800 
 36 H       -5.0060    -6.6650     1.4200 H     1 <1>   0.1000 
 37 H       -7.2750    -2.4880     1.4980 H     1 <1>   0.1500 
 38 H       -7.0390    -4.6340    -2.1920 H     1 <1>   0.1500 
 39 H       -6.7790    -7.6410    -0.9080 H     1 <1>   0.1000 
 40 H       -6.3470    -8.5930     0.5440 H     1 <1>   0.1000 
 41 H       -7.4580    -6.8830     2.0130 H     1 <1>   0.1000 
 42 H       -7.9390    -5.9680     0.5570 H     1 <1>   0.1000 
 43 H       -9.3550    -3.8910    -2.6260 H     1 <1>   0.1500 
 44 H      -10.5080    -2.5040    -0.9850 H     1 <1>   0.1500 
@<TRIPOS>BOND
  1   1   2  1   
  2   1   3  1   
  3   2   4  2   
  4   2   5  1   
  5   3   6  2   
  6   3  26  1   
  7   4   6  1   
  8   4  27  1   
  9   5   7  1   
 10   5  28  1   
 11   5  29  1   
 12   6  30  1   
 13   7   8  am  
 14   7  31  1   
 15   8   9  2   
 16   8  10  1   
 17  10  11  1   
 18  10  12  1   
 19  10  32  1   
 20  11  13  1   
 21  12  14  1   
 22  12  15  1   
 23  12  33  1   
 24  13  16  1   
 25  13  34  1   
 26  13  35  1   
 27  14  16  am  
 28  14  17  1   
 29  15  18  ar  
 30  15  19  ar  
 31  16  20  2   
 32  17  21  1   
 33  17  22  1   
 34  17  36  1   
 35  18  23  ar  
 36  18  37  1   
 37  19  24  ar  
 38  19  38  1   
 39  21  22  1   
 40  21  39  1   
 41  21  40  1   
 42  22  41  1   
 43  22  42  1   
 44  23  25  ar  
 45  24  25  ar  
 46  24  43  1   
 47  25  44  1   
@<TRIPOS>SUBSTRUCTURE
  1 ****  10 GROUP 4 **** **** 0

# MOE 2024.06 (io_trps.svl 2023.06)
