@<TRIPOS>MOLECULE
NONAME
53 55 1 0 0 
SMALL
USER_CHARGES


@<TRIPOS>ATOM
  1 O       -2.6500    -1.8250    -0.9080 O.3   1 <1>  -0.5600 
  2 C       -2.5190    -0.4860    -1.2830 C.3   1 <1>   0.1200 
  3 C       -1.4280    -2.4890    -0.8050 C.3   1 <1>   0.0400 
  4 C       -3.9050     0.1560    -1.4120 C.3   1 <1>   0.0960 
  5 N       -4.5890     0.2980    -0.1020 N.pl3 1 <1>   0.0480 
  6 C       -5.1550    -0.6340     0.7010 C.2   1 <1>  -0.3320 
  7 C       -4.8150     1.4700     0.5320 C.2   1 <1>   0.0360 
  8 C       -5.6650     0.0360     1.7610 C.2   1 <1>   0.0770 
  9 C       -5.1410    -2.1120     0.3850 C.3   1 <1>   0.5230 
 10 N       -5.4580     1.3540     1.6460 N.2   1 <1>  -0.5650 
 11 N       -6.2710    -2.7660     1.0790 N.4   1 <1>  -0.9590 
 12 C       -6.0900    -4.2630     1.0400 C.3   1 <1>   0.3430 
 13 C       -7.5760    -2.2970     0.5110 C.3   1 <1>   0.3430 
 14 C       -7.2210    -5.0670     1.7050 C.3   1 <1>   0.2090 
 15 C       -8.7010    -2.4610     1.5360 C.3   1 <1>  -0.1600 
 16 N       -8.4890    -4.8680     0.9520 N.pl3 1 <1>  -0.8380 
 17 C       -9.4030    -3.8200     1.4630 C.3   1 <1>   0.2090 
 18 C       -9.1110    -6.0210     0.4750 C.ar  1 <1>   0.1000 
 19 C       -9.2430    -6.2560    -0.8950 C.ar  1 <1>  -0.1430 
 20 C       -9.6130    -6.9590     1.3710 C.ar  1 <1>  -0.1500 
 21 C       -9.8590    -7.4150    -1.3380 C.ar  1 <1>  -0.1500 
 22 C       -8.7230    -5.2530    -1.9150 C.3   1 <1>  -0.0970 
 23 C      -10.2260    -8.1130     0.9230 C.ar  1 <1>  -0.1500 
 24 C      -10.3480    -8.3430    -0.4350 C.ar  1 <1>  -0.1500 
 25 H       -2.0140    -0.4500    -2.2330 H     1 <1>   0.0800 
 26 H       -1.9300     0.0330    -0.5450 H     1 <1>   0.0800 
 27 H       -1.6170    -3.5090    -0.5180 H     1 <1>   0.0800 
 28 H       -0.8210    -2.0090    -0.0560 H     1 <1>   0.0800 
 29 H       -0.9300    -2.4720    -1.7600 H     1 <1>   0.0800 
 30 H       -4.5170    -0.4250    -2.0770 H     1 <1>   0.0800 
 31 H       -3.7920     1.1360    -1.8400 H     1 <1>   0.0800 
 32 H       -4.4850     2.4130     0.1310 H     1 <1>   0.1500 
 33 H       -6.1810    -0.3470     2.6260 H     1 <1>   0.1500 
 34 H       -4.2030    -2.5320     0.7120 H     1 <1>   0.0800 
 35 H       -5.2240    -2.2650    -0.6790 H     1 <1>   0.0800 
 36 H       -6.2240    -2.4490     2.0510 H     1 <1>   0.4500 
 37 H       -5.1630    -4.5190     1.5260 H     1 <1>   0.0800 
 38 H       -6.0220    -4.5890     0.0160 H     1 <1>   0.0800 
 39 H       -7.8150    -2.8400    -0.3900 H     1 <1>   0.0800 
 40 H       -7.5020    -1.2500     0.2620 H     1 <1>   0.0800 
 41 H       -7.3390    -4.7790     2.7350 H     1 <1>   0.0800 
 42 H       -6.9560    -6.1110     1.6820 H     1 <1>   0.0800 
 43 H       -9.4460    -1.7100     1.3450 H     1 <1>   0.0800 
 44 H       -8.3370    -2.2850     2.5310 H     1 <1>   0.0800 
 45 H      -10.2430    -3.7510     0.7900 H     1 <1>   0.0800 
 46 H       -9.7830    -4.1020     2.4310 H     1 <1>   0.0800 
 47 H       -9.5250    -6.7820     2.4260 H     1 <1>   0.1500 
 48 H       -9.9650    -7.6070    -2.3910 H     1 <1>   0.1500 
 49 H       -7.6670    -5.1140    -1.7820 H     1 <1>   0.0800 
 50 H       -9.2230    -4.3120    -1.7820 H     1 <1>   0.0800 
 51 H       -8.9000    -5.5950    -2.9180 H     1 <1>   0.0800 
 52 H      -10.6090    -8.8320     1.6260 H     1 <1>   0.1500 
 53 H      -10.8240    -9.2410    -0.7900 H     1 <1>   0.1500 
@<TRIPOS>BOND
  1   1   2  1   
  2   1   3  1   
  3   2   4  1   
  4   2  25  1   
  5   2  26  1   
  6   3  27  1   
  7   3  28  1   
  8   3  29  1   
  9   4   5  1   
 10   4  30  1   
 11   4  31  1   
 12   5   6  1   
 13   5   7  1   
 14   6   8  2   
 15   6   9  1   
 16   7  10  2   
 17   7  32  1   
 18   8  10  1   
 19   8  33  1   
 20   9  11  1   
 21   9  34  1   
 22   9  35  1   
 23  11  12  1   
 24  11  13  1   
 25  11  36  1   
 26  12  14  1   
 27  12  37  1   
 28  12  38  1   
 29  13  15  1   
 30  13  39  1   
 31  13  40  1   
 32  14  16  1   
 33  14  41  1   
 34  14  42  1   
 35  15  17  1   
 36  15  43  1   
 37  15  44  1   
 38  16  17  1   
 39  16  18  1   
 40  17  45  1   
 41  17  46  1   
 42  18  19  ar  
 43  18  20  ar  
 44  19  21  ar  
 45  19  22  1   
 46  20  23  ar  
 47  20  47  1   
 48  21  24  ar  
 49  21  48  1   
 50  22  49  1   
 51  22  50  1   
 52  22  51  1   
 53  23  24  ar  
 54  23  52  1   
 55  24  53  1   
@<TRIPOS>SUBSTRUCTURE
  1 ****  11 GROUP 4 **** **** 0

# MOE 2024.06 (io_trps.svl 2023.06)
