@<TRIPOS>MOLECULE
NONAME
43 45 1 0 0 
SMALL
USER_CHARGES


@<TRIPOS>ATOM
  1 O        0.0370    -0.5450    -2.1300 O.co2 1 <1>  -0.9000 
  2 C       -0.3260    -0.9680    -1.0190 C.2   1 <1>   1.0330 
  3 O       -1.2330    -0.3600    -0.4200 O.co2 1 <1>  -0.9000 
  4 C        0.3810    -2.0250    -0.3730 C.2   1 <1>  -0.2330 
  5 C        0.0180    -3.3730    -0.3140 C.2   1 <1>   0.3720 
  6 C        1.5630    -1.9730     0.2950 C.2   1 <1>   0.0870 
  7 N        0.9130    -4.0570     0.3170 N.2   1 <1>  -0.4100 
  8 N       -1.1380    -3.9520    -0.8610 N.pl3 1 <1>  -0.8210 
  9 O        1.8290    -3.2000     0.6770 O.3   1 <1>  -0.0190 
 10 C        2.4790    -0.9030     0.6230 C.ar  1 <1>   0.0530 
 11 C       -2.4510    -3.3980    -0.3990 C.3   1 <1>   0.2090 
 12 C       -1.1120    -5.4190    -1.1330 C.3   1 <1>   0.2090 
 13 C        3.7850    -1.1810     1.0330 C.ar  1 <1>  -0.1500 
 14 C        2.1130     0.4430     0.5560 C.ar  1 <1>  -0.1500 
 15 C       -3.1720    -4.4090     0.5000 C.3   1 <1>  -0.1600 
 16 C       -2.5210    -5.9510    -1.4000 C.3   1 <1>  -0.1600 
 17 C        4.6770    -0.1760     1.3600 C.ar  1 <1>  -0.1500 
 18 C        2.9990     1.4540     0.8790 C.ar  1 <1>  -0.1500 
 19 C       -3.4680    -5.7890    -0.1740 C.3   1 <1>  -0.1060 
 20 C        4.2850     1.1480     1.2840 C.ar  1 <1>  -0.1500 
 21 C       -4.9560    -5.8800    -0.6160 C.2   1 <1>   0.9060 
 22 C       -3.1870    -6.8880     0.8950 C.3   1 <1>  -0.1600 
 23 O       -5.8460    -5.5720     0.1910 O.co2 1 <1>  -0.9000 
 24 O       -5.2470    -6.2990    -1.7460 O.co2 1 <1>  -0.9000 
 25 C       -3.4640    -8.3360     0.4540 C.3   1 <1>  -0.2400 
 26 H       -3.0580    -3.1650    -1.2570 H     1 <1>   0.0800 
 27 H       -2.3000    -2.4890     0.1550 H     1 <1>   0.0800 
 28 H       -0.6840    -5.9410    -0.2960 H     1 <1>   0.0800 
 29 H       -0.4910    -5.5930    -1.9940 H     1 <1>   0.0800 
 30 H        4.1070    -2.2050     1.0940 H     1 <1>   0.1500 
 31 H        1.1180     0.7110     0.2460 H     1 <1>   0.1500 
 32 H       -4.0870    -3.9620     0.8460 H     1 <1>   0.0800 
 33 H       -2.5520    -4.5380     1.3690 H     1 <1>   0.0800 
 34 H       -2.4750    -6.9750    -1.7150 H     1 <1>   0.0800 
 35 H       -2.9190    -5.4020    -2.2360 H     1 <1>   0.0800 
 36 H        5.6760    -0.4230     1.6720 H     1 <1>   0.1500 
 37 H        2.6800     2.4790     0.8110 H     1 <1>   0.1500 
 38 H        4.9740     1.9350     1.5340 H     1 <1>   0.1500 
 39 H       -3.8170    -6.6830     1.7440 H     1 <1>   0.0800 
 40 H       -2.1670    -6.8210     1.2310 H     1 <1>   0.0800 
 41 H       -4.4710    -8.4300     0.0850 H     1 <1>   0.0800 
 42 H       -3.3500    -8.9980     1.2930 H     1 <1>   0.0800 
 43 H       -2.7830    -8.6470    -0.3160 H     1 <1>   0.0800 
@<TRIPOS>BOND
  1   1   2  ar  
  2   2   3  ar  
  3   2   4  1   
  4   4   5  1   
  5   4   6  2   
  6   5   7  2   
  7   5   8  1   
  8   6   9  1   
  9   6  10  1   
 10   7   9  1   
 11   8  11  1   
 12   8  12  1   
 13  10  13  ar  
 14  10  14  ar  
 15  11  15  1   
 16  11  26  1   
 17  11  27  1   
 18  12  16  1   
 19  12  28  1   
 20  12  29  1   
 21  13  17  ar  
 22  13  30  1   
 23  14  18  ar  
 24  14  31  1   
 25  15  19  1   
 26  15  32  1   
 27  15  33  1   
 28  16  19  1   
 29  16  34  1   
 30  16  35  1   
 31  17  20  ar  
 32  17  36  1   
 33  18  20  ar  
 34  18  37  1   
 35  19  21  1   
 36  19  22  1   
 37  20  38  1   
 38  21  23  ar  
 39  21  24  ar  
 40  22  25  1   
 41  22  39  1   
 42  22  40  1   
 43  25  41  1   
 44  25  42  1   
 45  25  43  1   
@<TRIPOS>SUBSTRUCTURE
  1 ****   5 GROUP 4 **** **** 0

# MOE 2024.06 (io_trps.svl 2023.06)
