@<TRIPOS>MOLECULE
NONAME
59 62 1 0 0 
SMALL
USER_CHARGES


@<TRIPOS>ATOM
  1 O       -1.4360    -0.2560     2.4890 O.2   1 <1>  -0.5700 
  2 C       -1.5180     0.6550     1.6850 C.2   1 <1>   0.5440 
  3 N       -2.4150     0.5140     0.6480 N.am  1 <1>  -0.6600 
  4 C       -0.7390     1.8710     1.8560 C.ar  1 <1>   0.0860 
  5 C       -2.8860    -0.8360     0.2500 C.3   1 <1>   0.1400 
  6 C       -3.4310     1.5850     0.4220 C.3   1 <1>   0.1400 
  7 C       -0.3130     2.6240     0.7630 C.ar  1 <1>  -0.1500 
  8 C       -0.3890     2.3300     3.1250 C.ar  1 <1>  -0.1500 
  9 C       -4.3790    -0.8710     0.6310 C.3   1 <1>   0.4230 
 10 C       -4.6090     1.0960    -0.4830 C.3   1 <1>  -0.1600 
 11 C        0.4100     3.8020     0.9020 C.ar  1 <1>   0.0000 
 12 C        0.3350     3.4960     3.2910 C.ar  1 <1>  -0.1500 
 13 N       -4.7210    -1.9870     1.5810 N.4   1 <1>  -0.9590 
 14 C       -5.2400    -0.4050    -0.6290 C.3   1 <1>   0.0000 
 15 C        0.8160     4.5620    -0.2580 C.ar  1 <1>   0.0000 
 16 C        0.7280     4.2270     2.1870 C.ar  1 <1>  -0.1500 
 17 C       -4.7490    -3.2670     0.9000 C.3   1 <1>   0.3430 
 18 C       -3.8460    -2.0050     2.8020 C.3   1 <1>   0.2630 
 19 C       -5.8750    -1.8740    -0.9010 C.3   1 <1>  -0.1600 
 20 C       -6.1220     0.1530    -1.8580 C.3   1 <1>   0.1200 
 21 C        0.4270     5.8880    -0.4190 C.ar  1 <1>  -0.1500 
 22 C        1.6030     3.9860    -1.2510 C.ar  1 <1>  -0.1500 
 23 C       -5.9490    -3.1130     0.0170 C.3   1 <1>  -0.1600 
 24 O       -7.3520     0.5690    -1.3510 O.3   1 <1>  -0.6800 
 25 C        0.8020     6.6220    -1.5320 C.ar  1 <1>  -0.1430 
 26 C        1.9830     4.7080    -2.3660 C.ar  1 <1>  -0.1500 
 27 C        1.5830     6.0250    -2.5070 C.ar  1 <1>  -0.1500 
 28 C        0.3690     8.0680    -1.6930 C.3   1 <1>  -0.0970 
 29 H       -2.7630    -0.9500    -0.8130 H     1 <1>   0.0800 
 30 H       -2.3110    -1.6060     0.7290 H     1 <1>   0.0800 
 31 H       -3.8200     1.8980     1.3780 H     1 <1>   0.0800 
 32 H       -2.9600     2.4440    -0.0270 H     1 <1>   0.0800 
 33 H       -0.5490     2.2870    -0.2300 H     1 <1>   0.1500 
 34 H       -0.6880     1.7620     3.9900 H     1 <1>   0.1500 
 35 H       -4.5090    -0.0590     1.3210 H     1 <1>   0.0800 
 36 H       -5.3990     1.8090    -0.2950 H     1 <1>   0.0800 
 37 H       -4.1620     1.3570    -1.4300 H     1 <1>   0.0800 
 38 H        0.5940     3.8330     4.2810 H     1 <1>   0.1500 
 39 H       -5.6850    -1.7960     1.8880 H     1 <1>   0.4500 
 40 H        1.2940     5.1340     2.3170 H     1 <1>   0.1500 
 41 H       -3.8500    -3.4260     0.3270 H     1 <1>   0.0800 
 42 H       -4.8910    -4.0780     1.5970 H     1 <1>   0.0800 
 43 H       -2.8350    -2.2770     2.5450 H     1 <1>   0.0800 
 44 H       -4.2190    -2.7150     3.5220 H     1 <1>   0.0800 
 45 H       -3.8220    -1.0290     3.2600 H     1 <1>   0.0800 
 46 H       -6.9200    -1.8260    -1.1780 H     1 <1>   0.0800 
 47 H       -5.3540    -2.2420    -1.7720 H     1 <1>   0.0800 
 48 H       -6.3200    -0.5560    -2.6490 H     1 <1>   0.0800 
 49 H       -5.7490     0.9910    -2.4240 H     1 <1>   0.0800 
 50 H       -0.1810     6.3440     0.3420 H     1 <1>   0.1500 
 51 H        1.9220     2.9640    -1.1440 H     1 <1>   0.1500 
 52 H       -6.0550    -4.0000    -0.5840 H     1 <1>   0.0800 
 53 H       -6.8300    -3.0550     0.6350 H     1 <1>   0.0800 
 54 H       -7.9340     0.9060    -2.0640 H     1 <1>   0.4000 
 55 H        2.5920     4.2480    -3.1250 H     1 <1>   0.1500 
 56 H        1.8830     6.5830    -3.3770 H     1 <1>   0.1500 
 57 H       -0.0550     8.2180    -2.6700 H     1 <1>   0.0800 
 58 H        1.2190     8.7170    -1.5790 H     1 <1>   0.0800 
 59 H       -0.3690     8.3330    -0.9570 H     1 <1>   0.0800 
@<TRIPOS>BOND
  1   1   2  2   
  2   2   3  am  
  3   2   4  1   
  4   3   5  1   
  5   3   6  1   
  6   4   7  ar  
  7   4   8  ar  
  8   5   9  1   
  9   5  29  1   
 10   5  30  1   
 11   6  10  1   
 12   6  31  1   
 13   6  32  1   
 14   7  11  ar  
 15   7  33  1   
 16   8  12  ar  
 17   8  34  1   
 18   9  13  1   
 19   9  14  1   
 20   9  35  1   
 21  10  14  1   
 22  10  36  1   
 23  10  37  1   
 24  11  15  1   
 25  11  16  ar  
 26  12  16  ar  
 27  12  38  1   
 28  13  17  1   
 29  13  18  1   
 30  13  39  1   
 31  14  19  1   
 32  14  20  1   
 33  15  21  ar  
 34  15  22  ar  
 35  16  40  1   
 36  17  23  1   
 37  17  41  1   
 38  17  42  1   
 39  18  43  1   
 40  18  44  1   
 41  18  45  1   
 42  19  23  1   
 43  19  46  1   
 44  19  47  1   
 45  20  24  1   
 46  20  48  1   
 47  20  49  1   
 48  21  25  ar  
 49  21  50  1   
 50  22  26  ar  
 51  22  51  1   
 52  23  52  1   
 53  23  53  1   
 54  24  54  1   
 55  25  27  ar  
 56  25  28  1   
 57  26  27  ar  
 58  26  55  1   
 59  27  56  1   
 60  28  57  1   
 61  28  58  1   
 62  28  59  1   
@<TRIPOS>SUBSTRUCTURE
  1 ****   3 GROUP 4 **** **** 0

# MOE 2024.06 (io_trps.svl 2023.06)
