@<TRIPOS>MOLECULE
NONAME
60 62 1 0 0 
SMALL
USER_CHARGES


@<TRIPOS>ATOM
  1 F       -0.8950     1.1860     2.2640 F     1 <1>  -0.1900 
  2 C       -2.0400     1.1980     1.6310 C.ar  1 <1>   0.1900 
  3 C       -2.9200     2.2830     1.7090 C.ar  1 <1>   0.0830 
  4 C       -2.3370     0.0790     0.8770 C.ar  1 <1>  -0.1500 
  5 O       -2.7410     3.4380     2.4130 O.3   1 <1>  -0.3630 
  6 C       -4.1100     2.1970     1.0050 C.ar  1 <1>  -0.1500 
  7 C       -3.5340     0.0260     0.1860 C.ar  1 <1>  -0.1500 
  8 C       -1.5750     3.7120     3.1570 C.3   1 <1>   0.0400 
  9 C       -4.4490     1.0800     0.2390 C.ar  1 <1>   0.0530 
 10 C       -5.7050     1.0280    -0.4640 C.2   1 <1>   0.0870 
 11 O       -6.2370     2.1170    -0.9610 O.3   1 <1>  -0.0190 
 12 C       -6.5700     0.0170    -0.7350 C.2   1 <1>  -0.0860 
 13 N       -7.3860     1.9040    -1.5490 N.2   1 <1>  -0.4100 
 14 C       -7.6030     0.6410    -1.4340 C.2   1 <1>   0.3720 
 15 C       -6.5790    -1.3680    -0.4040 C.2   1 <1>   0.7160 
 16 N       -8.7280    -0.0310    -1.9420 N.pl3 1 <1>  -0.8210 
 17 O       -5.8000    -2.1340    -0.9410 O.2   1 <1>  -0.5700 
 18 N       -7.5070    -1.8720     0.4810 N.am  1 <1>  -0.6600 
 19 C       -8.4250    -0.7320    -3.2230 C.3   1 <1>   0.1290 
 20 C       -9.9420     0.8270    -2.0820 C.3   1 <1>   0.1290 
 21 C       -7.9380    -3.3010     0.3880 C.3   1 <1>   0.1400 
 22 C       -8.3260    -0.9660     1.3500 C.3   1 <1>   0.1400 
 23 C       -9.4670    -3.3830     0.2110 C.3   1 <1>   0.2800 
 24 C       -9.3030    -1.7600     2.2240 C.3   1 <1>  -0.1600 
 25 O       -9.8160    -2.6490    -0.9310 O.3   1 <1>  -0.6800 
 26 C      -10.1910    -2.7300     1.4140 C.3   1 <1>  -0.1600 
 27 C       -9.9130    -4.8500    -0.0300 C.3   1 <1>   0.3430 
 28 N      -11.1830    -4.9180    -0.8310 N.4   1 <1>  -0.9590 
 29 C      -12.4160    -4.8580     0.0090 C.3   1 <1>   0.2630 
 30 C      -11.2000    -6.0860    -1.7600 C.3   1 <1>   0.2630 
 31 H       -1.6400    -0.7380     0.8320 H     1 <1>   0.1500 
 32 H       -4.7940     3.0260     1.0580 H     1 <1>   0.1500 
 33 H       -3.7520    -0.8430    -0.4090 H     1 <1>   0.1500 
 34 H       -1.6790     4.6890     3.5940 H     1 <1>   0.0800 
 35 H       -0.7260     3.6980     2.4960 H     1 <1>   0.0800 
 36 H       -1.4730     2.9750     3.9330 H     1 <1>   0.0800 
 37 H       -7.5840    -1.3930    -3.0950 H     1 <1>   0.0800 
 38 H       -8.1840    -0.0130    -3.9880 H     1 <1>   0.0800 
 39 H       -9.2740    -1.3120    -3.5380 H     1 <1>   0.0800 
 40 H      -10.1140     1.3690    -1.1670 H     1 <1>   0.0800 
 41 H      -10.8030     0.2180    -2.2910 H     1 <1>   0.0800 
 42 H       -9.8060     1.5370    -2.8810 H     1 <1>   0.0800 
 43 H       -7.6370    -3.8130     1.2850 H     1 <1>   0.0800 
 44 H       -7.4550    -3.7880    -0.4420 H     1 <1>   0.0800 
 45 H       -8.8890    -0.2860     0.7340 H     1 <1>   0.0800 
 46 H       -7.6690    -0.3840     1.9750 H     1 <1>   0.0800 
 47 H       -9.9250    -1.0730     2.7730 H     1 <1>   0.0800 
 48 H       -8.7290    -2.3110     2.9500 H     1 <1>   0.0800 
 49 H       -9.3110    -1.7930    -0.9520 H     1 <1>   0.4000 
 50 H      -10.5250    -3.4920     2.0960 H     1 <1>   0.0800 
 51 H      -11.0660    -2.2050     1.0690 H     1 <1>   0.0800 
 52 H      -10.0210    -5.3690     0.9080 H     1 <1>   0.0800 
 53 H       -9.1270    -5.3380    -0.5810 H     1 <1>   0.0800 
 54 H      -11.1320    -4.0400    -1.3930 H     1 <1>   0.4500 
 55 H      -12.4710    -5.7170     0.6580 H     1 <1>   0.0800 
 56 H      -13.2920    -4.8420    -0.6180 H     1 <1>   0.0800 
 57 H      -12.4150    -3.9660     0.6130 H     1 <1>   0.0800 
 58 H      -11.2030    -7.0090    -1.2030 H     1 <1>   0.0800 
 59 H      -10.3310    -6.0680    -2.3980 H     1 <1>   0.0800 
 60 H      -12.0800    -6.0550    -2.3820 H     1 <1>   0.0800 
@<TRIPOS>BOND
  1   1   2  1   
  2   2   3  ar  
  3   2   4  ar  
  4   3   5  1   
  5   3   6  ar  
  6   4   7  ar  
  7   4  31  1   
  8   5   8  1   
  9   6   9  ar  
 10   6  32  1   
 11   7   9  ar  
 12   7  33  1   
 13   8  34  1   
 14   8  35  1   
 15   8  36  1   
 16   9  10  1   
 17  10  11  1   
 18  10  12  2   
 19  11  13  1   
 20  12  14  1   
 21  12  15  1   
 22  13  14  2   
 23  14  16  1   
 24  15  17  2   
 25  15  18  am  
 26  16  19  1   
 27  16  20  1   
 28  18  21  1   
 29  18  22  1   
 30  19  37  1   
 31  19  38  1   
 32  19  39  1   
 33  20  40  1   
 34  20  41  1   
 35  20  42  1   
 36  21  23  1   
 37  21  43  1   
 38  21  44  1   
 39  22  24  1   
 40  22  45  1   
 41  22  46  1   
 42  23  25  1   
 43  23  26  1   
 44  23  27  1   
 45  24  26  1   
 46  24  47  1   
 47  24  48  1   
 48  25  49  1   
 49  26  50  1   
 50  26  51  1   
 51  27  28  1   
 52  27  52  1   
 53  27  53  1   
 54  28  29  1   
 55  28  30  1   
 56  28  54  1   
 57  29  55  1   
 58  29  56  1   
 59  29  57  1   
 60  30  58  1   
 61  30  59  1   
 62  30  60  1   
@<TRIPOS>SUBSTRUCTURE
  1 ****  15 GROUP 4 **** **** 0

# MOE 2024.06 (io_trps.svl 2023.06)
