@<TRIPOS>MOLECULE
NONAME
42 44 1 0 0 
SMALL
USER_CHARGES


@<TRIPOS>ATOM
  1 CL      -1.3790     0.3000    -1.6470 Cl    1 <1>  -0.1240 
  2 C       -1.6400    -1.2970    -1.0010 C.2   1 <1>   0.1640 
  3 S       -2.8580    -1.4510     0.2450 S.3   1 <1>  -0.0800 
  4 C       -1.0640    -2.4740    -1.2890 C.2   1 <1>  -0.1500 
  5 C       -2.5610    -3.1890     0.3730 C.2   1 <1>  -0.0220 
  6 C       -1.5950    -3.5490    -0.5040 C.2   1 <1>  -0.1500 
  7 S       -3.5530    -4.1420     1.5500 S.o2  1 <1>   1.5000 
  8 O       -2.7310    -5.2080     2.0800 O.2   1 <1>  -0.6500 
  9 O       -4.2660    -3.2790     2.4630 O.2   1 <1>  -0.6500 
 10 N       -4.7100    -4.9030     0.5690 N.am  1 <1>  -0.8490 
 11 C       -5.4130    -5.9650     1.3100 C.3   1 <1>   0.1960 
 12 C       -5.6850    -3.9570     0.0030 C.3   1 <1>   0.1960 
 13 C       -6.3170    -6.7850     0.3540 C.3   1 <1>   0.4230 
 14 C       -6.5930    -4.6990    -0.9890 C.3   1 <1>  -0.1600 
 15 N       -6.9920    -7.9760     0.9770 N.4   1 <1>  -0.9590 
 16 C       -7.3610    -5.8600    -0.3010 C.3   1 <1>  -0.1060 
 17 C       -7.7250    -8.7880    -0.0290 C.3   1 <1>   0.3430 
 18 C       -6.1480    -8.8030     1.8790 C.3   1 <1>   0.2630 
 19 C       -8.3000    -5.3110     0.7900 C.2   1 <1>   0.9060 
 20 C       -8.1570    -6.6540    -1.3620 C.3   1 <1>  -0.1600 
 21 C       -8.7640    -7.9320    -0.7610 C.3   1 <1>  -0.1600 
 22 O       -8.5120    -5.9980     1.8020 O.co2 1 <1>  -0.9000 
 23 O       -8.8140    -4.2050     0.6400 O.co2 1 <1>  -0.9000 
 24 H       -0.2880    -2.6300    -2.0180 H     1 <1>   0.1500 
 25 H       -1.2290    -4.5540    -0.6300 H     1 <1>   0.1500 
 26 H       -4.6820    -6.6250     1.7400 H     1 <1>   0.0800 
 27 H       -5.9940    -5.5320     2.1090 H     1 <1>   0.0800 
 28 H       -6.2750    -3.5050     0.7880 H     1 <1>   0.0800 
 29 H       -5.1750    -3.1670    -0.5210 H     1 <1>   0.0800 
 30 H       -5.6720    -7.1500    -0.4270 H     1 <1>   0.0800 
 31 H       -7.2970    -3.9960    -1.4010 H     1 <1>   0.0800 
 32 H       -5.9910    -5.0670    -1.8010 H     1 <1>   0.0800 
 33 H       -7.7340    -7.4940     1.5570 H     1 <1>   0.4500 
 34 H       -7.0270    -9.1940    -0.7420 H     1 <1>   0.0800 
 35 H       -8.2280    -9.6070     0.4610 H     1 <1>   0.0800 
 36 H       -5.3200    -9.2260     1.3350 H     1 <1>   0.0800 
 37 H       -6.7340    -9.6020     2.3030 H     1 <1>   0.0800 
 38 H       -5.7670    -8.2010     2.6880 H     1 <1>   0.0800 
 39 H       -8.9470    -6.0320    -1.7530 H     1 <1>   0.0800 
 40 H       -7.5120    -6.9210    -2.1810 H     1 <1>   0.0800 
 41 H       -9.2140    -8.5160    -1.5440 H     1 <1>   0.0800 
 42 H       -9.5480    -7.6710    -0.0700 H     1 <1>   0.0800 
@<TRIPOS>BOND
  1   1   2  1   
  2   2   3  1   
  3   2   4  2   
  4   3   5  1   
  5   4   6  1   
  6   4  24  1   
  7   5   6  2   
  8   5   7  1   
  9   6  25  1   
 10   7   8  2   
 11   7   9  2   
 12   7  10  am  
 13  10  11  1   
 14  10  12  1   
 15  11  13  1   
 16  11  26  1   
 17  11  27  1   
 18  12  14  1   
 19  12  28  1   
 20  12  29  1   
 21  13  15  1   
 22  13  16  1   
 23  13  30  1   
 24  14  16  1   
 25  14  31  1   
 26  14  32  1   
 27  15  17  1   
 28  15  18  1   
 29  15  33  1   
 30  16  19  1   
 31  16  20  1   
 32  17  21  1   
 33  17  34  1   
 34  17  35  1   
 35  18  36  1   
 36  18  37  1   
 37  18  38  1   
 38  19  22  ar  
 39  19  23  ar  
 40  20  21  1   
 41  20  39  1   
 42  20  40  1   
 43  21  41  1   
 44  21  42  1   
@<TRIPOS>SUBSTRUCTURE
  1 ****  10 GROUP 4 **** **** 0

# MOE 2024.06 (io_trps.svl 2023.06)
