@<TRIPOS>MOLECULE
NONAME
42 43 1 0 0 
SMALL
USER_CHARGES


@<TRIPOS>ATOM
  1 F       -0.9750    -0.5170    -1.0750 F     1 <1>  -0.1900 
  2 C       -1.4340    -1.5930    -0.4890 C.ar  1 <1>   0.1900 
  3 C       -2.6720    -2.0680    -0.8440 C.ar  1 <1>  -0.1500 
  4 C       -0.6300    -2.2060     0.4760 C.ar  1 <1>  -0.1500 
  5 C       -3.1380    -3.2200    -0.2020 C.ar  1 <1>   0.0000 
  6 C       -1.0870    -3.3400     1.1080 C.ar  1 <1>  -0.1500 
  7 C       -2.3470    -3.8420     0.7620 C.ar  1 <1>  -0.1520 
  8 C       -4.3210    -3.9810    -0.2990 C.2   1 <1>  -0.1500 
  9 N       -3.0260    -4.9360     1.2330 N.pl3 1 <1>   0.0330 
 10 C       -4.2260    -5.0160     0.5780 C.2   1 <1>  -0.3320 
 11 C       -5.1920    -6.1400     0.9000 C.3   1 <1>   0.5230 
 12 N       -6.1580    -6.2840    -0.2160 N.4   1 <1>  -0.9590 
 13 C       -7.2660    -7.2080     0.2720 C.3   1 <1>   0.3170 
 14 C       -5.4620    -6.8910    -1.3970 C.3   1 <1>   0.2630 
 15 C       -6.7170    -8.5680     0.7810 C.2   1 <1>   0.9060 
 16 C       -8.3720    -7.3120    -0.8000 C.3   1 <1>  -0.1600 
 17 O       -6.3540    -8.6100     1.9620 O.co2 1 <1>  -0.9000 
 18 O       -6.4660    -9.4690    -0.0270 O.co2 1 <1>  -0.9000 
 19 C       -9.7770    -7.5430    -0.2150 C.3   1 <1>  -0.1600 
 20 C       -9.9180    -8.8760     0.5340 C.3   1 <1>  -0.1600 
 21 C      -11.3750    -9.1320     0.9270 C.3   1 <1>  -0.2400 
 22 H       -3.2680    -1.5750    -1.5880 H     1 <1>   0.1500 
 23 H        0.3310    -1.7800     0.7060 H     1 <1>   0.1500 
 24 H       -0.4920    -3.8350     1.8560 H     1 <1>   0.1500 
 25 H       -5.1190    -3.7240    -0.9720 H     1 <1>   0.1500 
 26 H       -2.6660    -5.5730     1.9540 H     1 <1>   0.2700 
 27 H       -5.7130    -5.9230     1.8190 H     1 <1>   0.0800 
 28 H       -4.6560    -7.0670     1.0360 H     1 <1>   0.0800 
 29 H       -6.5300    -5.3580    -0.4310 H     1 <1>   0.4500 
 30 H       -7.7110    -6.7490     1.1370 H     1 <1>   0.0800 
 31 H       -5.0890    -7.8720    -1.1450 H     1 <1>   0.0800 
 32 H       -4.6340    -6.2740    -1.7040 H     1 <1>   0.0800 
 33 H       -6.1460    -6.9950    -2.2220 H     1 <1>   0.0800 
 34 H       -8.1390    -8.1130    -1.4820 H     1 <1>   0.0800 
 35 H       -8.4100    -6.3970    -1.3630 H     1 <1>   0.0800 
 36 H      -10.4820    -7.5320    -1.0280 H     1 <1>   0.0800 
 37 H      -10.0340    -6.7340     0.4470 H     1 <1>   0.0800 
 38 H       -9.3200    -8.8710     1.4300 H     1 <1>   0.0800 
 39 H       -9.5710    -9.6850    -0.0880 H     1 <1>   0.0800 
 40 H      -11.7370    -8.3470     1.5670 H     1 <1>   0.0800 
 41 H      -11.4500   -10.0660     1.4560 H     1 <1>   0.0800 
 42 H      -11.9990    -9.1860     0.0520 H     1 <1>   0.0800 
@<TRIPOS>BOND
  1   1   2  1   
  2   2   3  ar  
  3   2   4  ar  
  4   3   5  ar  
  5   3  22  1   
  6   4   6  ar  
  7   4  23  1   
  8   5   7  ar  
  9   5   8  1   
 10   6   7  ar  
 11   6  24  1   
 12   7   9  1   
 13   8  10  2   
 14   8  25  1   
 15   9  10  1   
 16   9  26  1   
 17  10  11  1   
 18  11  12  1   
 19  11  27  1   
 20  11  28  1   
 21  12  13  1   
 22  12  14  1   
 23  12  29  1   
 24  13  15  1   
 25  13  16  1   
 26  13  30  1   
 27  14  31  1   
 28  14  32  1   
 29  14  33  1   
 30  15  17  ar  
 31  15  18  ar  
 32  16  19  1   
 33  16  34  1   
 34  16  35  1   
 35  19  20  1   
 36  19  36  1   
 37  19  37  1   
 38  20  21  1   
 39  20  38  1   
 40  20  39  1   
 41  21  40  1   
 42  21  41  1   
 43  21  42  1   
@<TRIPOS>SUBSTRUCTURE
  1 ****  11 GROUP 4 **** **** 0

# MOE 2024.06 (io_trps.svl 2023.06)
