@<TRIPOS>MOLECULE
NONAME
38 40 1 0 0 
SMALL
USER_CHARGES


@<TRIPOS>ATOM
  1 O       -0.4650     0.3890    -0.0350 O.2   1 <1>  -0.5700 
  2 C       -1.5260     0.9930     0.0180 C.2   1 <1>   0.7160 
  3 N       -2.6790     0.2290    -0.0460 N.am  1 <1>  -0.6600 
  4 C       -1.5160     2.4520     0.1390 C.2   1 <1>   0.2030 
  5 C       -4.0670     0.7500    -0.1160 C.3   1 <1>   0.1400 
  6 C       -2.6670    -1.2510    -0.1040 C.3   1 <1>   0.1400 
  7 N       -2.5510     3.2680     0.2800 N.2   1 <1>  -0.7070 
  8 C       -0.3250     3.1970     0.1220 C.2   1 <1>  -0.1500 
  9 C       -4.9350    -0.4800    -0.3820 C.3   1 <1>   0.2000 
 10 C       -4.1210    -1.6720     0.1180 C.3   1 <1>  -0.0800 
 11 N       -2.0190     4.5070     0.3450 N.pl3 1 <1>   0.3000 
 12 C       -0.6680     4.4930     0.2610 C.2   1 <1>  -0.0680 
 13 O       -6.1450    -0.4160     0.2920 O.3   1 <1>  -0.6800 
 14 C       -4.4960    -2.9880    -0.5790 C.3   1 <1>   0.0200 
 15 N        0.1660     5.6170     0.3030 N.pl3 1 <1>  -0.8840 
 16 C       -3.6080    -4.1260    -0.1150 C.2   1 <1>  -0.0400 
 17 O       -3.6250    -4.5000     1.1370 O.3   1 <1>  -0.0190 
 18 C       -2.7270    -4.9000    -0.7650 C.2   1 <1>  -0.1500 
 19 N       -2.7990    -5.4810     1.3600 N.2   1 <1>  -0.4100 
 20 C       -2.2450    -5.7440     0.2310 C.2   1 <1>   0.1080 
 21 C       -1.2080    -6.8260     0.0250 C.3   1 <1>  -0.0590 
 22 H       -4.3200     1.2090     0.8240 H     1 <1>   0.0800 
 23 H       -4.1620     1.4650    -0.9140 H     1 <1>   0.0800 
 24 H       -2.3170    -1.5580    -1.0750 H     1 <1>   0.0800 
 25 H       -2.0190    -1.6610     0.6540 H     1 <1>   0.0800 
 26 H        0.6590     2.7770     0.0170 H     1 <1>   0.1500 
 27 H       -5.1390    -0.5570    -1.4370 H     1 <1>   0.0800 
 28 H       -4.2590    -1.7790     1.1800 H     1 <1>   0.0800 
 29 H       -2.5860     5.3580     0.4220 H     1 <1>   0.2700 
 30 H       -5.9920    -0.3260     1.2530 H     1 <1>   0.4000 
 31 H       -4.4010    -2.8790    -1.6450 H     1 <1>   0.0800 
 32 H       -5.5210    -3.2310    -0.3590 H     1 <1>   0.0800 
 33 H       -0.0180     6.2830     1.0620 H     1 <1>   0.4000 
 34 H        1.1690     5.3930     0.2830 H     1 <1>   0.4000 
 35 H       -2.4360    -4.8990    -1.7990 H     1 <1>   0.1500 
 36 H       -1.5600    -7.5350    -0.7010 H     1 <1>   0.0800 
 37 H       -1.0240    -7.3390     0.9520 H     1 <1>   0.0800 
 38 H       -0.2890    -6.3900    -0.3200 H     1 <1>   0.0800 
@<TRIPOS>BOND
  1   1   2  2   
  2   2   3  am  
  3   2   4  1   
  4   3   5  1   
  5   3   6  1   
  6   4   7  2   
  7   4   8  1   
  8   5   9  1   
  9   5  22  1   
 10   5  23  1   
 11   6  10  1   
 12   6  24  1   
 13   6  25  1   
 14   7  11  1   
 15   8  12  2   
 16   8  26  1   
 17   9  10  1   
 18   9  13  1   
 19   9  27  1   
 20  10  14  1   
 21  10  28  1   
 22  11  12  1   
 23  11  29  1   
 24  12  15  1   
 25  13  30  1   
 26  14  16  1   
 27  14  31  1   
 28  14  32  1   
 29  15  33  1   
 30  15  34  1   
 31  16  17  1   
 32  16  18  2   
 33  17  19  1   
 34  18  20  1   
 35  18  35  1   
 36  19  20  2   
 37  20  21  1   
 38  21  36  1   
 39  21  37  1   
 40  21  38  1   
@<TRIPOS>SUBSTRUCTURE
  1 ****   6 GROUP 4 **** **** 0

# MOE 2024.06 (io_trps.svl 2023.06)
