@<TRIPOS>MOLECULE
NONAME
38 39 1 0 0 
SMALL
USER_CHARGES


@<TRIPOS>ATOM
  1 CL      -3.7800    -1.5960     3.4980 Cl    1 <1>  -0.1770 
  2 C       -3.5620    -1.9280     1.7960 C.ar  1 <1>   0.1770 
  3 C       -3.1270    -0.9450     0.9240 C.ar  1 <1>   0.1900 
  4 C       -3.8350    -3.1980     1.3200 C.ar  1 <1>  -0.1500 
  5 F       -2.8700     0.2570     1.3660 F     1 <1>  -0.1900 
  6 C       -2.9550    -1.2060    -0.4230 C.ar  1 <1>  -0.1500 
  7 C       -3.6750    -3.4760    -0.0340 C.ar  1 <1>  -0.1440 
  8 C       -3.2300    -2.4790    -0.8990 C.ar  1 <1>  -0.1500 
  9 C       -3.9850    -4.8690    -0.5560 C.3   1 <1>   0.4870 
 10 N       -5.4560    -5.0710    -0.5300 N.4   1 <1>  -0.9590 
 11 C       -5.7950    -6.5210    -0.6450 C.3   1 <1>   0.5240 
 12 C       -6.1950    -4.1590    -1.4670 C.3   1 <1>   0.3430 
 13 C       -5.2500    -7.2220     0.5970 C.2   1 <1>   0.0460 
 14 C       -7.7140    -4.0760    -1.2160 C.3   1 <1>   0.1200 
 15 N       -5.2740    -6.5830     1.7890 N.2   1 <1>  -0.5650 
 16 C       -4.6960    -8.4510     0.7180 C.2   1 <1>  -0.3320 
 17 O       -8.3250    -5.2940    -1.4890 O.3   1 <1>  -0.6800 
 18 C       -4.7520    -7.4380     2.6080 C.2   1 <1>   0.0360 
 19 N       -4.3780    -8.5940     2.0210 N.pl3 1 <1>   0.0330 
 20 C       -4.4390    -9.5450    -0.3050 C.3   1 <1>  -0.0600 
 21 H       -4.1650    -3.9520     2.0150 H     1 <1>   0.1500 
 22 H       -2.6090    -0.4250    -1.0780 H     1 <1>   0.1500 
 23 H       -3.0890    -2.6800    -1.9490 H     1 <1>   0.1500 
 24 H       -3.4980    -5.5920     0.0800 H     1 <1>   0.0800 
 25 H       -3.6070    -4.9870    -1.5590 H     1 <1>   0.0800 
 26 H       -5.7320    -4.8720     0.4450 H     1 <1>   0.4500 
 27 H       -5.3790    -6.9500    -1.5400 H     1 <1>   0.0800 
 28 H       -6.8590    -6.6640    -0.6530 H     1 <1>   0.0800 
 29 H       -6.0280    -4.4650    -2.4860 H     1 <1>   0.0800 
 30 H       -5.7990    -3.1620    -1.3620 H     1 <1>   0.0800 
 31 H       -8.1500    -3.3380    -1.8670 H     1 <1>   0.0800 
 32 H       -7.9200    -3.8050    -0.1940 H     1 <1>   0.0800 
 33 H       -9.3010    -5.2290    -1.3920 H     1 <1>   0.4000 
 34 H       -4.6190    -7.2680     3.6640 H     1 <1>   0.1500 
 35 H       -3.9530    -9.4070     2.4800 H     1 <1>   0.2700 
 36 H       -4.7760    -9.2480    -1.2820 H     1 <1>   0.0800 
 37 H       -4.9640   -10.4430    -0.0260 H     1 <1>   0.0800 
 38 H       -3.3870    -9.7660    -0.3600 H     1 <1>   0.0800 
@<TRIPOS>BOND
  1   1   2  1   
  2   2   3  ar  
  3   2   4  ar  
  4   3   5  1   
  5   3   6  ar  
  6   4   7  ar  
  7   4  21  1   
  8   6   8  ar  
  9   6  22  1   
 10   7   8  ar  
 11   7   9  1   
 12   8  23  1   
 13   9  10  1   
 14   9  24  1   
 15   9  25  1   
 16  10  11  1   
 17  10  12  1   
 18  10  26  1   
 19  11  13  1   
 20  11  27  1   
 21  11  28  1   
 22  12  14  1   
 23  12  29  1   
 24  12  30  1   
 25  13  15  1   
 26  13  16  2   
 27  14  17  1   
 28  14  31  1   
 29  14  32  1   
 30  15  18  2   
 31  16  19  1   
 32  16  20  1   
 33  17  33  1   
 34  18  19  1   
 35  18  34  1   
 36  19  35  1   
 37  20  36  1   
 38  20  37  1   
 39  20  38  1   
@<TRIPOS>SUBSTRUCTURE
  1 ****   9 GROUP 4 **** **** 0

# MOE 2024.06 (io_trps.svl 2023.06)
