@<TRIPOS>MOLECULE
NONAME
48 49 1 0 0 
SMALL
USER_CHARGES


@<TRIPOS>ATOM
  1 S        1.2560     0.4980     0.6950 S.o2  1 <1>   1.0900 
  2 O       -0.0720     0.9300     1.0670 O.2   1 <1>  -0.6500 
  3 O        2.3900     1.0050     1.4360 O.2   1 <1>  -0.6500 
  4 C        1.5620     0.9260    -1.0230 C.3   1 <1>   0.0860 
  5 C        1.3360    -1.3000     0.8050 C.3   1 <1>  -0.0550 
  6 C        1.4740     2.4430    -1.1470 C.2   1 <1>   0.5690 
  7 C        0.6690     0.1790    -2.0470 C.3   1 <1>  -0.2400 
  8 C        0.0060    -2.0470     0.5820 C.3   1 <1>  -0.2400 
  9 O        0.8770     2.9160    -2.0870 O.2   1 <1>  -0.5700 
 10 N        2.1290     3.2370    -0.2400 N.am  1 <1>  -0.4940 
 11 C        2.2520     4.6420    -0.1660 C.2   1 <1>  -0.0880 
 12 N        1.2980     5.5750    -0.4300 N.pl3 1 <1>   0.3140 
 13 C        3.3610     5.3200     0.2410 C.2   1 <1>  -0.0540 
 14 N        1.7580     6.8270    -0.2090 N.2   1 <1>  -0.7070 
 15 C       -0.1070     5.3700    -0.8080 C.3   1 <1>   0.0160 
 16 C        4.6390     4.7870     0.6360 C.ar  1 <1>   0.0540 
 17 C        2.9780     6.6640     0.1830 C.2   1 <1>   0.1080 
 18 C        5.4370     4.1040    -0.2770 C.ar  1 <1>  -0.1500 
 19 C        5.1120     4.9380     1.9360 C.ar  1 <1>  -0.1500 
 20 C        3.8700     7.8350     0.5300 C.3   1 <1>  -0.0590 
 21 C        6.6700     3.5930     0.0870 C.ar  1 <1>  -0.1500 
 22 C        6.3430     4.4300     2.3080 C.ar  1 <1>  -0.1500 
 23 C        7.1320     3.7570     1.3900 C.ar  1 <1>   0.0830 
 24 O        8.3280     3.2930     1.8340 O.3   1 <1>  -0.3630 
 25 C        9.2140     2.6130     0.9730 C.3   1 <1>   0.0400 
 26 H        2.5780     0.6720    -1.2540 H     1 <1>   0.0800 
 27 H        1.6710    -1.5520     1.7940 H     1 <1>   0.0800 
 28 H        2.0760    -1.6750     0.1240 H     1 <1>   0.0800 
 29 H       -0.3720     0.3570    -1.8320 H     1 <1>   0.0800 
 30 H        0.8620    -0.8770    -2.0290 H     1 <1>   0.0800 
 31 H        0.8720     0.5300    -3.0440 H     1 <1>   0.0800 
 32 H       -0.7160    -1.7350     1.3170 H     1 <1>   0.0800 
 33 H        0.1570    -3.1070     0.6870 H     1 <1>   0.0800 
 34 H       -0.4020    -1.8550    -0.3920 H     1 <1>   0.0800 
 35 H        2.6300     2.7390     0.5130 H     1 <1>   0.3700 
 36 H       -0.4750     4.4760    -0.3420 H     1 <1>   0.0800 
 37 H       -0.1700     5.2790    -1.8760 H     1 <1>   0.0800 
 38 H       -0.6860     6.2120    -0.4830 H     1 <1>   0.0800 
 39 H        5.0790     3.9830    -1.2840 H     1 <1>   0.1500 
 40 H        4.5040     5.4560     2.6560 H     1 <1>   0.1500 
 41 H        4.8900     7.6150     0.2770 H     1 <1>   0.0800 
 42 H        3.8000     8.0410     1.5820 H     1 <1>   0.0800 
 43 H        3.5550     8.7040    -0.0180 H     1 <1>   0.0800 
 44 H        7.2540     3.0770    -0.6500 H     1 <1>   0.1500 
 45 H        6.7010     4.5500     3.3150 H     1 <1>   0.1500 
 46 H       10.0890     2.3460     1.5380 H     1 <1>   0.0800 
 47 H        9.4870     3.2690     0.1650 H     1 <1>   0.0800 
 48 H        8.7310     1.7250     0.6060 H     1 <1>   0.0800 
@<TRIPOS>BOND
  1   1   2  2   
  2   1   3  2   
  3   1   4  1   
  4   1   5  1   
  5   4   6  1   
  6   4   7  1   
  7   4  26  1   
  8   5   8  1   
  9   5  27  1   
 10   5  28  1   
 11   6   9  2   
 12   6  10  am  
 13   7  29  1   
 14   7  30  1   
 15   7  31  1   
 16   8  32  1   
 17   8  33  1   
 18   8  34  1   
 19  10  11  1   
 20  10  35  1   
 21  11  12  1   
 22  11  13  2   
 23  12  14  1   
 24  12  15  1   
 25  13  16  1   
 26  13  17  1   
 27  14  17  2   
 28  15  36  1   
 29  15  37  1   
 30  15  38  1   
 31  16  18  ar  
 32  16  19  ar  
 33  17  20  1   
 34  18  21  ar  
 35  18  39  1   
 36  19  22  ar  
 37  19  40  1   
 38  20  41  1   
 39  20  42  1   
 40  20  43  1   
 41  21  23  ar  
 42  21  44  1   
 43  22  23  ar  
 44  22  45  1   
 45  23  24  1   
 46  24  25  1   
 47  25  46  1   
 48  25  47  1   
 49  25  48  1   
@<TRIPOS>SUBSTRUCTURE
  1 ****  10 GROUP 4 **** **** 0

# MOE 2024.06 (io_trps.svl 2023.06)
