@<TRIPOS>MOLECULE
NONAME
54 57 1 0 0 
SMALL
USER_CHARGES


@<TRIPOS>ATOM
  1 O       -2.7400     0.5480    -2.0790 O.2   1 <1>  -0.5700 
  2 C       -2.4520     0.5540    -0.9080 C.2   1 <1>   0.5690 
  3 N       -2.2060    -0.5900    -0.2280 N.am  1 <1>  -0.7300 
  4 C       -2.3860     1.8730    -0.1650 C.3   1 <1>  -0.0990 
  5 C       -2.1690    -1.9460    -0.8250 C.3   1 <1>   0.2200 
  6 C       -1.0340     2.5940    -0.3310 C.3   1 <1>  -0.0800 
  7 C       -3.4160    -2.7460    -0.4690 C.3   1 <1>  -0.0800 
  8 C       -1.1040    -2.7600    -0.1050 C.3   1 <1>   0.1200 
  9 C        0.1330     1.7730     0.2530 C.3   1 <1>  -0.1600 
 10 C       -1.0950     3.9840     0.3270 C.3   1 <1>  -0.1600 
 11 C       -3.0850    -3.2660     0.9360 C.3   1 <1>   0.1200 
 12 C       -4.7430    -1.9650    -0.5730 C.3   1 <1>  -0.0170 
 13 O       -1.6990    -3.1540     1.0940 O.3   1 <1>  -0.5600 
 14 C        1.4660     2.5210     0.1320 C.3   1 <1>  -0.1600 
 15 C        0.2400     4.7290     0.2010 C.3   1 <1>  -0.1600 
 16 C       -6.0320    -2.7610    -0.3370 C.ar  1 <1>  -0.1440 
 17 C        1.3910     3.9050     0.7880 C.3   1 <1>  -0.1600 
 18 C       -7.2690    -2.0750    -0.2470 C.ar  1 <1>   0.0000 
 19 C       -6.0710    -4.1220    -0.2130 C.ar  1 <1>  -0.1500 
 20 C       -8.4380    -2.8360    -0.0010 C.ar  1 <1>   0.3100 
 21 C       -7.4160    -0.6740    -0.3940 C.ar  1 <1>  -0.1500 
 22 C       -7.2850    -4.7810     0.0200 C.ar  1 <1>   0.1600 
 23 N       -8.4280    -4.1860     0.1310 N.ar  1 <1>  -0.6200 
 24 C       -9.6720    -2.1760     0.1100 C.ar  1 <1>  -0.1500 
 25 C       -8.6350    -0.0620    -0.2840 C.ar  1 <1>  -0.1500 
 26 C       -9.7790    -0.8190    -0.0260 C.ar  1 <1>  -0.1500 
 27 H       -1.9800    -0.5690     0.7690 H     1 <1>   0.3700 
 28 H       -3.1690     2.5000    -0.5520 H     1 <1>   0.0800 
 29 H       -2.5880     1.7070     0.8760 H     1 <1>   0.0800 
 30 H       -1.9970    -1.8890    -1.8870 H     1 <1>   0.0800 
 31 H       -0.8570     2.7290    -1.3860 H     1 <1>   0.0800 
 32 H       -3.4560    -3.5840    -1.1410 H     1 <1>   0.0800 
 33 H       -0.2110    -2.1960     0.0970 H     1 <1>   0.0800 
 34 H       -0.8600    -3.6490    -0.6620 H     1 <1>   0.0800 
 35 H       -0.0580     1.5610     1.2910 H     1 <1>   0.0800 
 36 H        0.2210     0.8350    -0.2680 H     1 <1>   0.0800 
 37 H       -1.8690     4.5710    -0.1360 H     1 <1>   0.0800 
 38 H       -1.3400     3.8790     1.3710 H     1 <1>   0.0800 
 39 H       -3.3650    -4.2970     1.0650 H     1 <1>   0.0800 
 40 H       -3.5490    -2.6660     1.7000 H     1 <1>   0.0800 
 41 H       -4.7970    -1.5200    -1.5520 H     1 <1>   0.0800 
 42 H       -4.7180    -1.1650     0.1450 H     1 <1>   0.0800 
 43 H        2.2480     1.9450     0.5960 H     1 <1>   0.0800 
 44 H        1.7160     2.6360    -0.9100 H     1 <1>   0.0800 
 45 H        0.4390     4.9290    -0.8390 H     1 <1>   0.0800 
 46 H        0.1760     5.6740     0.7120 H     1 <1>   0.0800 
 47 H        2.3210     4.4260     0.6390 H     1 <1>   0.0800 
 48 H        1.2440     3.7900     1.8480 H     1 <1>   0.0800 
 49 H       -5.1980    -4.7390    -0.2860 H     1 <1>   0.1500 
 50 H       -6.5540    -0.0680    -0.6020 H     1 <1>   0.1500 
 51 H       -7.2640    -5.8530     0.1140 H     1 <1>   0.1500 
 52 H      -10.5380    -2.7810     0.3050 H     1 <1>   0.1500 
 53 H       -8.7290     1.0050    -0.3980 H     1 <1>   0.1500 
 54 H      -10.7330    -0.3270     0.0600 H     1 <1>   0.1500 
@<TRIPOS>BOND
  1   1   2  2   
  2   2   3  am  
  3   2   4  1   
  4   3   5  1   
  5   3  27  1   
  6   4   6  1   
  7   4  28  1   
  8   4  29  1   
  9   5   7  1   
 10   5   8  1   
 11   5  30  1   
 12   6   9  1   
 13   6  10  1   
 14   6  31  1   
 15   7  11  1   
 16   7  12  1   
 17   7  32  1   
 18   8  13  1   
 19   8  33  1   
 20   8  34  1   
 21   9  14  1   
 22   9  35  1   
 23   9  36  1   
 24  10  15  1   
 25  10  37  1   
 26  10  38  1   
 27  11  13  1   
 28  11  39  1   
 29  11  40  1   
 30  12  16  1   
 31  12  41  1   
 32  12  42  1   
 33  14  17  1   
 34  14  43  1   
 35  14  44  1   
 36  15  17  1   
 37  15  45  1   
 38  15  46  1   
 39  16  18  ar  
 40  16  19  ar  
 41  17  47  1   
 42  17  48  1   
 43  18  20  ar  
 44  18  21  ar  
 45  19  22  ar  
 46  19  49  1   
 47  20  23  ar  
 48  20  24  ar  
 49  21  25  ar  
 50  21  50  1   
 51  22  23  ar  
 52  22  51  1   
 53  24  26  ar  
 54  24  52  1   
 55  25  26  ar  
 56  25  53  1   
 57  26  54  1   
@<TRIPOS>SUBSTRUCTURE
  1 ****  12 GROUP 4 **** **** 0

# MOE 2024.06 (io_trps.svl 2023.06)
