@<TRIPOS>MOLECULE
NONAME
46 49 1 0 0 
SMALL
USER_CHARGES


@<TRIPOS>ATOM
  1 O       -0.6790    -0.2900     0.4930 O.3   1 <1>  -0.2800 
  2 C       -0.9200     0.9980     0.3970 C.2   1 <1>   0.4250 
  3 C       -1.8750    -0.7400     0.7450 C.2   1 <1>   0.2980 
  4 N       -2.1610     1.2960     0.5760 N.2   1 <1>  -0.3380 
  5 C        0.1620     1.9190     0.1140 C.ar  1 <1>   0.0530 
  6 N       -2.7780     0.1610     0.8050 N.2   1 <1>  -0.3380 
  7 C       -2.0270    -2.2550     0.9280 C.3   1 <1>   0.2900 
  8 C        1.4790     1.4810    -0.0520 C.ar  1 <1>  -0.1500 
  9 C       -0.0710     3.2910    -0.0060 C.ar  1 <1>  -0.1500 
 10 N       -3.4160    -2.7610     1.0420 N.3   1 <1>  -0.8100 
 11 C        2.5070     2.3640    -0.3240 C.ar  1 <1>  -0.1500 
 12 C        0.9530     4.1800    -0.2770 C.ar  1 <1>  -0.1500 
 13 C       -4.2490    -2.4930    -0.1420 C.3   1 <1>   0.1100 
 14 C       -3.4810    -4.2120     1.2990 C.3   1 <1>   0.1100 
 15 C        2.2460     3.7180    -0.4380 C.ar  1 <1>  -0.1500 
 16 C       -5.3510    -3.5440    -0.0780 C.3   1 <1>   0.2000 
 17 C       -4.6110    -4.7800     0.4230 C.3   1 <1>  -0.0800 
 18 O       -6.2430    -3.1500     0.9000 O.3   1 <1>  -0.6800 
 19 C       -4.0710    -5.6150    -0.7560 C.3   1 <1>   0.0210 
 20 C       -3.2150    -6.7820    -0.2980 C.2   1 <1>   0.1080 
 21 N       -3.6010    -7.6380     0.5960 N.2   1 <1>  -0.7070 
 22 C       -1.9390    -7.0620    -0.7740 C.2   1 <1>  -0.1500 
 23 N       -2.5730    -8.4980     0.7130 N.pl3 1 <1>   0.3000 
 24 C       -1.5520    -8.1690    -0.1050 C.2   1 <1>  -0.3320 
 25 C       -0.2530    -8.9470    -0.2020 C.3   1 <1>  -0.0600 
 26 H       -1.4930    -2.5250     1.8220 H     1 <1>   0.0800 
 27 H       -1.5440    -2.7420     0.1000 H     1 <1>   0.0800 
 28 H        1.7050     0.4330     0.0320 H     1 <1>   0.1500 
 29 H       -1.0720     3.6680     0.1160 H     1 <1>   0.1500 
 30 H        3.5130     2.0010    -0.4480 H     1 <1>   0.1500 
 31 H        0.7440     5.2320    -0.3640 H     1 <1>   0.1500 
 32 H       -4.6540    -1.4950    -0.1270 H     1 <1>   0.0800 
 33 H       -3.6730    -2.6280    -1.0410 H     1 <1>   0.0800 
 34 H       -2.5410    -4.6930     1.0850 H     1 <1>   0.0800 
 35 H       -3.7120    -4.3720     2.3380 H     1 <1>   0.0800 
 36 H        3.0450     4.4080    -0.6490 H     1 <1>   0.1500 
 37 H       -5.8860    -3.6830    -1.0020 H     1 <1>   0.0800 
 38 H       -5.2610    -5.4090     1.0070 H     1 <1>   0.0800 
 39 H       -5.7030    -2.8080     1.6450 H     1 <1>   0.4000 
 40 H       -3.4900    -4.9960    -1.4140 H     1 <1>   0.0800 
 41 H       -4.9000    -6.0100    -1.3160 H     1 <1>   0.0800 
 42 H       -1.4000    -6.5030    -1.5170 H     1 <1>   0.1500 
 43 H       -2.6020    -9.2990     1.3560 H     1 <1>   0.2700 
 44 H        0.4010    -8.4900    -0.9240 H     1 <1>   0.0800 
 45 H       -0.4470    -9.9590    -0.5110 H     1 <1>   0.0800 
 46 H        0.2460    -8.9610     0.7510 H     1 <1>   0.0800 
@<TRIPOS>BOND
  1   1   2  1   
  2   1   3  1   
  3   2   4  2   
  4   2   5  1   
  5   3   6  2   
  6   3   7  1   
  7   4   6  1   
  8   5   8  ar  
  9   5   9  ar  
 10   7  10  1   
 11   7  26  1   
 12   7  27  1   
 13   8  11  ar  
 14   8  28  1   
 15   9  12  ar  
 16   9  29  1   
 17  10  13  1   
 18  10  14  1   
 19  11  15  ar  
 20  11  30  1   
 21  12  15  ar  
 22  12  31  1   
 23  13  16  1   
 24  13  32  1   
 25  13  33  1   
 26  14  17  1   
 27  14  34  1   
 28  14  35  1   
 29  15  36  1   
 30  16  17  1   
 31  16  18  1   
 32  16  37  1   
 33  17  19  1   
 34  17  38  1   
 35  18  39  1   
 36  19  20  1   
 37  19  40  1   
 38  19  41  1   
 39  20  21  2   
 40  20  22  1   
 41  21  23  1   
 42  22  24  2   
 43  22  42  1   
 44  23  24  1   
 45  23  43  1   
 46  24  25  1   
 47  25  44  1   
 48  25  45  1   
 49  25  46  1   
@<TRIPOS>SUBSTRUCTURE
  1 ****   7 GROUP 4 **** **** 0

# MOE 2024.06 (io_trps.svl 2023.06)
