@<TRIPOS>MOLECULE
NONAME
50 52 1 0 0 
SMALL
USER_CHARGES


@<TRIPOS>ATOM
  1 O        0.5880    -0.0250    -0.4580 O.2   1 <1>  -0.5700 
  2 C        1.4980    -0.7050    -0.0200 C.2   1 <1>   0.5440 
  3 N        2.5980    -0.0720     0.5190 N.am  1 <1>  -0.6600 
  4 C        1.4050    -2.1510    -0.0930 C.ar  1 <1>   0.0860 
  5 C        2.6070     1.3940     0.8130 C.3   1 <1>   0.1400 
  6 C        3.9580    -0.6840     0.5840 C.3   1 <1>   0.1400 
  7 C        1.0190    -2.7880    -1.2710 C.ar  1 <1>  -0.1500 
  8 C        1.6910    -2.9620     1.0060 C.ar  1 <1>  -0.1500 
  9 C        3.6860     2.1140    -0.0190 C.3   1 <1>   0.2000 
 10 C        4.9600     0.1490    -0.2340 C.3   1 <1>   0.1200 
 11 C        0.9410    -4.1650    -1.3550 C.ar  1 <1>  -0.1500 
 12 C        1.6130    -4.3390     0.9240 C.ar  1 <1>  -0.1500 
 13 O        4.9300     1.4910     0.1600 O.3   1 <1>  -0.5600 
 14 C        3.8230     3.5850     0.3820 C.3   1 <1>  -0.1600 
 15 C        1.2390    -4.9670    -0.2590 C.ar  1 <1>   0.0000 
 16 C        4.9330     4.2860    -0.3980 C.3   1 <1>   0.1200 
 17 C        1.1570    -6.4060    -0.3440 C.ar  1 <1>   0.0000 
 18 O        4.8900     5.6360    -0.0750 O.3   1 <1>  -0.5600 
 19 C       -0.0210    -7.1010    -0.0580 C.ar  1 <1>  -0.1430 
 20 C        2.2820    -7.1340    -0.7210 C.ar  1 <1>  -0.1500 
 21 C        5.8860     6.3900    -0.6840 C.3   1 <1>   0.0400 
 22 C       -0.0530    -8.4830    -0.1520 C.ar  1 <1>  -0.1500 
 23 C       -1.2780    -6.3500     0.3570 C.3   1 <1>  -0.0970 
 24 C        2.2460    -8.5120    -0.8130 C.ar  1 <1>  -0.1500 
 25 C        1.0760    -9.1890    -0.5280 C.ar  1 <1>  -0.1500 
 26 H        2.8090     1.5400     1.8590 H     1 <1>   0.0800 
 27 H        1.6460     1.8310     0.6030 H     1 <1>   0.0800 
 28 H        3.9460    -1.6870     0.1960 H     1 <1>   0.0800 
 29 H        4.2820    -0.7240     1.6090 H     1 <1>   0.0800 
 30 H        0.7750    -2.1830    -2.1290 H     1 <1>   0.1500 
 31 H        1.9720    -2.4980     1.9350 H     1 <1>   0.1500 
 32 H        3.4270     2.0530    -1.0630 H     1 <1>   0.0800 
 33 H        4.7310     0.0920    -1.2840 H     1 <1>   0.0800 
 34 H        5.9600    -0.2150    -0.0780 H     1 <1>   0.0800 
 35 H        0.6430    -4.6340    -2.2760 H     1 <1>   0.1500 
 36 H        1.8400    -4.9460     1.7830 H     1 <1>   0.1500 
 37 H        4.0320     3.6520     1.4350 H     1 <1>   0.0800 
 38 H        2.8910     4.0850     0.1860 H     1 <1>   0.0800 
 39 H        4.7800     4.1790    -1.4580 H     1 <1>   0.0800 
 40 H        5.8960     3.8890    -0.1230 H     1 <1>   0.0800 
 41 H        3.1930    -6.6080    -0.9440 H     1 <1>   0.1500 
 42 H        5.7670     7.4140    -0.3750 H     1 <1>   0.0800 
 43 H        5.7830     6.3190    -1.7530 H     1 <1>   0.0800 
 44 H        6.8490     6.0260    -0.3690 H     1 <1>   0.0800 
 45 H       -0.9580    -9.0220     0.0670 H     1 <1>   0.1500 
 46 H       -1.0910    -5.7890     1.2560 H     1 <1>   0.0800 
 47 H       -2.0920    -7.0270     0.5420 H     1 <1>   0.0800 
 48 H       -1.5730    -5.6680    -0.4200 H     1 <1>   0.0800 
 49 H        3.1260    -9.0580    -1.1070 H     1 <1>   0.1500 
 50 H        1.0420   -10.2630    -0.5980 H     1 <1>   0.1500 
@<TRIPOS>BOND
  1   1   2  2   
  2   2   3  am  
  3   2   4  1   
  4   3   5  1   
  5   3   6  1   
  6   4   7  ar  
  7   4   8  ar  
  8   5   9  1   
  9   5  26  1   
 10   5  27  1   
 11   6  10  1   
 12   6  28  1   
 13   6  29  1   
 14   7  11  ar  
 15   7  30  1   
 16   8  12  ar  
 17   8  31  1   
 18   9  13  1   
 19   9  14  1   
 20   9  32  1   
 21  10  13  1   
 22  10  33  1   
 23  10  34  1   
 24  11  15  ar  
 25  11  35  1   
 26  12  15  ar  
 27  12  36  1   
 28  14  16  1   
 29  14  37  1   
 30  14  38  1   
 31  15  17  1   
 32  16  18  1   
 33  16  39  1   
 34  16  40  1   
 35  17  19  ar  
 36  17  20  ar  
 37  18  21  1   
 38  19  22  ar  
 39  19  23  1   
 40  20  24  ar  
 41  20  41  1   
 42  21  42  1   
 43  21  43  1   
 44  21  44  1   
 45  22  25  ar  
 46  22  45  1   
 47  23  46  1   
 48  23  47  1   
 49  23  48  1   
 50  24  25  ar  
 51  24  49  1   
 52  25  50  1   
@<TRIPOS>SUBSTRUCTURE
  1 ****   4 GROUP 4 **** **** 0

# MOE 2024.06 (io_trps.svl 2023.06)
