@<TRIPOS>MOLECULE
NONAME
54 56 1 0 0 
SMALL
USER_CHARGES


@<TRIPOS>ATOM
  1 O        0.2280    -0.0440     0.4170 O.3   1 <1>  -0.5600 
  2 C        1.0020     0.7100    -0.4750 C.3   1 <1>   0.1200 
  3 C        0.5250    -1.4140     0.4660 C.3   1 <1>   0.1200 
  4 C        2.5050     0.5670    -0.1500 C.3   1 <1>   0.4230 
  5 C        2.0100    -1.6410     0.8390 C.3   1 <1>   0.4230 
  6 N        2.9120    -0.8880    -0.0890 N.4   1 <1>  -0.9590 
  7 C        3.3880     1.3650    -1.1460 C.3   1 <1>   0.1100 
  8 C        2.3990    -3.1270     0.8840 C.3   1 <1>  -0.1600 
  9 C        3.0720    -1.4590    -1.4730 C.3   1 <1>   0.3430 
 10 N        4.5490     0.5650    -1.6020 N.3   1 <1>  -0.8100 
 11 C        1.7530    -3.8680     2.0660 C.3   1 <1>  -0.1600 
 12 C        4.1160    -0.6640    -2.2970 C.3   1 <1>   0.1100 
 13 C        5.5660     1.3420    -2.3550 C.3   1 <1>   0.2530 
 14 C        2.2290    -5.3220     2.1230 C.3   1 <1>  -0.2400 
 15 C        6.0970     2.5490    -1.5750 C.ar  1 <1>   0.1670 
 16 N        6.5850     2.3520    -0.3660 N.ar  1 <1>  -0.6200 
 17 C        6.0560     3.8080    -2.1280 C.ar  1 <1>  -0.1500 
 18 C        7.0280     3.4250     0.2740 C.ar  1 <1>   0.4770 
 19 C        6.5370     4.8510    -1.3770 C.ar  1 <1>   0.1600 
 20 N        7.0220     4.6740    -0.1710 N.ar  1 <1>  -0.6200 
 21 C        7.6000     3.1830     1.6780 C.3   1 <1>   0.0630 
 22 C        6.7840     3.9080     2.7610 C.3   1 <1>  -0.2400 
 23 C        9.0800     3.5860     1.7700 C.3   1 <1>  -0.2400 
 24 H        0.7850     0.3840    -1.4770 H     1 <1>   0.0800 
 25 H        0.6980     1.7380    -0.3760 H     1 <1>   0.0800 
 26 H       -0.1180    -1.8500     1.2100 H     1 <1>   0.0800 
 27 H        0.2880    -1.8540    -0.4870 H     1 <1>   0.0800 
 28 H        2.6570     1.0030     0.8240 H     1 <1>   0.0800 
 29 H        2.1470    -1.2440     1.8320 H     1 <1>   0.0800 
 30 H        3.8710    -0.8540     0.2890 H     1 <1>   0.4500 
 31 H        3.7260     2.2550    -0.6420 H     1 <1>   0.0800 
 32 H        2.8080     1.6780    -1.9980 H     1 <1>   0.0800 
 33 H        2.1050    -3.6170    -0.0280 H     1 <1>   0.0800 
 34 H        3.4670    -3.2050     0.9880 H     1 <1>   0.0800 
 35 H        3.3900    -2.4870    -1.4180 H     1 <1>   0.0800 
 36 H        2.1260    -1.4370    -1.9880 H     1 <1>   0.0800 
 37 H        2.0130    -3.3820     2.9920 H     1 <1>   0.0800 
 38 H        0.6800    -3.8640     1.9770 H     1 <1>   0.0800 
 39 H        3.6990    -0.4200    -3.2600 H     1 <1>   0.0800 
 40 H        4.9750    -1.2930    -2.4650 H     1 <1>   0.0800 
 41 H        6.4040     0.7010    -2.5710 H     1 <1>   0.0800 
 42 H        5.1500     1.6700    -3.2910 H     1 <1>   0.0800 
 43 H        3.2970    -5.3700     2.2480 H     1 <1>   0.0800 
 44 H        1.9610    -5.8480     1.2230 H     1 <1>   0.0800 
 45 H        1.7700    -5.8260     2.9560 H     1 <1>   0.0800 
 46 H        5.6660     3.9820    -3.1130 H     1 <1>   0.1500 
 47 H        6.5240     5.8540    -1.7710 H     1 <1>   0.1500 
 48 H        7.5410     2.1270     1.8790 H     1 <1>   0.0800 
 49 H        6.8380     4.9730     2.6190 H     1 <1>   0.0800 
 50 H        7.1620     3.6690     3.7390 H     1 <1>   0.0800 
 51 H        5.7540     3.6070     2.7070 H     1 <1>   0.0800 
 52 H        9.1910     4.6430     1.6040 H     1 <1>   0.0800 
 53 H        9.6490     3.0620     1.0230 H     1 <1>   0.0800 
 54 H        9.4770     3.3430     2.7390 H     1 <1>   0.0800 
@<TRIPOS>BOND
  1   1   2  1   
  2   1   3  1   
  3   2   4  1   
  4   2  24  1   
  5   2  25  1   
  6   3   5  1   
  7   3  26  1   
  8   3  27  1   
  9   4   6  1   
 10   4   7  1   
 11   4  28  1   
 12   5   6  1   
 13   5   8  1   
 14   5  29  1   
 15   6   9  1   
 16   6  30  1   
 17   7  10  1   
 18   7  31  1   
 19   7  32  1   
 20   8  11  1   
 21   8  33  1   
 22   8  34  1   
 23   9  12  1   
 24   9  35  1   
 25   9  36  1   
 26  10  12  1   
 27  10  13  1   
 28  11  14  1   
 29  11  37  1   
 30  11  38  1   
 31  12  39  1   
 32  12  40  1   
 33  13  15  1   
 34  13  41  1   
 35  13  42  1   
 36  14  43  1   
 37  14  44  1   
 38  14  45  1   
 39  15  16  ar  
 40  15  17  ar  
 41  16  18  ar  
 42  17  19  ar  
 43  17  46  1   
 44  18  20  ar  
 45  18  21  1   
 46  19  20  ar  
 47  19  47  1   
 48  21  22  1   
 49  21  23  1   
 50  21  48  1   
 51  22  49  1   
 52  22  50  1   
 53  22  51  1   
 54  23  52  1   
 55  23  53  1   
 56  23  54  1   
@<TRIPOS>SUBSTRUCTURE
  1 ****   7 GROUP 4 **** **** 0

# MOE 2024.06 (io_trps.svl 2023.06)
