@<TRIPOS>MOLECULE
NONAME
51 54 1 0 0 
SMALL
USER_CHARGES


@<TRIPOS>ATOM
  1 O        0.6190    -0.1240     1.7900 O.2   1 <1>  -0.5700 
  2 C        1.2310    -0.8780     1.0520 C.2   1 <1>   0.5440 
  3 N        1.6760    -2.0910     1.5260 N.am  1 <1>  -0.4200 
  4 C        1.4740    -0.5610    -0.3270 C.ar  1 <1>   0.0860 
  5 C        2.3400    -2.9490     0.6820 C.2   1 <1>   0.4500 
  6 C        1.3800    -2.5330     2.9260 C.3   1 <1>   0.2010 
  7 C        2.1470    -1.5160    -1.0970 C.ar  1 <1>   0.1790 
  8 C        1.0650     0.6310    -0.9330 C.ar  1 <1>  -0.1500 
  9 N        2.5720    -2.7110    -0.5520 N.2   1 <1>  -0.6290 
 10 C        0.6700    -3.8870     2.9830 C.2   1 <1>   0.5690 
 11 C        2.3930    -1.2600    -2.4410 C.ar  1 <1>  -0.1500 
 12 C        1.3160     0.8710    -2.2680 C.ar  1 <1>  -0.1500 
 13 O        1.3080    -4.7980     3.4570 O.2   1 <1>  -0.5700 
 14 N       -0.6120    -4.0760     2.5100 N.am  1 <1>  -0.6600 
 15 C        1.9830    -0.0800    -3.0270 C.ar  1 <1>  -0.1500 
 16 C       -1.4340    -2.9750     1.9190 C.3   1 <1>   0.2200 
 17 C       -1.2210    -5.4440     2.5590 C.3   1 <1>   0.0600 
 18 C       -1.5200    -3.0650     0.3990 C.3   1 <1>  -0.1600 
 19 C       -2.8930    -2.9390     2.3670 C.3   1 <1>  -0.1600 
 20 C       -2.6850    -2.1360     0.0390 C.3   1 <1>  -0.0800 
 21 C       -3.5890    -2.0890     1.2940 C.3   1 <1>  -0.0800 
 22 C       -3.3900    -2.5460    -1.2680 C.3   1 <1>   0.1400 
 23 C       -5.0410    -2.5220     1.0220 C.3   1 <1>  -0.0990 
 24 N       -4.7290    -1.9100    -1.3480 N.am  1 <1>  -0.6600 
 25 C       -5.5520    -1.8890    -0.2560 C.2   1 <1>   0.5690 
 26 C       -5.1290    -1.3510    -2.6670 C.3   1 <1>   0.0600 
 27 O       -6.6560    -1.4000    -0.2650 O.2   1 <1>  -0.5700 
 28 H        2.6730    -3.8800     1.1100 H     1 <1>   0.0600 
 29 H        2.3100    -2.6140     3.4590 H     1 <1>   0.0800 
 30 H        0.7800    -1.8100     3.4450 H     1 <1>   0.0800 
 31 H        0.5480     1.3680    -0.3410 H     1 <1>   0.1500 
 32 H        2.9130    -2.0030    -3.0190 H     1 <1>   0.1500 
 33 H        0.9970     1.7930    -2.7240 H     1 <1>   0.1500 
 34 H        2.1810     0.1070    -4.0690 H     1 <1>   0.1500 
 35 H       -1.0160    -2.0200     2.1760 H     1 <1>   0.0800 
 36 H       -1.7870    -5.6410     1.6670 H     1 <1>   0.0800 
 37 H       -1.8700    -5.5200     3.4140 H     1 <1>   0.0800 
 38 H       -0.4590    -6.2000     2.6420 H     1 <1>   0.0800 
 39 H       -0.6100    -2.7570    -0.0800 H     1 <1>   0.0800 
 40 H       -1.7510    -4.0720     0.1040 H     1 <1>   0.0800 
 41 H       -3.3200    -3.9240     2.3710 H     1 <1>   0.0800 
 42 H       -2.9930    -2.5000     3.3440 H     1 <1>   0.0800 
 43 H       -2.2840    -1.1470    -0.1070 H     1 <1>   0.0800 
 44 H       -3.6100    -1.0650     1.6320 H     1 <1>   0.0800 
 45 H       -3.5240    -3.6140    -1.3000 H     1 <1>   0.0800 
 46 H       -2.7870    -2.2550    -2.1110 H     1 <1>   0.0800 
 47 H       -5.6720    -2.2340     1.8440 H     1 <1>   0.0800 
 48 H       -5.1040    -3.5870     0.9040 H     1 <1>   0.0800 
 49 H       -4.4510    -0.5660    -2.9500 H     1 <1>   0.0800 
 50 H       -6.1250    -0.9440    -2.6170 H     1 <1>   0.0800 
 51 H       -5.1110    -2.1270    -3.4110 H     1 <1>   0.0800 
@<TRIPOS>BOND
  1   1   2  2   
  2   2   3  am  
  3   2   4  1   
  4   3   5  1   
  5   3   6  1   
  6   4   7  ar  
  7   4   8  ar  
  8   5   9  2   
  9   5  28  1   
 10   6  10  1   
 11   6  29  1   
 12   6  30  1   
 13   7   9  1   
 14   7  11  ar  
 15   8  12  ar  
 16   8  31  1   
 17  10  13  2   
 18  10  14  am  
 19  11  15  ar  
 20  11  32  1   
 21  12  15  ar  
 22  12  33  1   
 23  14  16  1   
 24  14  17  1   
 25  15  34  1   
 26  16  18  1   
 27  16  19  1   
 28  16  35  1   
 29  17  36  1   
 30  17  37  1   
 31  17  38  1   
 32  18  20  1   
 33  18  39  1   
 34  18  40  1   
 35  19  21  1   
 36  19  41  1   
 37  19  42  1   
 38  20  21  1   
 39  20  22  1   
 40  20  43  1   
 41  21  23  1   
 42  21  44  1   
 43  22  24  1   
 44  22  45  1   
 45  22  46  1   
 46  23  25  1   
 47  23  47  1   
 48  23  48  1   
 49  24  25  am  
 50  24  26  1   
 51  25  27  2   
 52  26  49  1   
 53  26  50  1   
 54  26  51  1   
@<TRIPOS>SUBSTRUCTURE
  1 ****  18 GROUP 4 **** **** 0

# MOE 2024.06 (io_trps.svl 2023.06)
