@<TRIPOS>MOLECULE
NONAME
52 54 1 0 0 
SMALL
USER_CHARGES


@<TRIPOS>ATOM
  1 O        0.2580     0.1260    -1.0950 O.3   1 <1>  -0.5600 
  2 C        1.4570    -0.6090    -1.1190 C.3   1 <1>   0.2000 
  3 C        0.4130     1.4960    -1.3080 C.3   1 <1>   0.1200 
  4 C        2.5090    -0.0300    -0.1200 C.3   1 <1>   0.3340 
  5 C        1.0380    -2.0660    -0.8420 C.3   1 <1>   0.1200 
  6 C        1.3020     2.0920    -0.2130 C.3   1 <1>   0.1100 
  7 N        2.6280     1.4500    -0.2130 N.3   1 <1>  -0.8100 
  8 C        3.8940    -0.6290    -0.3870 C.ar  1 <1>  -0.1440 
  9 O        2.1120    -2.9480    -0.7780 O.3   1 <1>  -0.6800 
 10 C        3.4640     1.9970     0.8870 C.3   1 <1>   0.2530 
 11 C        4.4680    -1.5000     0.5280 C.ar  1 <1>  -0.1500 
 12 C        4.5930    -0.3110    -1.5450 C.ar  1 <1>  -0.1500 
 13 C        3.7320     3.4920     0.7320 C.ar  1 <1>   0.1670 
 14 C        5.7110    -2.0610     0.2890 C.ar  1 <1>   0.0830 
 15 C        5.8430    -0.8560    -1.7860 C.ar  1 <1>  -0.1500 
 16 N        3.2380     4.3000     1.6630 N.ar  1 <1>  -0.6200 
 17 C        4.4660     3.9290    -0.3590 C.ar  1 <1>  -0.1500 
 18 O        6.1870    -2.9400     1.2030 O.3   1 <1>  -0.3630 
 19 C        6.4160    -1.7220    -0.8700 C.ar  1 <1>   0.0830 
 20 C        3.4940     5.5880     1.4940 C.ar  1 <1>   0.1600 
 21 C        4.7230     5.2740    -0.5190 C.ar  1 <1>  -0.1500 
 22 C        6.1980    -4.2900     0.7990 C.3   1 <1>   0.0400 
 23 O        7.6510    -2.2050    -1.1540 O.3   1 <1>  -0.3630 
 24 C        4.2180     6.1270     0.4400 C.ar  1 <1>  -0.1430 
 25 C        8.6870    -1.8530    -0.2640 C.3   1 <1>   0.0400 
 26 C        4.4620     7.6220     0.3300 C.3   1 <1>  -0.0970 
 27 H        1.8440    -0.5440    -2.1200 H     1 <1>   0.0800 
 28 H        0.8470     1.6550    -2.2800 H     1 <1>   0.0800 
 29 H       -0.5630     1.9460    -1.2820 H     1 <1>   0.0800 
 30 H        2.1920    -0.2930     0.8750 H     1 <1>   0.0800 
 31 H        0.3850    -2.4060    -1.6270 H     1 <1>   0.0800 
 32 H        0.5170    -2.1270     0.0980 H     1 <1>   0.0800 
 33 H        0.8220     1.9650     0.7440 H     1 <1>   0.0800 
 34 H        1.4090     3.1480    -0.3940 H     1 <1>   0.0800 
 35 H        2.7870    -2.7370    -1.4550 H     1 <1>   0.4000 
 36 H        2.9820     1.8200     1.8340 H     1 <1>   0.0800 
 37 H        4.4170     1.5000     0.9070 H     1 <1>   0.0800 
 38 H        3.9470    -1.7680     1.4300 H     1 <1>   0.1500 
 39 H        4.1640     0.3730    -2.2570 H     1 <1>   0.1500 
 40 H        6.3830    -0.6070    -2.6810 H     1 <1>   0.1500 
 41 H        4.8270     3.2140    -1.0760 H     1 <1>   0.1500 
 42 H        3.1020     6.2540     2.2430 H     1 <1>   0.1500 
 43 H        5.2910     5.6360    -1.3580 H     1 <1>   0.1500 
 44 H        6.5420    -4.8870     1.6240 H     1 <1>   0.0800 
 45 H        6.8610    -4.4040    -0.0400 H     1 <1>   0.0800 
 46 H        5.1970    -4.5780     0.5260 H     1 <1>   0.0800 
 47 H        9.6210    -2.1650    -0.6950 H     1 <1>   0.0800 
 48 H        8.5360    -2.3500     0.6760 H     1 <1>   0.0800 
 49 H        8.6810    -0.7860    -0.1280 H     1 <1>   0.0800 
 50 H        4.2370     7.9600    -0.6650 H     1 <1>   0.0800 
 51 H        5.4930     7.8400     0.5460 H     1 <1>   0.0800 
 52 H        3.8430     8.1640     1.0230 H     1 <1>   0.0800 
@<TRIPOS>BOND
  1   1   2  1   
  2   1   3  1   
  3   2   4  1   
  4   2   5  1   
  5   2  27  1   
  6   3   6  1   
  7   3  28  1   
  8   3  29  1   
  9   4   7  1   
 10   4   8  1   
 11   4  30  1   
 12   5   9  1   
 13   5  31  1   
 14   5  32  1   
 15   6   7  1   
 16   6  33  1   
 17   6  34  1   
 18   7  10  1   
 19   8  11  ar  
 20   8  12  ar  
 21   9  35  1   
 22  10  13  1   
 23  10  36  1   
 24  10  37  1   
 25  11  14  ar  
 26  11  38  1   
 27  12  15  ar  
 28  12  39  1   
 29  13  16  ar  
 30  13  17  ar  
 31  14  18  1   
 32  14  19  ar  
 33  15  19  ar  
 34  15  40  1   
 35  16  20  ar  
 36  17  21  ar  
 37  17  41  1   
 38  18  22  1   
 39  19  23  1   
 40  20  24  ar  
 41  20  42  1   
 42  21  24  ar  
 43  21  43  1   
 44  22  44  1   
 45  22  45  1   
 46  22  46  1   
 47  23  25  1   
 48  24  26  1   
 49  25  47  1   
 50  25  48  1   
 51  25  49  1   
 52  26  50  1   
 53  26  51  1   
 54  26  52  1   
@<TRIPOS>SUBSTRUCTURE
  1 ****   8 GROUP 4 **** **** 0

# MOE 2024.06 (io_trps.svl 2023.06)
