@<TRIPOS>MOLECULE
NONAME
66 67 1 0 0 
SMALL
USER_CHARGES


@<TRIPOS>ATOM
  1 O       -0.0890     1.8660     1.1940 O.2   1 <1>  -0.5700 
  2 C        0.3610     1.9810     0.0560 C.2   1 <1>   0.5690 
  3 N       -0.3710     1.5870    -1.0230 N.am  1 <1>  -0.7300 
  4 C        1.7990     2.5180    -0.1770 C.3   1 <1>   0.2810 
  5 C       -1.7900     1.1580    -1.0050 C.3   1 <1>   0.1400 
  6 N        2.7730     1.4260    -0.0660 N.am  1 <1>  -0.7300 
  7 C        2.1740     3.7020     0.7610 C.3   1 <1>  -0.0800 
  8 C       -1.8880    -0.3670    -0.9550 C.3   1 <1>  -0.1600 
  9 C        3.8600     1.2750    -0.8310 C.2   1 <1>   0.5690 
 10 C        1.1360     4.8400     0.7070 C.3   1 <1>  -0.2400 
 11 C        3.5570     4.3140     0.4690 C.3   1 <1>  -0.2400 
 12 C       -1.8150    -0.9060     0.4810 C.3   1 <1>   0.1400 
 13 O        4.1250     2.0750    -1.7210 O.2   1 <1>  -0.5700 
 14 C        4.7800     0.0490    -0.5640 C.3   1 <1>   0.2810 
 15 N       -1.5560    -2.3780     0.4680 N.am  1 <1>  -0.6600 
 16 N        4.1040    -1.0170     0.1860 N.am  1 <1>  -0.7300 
 17 C        6.0220     0.4470     0.2370 C.3   1 <1>  -0.2400 
 18 C       -2.5750    -3.2420     0.1300 C.2   1 <1>   0.5690 
 19 C       -0.1990    -2.7750     0.9500 C.3   1 <1>   0.1400 
 20 C        3.3130    -1.9300    -0.4270 C.2   1 <1>   0.5690 
 21 O       -3.6800    -2.8200    -0.1280 O.2   1 <1>  -0.5700 
 22 C       -2.3530    -4.7620     0.0560 C.3   1 <1>  -0.0190 
 23 C        0.8820    -2.2160     0.0220 C.3   1 <1>  -0.1600 
 24 O        3.3440    -2.1080    -1.6180 O.2   1 <1>  -0.5700 
 25 C        2.2950    -2.6910     0.3970 C.3   1 <1>  -0.0990 
 26 C       -1.5480    -5.1560    -1.1970 C.3   1 <1>  -0.1600 
 27 C       -3.6620    -5.5770     0.0660 C.3   1 <1>  -0.1600 
 28 C       -1.3860    -6.6780    -1.2880 C.3   1 <1>   0.1200 
 29 C       -3.3770    -7.0730    -0.0940 C.3   1 <1>   0.1200 
 30 O       -2.6400    -7.2840    -1.2590 O.3   1 <1>  -0.5600 
 31 H        0.0790     1.5600    -1.9410 H     1 <1>   0.3700 
 32 H        1.8240     2.9020    -1.1970 H     1 <1>   0.0800 
 33 H       -2.2980     1.5940    -0.1590 H     1 <1>   0.0800 
 34 H       -2.2660     1.5190    -1.9000 H     1 <1>   0.0800 
 35 H        2.5880     0.7200     0.6240 H     1 <1>   0.3700 
 36 H        2.1870     3.3200     1.7840 H     1 <1>   0.0800 
 37 H       -1.1190    -0.8000    -1.5690 H     1 <1>   0.0800 
 38 H       -2.8390    -0.6560    -1.3660 H     1 <1>   0.0800 
 39 H        1.0610     5.2330    -0.3080 H     1 <1>   0.0800 
 40 H        1.4330     5.6480     1.3770 H     1 <1>   0.0800 
 41 H        0.1560     4.4870     1.0290 H     1 <1>   0.0800 
 42 H        3.6110     4.6440    -0.5690 H     1 <1>   0.0800 
 43 H        4.3410     3.5780     0.6470 H     1 <1>   0.0800 
 44 H        3.7410     5.1650     1.1260 H     1 <1>   0.0800 
 45 H       -2.7460    -0.7100     0.9860 H     1 <1>   0.0800 
 46 H       -1.0400    -0.4060     1.0330 H     1 <1>   0.0800 
 47 H        5.1040    -0.3320    -1.5350 H     1 <1>   0.0800 
 48 H        4.1640    -0.9920     1.1880 H     1 <1>   0.3700 
 49 H        5.7300     0.8520     1.2060 H     1 <1>   0.0800 
 50 H        6.5740     1.2090    -0.3140 H     1 <1>   0.0800 
 51 H        6.6640    -0.4230     0.3780 H     1 <1>   0.0800 
 52 H       -0.0580    -2.3900     1.9460 H     1 <1>   0.0800 
 53 H       -0.1000    -3.8420     0.9980 H     1 <1>   0.0800 
 54 H       -1.8080    -5.0610     0.9310 H     1 <1>   0.0800 
 55 H        0.6730    -2.5180    -0.9910 H     1 <1>   0.0800 
 56 H        0.8650    -1.1420     0.0590 H     1 <1>   0.0800 
 57 H        2.3990    -3.7410     0.1930 H     1 <1>   0.0800 
 58 H        2.4790    -2.5250     1.4430 H     1 <1>   0.0800 
 59 H       -0.5770    -4.6970    -1.1830 H     1 <1>   0.0800 
 60 H       -2.0600    -4.8100    -2.0780 H     1 <1>   0.0800 
 61 H       -4.2990    -5.2630    -0.7430 H     1 <1>   0.0800 
 62 H       -4.1920    -5.4040     0.9850 H     1 <1>   0.0800 
 63 H       -0.8000    -7.0610    -0.4700 H     1 <1>   0.0800 
 64 H       -0.9130    -6.9510    -2.2160 H     1 <1>   0.0800 
 65 H       -4.2970    -7.6240    -0.1850 H     1 <1>   0.0800 
 66 H       -2.8180    -7.4600     0.7420 H     1 <1>   0.0800 
@<TRIPOS>BOND
  1   1   2  2   
  2   2   3  am  
  3   2   4  1   
  4   3   5  1   
  5   3  31  1   
  6   4   6  1   
  7   4   7  1   
  8   4  32  1   
  9   5   8  1   
 10   5  33  1   
 11   5  34  1   
 12   6   9  am  
 13   6  35  1   
 14   7  10  1   
 15   7  11  1   
 16   7  36  1   
 17   8  12  1   
 18   8  37  1   
 19   8  38  1   
 20   9  13  2   
 21   9  14  1   
 22  10  39  1   
 23  10  40  1   
 24  10  41  1   
 25  11  42  1   
 26  11  43  1   
 27  11  44  1   
 28  12  15  1   
 29  12  45  1   
 30  12  46  1   
 31  14  16  1   
 32  14  17  1   
 33  14  47  1   
 34  15  18  am  
 35  15  19  1   
 36  16  20  am  
 37  16  48  1   
 38  17  49  1   
 39  17  50  1   
 40  17  51  1   
 41  18  21  2   
 42  18  22  1   
 43  19  23  1   
 44  19  52  1   
 45  19  53  1   
 46  20  24  2   
 47  20  25  1   
 48  22  26  1   
 49  22  27  1   
 50  22  54  1   
 51  23  25  1   
 52  23  55  1   
 53  23  56  1   
 54  25  57  1   
 55  25  58  1   
 56  26  28  1   
 57  26  59  1   
 58  26  60  1   
 59  27  29  1   
 60  27  61  1   
 61  27  62  1   
 62  28  30  1   
 63  28  63  1   
 64  28  64  1   
 65  29  30  1   
 66  29  65  1   
 67  29  66  1   
@<TRIPOS>SUBSTRUCTURE
  1 ****  23 GROUP 4 **** **** 0

# MOE 2024.06 (io_trps.svl 2023.06)
