@<TRIPOS>MOLECULE
Untitled Document
35 35 1 0 0 
SMALL
USER_CHARGES


@<TRIPOS>ATOM
  1 F       -2.0660     0.8620    -1.5580 F     1 <1>  -0.3400 
  2 C       -2.2390     0.6890    -0.2550 C.3   1 <1>   0.2600 
  3 C       -2.9940    -0.6250    -0.0560 C.3   1 <1>   0.1400 
  4 C       -3.1920     1.7830     0.2140 C.3   1 <1>  -0.1600 
  5 N       -4.4230    -0.2470     0.1160 N.am  1 <1>  -0.6600 
  6 C       -4.5930     1.2240    -0.0570 C.3   1 <1>   0.4200 
  7 C       -5.3650    -1.1470     0.5460 C.2   1 <1>   0.5690 
  8 C       -5.0830     1.5770    -1.4370 C.1   1 <1>   0.3570 
  9 O       -5.0640    -2.3060     0.7040 O.2   1 <1>  -0.5700 
 10 C       -6.8160    -0.7590     0.8910 C.3   1 <1>   0.1710 
 11 N       -5.4800     1.8600    -2.4670 N.1   1 <1>  -0.5570 
 12 N       -7.4210     0.3220     0.0650 N.3   1 <1>  -0.9000 
 13 C       -8.8060     0.6970     0.3250 C.3   1 <1>   0.2700 
 14 C       -9.7680    -0.5030     0.1100 C.3   1 <1>   0.1200 
 15 C       -9.0990     1.8100    -0.6820 C.3   1 <1>  -0.2400 
 16 C       -8.9050     1.2660     1.7460 C.3   1 <1>  -0.2400 
 17 O      -11.1020    -0.1410     0.2880 O.3   1 <1>  -0.6800 
 18 H       -1.2620     0.7110     0.1950 H     1 <1>   0.0800 
 19 H       -2.6540    -1.1170     0.8390 H     1 <1>   0.0800 
 20 H       -2.8710    -1.2870    -0.8970 H     1 <1>   0.0800 
 21 H       -3.0810     1.9150     1.2750 H     1 <1>   0.0800 
 22 H       -3.0110     2.7260    -0.2710 H     1 <1>   0.0800 
 23 H       -5.2870     1.6140     0.6660 H     1 <1>   0.0800 
 24 H       -6.8250    -0.4690     1.9250 H     1 <1>   0.0800 
 25 H       -7.4060    -1.6530     0.7970 H     1 <1>   0.0800 
 26 H       -7.3590     0.0550    -0.9290 H     1 <1>   0.3600 
 27 H       -9.5580    -1.2920     0.8090 H     1 <1>   0.0800 
 28 H       -9.6700    -0.8820    -0.8930 H     1 <1>   0.0800 
 29 H      -10.0950     2.1910    -0.5440 H     1 <1>   0.0800 
 30 H       -9.0240     1.4380    -1.6880 H     1 <1>   0.0800 
 31 H       -8.4070     2.6240    -0.5600 H     1 <1>   0.0800 
 32 H       -9.8620     1.7320     1.8920 H     1 <1>   0.0800 
 33 H       -8.1470     2.0120     1.9020 H     1 <1>   0.0800 
 34 H       -8.8000     0.4910     2.4820 H     1 <1>   0.0800 
 35 H      -11.2380     0.2320     1.1800 H     1 <1>   0.4000 
@<TRIPOS>BOND
  1   1   2  1   
  2   2   3  1   
  3   2   4  1   
  4   2  18  1   
  5   3   5  1   
  6   3  19  1   
  7   3  20  1   
  8   4   6  1   
  9   4  21  1   
 10   4  22  1   
 11   5   6  1   
 12   5   7  am  
 13   6   8  1   
 14   6  23  1   
 15   7   9  2   
 16   7  10  1   
 17   8  11  3   
 18  10  12  1   
 19  10  24  1   
 20  10  25  1   
 21  12  13  1   
 22  12  26  1   
 23  13  14  1   
 24  13  15  1   
 25  13  16  1   
 26  14  17  1   
 27  14  27  1   
 28  14  28  1   
 29  15  29  1   
 30  15  30  1   
 31  15  31  1   
 32  16  32  1   
 33  16  33  1   
 34  16  34  1   
 35  17  35  1   
@<TRIPOS>SUBSTRUCTURE
  1 ****  12 GROUP 4 **** **** 0

# MOE 2024.06 (io_trps.svl 2023.06)
