@<TRIPOS>MOLECULE
NONAME
40 42 1 0 0 
SMALL
USER_CHARGES


@<TRIPOS>ATOM
  1 S        1.3880     0.3150    -1.2240 S.3   1 <1>  -0.4600 
  2 C        0.6470     1.4140     0.0360 C.3   1 <1>   0.1310 
  3 C        1.2020    -1.3490    -0.5260 C.3   1 <1>   0.1650 
  4 C        0.9470     2.8830    -0.2370 C.2   1 <1>   0.5690 
  5 C       -0.2860    -1.6380    -0.3180 C.3   1 <1>  -0.1950 
  6 O        0.0240     3.6650    -0.2380 O.2   1 <1>  -0.5700 
  7 N        2.2300     3.3010    -0.4280 N.am  1 <1>  -0.5100 
  8 C       -0.9730    -1.3530     0.9820 C.3   1 <1>  -0.2000 
  9 C       -0.7180    -2.7710     0.5590 C.3   1 <1>  -0.2000 
 10 C        3.5340     2.7250     0.0240 C.3   1 <1>   0.2250 
 11 C        2.7910     4.6810    -0.3480 C.3   1 <1>   0.2250 
 12 C        3.8450     4.1160     0.6280 C.3   1 <1>   0.0850 
 13 N        5.2080     4.6100     0.3460 N.pl3 1 <1>   0.4850 
 14 N        6.2270     3.7830     0.0300 N.2   1 <1>  -0.7070 
 15 C        5.6380     5.8950     0.4250 C.2   1 <1>  -0.3320 
 16 C        7.2600     4.5510    -0.1010 C.2   1 <1>   0.1080 
 17 C        6.9560     5.8850     0.1350 C.2   1 <1>  -0.1500 
 18 C        4.7780     7.0970     0.7860 C.3   1 <1>  -0.0600 
 19 C        8.6250     4.0160    -0.4650 C.3   1 <1>  -0.0590 
 20 H        1.0440     1.1250     0.9900 H     1 <1>   0.0800 
 21 H       -0.4140     1.2480     0.0130 H     1 <1>   0.0800 
 22 H        1.7540    -1.3820     0.3970 H     1 <1>   0.0800 
 23 H        1.6330    -2.0330    -1.2350 H     1 <1>   0.0800 
 24 H       -0.8520    -1.4950    -1.2240 H     1 <1>   0.1000 
 25 H       -1.9840    -0.9820     0.9610 H     1 <1>   0.1000 
 26 H       -0.4090    -0.9640     1.8120 H     1 <1>   0.1000 
 27 H        0.0240    -3.3400     1.0930 H     1 <1>   0.1000 
 28 H       -1.5540    -3.3750     0.2490 H     1 <1>   0.1000 
 29 H        4.1340     2.4430    -0.8240 H     1 <1>   0.0000 
 30 H        3.4000     1.9510     0.7590 H     1 <1>   0.0000 
 31 H        2.1030     5.3730     0.1030 H     1 <1>   0.0000 
 32 H        3.1850     4.9920    -1.3010 H     1 <1>   0.0000 
 33 H        3.5720     4.2120     1.6640 H     1 <1>   0.0000 
 34 H        7.6460     6.7090     0.0930 H     1 <1>   0.1500 
 35 H        4.2890     6.9380     1.7310 H     1 <1>   0.0800 
 36 H        4.0340     7.2700     0.0280 H     1 <1>   0.0800 
 37 H        5.3900     7.9780     0.8650 H     1 <1>   0.0800 
 38 H        8.9370     3.2990     0.2720 H     1 <1>   0.0800 
 39 H        9.3440     4.8130    -0.5080 H     1 <1>   0.0800 
 40 H        8.5760     3.5330    -1.4230 H     1 <1>   0.0800 
@<TRIPOS>BOND
  1   1   2  1   
  2   1   3  1   
  3   2   4  1   
  4   2  20  1   
  5   2  21  1   
  6   3   5  1   
  7   3  22  1   
  8   3  23  1   
  9   4   6  2   
 10   4   7  am  
 11   5   8  1   
 12   5   9  1   
 13   5  24  1   
 14   7  10  1   
 15   7  11  1   
 16   8   9  1   
 17   8  25  1   
 18   8  26  1   
 19   9  27  1   
 20   9  28  1   
 21  10  12  1   
 22  10  29  1   
 23  10  30  1   
 24  11  12  1   
 25  11  31  1   
 26  11  32  1   
 27  12  13  1   
 28  12  33  1   
 29  13  14  1   
 30  13  15  1   
 31  14  16  2   
 32  15  17  2   
 33  15  18  1   
 34  16  17  1   
 35  16  19  1   
 36  17  34  1   
 37  18  35  1   
 38  18  36  1   
 39  18  37  1   
 40  19  38  1   
 41  19  39  1   
 42  19  40  1   
@<TRIPOS>SUBSTRUCTURE
  1 ****  10 GROUP 4 **** **** 0

# MOE 2024.06 (io_trps.svl 2023.06)
