@<TRIPOS>MOLECULE
NONAME
38 39 1 0 0 
SMALL
USER_CHARGES


@<TRIPOS>ATOM
  1 O        0.4870     0.3060    -0.1330 O.3   1 <1>  -0.2800 
  2 C        1.2980     0.8080    -1.0110 C.2   1 <1>   0.5620 
  3 C       -0.6250     0.9380    -0.3540 C.2   1 <1>   0.2980 
  4 N        0.7280     1.7060    -1.7380 N.2   1 <1>  -0.3380 
  5 N        2.5860     0.3560    -1.0620 N.pl3 1 <1>  -0.8530 
  6 N       -0.5310     1.7850    -1.3040 N.2   1 <1>  -0.3380 
  7 C       -1.8600     0.6280     0.4860 C.3   1 <1>   0.5230 
  8 C        3.6470     1.2150    -1.6160 C.3   1 <1>   0.3530 
  9 N       -2.9790     1.6150     0.2460 N.4   1 <1>  -0.9590 
 10 C        4.9160     0.9460    -0.8260 C.ar  1 <1>  -0.1440 
 11 C       -2.6460     2.9680     0.7990 C.3   1 <1>   0.2630 
 12 C       -4.2910     1.1190     0.7620 C.3   1 <1>   0.2630 
 13 C        5.2940     1.7710     0.2310 C.ar  1 <1>   0.0820 
 14 C        5.7040    -0.1440    -1.1620 C.ar  1 <1>  -0.1500 
 15 O        4.4880     2.8230     0.5330 O.3   1 <1>  -0.3620 
 16 C        6.4630     1.4920     0.9350 C.ar  1 <1>  -0.1500 
 17 C        6.8640    -0.4160    -0.4580 C.ar  1 <1>  -0.1500 
 18 C        4.8420     3.7690     1.5180 C.3   1 <1>   0.0400 
 19 C        7.2430     0.4030     0.5890 C.ar  1 <1>  -0.1500 
 20 H        2.9110    -0.1330    -0.2260 H     1 <1>   0.4000 
 21 H       -1.5840     0.6340     1.5270 H     1 <1>   0.0800 
 22 H       -2.1910    -0.3650     0.2330 H     1 <1>   0.0800 
 23 H        3.3670     2.2530    -1.5560 H     1 <1>   0.0800 
 24 H        3.7980     0.9690    -2.6530 H     1 <1>   0.0800 
 25 H       -3.0340     1.7200    -0.7830 H     1 <1>   0.4500 
 26 H       -2.5320     2.9220     1.8700 H     1 <1>   0.0800 
 27 H       -3.4300     3.6700     0.5650 H     1 <1>   0.0800 
 28 H       -1.7270     3.3340     0.3690 H     1 <1>   0.0800 
 29 H       -4.2530     0.9960     1.8330 H     1 <1>   0.0800 
 30 H       -4.5390     0.1710     0.3120 H     1 <1>   0.0800 
 31 H       -5.0730     1.8230     0.5260 H     1 <1>   0.0800 
 32 H        5.4150    -0.7900    -1.9740 H     1 <1>   0.1500 
 33 H        6.7830     2.1070     1.7540 H     1 <1>   0.1500 
 34 H        7.4700    -1.2640    -0.7260 H     1 <1>   0.1500 
 35 H        4.0790     4.5260     1.5430 H     1 <1>   0.0800 
 36 H        5.7860     4.2110     1.2540 H     1 <1>   0.0800 
 37 H        4.8990     3.2750     2.4720 H     1 <1>   0.0800 
 38 H        8.1460     0.1910     1.1360 H     1 <1>   0.1500 
@<TRIPOS>BOND
  1   1   2  1   
  2   1   3  1   
  3   2   4  2   
  4   2   5  1   
  5   3   6  2   
  6   3   7  1   
  7   4   6  1   
  8   5   8  1   
  9   5  20  1   
 10   7   9  1   
 11   7  21  1   
 12   7  22  1   
 13   8  10  1   
 14   8  23  1   
 15   8  24  1   
 16   9  11  1   
 17   9  12  1   
 18   9  25  1   
 19  10  13  ar  
 20  10  14  ar  
 21  11  26  1   
 22  11  27  1   
 23  11  28  1   
 24  12  29  1   
 25  12  30  1   
 26  12  31  1   
 27  13  15  1   
 28  13  16  ar  
 29  14  17  ar  
 30  14  32  1   
 31  15  18  1   
 32  16  19  ar  
 33  16  33  1   
 34  17  19  ar  
 35  17  34  1   
 36  18  35  1   
 37  18  36  1   
 38  18  37  1   
 39  19  38  1   
@<TRIPOS>SUBSTRUCTURE
  1 ****   2 GROUP 4 **** **** 0

# MOE 2024.06 (io_trps.svl 2023.06)
