@<TRIPOS>MOLECULE
NONAME
55 58 1 0 0 
SMALL
USER_CHARGES


@<TRIPOS>ATOM
  1 O       -0.0070    -1.5500    -1.9680 O.2   1 <1>  -0.5700 
  2 C       -0.8180    -1.7620    -1.0810 C.2   1 <1>   0.5440 
  3 N       -0.8190    -0.9010     0.0100 N.am  1 <1>  -0.6600 
  4 C       -1.7040    -2.9190    -1.2070 C.ar  1 <1>   0.3960 
  5 C       -0.0550     0.3780    -0.0010 C.3   1 <1>   0.0600 
  6 C       -1.4960    -1.2020     1.3010 C.3   1 <1>   0.0600 
  7 N       -2.9880    -2.8520    -0.8180 N.ar  1 <1>  -0.6200 
  8 C       -1.1680    -4.0890    -1.7510 C.ar  1 <1>   0.1600 
  9 C       -3.6650    -3.9750    -0.9940 C.ar  1 <1>   0.4100 
 10 N       -1.8220    -5.2290    -1.9290 N.ar  1 <1>  -0.6200 
 11 N       -4.9980    -3.9520    -0.6060 N.pl3 1 <1>  -0.8380 
 12 C       -3.0760    -5.1270    -1.5410 C.ar  1 <1>   0.1600 
 13 C       -5.8590    -2.7450    -0.8330 C.3   1 <1>   0.2090 
 14 C       -5.6680    -5.0930     0.0730 C.3   1 <1>   0.2090 
 15 C       -6.4850    -2.2450     0.4820 C.3   1 <1>   0.1440 
 16 C       -6.3030    -4.6180     1.3870 C.3   1 <1>  -0.1600 
 17 C       -7.3880    -1.0730     0.1510 C.ar  1 <1>   0.1670 
 18 C       -7.2280    -3.4040     1.1820 C.3   1 <1>  -0.1600 
 19 C       -5.4290    -1.5880     1.4090 C.3   1 <1>  -0.1600 
 20 N       -8.5740    -1.1560    -0.3980 N.ar  1 <1>  -0.6200 
 21 C       -6.8000     0.1130     0.4770 C.ar  1 <1>  -0.1430 
 22 C       -5.4320    -0.0860     1.0800 C.3   1 <1>  -0.0170 
 23 C       -9.1830     0.0130    -0.6150 C.ar  1 <1>   0.7200 
 24 C       -7.5000     1.2630     0.2150 C.ar  1 <1>   0.1600 
 25 N       -8.6920     1.2240    -0.3320 N.ar  1 <1>  -0.6200 
 26 N      -10.4380    -0.0360    -1.1900 N.pl3 1 <1>  -0.8380 
 27 C      -11.0910     1.1730    -1.7650 C.3   1 <1>   0.1290 
 28 C      -11.2310    -1.2940    -1.2540 C.3   1 <1>   0.1290 
 29 H        0.2050     0.6590    -1.0070 H     1 <1>   0.0800 
 30 H        0.8490     0.2640     0.5710 H     1 <1>   0.0800 
 31 H       -0.6510     1.1650     0.4270 H     1 <1>   0.0800 
 32 H       -1.7070    -2.2530     1.3890 H     1 <1>   0.0800 
 33 H       -2.4180    -0.6520     1.3580 H     1 <1>   0.0800 
 34 H       -0.8620    -0.9160     2.1220 H     1 <1>   0.0800 
 35 H       -0.1350    -4.0730    -2.0530 H     1 <1>   0.1500 
 36 H       -3.6990    -5.9920    -1.6640 H     1 <1>   0.1500 
 37 H       -6.6480    -3.0100    -1.5160 H     1 <1>   0.0800 
 38 H       -5.2910    -1.9530    -1.2910 H     1 <1>   0.0800 
 39 H       -4.9580    -5.8740     0.2840 H     1 <1>   0.0800 
 40 H       -6.4300    -5.4890    -0.5770 H     1 <1>   0.0800 
 41 H       -5.5170    -4.3680     2.0780 H     1 <1>   0.0800 
 42 H       -6.8650    -5.4280     1.8170 H     1 <1>   0.0800 
 43 H       -8.0610    -3.7020     0.5680 H     1 <1>   0.0800 
 44 H       -7.6260    -3.0730     2.1250 H     1 <1>   0.0800 
 45 H       -4.4550    -2.0260     1.2940 H     1 <1>   0.0800 
 46 H       -5.7330    -1.7050     2.4340 H     1 <1>   0.0800 
 47 H       -4.6770     0.1420     0.3470 H     1 <1>   0.0800 
 48 H       -5.2880     0.5150     1.9610 H     1 <1>   0.0800 
 49 H       -7.0780     2.2230     0.4530 H     1 <1>   0.1500 
 50 H      -10.3500     1.8670    -2.1240 H     1 <1>   0.0800 
 51 H      -11.6820     1.6560    -1.0070 H     1 <1>   0.0800 
 52 H      -11.7230     0.8960    -2.5900 H     1 <1>   0.0800 
 53 H      -10.9720    -1.9450    -0.4380 H     1 <1>   0.0800 
 54 H      -11.0290    -1.7980    -2.1830 H     1 <1>   0.0800 
 55 H      -12.2820    -1.0730    -1.1890 H     1 <1>   0.0800 
@<TRIPOS>BOND
  1   1   2  2   
  2   2   3  am  
  3   2   4  1   
  4   3   5  1   
  5   3   6  1   
  6   4   7  ar  
  7   4   8  ar  
  8   5  29  1   
  9   5  30  1   
 10   5  31  1   
 11   6  32  1   
 12   6  33  1   
 13   6  34  1   
 14   7   9  ar  
 15   8  10  ar  
 16   8  35  1   
 17   9  11  1   
 18   9  12  ar  
 19  10  12  ar  
 20  11  13  1   
 21  11  14  1   
 22  12  36  1   
 23  13  15  1   
 24  13  37  1   
 25  13  38  1   
 26  14  16  1   
 27  14  39  1   
 28  14  40  1   
 29  15  17  1   
 30  15  18  1   
 31  15  19  1   
 32  16  18  1   
 33  16  41  1   
 34  16  42  1   
 35  17  20  ar  
 36  17  21  ar  
 37  18  43  1   
 38  18  44  1   
 39  19  22  1   
 40  19  45  1   
 41  19  46  1   
 42  20  23  ar  
 43  21  22  1   
 44  21  24  ar  
 45  22  47  1   
 46  22  48  1   
 47  23  25  ar  
 48  23  26  1   
 49  24  25  ar  
 50  24  49  1   
 51  26  27  1   
 52  26  28  1   
 53  27  50  1   
 54  27  51  1   
 55  27  52  1   
 56  28  53  1   
 57  28  54  1   
 58  28  55  1   
@<TRIPOS>SUBSTRUCTURE
  1 ****  13 GROUP 4 **** **** 0

# MOE 2024.06 (io_trps.svl 2023.06)
