@<TRIPOS>MOLECULE
NONAME
49 53 1 0 0 
SMALL
USER_CHARGES


@<TRIPOS>ATOM
  1 S        1.4760     0.4140     0.0560 S.3   1 <1>  -0.0800 
  2 C        0.7630    -1.0740    -0.5200 C.2   1 <1>  -0.1100 
  3 C        3.0540    -0.3370     0.1560 C.2   1 <1>  -0.1100 
  4 C        1.6730    -2.0750    -0.6080 C.2   1 <1>  -0.0860 
  5 C        2.9900    -1.6250    -0.2240 C.2   1 <1>  -0.1500 
  6 C        1.3900    -3.4300    -1.0330 C.2   1 <1>   0.7160 
  7 O        0.3530    -3.7050    -1.6030 O.2   1 <1>  -0.5700 
  8 N        2.2260    -4.4690    -0.7090 N.am  1 <1>  -0.6600 
  9 C        2.3220    -4.8460     0.7360 C.3   1 <1>   0.2200 
 10 C        2.5020    -5.5060    -1.7360 C.3   1 <1>   0.1400 
 11 C        3.4750    -5.8390     1.0350 C.3   1 <1>   0.1200 
 12 C        0.9360    -5.3360     1.2420 C.3   1 <1>   0.3430 
 13 C        1.9890    -6.8910    -1.3290 C.3   1 <1>  -0.0800 
 14 O        3.1020    -7.1790     0.8460 O.3   1 <1>  -0.5600 
 15 N        0.5100    -6.6810     0.7240 N.4   1 <1>  -0.9590 
 16 C        3.0280    -7.6480    -0.4700 C.3   1 <1>   0.1200 
 17 C        0.5510    -6.8370    -0.7660 C.3   1 <1>   0.3430 
 18 C       -0.7930    -7.1170     1.2800 C.3   1 <1>   0.5240 
 19 C       -0.9000    -8.6140     1.1340 C.2   1 <1>  -0.1810 
 20 C       -1.5110    -9.2780     0.1230 C.2   1 <1>  -0.0260 
 21 C       -0.4190    -9.6020     1.9780 C.2   1 <1>   0.1390 
 22 N       -2.1450    -8.7920    -1.0000 N.2   1 <1>  -0.5760 
 23 N       -1.3810   -10.6170     0.4120 N.pl3 1 <1>   0.6010 
 24 N       -0.6920   -10.8040     1.5550 N.2   1 <1>  -0.7070 
 25 C       -2.6570    -9.6830    -1.7900 C.2   1 <1>   0.3760 
 26 C       -1.9280   -11.5460    -0.4470 C.2   1 <1>  -0.1810 
 27 C       -2.5720   -11.0860    -1.5520 C.2   1 <1>  -0.1360 
 28 H       -0.2900    -1.0640    -0.7440 H     1 <1>   0.1500 
 29 H        3.8720     0.2790     0.4870 H     1 <1>   0.1500 
 30 H        3.8350    -2.2910    -0.2630 H     1 <1>   0.1500 
 31 H        2.5530    -3.9430     1.2750 H     1 <1>   0.0800 
 32 H        2.0280    -5.2190    -2.6620 H     1 <1>   0.0800 
 33 H        3.5610    -5.5420    -1.9280 H     1 <1>   0.0800 
 34 H        3.7490    -5.7480     2.0720 H     1 <1>   0.0800 
 35 H        4.3490    -5.6200     0.4450 H     1 <1>   0.0800 
 36 H        0.1960    -4.5990     0.9770 H     1 <1>   0.0800 
 37 H        0.9780    -5.3810     2.3180 H     1 <1>   0.0800 
 38 H        1.9240    -7.4400    -2.2510 H     1 <1>   0.0800 
 39 H        1.2410    -7.3350     1.0610 H     1 <1>   0.4500 
 40 H        4.0110    -7.5840    -0.9070 H     1 <1>   0.0800 
 41 H        2.7620    -8.6900    -0.4160 H     1 <1>   0.0800 
 42 H        0.0700    -7.7620    -1.0320 H     1 <1>   0.0800 
 43 H       -0.0010    -6.0400    -1.2400 H     1 <1>   0.0800 
 44 H       -0.8640    -6.8560     2.3220 H     1 <1>   0.0800 
 45 H       -1.6010    -6.6420     0.7460 H     1 <1>   0.0800 
 46 H        0.1250    -9.4290     2.8940 H     1 <1>   0.1500 
 47 H       -3.1740    -9.3610    -2.6770 H     1 <1>   0.0600 
 48 H       -1.8080   -12.5790    -0.1770 H     1 <1>   0.1500 
 49 H       -3.0280   -11.7470    -2.2670 H     1 <1>   0.1500 
@<TRIPOS>BOND
  1   1   2  1   
  2   1   3  1   
  3   2   4  2   
  4   2  28  1   
  5   3   5  2   
  6   3  29  1   
  7   4   5  1   
  8   4   6  1   
  9   5  30  1   
 10   6   7  2   
 11   6   8  am  
 12   8   9  1   
 13   8  10  1   
 14   9  11  1   
 15   9  12  1   
 16   9  31  1   
 17  10  13  1   
 18  10  32  1   
 19  10  33  1   
 20  11  14  1   
 21  11  34  1   
 22  11  35  1   
 23  12  15  1   
 24  12  36  1   
 25  12  37  1   
 26  13  16  1   
 27  13  17  1   
 28  13  38  1   
 29  14  16  1   
 30  15  17  1   
 31  15  18  1   
 32  15  39  1   
 33  16  40  1   
 34  16  41  1   
 35  17  42  1   
 36  17  43  1   
 37  18  19  1   
 38  18  44  1   
 39  18  45  1   
 40  19  20  2   
 41  19  21  1   
 42  20  22  1   
 43  20  23  1   
 44  21  24  2   
 45  21  46  1   
 46  22  25  2   
 47  23  24  1   
 48  23  26  1   
 49  25  27  1   
 50  25  47  1   
 51  26  27  2   
 52  26  48  1   
 53  27  49  1   
@<TRIPOS>SUBSTRUCTURE
  1 ****  17 GROUP 4 **** **** 0

# MOE 2024.06 (io_trps.svl 2023.06)
