@<TRIPOS>MOLECULE
NONAME
51 52 1 0 0 
SMALL
USER_CHARGES


@<TRIPOS>ATOM
  1 O        0.5320     1.5950    -1.0530 O.3   1 <1>  -0.6800 
  2 C       -0.6370     2.2520    -1.4470 C.3   1 <1>   0.2000 
  3 C       -1.6670     2.3200    -0.2670 C.3   1 <1>   0.0000 
  4 C       -0.2100     3.6620    -1.8830 C.3   1 <1>   0.3430 
  5 C       -1.6080     3.7110     0.4380 C.3   1 <1>  -0.1600 
  6 C       -1.3860     1.2380     0.8170 C.3   1 <1>   0.1200 
  7 C       -3.1080     2.0760    -0.8020 C.3   1 <1>  -0.1600 
  8 N        0.5520     4.2510    -0.7420 N.4   1 <1>  -0.9590 
  9 C       -0.1990     4.3160     0.5530 C.3   1 <1>   0.3430 
 10 O       -1.2690    -0.0270     0.2480 O.3   1 <1>  -0.6800 
 11 C       -3.5910     2.9750    -1.9600 C.3   1 <1>  -0.1600 
 12 C        1.3150     5.4810    -1.0740 C.3   1 <1>   0.4860 
 13 C       -5.0100     2.5840    -2.3830 C.3   1 <1>  -0.2400 
 14 C        2.2080     5.8390     0.1040 C.ar  1 <1>  -0.1440 
 15 C        3.2860     5.0200     0.4480 C.ar  1 <1>  -0.1440 
 16 C        1.9410     6.9870     0.8510 C.ar  1 <1>  -0.1440 
 17 C        4.0610     5.3430     1.5490 C.ar  1 <1>  -0.1500 
 18 C        3.6740     3.7690    -0.3350 C.3   1 <1>  -0.0970 
 19 C        2.7340     7.2900     1.9460 C.ar  1 <1>  -0.1500 
 20 C        0.8080     7.9490     0.5050 C.3   1 <1>  -0.0970 
 21 C        3.7870     6.4700     2.2970 C.ar  1 <1>  -0.1500 
 22 H        0.2620     0.7180    -0.6700 H     1 <1>   0.4000 
 23 H       -1.0430     1.7000    -2.2780 H     1 <1>   0.0800 
 24 H       -1.0730     4.2600    -2.1190 H     1 <1>   0.0800 
 25 H        0.4140     3.5870    -2.7580 H     1 <1>   0.0800 
 26 H       -2.0360     3.6440     1.4230 H     1 <1>   0.0800 
 27 H       -2.2050     4.4330    -0.0860 H     1 <1>   0.0800 
 28 H       -2.1720     1.2030     1.5530 H     1 <1>   0.0800 
 29 H       -0.4590     1.4440     1.3260 H     1 <1>   0.0800 
 30 H       -3.1810     1.0570    -1.1450 H     1 <1>   0.0800 
 31 H       -3.8030     2.1750     0.0150 H     1 <1>   0.0800 
 32 H        1.2650     3.5220    -0.5670 H     1 <1>   0.4500 
 33 H        0.3590     3.7790     1.3040 H     1 <1>   0.0800 
 34 H       -0.2790     5.3380     0.8840 H     1 <1>   0.0800 
 35 H       -2.1460    -0.4540     0.1570 H     1 <1>   0.4000 
 36 H       -3.6080     4.0100    -1.6700 H     1 <1>   0.0800 
 37 H       -2.9510     2.8730    -2.8180 H     1 <1>   0.0800 
 38 H        1.9270     5.3140    -1.9440 H     1 <1>   0.0800 
 39 H        0.6350     6.2870    -1.2910 H     1 <1>   0.0800 
 40 H       -5.6970     2.6970    -1.5610 H     1 <1>   0.0800 
 41 H       -5.0400     1.5620    -2.7190 H     1 <1>   0.0800 
 42 H       -5.3430     3.2150    -3.1890 H     1 <1>   0.0800 
 43 H        4.8920     4.7210     1.8350 H     1 <1>   0.1500 
 44 H        4.7150     3.5410    -0.1790 H     1 <1>   0.0800 
 45 H        3.5360     3.9050    -1.3920 H     1 <1>   0.0800 
 46 H        3.0990     2.9230    -0.0030 H     1 <1>   0.0800 
 47 H        2.5450     8.1710     2.5360 H     1 <1>   0.1500 
 48 H        0.7750     8.7680     1.2030 H     1 <1>   0.0800 
 49 H       -0.1430     7.4520     0.5380 H     1 <1>   0.0800 
 50 H        0.9610     8.3640    -0.4750 H     1 <1>   0.0800 
 51 H        4.3980     6.7130     3.1500 H     1 <1>   0.1500 
@<TRIPOS>BOND
  1   1   2  1   
  2   1  22  1   
  3   2   3  1   
  4   2   4  1   
  5   2  23  1   
  6   3   5  1   
  7   3   6  1   
  8   3   7  1   
  9   4   8  1   
 10   4  24  1   
 11   4  25  1   
 12   5   9  1   
 13   5  26  1   
 14   5  27  1   
 15   6  10  1   
 16   6  28  1   
 17   6  29  1   
 18   7  11  1   
 19   7  30  1   
 20   7  31  1   
 21   8   9  1   
 22   8  12  1   
 23   8  32  1   
 24   9  33  1   
 25   9  34  1   
 26  10  35  1   
 27  11  13  1   
 28  11  36  1   
 29  11  37  1   
 30  12  14  1   
 31  12  38  1   
 32  12  39  1   
 33  13  40  1   
 34  13  41  1   
 35  13  42  1   
 36  14  15  ar  
 37  14  16  ar  
 38  15  17  ar  
 39  15  18  1   
 40  16  19  ar  
 41  16  20  1   
 42  17  21  ar  
 43  17  43  1   
 44  18  44  1   
 45  18  45  1   
 46  18  46  1   
 47  19  21  ar  
 48  19  47  1   
 49  20  48  1   
 50  20  49  1   
 51  20  50  1   
 52  21  51  1   
@<TRIPOS>SUBSTRUCTURE
  1 ****   8 GROUP 4 **** **** 0

# MOE 2024.06 (io_trps.svl 2023.06)
