@<TRIPOS>MOLECULE
NONAME
52 55 1 0 0 
SMALL
USER_CHARGES


@<TRIPOS>ATOM
  1 O        0.2540     0.9630     0.3400 O.2   1 <1>  -0.5700 
  2 C        0.1570     2.1330     0.0710 C.2   1 <1>   0.5690 
  3 N       -0.6950     2.9290     0.7550 N.am  1 <1>  -0.7300 
  4 C        0.9830     2.7320    -1.0730 C.3   1 <1>   0.1810 
  5 C       -0.8870     4.3700     0.4650 C.3   1 <1>   0.3640 
  6 O        1.0790     4.1380    -0.9970 O.3   1 <1>  -0.5600 
  7 C       -2.3790     4.6760     0.4060 C.ar  1 <1>  -0.1440 
  8 C       -0.1710     4.7990    -0.8400 C.3   1 <1>   0.2610 
  9 C       -2.8720     5.8130     1.0320 C.ar  1 <1>  -0.1500 
 10 C       -3.2620     3.8430    -0.2700 C.ar  1 <1>  -0.1500 
 11 C       -0.0260     6.3260    -0.8790 C.2   1 <1>   0.5690 
 12 C       -4.2220     6.1110     0.9860 C.ar  1 <1>  -0.1500 
 13 C       -4.6130     4.1410    -0.3160 C.ar  1 <1>  -0.1500 
 14 O       -0.7090     6.9120    -1.6880 O.2   1 <1>  -0.5700 
 15 N        0.8190     7.0240    -0.0410 N.am  1 <1>  -0.6600 
 16 C       -5.0940     5.2750     0.3130 C.ar  1 <1>  -0.1500 
 17 C        1.8730     6.4250     0.8400 C.3   1 <1>   0.1400 
 18 C        0.9800     8.5060    -0.1760 C.3   1 <1>   0.1400 
 19 C        3.2680     6.7360     0.2790 C.3   1 <1>   0.1400 
 20 C        2.3740     8.8470    -0.7300 C.3   1 <1>   0.1400 
 21 N        3.4490     8.2120     0.0980 N.am  1 <1>  -0.6600 
 22 C        4.4860     8.8810     0.7060 C.2   1 <1>   0.5770 
 23 O        5.2260     8.3130     1.4750 O.2   1 <1>  -0.5700 
 24 C        4.7180    10.3680     0.4360 C.3   1 <1>   0.0530 
 25 C        5.2030    10.6950    -1.0030 C.3   1 <1>   0.0000 
 26 C        6.0680    10.9670     0.9300 C.3   1 <1>   0.0000 
 27 C        6.0790    11.8080    -0.3720 C.3   1 <1>   0.0000 
 28 H       -1.2800     2.5160     1.4830 H     1 <1>   0.3700 
 29 H        0.5340     2.4710    -2.0140 H     1 <1>   0.0800 
 30 H        1.9790     2.3320    -1.0410 H     1 <1>   0.0800 
 31 H       -0.4640     4.9220     1.2850 H     1 <1>   0.0800 
 32 H       -0.7840     4.5150    -1.6770 H     1 <1>   0.0800 
 33 H       -2.2090     6.4810     1.5550 H     1 <1>   0.1500 
 34 H       -2.9070     2.9570    -0.7670 H     1 <1>   0.1500 
 35 H       -4.5950     6.9960     1.4720 H     1 <1>   0.1500 
 36 H       -5.2900     3.4900    -0.8420 H     1 <1>   0.1500 
 37 H       -6.1440     5.5070     0.2760 H     1 <1>   0.1500 
 38 H        1.7930     6.8460     1.8260 H     1 <1>   0.0800 
 39 H        1.7600     5.3620     0.9340 H     1 <1>   0.0800 
 40 H        0.2290     8.9160    -0.8290 H     1 <1>   0.0800 
 41 H        0.8570     8.9650     0.7880 H     1 <1>   0.0800 
 42 H        3.3850     6.2450    -0.6710 H     1 <1>   0.0800 
 43 H        4.0120     6.3370     0.9460 H     1 <1>   0.0800 
 44 H        2.4800     9.9150    -0.7570 H     1 <1>   0.0800 
 45 H        2.4470     8.4830    -1.7410 H     1 <1>   0.0800 
 46 H        3.8870    10.9850     0.7340 H     1 <1>   0.0000 
 47 H        5.7900     9.9050    -1.4410 H     1 <1>   0.0000 
 48 H        4.4310    11.0680    -1.6530 H     1 <1>   0.0000 
 49 H        5.9820    11.5560     1.8260 H     1 <1>   0.0000 
 50 H        6.8780    10.2580     0.9560 H     1 <1>   0.0000 
 51 H        5.5540    12.7420    -0.2690 H     1 <1>   0.0000 
 52 H        7.0510    11.9050    -0.8210 H     1 <1>   0.0000 
@<TRIPOS>BOND
  1   1   2  2   
  2   2   3  am  
  3   2   4  1   
  4   3   5  1   
  5   3  28  1   
  6   4   6  1   
  7   4  29  1   
  8   4  30  1   
  9   5   7  1   
 10   5   8  1   
 11   5  31  1   
 12   6   8  1   
 13   7   9  ar  
 14   7  10  ar  
 15   8  11  1   
 16   8  32  1   
 17   9  12  ar  
 18   9  33  1   
 19  10  13  ar  
 20  10  34  1   
 21  11  14  2   
 22  11  15  am  
 23  12  16  ar  
 24  12  35  1   
 25  13  16  ar  
 26  13  36  1   
 27  15  17  1   
 28  15  18  1   
 29  16  37  1   
 30  17  19  1   
 31  17  38  1   
 32  17  39  1   
 33  18  20  1   
 34  18  40  1   
 35  18  41  1   
 36  19  21  1   
 37  19  42  1   
 38  19  43  1   
 39  20  21  1   
 40  20  44  1   
 41  20  45  1   
 42  21  22  am  
 43  22  23  2   
 44  22  24  1   
 45  24  25  1   
 46  24  26  1   
 47  24  46  1   
 48  25  27  1   
 49  25  47  1   
 50  25  48  1   
 51  26  27  1   
 52  26  49  1   
 53  26  50  1   
 54  27  51  1   
 55  27  52  1   
@<TRIPOS>SUBSTRUCTURE
  1 ****  15 GROUP 4 **** **** 0

# MOE 2024.06 (io_trps.svl 2023.06)
