@<TRIPOS>MOLECULE
NONAME
57 60 1 0 0 
SMALL
USER_CHARGES


@<TRIPOS>ATOM
  1 F       -1.2220     0.6910     1.4680 F     1 <1>  -0.1900 
  2 C       -2.3920     0.8800     0.9120 C.ar  1 <1>   0.1900 
  3 C       -2.5560     0.9140    -0.4770 C.ar  1 <1>   0.0820 
  4 C       -3.4620     1.0410     1.7710 C.ar  1 <1>  -0.1500 
  5 O       -1.5840     0.7710    -1.4230 O.3   1 <1>  -0.3630 
  6 C       -3.8360     1.1110    -0.9680 C.ar  1 <1>  -0.1500 
  7 C       -4.7270     1.2350     1.2480 C.ar  1 <1>  -0.1500 
  8 C       -0.2150     0.6520    -1.1070 C.3   1 <1>   0.0400 
  9 C       -4.9420     1.2660    -0.1310 C.ar  1 <1>   0.0530 
 10 C       -6.2620     1.4410    -0.6810 C.2   1 <1>   0.0870 
 11 O       -6.4450     2.0420    -1.8280 O.3   1 <1>  -0.0190 
 12 C       -7.4860     1.0460    -0.2500 C.2   1 <1>  -0.0860 
 13 N       -7.7030     2.0820    -2.1860 N.2   1 <1>  -0.4100 
 14 C       -8.3570     1.5060    -1.2390 C.2   1 <1>   0.3720 
 15 C       -7.8550     0.2480     0.8690 C.2   1 <1>   0.7160 
 16 N       -9.7570     1.3480    -1.2230 N.pl3 1 <1>  -0.8210 
 17 O       -8.1070     0.7550     1.9450 O.2   1 <1>  -0.5700 
 18 N       -7.9700    -1.1130     0.7320 N.am  1 <1>  -0.6600 
 19 C      -10.3940     2.1990    -0.1720 C.3   1 <1>   0.1290 
 20 C      -10.4150     1.6050    -2.5420 C.3   1 <1>   0.1290 
 21 C       -7.7200    -1.8710    -0.5090 C.3   1 <1>   0.2200 
 22 C       -8.4930    -2.0060     1.7740 C.3   1 <1>   0.2200 
 23 C       -9.0010    -1.9280    -1.3820 C.3   1 <1>   0.3430 
 24 C       -7.3070    -3.2480     0.0080 C.3   1 <1>  -0.1600 
 25 C      -10.0300    -1.9270     1.7650 C.3   1 <1>  -0.1600 
 26 C       -7.9540    -3.3930     1.3910 C.3   1 <1>  -0.1600 
 27 N      -10.2200    -2.4850    -0.6800 N.4   1 <1>  -0.9590 
 28 C      -10.6790    -1.5790     0.4160 C.3   1 <1>   0.3430 
 29 C      -11.3200    -2.7050    -1.6630 C.3   1 <1>   0.2630 
 30 H       -3.3030     1.0160     2.8350 H     1 <1>   0.1500 
 31 H       -3.9700     1.1420    -2.0350 H     1 <1>   0.1500 
 32 H       -5.5530     1.3730     1.9250 H     1 <1>   0.1500 
 33 H        0.3380     0.6040    -2.0270 H     1 <1>   0.0800 
 34 H       -0.0620    -0.2510    -0.5430 H     1 <1>   0.0800 
 35 H        0.0920     1.5150    -0.5430 H     1 <1>   0.0800 
 36 H      -11.4660     2.1320    -0.2310 H     1 <1>   0.0800 
 37 H      -10.1030     3.2290    -0.3050 H     1 <1>   0.0800 
 38 H      -10.0880     1.8830     0.8100 H     1 <1>   0.0800 
 39 H      -11.4560     1.3380    -2.4980 H     1 <1>   0.0800 
 40 H       -9.9390     1.0230    -3.3130 H     1 <1>   0.0800 
 41 H      -10.3320     2.6480    -2.8020 H     1 <1>   0.0800 
 42 H       -6.9150    -1.4300    -1.0740 H     1 <1>   0.0800 
 43 H       -8.1100    -1.7170     2.7410 H     1 <1>   0.0800 
 44 H       -8.7830    -2.5360    -2.2440 H     1 <1>   0.0800 
 45 H       -9.2160    -0.9360    -1.7400 H     1 <1>   0.0800 
 46 H       -7.5820    -4.0440    -0.6630 H     1 <1>   0.0800 
 47 H       -6.2350    -3.2620     0.1170 H     1 <1>   0.0800 
 48 H      -10.4550    -2.8330     2.1590 H     1 <1>   0.0800 
 49 H      -10.3080    -1.1490     2.4540 H     1 <1>   0.0800 
 50 H       -7.2130    -3.6980     2.1110 H     1 <1>   0.0800 
 51 H       -8.7280    -4.1390     1.3890 H     1 <1>   0.0800 
 52 H       -9.9570    -3.3810    -0.2480 H     1 <1>   0.4500 
 53 H      -10.4440    -0.5580     0.1590 H     1 <1>   0.0800 
 54 H      -11.7490    -1.6500     0.5270 H     1 <1>   0.0800 
 55 H      -11.6050    -1.7690    -2.1160 H     1 <1>   0.0800 
 56 H      -12.1810    -3.1280    -1.1720 H     1 <1>   0.0800 
 57 H      -11.0000    -3.3820    -2.4390 H     1 <1>   0.0800 
@<TRIPOS>BOND
  1   1   2  1   
  2   2   3  ar  
  3   2   4  ar  
  4   3   5  1   
  5   3   6  ar  
  6   4   7  ar  
  7   4  30  1   
  8   5   8  1   
  9   6   9  ar  
 10   6  31  1   
 11   7   9  ar  
 12   7  32  1   
 13   8  33  1   
 14   8  34  1   
 15   8  35  1   
 16   9  10  1   
 17  10  11  1   
 18  10  12  2   
 19  11  13  1   
 20  12  14  1   
 21  12  15  1   
 22  13  14  2   
 23  14  16  1   
 24  15  17  2   
 25  15  18  am  
 26  16  19  1   
 27  16  20  1   
 28  18  21  1   
 29  18  22  1   
 30  19  36  1   
 31  19  37  1   
 32  19  38  1   
 33  20  39  1   
 34  20  40  1   
 35  20  41  1   
 36  21  23  1   
 37  21  24  1   
 38  21  42  1   
 39  22  25  1   
 40  22  26  1   
 41  22  43  1   
 42  23  27  1   
 43  23  44  1   
 44  23  45  1   
 45  24  26  1   
 46  24  46  1   
 47  24  47  1   
 48  25  28  1   
 49  25  48  1   
 50  25  49  1   
 51  26  50  1   
 52  26  51  1   
 53  27  28  1   
 54  27  29  1   
 55  27  52  1   
 56  28  53  1   
 57  28  54  1   
 58  29  55  1   
 59  29  56  1   
 60  29  57  1   
@<TRIPOS>SUBSTRUCTURE
  1 ****  12 GROUP 4 **** **** 0

# MOE 2024.06 (io_trps.svl 2023.06)
