@<TRIPOS>MOLECULE
NONAME
45 47 1 0 0 
SMALL
USER_CHARGES


@<TRIPOS>ATOM
  1 O        1.5600    -0.2050     1.9070 O.3   1 <1>  -0.6800 
  2 C        1.5850    -0.2160     0.5140 C.3   1 <1>   0.2000 
  3 C        2.3340    -1.4440    -0.0040 C.3   1 <1>  -0.0800 
  4 C        2.4360     0.9580     0.0180 C.3   1 <1>   0.2090 
  5 C        3.8050    -1.0320     0.0620 C.3   1 <1>   0.2090 
  6 C        2.0350    -2.7720     0.7170 C.3   1 <1>  -0.0170 
  7 N        3.8360     0.4510    -0.1220 N.pl3 1 <1>  -0.8380 
  8 C        2.8210    -3.9170     0.0980 C.ar  1 <1>  -0.1440 
  9 C        4.9910     1.1660    -0.0840 C.ar  1 <1>   0.4100 
 10 C        2.4410    -4.5030    -1.0930 C.ar  1 <1>  -0.1500 
 11 C        3.9570    -4.4290     0.6930 C.ar  1 <1>  -0.1500 
 12 N        6.0690     0.4580     0.2910 N.ar  1 <1>  -0.6200 
 13 C        5.1280     2.5470    -0.3800 C.ar  1 <1>  -0.1430 
 14 C        3.1940    -5.5410    -1.6170 C.ar  1 <1>   0.1600 
 15 C        4.6380    -5.4710     0.0850 C.ar  1 <1>   0.1600 
 16 C        7.1940     1.0630     0.4740 C.ar  1 <1>   0.5280 
 17 C        6.3390     3.1500    -0.1410 C.ar  1 <1>   0.2180 
 18 C        3.9770     3.3490    -0.9990 C.3   1 <1>  -0.0960 
 19 N        4.2840    -6.0380    -1.0570 N.ar  1 <1>  -0.6200 
 20 N        7.3570     2.3820     0.2910 N.ar  1 <1>  -0.1790 
 21 C        8.3860     0.2410     0.9200 C.3   1 <1>  -0.0970 
 22 C        6.6400     4.6320    -0.3370 C.3   1 <1>  -0.0970 
 23 H        0.9880    -0.9170     2.2500 H     1 <1>   0.4000 
 24 H        0.5720    -0.1570     0.1570 H     1 <1>   0.0800 
 25 H        2.0890    -1.5600    -1.0440 H     1 <1>   0.0800 
 26 H        2.3800     1.7820     0.7080 H     1 <1>   0.0800 
 27 H        2.0720     1.2570    -0.9480 H     1 <1>   0.0800 
 28 H        4.3850    -1.5270    -0.6990 H     1 <1>   0.0800 
 29 H        4.2090    -1.2720     1.0310 H     1 <1>   0.0800 
 30 H        0.9840    -2.9910     0.6490 H     1 <1>   0.0800 
 31 H        2.2890    -2.6960     1.7600 H     1 <1>   0.0800 
 32 H        1.5670    -4.1650    -1.6190 H     1 <1>   0.1500 
 33 H        4.3200    -4.0310     1.6220 H     1 <1>   0.1500 
 34 H        2.8830    -5.9860    -2.5470 H     1 <1>   0.1500 
 35 H        5.5220    -5.8580     0.5640 H     1 <1>   0.1500 
 36 H        4.3170     4.2290    -1.5120 H     1 <1>   0.0800 
 37 H        3.2750     3.6500    -0.2420 H     1 <1>   0.0800 
 38 H        3.4730     2.7540    -1.7390 H     1 <1>   0.0800 
 39 H        8.2720     2.7920     0.4700 H     1 <1>   0.4570 
 40 H        8.1060    -0.7950     1.0040 H     1 <1>   0.0800 
 41 H        8.7320     0.5740     1.8810 H     1 <1>   0.0800 
 42 H        9.1830     0.3150     0.2020 H     1 <1>   0.0800 
 43 H        5.7750     5.2330    -0.1200 H     1 <1>   0.0800 
 44 H        6.9410     4.8160    -1.3540 H     1 <1>   0.0800 
 45 H        7.4250     4.9610     0.3210 H     1 <1>   0.0800 
@<TRIPOS>BOND
  1   1   2  1   
  2   1  23  1   
  3   2   3  1   
  4   2   4  1   
  5   2  24  1   
  6   3   5  1   
  7   3   6  1   
  8   3  25  1   
  9   4   7  1   
 10   4  26  1   
 11   4  27  1   
 12   5   7  1   
 13   5  28  1   
 14   5  29  1   
 15   6   8  1   
 16   6  30  1   
 17   6  31  1   
 18   7   9  1   
 19   8  10  ar  
 20   8  11  ar  
 21   9  12  ar  
 22   9  13  ar  
 23  10  14  ar  
 24  10  32  1   
 25  11  15  ar  
 26  11  33  1   
 27  12  16  ar  
 28  13  17  ar  
 29  13  18  1   
 30  14  19  ar  
 31  14  34  1   
 32  15  19  ar  
 33  15  35  1   
 34  16  20  ar  
 35  16  21  1   
 36  17  20  ar  
 37  17  22  1   
 38  18  36  1   
 39  18  37  1   
 40  18  38  1   
 41  20  39  1   
 42  21  40  1   
 43  21  41  1   
 44  21  42  1   
 45  22  43  1   
 46  22  44  1   
 47  22  45  1   
@<TRIPOS>SUBSTRUCTURE
  1 ****   5 GROUP 4 **** **** 0

# MOE 2024.06 (io_trps.svl 2023.06)
