@<TRIPOS>MOLECULE
NONAME
52 54 1 0 0 
SMALL
USER_CHARGES


@<TRIPOS>ATOM
  1 O       -0.0620     0.5050     0.3120 O.2   1 <1>  -0.5700 
  2 C        0.0010     1.6990     0.4560 C.2   1 <1>   0.5690 
  3 N       -1.0770     2.4000     0.8710 N.am  1 <1>  -0.7300 
  4 C        1.3000     2.4430     0.1300 C.3   1 <1>   0.1810 
  5 C       -1.0690     3.8670     1.0840 C.3   1 <1>   0.3640 
  6 O        1.3550     3.7420     0.6800 O.3   1 <1>  -0.5600 
  7 C       -2.3290     4.4670     0.4620 C.ar  1 <1>  -0.1440 
  8 C        0.1920     4.5290     0.4710 C.3   1 <1>   0.2610 
  9 C       -2.7880     4.0590    -0.7850 C.ar  1 <1>  -0.1500 
 10 C       -3.0250     5.4570     1.1410 C.ar  1 <1>  -0.1500 
 11 C        0.3950     5.9600     1.0000 C.2   1 <1>   0.5690 
 12 C       -3.9200     4.6320    -1.3400 C.ar  1 <1>  -0.1500 
 13 C       -4.1560     6.0310     0.5870 C.ar  1 <1>  -0.1500 
 14 O       -0.0730     6.2420     2.0820 O.2   1 <1>  -0.5700 
 15 N        1.0710     6.9020     0.2570 N.am  1 <1>  -0.6600 
 16 C       -4.6040     5.6190    -0.6540 C.ar  1 <1>  -0.1500 
 17 C        1.9430     6.5790    -0.9090 C.3   1 <1>   0.2840 
 18 C        1.0660     8.3410     0.6650 C.3   1 <1>   0.1400 
 19 C        3.4050     6.8020    -0.5540 C.ar  1 <1>  -0.1430 
 20 C        0.1210     9.1770    -0.2210 C.3   1 <1>  -0.0800 
 21 C        4.0080     6.1310     0.4920 C.ar  1 <1>  -0.1500 
 22 C        4.2060     7.6840    -1.2540 C.ar  1 <1>  -0.1500 
 23 C        0.1680    10.6470     0.2150 C.3   1 <1>  -0.2400 
 24 C       -1.3300     8.6730    -0.1620 C.3   1 <1>  -0.2400 
 25 C        5.3410     6.3650     0.7790 C.ar  1 <1>   0.1600 
 26 C        5.5310     7.8440    -0.8860 C.ar  1 <1>   0.1600 
 27 N        6.1180     7.2050     0.1130 N.ar  1 <1>  -0.6200 
 28 H       -1.9420     1.9020     1.0880 H     1 <1>   0.3700 
 29 H        1.4060     2.5220    -0.9370 H     1 <1>   0.0800 
 30 H        2.1330     1.8870     0.5200 H     1 <1>   0.0800 
 31 H       -1.0810     4.0400     2.1470 H     1 <1>   0.0800 
 32 H        0.0350     4.5920    -0.5890 H     1 <1>   0.0800 
 33 H       -2.2710     3.2920    -1.3350 H     1 <1>   0.1500 
 34 H       -2.6870     5.7960     2.1070 H     1 <1>   0.1500 
 35 H       -4.2700     4.3080    -2.3050 H     1 <1>   0.1500 
 36 H       -4.6850     6.8000     1.1230 H     1 <1>   0.1500 
 37 H       -5.4840     6.0640    -1.0850 H     1 <1>   0.1500 
 38 H        1.8260     5.5570    -1.2150 H     1 <1>   0.0800 
 39 H        1.6660     7.2010    -1.7410 H     1 <1>   0.0800 
 40 H        0.7550     8.4330     1.6920 H     1 <1>   0.0800 
 41 H        2.0650     8.7370     0.6050 H     1 <1>   0.0800 
 42 H        0.4640     9.1280    -1.2390 H     1 <1>   0.0800 
 43 H        3.4480     5.4320     1.0880 H     1 <1>   0.1500 
 44 H        3.8150     8.2480    -2.0810 H     1 <1>   0.1500 
 45 H       -0.1780    10.7520     1.2290 H     1 <1>   0.0800 
 46 H       -0.4580    11.2470    -0.4220 H     1 <1>   0.0800 
 47 H        1.1730    11.0250     0.1540 H     1 <1>   0.0800 
 48 H       -1.6820     8.6550     0.8550 H     1 <1>   0.0800 
 49 H       -1.4060     7.6780    -0.5620 H     1 <1>   0.0800 
 50 H       -1.9760     9.3120    -0.7380 H     1 <1>   0.0800 
 51 H        5.7920     5.8340     1.6000 H     1 <1>   0.1500 
 52 H        6.1420     8.5350    -1.4420 H     1 <1>   0.1500 
@<TRIPOS>BOND
  1   1   2  2   
  2   2   3  am  
  3   2   4  1   
  4   3   5  1   
  5   3  28  1   
  6   4   6  1   
  7   4  29  1   
  8   4  30  1   
  9   5   7  1   
 10   5   8  1   
 11   5  31  1   
 12   6   8  1   
 13   7   9  ar  
 14   7  10  ar  
 15   8  11  1   
 16   8  32  1   
 17   9  12  ar  
 18   9  33  1   
 19  10  13  ar  
 20  10  34  1   
 21  11  14  2   
 22  11  15  am  
 23  12  16  ar  
 24  12  35  1   
 25  13  16  ar  
 26  13  36  1   
 27  15  17  1   
 28  15  18  1   
 29  16  37  1   
 30  17  19  1   
 31  17  38  1   
 32  17  39  1   
 33  18  20  1   
 34  18  40  1   
 35  18  41  1   
 36  19  21  ar  
 37  19  22  ar  
 38  20  23  1   
 39  20  24  1   
 40  20  42  1   
 41  21  25  ar  
 42  21  43  1   
 43  22  26  ar  
 44  22  44  1   
 45  23  45  1   
 46  23  46  1   
 47  23  47  1   
 48  24  48  1   
 49  24  49  1   
 50  24  50  1   
 51  25  27  ar  
 52  25  51  1   
 53  26  27  ar  
 54  26  52  1   
@<TRIPOS>SUBSTRUCTURE
  1 ****  11 GROUP 4 **** **** 0

# MOE 2024.06 (io_trps.svl 2023.06)
