@<TRIPOS>MOLECULE
NONAME
50 53 1 0 0 
SMALL
USER_CHARGES


@<TRIPOS>ATOM
  1 O       -1.3360    -0.7400    -1.8530 O.2   1 <1>  -0.5700 
  2 C       -1.5450    -1.0270    -0.6960 C.2   1 <1>   0.5440 
  3 N       -1.7010     0.0080     0.1590 N.am  1 <1>  -0.8000 
  4 C       -1.6100    -2.4120    -0.2620 C.ar  1 <1>   0.0860 
  5 C       -0.9140    -3.4060    -0.9490 C.ar  1 <1>  -0.1500 
  6 C       -2.3650    -2.8120     0.8420 C.ar  1 <1>  -0.1500 
  7 C       -0.9670    -4.7320    -0.5640 C.ar  1 <1>  -0.1500 
  8 C       -2.4260    -4.1370     1.2350 C.ar  1 <1>  -0.1500 
  9 C       -1.7330    -5.1100     0.5290 C.ar  1 <1>  -0.1430 
 10 C       -1.8230    -6.5690     0.9350 C.3   1 <1>   0.4860 
 11 N       -2.6900    -7.2740    -0.0480 N.4   1 <1>  -0.9590 
 12 C       -2.7180    -8.7640     0.1980 C.3   1 <1>   0.3430 
 13 C       -4.0940    -6.7120    -0.0550 C.3   1 <1>   0.3430 
 14 C       -3.7710    -9.5050    -0.6590 C.3   1 <1>   0.3430 
 15 C       -5.0780    -7.5460    -0.9120 C.3   1 <1>   0.2950 
 16 O       -5.0200    -8.8850    -0.5170 O.3   1 <1>  -0.5600 
 17 C       -3.8620   -10.9520    -0.1980 C.ar  1 <1>  -0.1430 
 18 C       -6.5410    -7.1020    -0.7660 C.3   1 <1>  -0.1950 
 19 C       -3.1090   -11.9270    -0.8390 C.ar  1 <1>  -0.1500 
 20 C       -4.6730   -11.3190     0.8690 C.ar  1 <1>  -0.1500 
 21 C       -6.9490    -5.6760    -0.5460 C.3   1 <1>  -0.2000 
 22 C       -7.1610    -6.6990     0.5370 C.3   1 <1>  -0.2000 
 23 C       -3.1580   -13.2430    -0.4140 C.ar  1 <1>  -0.1500 
 24 C       -4.7210   -12.6350     1.2940 C.ar  1 <1>  -0.1500 
 25 C       -3.9610   -13.5980     0.6540 C.ar  1 <1>  -0.1500 
 26 H       -1.6070     0.9550    -0.2110 H     1 <1>   0.3700 
 27 H       -1.7170    -0.0810     1.1740 H     1 <1>   0.3700 
 28 H       -0.3210    -3.1190    -1.8030 H     1 <1>   0.1500 
 29 H       -2.9180    -2.0730     1.3950 H     1 <1>   0.1500 
 30 H       -0.4010    -5.4550    -1.1270 H     1 <1>   0.1500 
 31 H       -3.0200    -4.3960     2.0960 H     1 <1>   0.1500 
 32 H       -2.2370    -6.6510     1.9270 H     1 <1>   0.0800 
 33 H       -0.8350    -7.0000     0.9400 H     1 <1>   0.0800 
 34 H       -2.2880    -7.0930    -0.9770 H     1 <1>   0.4500 
 35 H       -1.7490    -9.1920     0.0030 H     1 <1>   0.0800 
 36 H       -2.9540    -8.9570     1.2310 H     1 <1>   0.0800 
 37 H       -4.4750    -6.6850     0.9510 H     1 <1>   0.0800 
 38 H       -4.0820    -5.7000    -0.4250 H     1 <1>   0.0800 
 39 H       -3.5010    -9.4790    -1.7010 H     1 <1>   0.0800 
 40 H       -4.8040    -7.4850    -1.9510 H     1 <1>   0.0800 
 41 H       -7.1690    -7.6690    -1.4330 H     1 <1>   0.1000 
 42 H       -2.4800   -11.6800    -1.6770 H     1 <1>   0.1500 
 43 H       -5.2800   -10.5870     1.3740 H     1 <1>   0.1500 
 44 H       -6.2240    -4.9000    -0.3720 H     1 <1>   0.1000 
 45 H       -7.8150    -5.3040    -1.0690 H     1 <1>   0.1000 
 46 H       -8.1650    -7.0310     0.7430 H     1 <1>   0.1000 
 47 H       -6.5680    -6.6400     1.4310 H     1 <1>   0.1000 
 48 H       -2.5730   -13.9960    -0.9150 H     1 <1>   0.1500 
 49 H       -5.3530   -12.9130     2.1200 H     1 <1>   0.1500 
 50 H       -4.0000   -14.6220     0.9840 H     1 <1>   0.1500 
@<TRIPOS>BOND
  1   1   2  2   
  2   2   3  am  
  3   2   4  1   
  4   3  26  1   
  5   3  27  1   
  6   4   5  ar  
  7   4   6  ar  
  8   5   7  ar  
  9   5  28  1   
 10   6   8  ar  
 11   6  29  1   
 12   7   9  ar  
 13   7  30  1   
 14   8   9  ar  
 15   8  31  1   
 16   9  10  1   
 17  10  11  1   
 18  10  32  1   
 19  10  33  1   
 20  11  12  1   
 21  11  13  1   
 22  11  34  1   
 23  12  14  1   
 24  12  35  1   
 25  12  36  1   
 26  13  15  1   
 27  13  37  1   
 28  13  38  1   
 29  14  16  1   
 30  14  17  1   
 31  14  39  1   
 32  15  16  1   
 33  15  18  1   
 34  15  40  1   
 35  17  19  ar  
 36  17  20  ar  
 37  18  21  1   
 38  18  22  1   
 39  18  41  1   
 40  19  23  ar  
 41  19  42  1   
 42  20  24  ar  
 43  20  43  1   
 44  21  22  1   
 45  21  44  1   
 46  21  45  1   
 47  22  46  1   
 48  22  47  1   
 49  23  25  ar  
 50  23  48  1   
 51  24  25  ar  
 52  24  49  1   
 53  25  50  1   
@<TRIPOS>SUBSTRUCTURE
  1 ****  11 GROUP 4 **** **** 0

# MOE 2024.06 (io_trps.svl 2023.06)
