@<TRIPOS>MOLECULE
NONAME
51 55 1 0 0 
SMALL
USER_CHARGES


@<TRIPOS>ATOM
  1 S        1.7030    -2.1620     3.3860 S.3   1 <1>  -0.0800 
  2 C        2.6150    -1.2670     2.1960 C.2   1 <1>   0.1980 
  3 C        0.2820    -1.9550     2.4080 C.2   1 <1>  -0.1100 
  4 N        1.9260    -0.8810     1.1930 N.2   1 <1>  -0.5650 
  5 C        4.0940    -1.0300     2.4720 C.3   1 <1>   0.3200 
  6 C        0.5860    -1.2560     1.2950 C.2   1 <1>   0.1730 
  7 N        4.6070    -0.0520     1.4800 N.am  1 <1>  -0.7300 
  8 C       -0.3280    -0.8570     0.2430 C.ar  1 <1>   0.0540 
  9 C        4.6400     1.2770     1.7340 C.2   1 <1>   0.5690 
 10 C        0.0670    -0.8510    -1.0940 C.ar  1 <1>  -0.1500 
 11 C       -1.6300    -0.4580     0.5350 C.ar  1 <1>  -0.1500 
 12 O        4.7470     1.6990     2.8590 O.2   1 <1>  -0.5700 
 13 C        4.5490     2.2950     0.5950 C.3   1 <1>   0.0610 
 14 C       -0.7990    -0.4590    -2.0990 C.ar  1 <1>  -0.1500 
 15 C       -2.5020    -0.0640    -0.4650 C.ar  1 <1>  -0.1500 
 16 C        3.7000     3.5130     1.0360 C.3   1 <1>   0.4230 
 17 C        3.7370     1.8260    -0.6510 C.3   1 <1>  -0.1600 
 18 C        6.0180     2.6780     0.2510 C.3   1 <1>   0.0210 
 19 C       -2.0870    -0.0640    -1.7850 C.ar  1 <1>  -0.1500 
 20 N        3.2750     4.0590    -0.2580 N.4   1 <1>  -0.9060 
 21 C        2.3160     3.1160     1.5860 C.3   1 <1>  -0.1600 
 22 C        2.6150     2.8670    -0.7690 C.3   1 <1>   0.4230 
 23 C        6.2530     3.9770    -0.5120 C.2   1 <1>   0.0460 
 24 C        1.5760     2.6400     0.3260 C.3   1 <1>  -0.1600 
 25 N        5.7160     4.1130    -1.7860 N.2   1 <1>  -0.5650 
 26 C        6.9730     5.0160    -0.0590 C.2   1 <1>  -0.1100 
 27 C        6.0550     5.2240    -2.3150 C.2   1 <1>   0.2280 
 28 S        7.0200     6.2510    -1.2830 S.3   1 <1>  -0.0800 
 29 H       -0.6410    -2.3760     2.7610 H     1 <1>   0.1500 
 30 H        4.6350    -1.9560     2.3840 H     1 <1>   0.0800 
 31 H        4.2190    -0.6510     3.4720 H     1 <1>   0.0800 
 32 H        4.4620    -0.3780     0.5230 H     1 <1>   0.3700 
 33 H        1.0640    -1.1660    -1.3450 H     1 <1>   0.1500 
 34 H       -1.9660    -0.4500     1.5560 H     1 <1>   0.1500 
 35 H       -0.4770    -0.4680    -3.1260 H     1 <1>   0.1500 
 36 H       -3.5050     0.2400    -0.2190 H     1 <1>   0.1500 
 37 H        4.2340     4.2100     1.6630 H     1 <1>   0.0800 
 38 H        3.3080     0.8460    -0.5510 H     1 <1>   0.0800 
 39 H        4.3350     1.8310    -1.5450 H     1 <1>   0.0800 
 40 H        6.4680     1.8750    -0.3060 H     1 <1>   0.0800 
 41 H        6.5750     2.7550     1.1700 H     1 <1>   0.0800 
 42 H       -2.7660     0.2380    -2.5640 H     1 <1>   0.1500 
 43 H        2.6380     4.8530    -0.1640 H     1 <1>   0.4500 
 44 H        4.0950     4.2940    -0.8470 H     1 <1>   0.4500 
 45 H        2.3490     2.3530     2.3440 H     1 <1>   0.0800 
 46 H        1.8300     3.9780     2.0100 H     1 <1>   0.0800 
 47 H        2.2040     2.9690    -1.7620 H     1 <1>   0.0800 
 48 H        0.6970     3.2340     0.1440 H     1 <1>   0.0800 
 49 H        1.2800     1.6080     0.3880 H     1 <1>   0.0800 
 50 H        7.5050     5.2010     0.8580 H     1 <1>   0.1500 
 51 H        5.8210     5.6040    -3.2960 H     1 <1>   0.1500 
@<TRIPOS>BOND
  1   1   2  1   
  2   1   3  1   
  3   2   4  2   
  4   2   5  1   
  5   3   6  2   
  6   3  29  1   
  7   4   6  1   
  8   5   7  1   
  9   5  30  1   
 10   5  31  1   
 11   6   8  1   
 12   7   9  am  
 13   7  32  1   
 14   8  10  ar  
 15   8  11  ar  
 16   9  12  2   
 17   9  13  1   
 18  10  14  ar  
 19  10  33  1   
 20  11  15  ar  
 21  11  34  1   
 22  13  16  1   
 23  13  17  1   
 24  13  18  1   
 25  14  19  ar  
 26  14  35  1   
 27  15  19  ar  
 28  15  36  1   
 29  16  20  1   
 30  16  21  1   
 31  16  37  1   
 32  17  22  1   
 33  17  38  1   
 34  17  39  1   
 35  18  23  1   
 36  18  40  1   
 37  18  41  1   
 38  19  42  1   
 39  20  22  1   
 40  20  43  1   
 41  20  44  1   
 42  21  24  1   
 43  21  45  1   
 44  21  46  1   
 45  22  24  1   
 46  22  47  1   
 47  23  25  1   
 48  23  26  2   
 49  24  48  1   
 50  24  49  1   
 51  25  27  2   
 52  26  28  1   
 53  26  50  1   
 54  27  28  1   
 55  27  51  1   
@<TRIPOS>SUBSTRUCTURE
  1 ****  17 GROUP 4 **** **** 0

# MOE 2024.06 (io_trps.svl 2023.06)
