@<TRIPOS>MOLECULE
NONAME
53 55 1 0 0 
SMALL
USER_CHARGES


@<TRIPOS>ATOM
  1 S        2.0600     0.5220    -1.2370 S.o2  1 <1>   1.3330 
  2 O        3.4790     0.3440    -1.0160 O.2   1 <1>  -0.6500 
  3 O        1.6180     0.9120    -2.5550 O.2   1 <1>  -0.6500 
  4 N        1.2700    -0.9270    -0.8390 N.am  1 <1>  -0.8490 
  5 C        1.4250     1.7250    -0.0570 C.3   1 <1>  -0.0550 
  6 C        2.0240    -2.1090    -1.2710 C.3   1 <1>   0.1160 
  7 C       -0.1000    -1.0050    -1.3610 C.3   1 <1>   0.1160 
  8 C        1.7120     1.5390     1.4520 C.3   1 <1>  -0.0800 
  9 C        3.1670     1.4570     1.8770 C.3   1 <1>   0.2890 
 10 C        1.1350     0.3140     2.1470 C.3   1 <1>   0.1200 
 11 N        3.7940     2.8030     1.8360 N.pl3 1 <1>  -0.8690 
 12 C        3.0590     0.8690     3.2850 C.3   1 <1>   0.1200 
 13 O        1.7940     0.2710     3.3740 O.3   1 <1>  -0.5600 
 14 C        4.6970     3.2910     0.9710 C.ar  1 <1>   0.4100 
 15 N        4.8150     4.5980     0.9790 N.ar  1 <1>  -0.6200 
 16 C        5.4490     2.4790     0.1040 C.ar  1 <1>  -0.1500 
 17 C        5.6470     5.1500     0.1030 C.ar  1 <1>   0.7710 
 18 C        6.2750     3.0610    -0.7960 C.ar  1 <1>   0.2180 
 19 N        6.3480     4.4120    -0.7770 N.ar  1 <1>  -0.1790 
 20 N        5.7930     6.4980     0.0880 N.pl3 1 <1>  -0.8380 
 21 C        7.1040     2.2820    -1.8020 C.3   1 <1>  -0.0970 
 22 C        6.7030     7.3260    -0.7510 C.3   1 <1>   0.2090 
 23 C        5.0200     7.3740     1.0140 C.3   1 <1>   0.2090 
 24 C        6.6710     8.7120    -0.1200 C.3   1 <1>  -0.1600 
 25 C        5.3060     8.7960     0.5510 C.3   1 <1>  -0.1600 
 26 H        1.8190     2.6830    -0.3340 H     1 <1>   0.0800 
 27 H        0.3620     1.7900    -0.1830 H     1 <1>   0.0800 
 28 H        1.5060    -3.0080    -0.9840 H     1 <1>   0.0800 
 29 H        2.9950    -2.1200    -0.8060 H     1 <1>   0.0800 
 30 H        2.1530    -2.1010    -2.3410 H     1 <1>   0.0800 
 31 H       -0.5780    -1.9030    -1.0090 H     1 <1>   0.0800 
 32 H       -0.0940    -1.0120    -2.4390 H     1 <1>   0.0800 
 33 H       -0.6770    -0.1610    -1.0250 H     1 <1>   0.0800 
 34 H        1.2730     2.3850     1.9520 H     1 <1>   0.0800 
 35 H        3.7110     0.7500     1.2840 H     1 <1>   0.0800 
 36 H        1.3640    -0.6000     1.6300 H     1 <1>   0.0800 
 37 H        0.0750     0.3890     2.3180 H     1 <1>   0.0800 
 38 H        3.3640     3.4870     2.4670 H     1 <1>   0.4000 
 39 H        3.1150     1.6330     4.0400 H     1 <1>   0.0800 
 40 H        3.8070     0.1160     3.4570 H     1 <1>   0.0800 
 41 H        5.3610     1.4120     0.1640 H     1 <1>   0.1500 
 42 H        6.9290     4.9330    -1.4190 H     1 <1>   0.4570 
 43 H        6.9160     1.2260    -1.7020 H     1 <1>   0.0800 
 44 H        8.1530     2.4540    -1.6420 H     1 <1>   0.0800 
 45 H        6.8460     2.5700    -2.8050 H     1 <1>   0.0800 
 46 H        7.7080     6.9390    -0.7560 H     1 <1>   0.0800 
 47 H        6.3170     7.3800    -1.7560 H     1 <1>   0.0800 
 48 H        3.9650     7.1550     0.9740 H     1 <1>   0.0800 
 49 H        5.3770     7.2310     2.0210 H     1 <1>   0.0800 
 50 H        7.4470     8.7810     0.6230 H     1 <1>   0.0800 
 51 H        6.8160     9.4900    -0.8490 H     1 <1>   0.0800 
 52 H        4.5590     9.0880    -0.1660 H     1 <1>   0.0800 
 53 H        5.2930     9.4920     1.3710 H     1 <1>   0.0800 
@<TRIPOS>BOND
  1   1   2  2   
  2   1   3  2   
  3   1   4  am  
  4   1   5  1   
  5   4   6  1   
  6   4   7  1   
  7   5   8  1   
  8   5  26  1   
  9   5  27  1   
 10   6  28  1   
 11   6  29  1   
 12   6  30  1   
 13   7  31  1   
 14   7  32  1   
 15   7  33  1   
 16   8   9  1   
 17   8  10  1   
 18   8  34  1   
 19   9  11  1   
 20   9  12  1   
 21   9  35  1   
 22  10  13  1   
 23  10  36  1   
 24  10  37  1   
 25  11  14  1   
 26  11  38  1   
 27  12  13  1   
 28  12  39  1   
 29  12  40  1   
 30  14  15  ar  
 31  14  16  ar  
 32  15  17  ar  
 33  16  18  ar  
 34  16  41  1   
 35  17  19  ar  
 36  17  20  1   
 37  18  19  ar  
 38  18  21  1   
 39  19  42  1   
 40  20  22  1   
 41  20  23  1   
 42  21  43  1   
 43  21  44  1   
 44  21  45  1   
 45  22  24  1   
 46  22  46  1   
 47  22  47  1   
 48  23  25  1   
 49  23  48  1   
 50  23  49  1   
 51  24  25  1   
 52  24  50  1   
 53  24  51  1   
 54  25  52  1   
 55  25  53  1   
@<TRIPOS>SUBSTRUCTURE
  1 ****  14 GROUP 4 **** **** 0

# MOE 2024.06 (io_trps.svl 2023.06)
