@<TRIPOS>MOLECULE
NONAME
59 62 1 0 0 
SMALL
USER_CHARGES


@<TRIPOS>ATOM
  1 O       -2.8950     2.3010    -1.4510 O.2   1 <1>  -0.5700 
  2 C       -2.5280     1.4190    -0.7050 C.2   1 <1>   0.6300 
  3 N       -2.6560     0.1040    -1.0700 N.am  1 <1>  -0.6600 
  4 C       -1.9190     1.8290     0.6460 C.3   1 <1>   0.0320 
  5 C       -2.1840    -1.0470    -0.2350 C.3   1 <1>   0.3640 
  6 C       -3.2730    -0.2520    -2.3830 C.3   1 <1>   0.1400 
  7 C       -0.3950     1.7790     0.6370 C.ar  1 <1>  -0.0320 
  8 C       -2.5340     2.9840     1.3900 C.3   1 <1>  -0.2000 
  9 C       -2.6930     1.5970     1.9180 C.3   1 <1>  -0.2000 
 10 C       -0.7250    -1.4250    -0.5350 C.ar  1 <1>  -0.1430 
 11 C       -3.1520    -2.2630    -0.3610 C.3   1 <1>   0.2000 
 12 C       -3.1270    -1.7470    -2.7100 C.3   1 <1>   0.1200 
 13 C        0.3080     0.8860     1.4300 C.ar  1 <1>  -0.1500 
 14 C        0.3090     2.6320    -0.1980 C.ar  1 <1>  -0.1500 
 15 C       -0.0990    -2.3450     0.2950 C.ar  1 <1>  -0.1500 
 16 C        0.0210    -0.8620    -1.5630 C.ar  1 <1>  -0.1500 
 17 O       -3.6220    -2.5340    -1.6670 O.3   1 <1>  -0.5600 
 18 C       -4.3950    -2.0630     0.5160 C.3   1 <1>   0.1200 
 19 C        1.6900     0.8340     1.3770 C.ar  1 <1>  -0.1500 
 20 C        1.6920     2.5860    -0.2480 C.ar  1 <1>  -0.1500 
 21 C        1.2250    -2.7110     0.1200 C.ar  1 <1>   0.0830 
 22 C        1.3470    -1.2060    -1.7500 C.ar  1 <1>  -0.1500 
 23 O       -4.0440    -2.0580     1.8650 O.3   1 <1>  -0.6800 
 24 C        2.3900     1.6820     0.5360 C.ar  1 <1>  -0.1430 
 25 O        1.6800    -3.6360     1.0140 O.3   1 <1>  -0.3620 
 26 C        1.9750    -2.1230    -0.9120 C.ar  1 <1>   0.0830 
 27 C        3.9040     1.6150     0.4810 C.3   1 <1>  -0.0970 
 28 C        2.7080    -4.5420     0.6800 C.3   1 <1>   0.0400 
 29 O        3.2970    -2.4310    -1.0650 O.3   1 <1>  -0.3630 
 30 C        4.1360    -1.6990    -1.9310 C.3   1 <1>   0.0400 
 31 H       -2.1940    -0.7470     0.7960 H     1 <1>   0.0800 
 32 H       -4.3180     0.0040    -2.3600 H     1 <1>   0.0800 
 33 H       -2.8110     0.3300    -3.1620 H     1 <1>   0.0800 
 34 H       -1.8780     3.6650     1.9030 H     1 <1>   0.1000 
 35 H       -3.3840     3.4790     0.9530 H     1 <1>   0.1000 
 36 H       -3.6590     1.1280     1.8550 H     1 <1>   0.1000 
 37 H       -2.1720     1.3410     2.8240 H     1 <1>   0.1000 
 38 H       -2.6530    -3.1560    -0.0330 H     1 <1>   0.0800 
 39 H       -2.0970    -2.0080    -2.8790 H     1 <1>   0.0800 
 40 H       -3.6870    -1.9880    -3.5960 H     1 <1>   0.0800 
 41 H       -0.2130     0.2120     2.0850 H     1 <1>   0.1500 
 42 H       -0.2260     3.3320    -0.8160 H     1 <1>   0.1500 
 43 H       -0.6340    -2.7940     1.1110 H     1 <1>   0.1500 
 44 H       -0.4110    -0.1310    -2.2230 H     1 <1>   0.1500 
 45 H       -5.1040    -2.8570     0.3570 H     1 <1>   0.0800 
 46 H       -4.8570    -1.1170     0.2910 H     1 <1>   0.0800 
 47 H        2.2160     0.1230     1.9890 H     1 <1>   0.1500 
 48 H        2.2200     3.2560    -0.9030 H     1 <1>   0.1500 
 49 H        1.8730    -0.7310    -2.5550 H     1 <1>   0.1500 
 50 H       -3.9200    -2.9710     2.1930 H     1 <1>   0.4000 
 51 H        4.2350     0.6000     0.6120 H     1 <1>   0.0800 
 52 H        4.3230     2.2210     1.2640 H     1 <1>   0.0800 
 53 H        4.2650     1.9720    -0.4660 H     1 <1>   0.0800 
 54 H        2.6680    -5.3640     1.3710 H     1 <1>   0.0800 
 55 H        3.6540    -4.0400     0.7670 H     1 <1>   0.0800 
 56 H        2.5530    -4.8960    -0.3240 H     1 <1>   0.0800 
 57 H        5.1420    -2.0550    -1.8000 H     1 <1>   0.0800 
 58 H        4.0800    -0.6570    -1.6720 H     1 <1>   0.0800 
 59 H        3.8200    -1.8640    -2.9450 H     1 <1>   0.0800 
@<TRIPOS>BOND
  1   1   2  2   
  2   2   3  am  
  3   2   4  1   
  4   3   5  1   
  5   3   6  1   
  6   4   7  1   
  7   4   8  1   
  8   4   9  1   
  9   5  10  1   
 10   5  11  1   
 11   5  31  1   
 12   6  12  1   
 13   6  32  1   
 14   6  33  1   
 15   7  13  ar  
 16   7  14  ar  
 17   8   9  1   
 18   8  34  1   
 19   8  35  1   
 20   9  36  1   
 21   9  37  1   
 22  10  15  ar  
 23  10  16  ar  
 24  11  17  1   
 25  11  18  1   
 26  11  38  1   
 27  12  17  1   
 28  12  39  1   
 29  12  40  1   
 30  13  19  ar  
 31  13  41  1   
 32  14  20  ar  
 33  14  42  1   
 34  15  21  ar  
 35  15  43  1   
 36  16  22  ar  
 37  16  44  1   
 38  18  23  1   
 39  18  45  1   
 40  18  46  1   
 41  19  24  ar  
 42  19  47  1   
 43  20  24  ar  
 44  20  48  1   
 45  21  25  1   
 46  21  26  ar  
 47  22  26  ar  
 48  22  49  1   
 49  23  50  1   
 50  24  27  1   
 51  25  28  1   
 52  26  29  1   
 53  27  51  1   
 54  27  52  1   
 55  27  53  1   
 56  28  54  1   
 57  28  55  1   
 58  28  56  1   
 59  29  30  1   
 60  30  57  1   
 61  30  58  1   
 62  30  59  1   
@<TRIPOS>SUBSTRUCTURE
  1 ****  10 GROUP 4 **** **** 0

# MOE 2024.06 (io_trps.svl 2023.06)
