@<TRIPOS>MOLECULE
NONAME
52 54 1 0 0 
SMALL
USER_CHARGES


@<TRIPOS>ATOM
  1 O       -0.3630    -1.2520     1.2220 O.3   1 <1>  -0.3630 
  2 C        0.8840    -1.5320     0.7320 C.ar  1 <1>   0.0830 
  3 C       -0.7710     0.0550     1.5610 C.3   1 <1>   0.0400 
  4 C        1.2340    -2.8970     0.5410 C.ar  1 <1>   0.3100 
  5 C        1.7740    -0.5290     0.4310 C.ar  1 <1>  -0.1500 
  6 N        0.2990    -3.8370     0.8530 N.ar  1 <1>  -0.6200 
  7 C        2.5260    -3.2250     0.0380 C.ar  1 <1>   0.0000 
  8 C        3.0330    -0.8400    -0.0660 C.ar  1 <1>  -0.1500 
  9 C        0.6040    -5.0790     0.6850 C.ar  1 <1>   0.4100 
 10 C        3.4130    -2.1490    -0.2640 C.ar  1 <1>   0.0830 
 11 C        2.8180    -4.6140    -0.1180 C.ar  1 <1>  -0.1440 
 12 N       -0.3830    -5.9610     1.0000 N.pl3 1 <1>  -0.8690 
 13 C        1.8490    -5.5090     0.2110 C.ar  1 <1>  -0.1500 
 14 O        4.6490    -2.4370    -0.7570 O.3   1 <1>  -0.3630 
 15 C        4.1470    -5.1680    -0.6210 C.3   1 <1>  -0.0970 
 16 C       -0.7990    -6.9880     0.0330 C.3   1 <1>   0.2090 
 17 C        5.6060    -1.4520    -1.0800 C.3   1 <1>   0.0400 
 18 C       -2.2420    -7.3890     0.3290 C.3   1 <1>  -0.1600 
 19 C       -2.7240    -8.4770    -0.6360 C.3   1 <1>   0.0210 
 20 C       -4.1590    -8.8630    -0.3240 C.2   1 <1>  -0.1810 
 21 C       -4.5820    -9.8530     0.5630 C.2   1 <1>   0.1080 
 22 C       -5.3000    -8.3420    -0.8260 C.2   1 <1>  -0.3320 
 23 N       -5.8720    -9.9510     0.6110 N.2   1 <1>  -0.7070 
 24 C       -3.6830   -10.7390     1.3950 C.3   1 <1>  -0.0590 
 25 N       -6.3160    -9.0170    -0.2470 N.pl3 1 <1>   0.3000 
 26 C       -5.5160    -7.2230    -1.8320 C.3   1 <1>  -0.0600 
 27 H       -1.7640    -0.0040     1.9670 H     1 <1>   0.0800 
 28 H       -0.7750     0.6610     0.6720 H     1 <1>   0.0800 
 29 H       -0.0970     0.4500     2.3000 H     1 <1>   0.0800 
 30 H        1.5340     0.5080     0.5630 H     1 <1>   0.1500 
 31 H        3.6850    -0.0160    -0.2850 H     1 <1>   0.1500 
 32 H       -1.1760    -5.4390     1.3830 H     1 <1>   0.4000 
 33 H        2.0020    -6.5670     0.1290 H     1 <1>   0.1500 
 34 H        4.3380    -4.8190    -1.6190 H     1 <1>   0.0800 
 35 H        4.1420    -6.2430    -0.6390 H     1 <1>   0.0800 
 36 H        4.9460    -4.8520     0.0260 H     1 <1>   0.0800 
 37 H       -0.1500    -7.8430     0.1240 H     1 <1>   0.0800 
 38 H       -0.7200    -6.5940    -0.9670 H     1 <1>   0.0800 
 39 H        6.4880    -1.9500    -1.4400 H     1 <1>   0.0800 
 40 H        5.8420    -0.8890    -0.1940 H     1 <1>   0.0800 
 41 H        5.2080    -0.8150    -1.8500 H     1 <1>   0.0800 
 42 H       -2.8800    -6.5290     0.2310 H     1 <1>   0.0800 
 43 H       -2.3100    -7.7540     1.3380 H     1 <1>   0.0800 
 44 H       -2.0960    -9.3470    -0.5590 H     1 <1>   0.0800 
 45 H       -2.6660    -8.1200    -1.6480 H     1 <1>   0.0800 
 46 H       -2.9690   -10.1420     1.9290 H     1 <1>   0.0800 
 47 H       -3.1680   -11.4320     0.7570 H     1 <1>   0.0800 
 48 H       -4.2730   -11.2910     2.1040 H     1 <1>   0.0800 
 49 H       -7.3170    -8.8640    -0.4140 H     1 <1>   0.2700 
 50 H       -4.5780    -6.7900    -2.1260 H     1 <1>   0.0800 
 51 H       -6.1240    -6.4490    -1.3990 H     1 <1>   0.0800 
 52 H       -6.0070    -7.6050    -2.7100 H     1 <1>   0.0800 
@<TRIPOS>BOND
  1   1   2  1   
  2   1   3  1   
  3   2   4  ar  
  4   2   5  ar  
  5   3  27  1   
  6   3  28  1   
  7   3  29  1   
  8   4   6  ar  
  9   4   7  ar  
 10   5   8  ar  
 11   5  30  1   
 12   6   9  ar  
 13   7  10  ar  
 14   7  11  ar  
 15   8  10  ar  
 16   8  31  1   
 17   9  12  1   
 18   9  13  ar  
 19  10  14  1   
 20  11  13  ar  
 21  11  15  1   
 22  12  16  1   
 23  12  32  1   
 24  13  33  1   
 25  14  17  1   
 26  15  34  1   
 27  15  35  1   
 28  15  36  1   
 29  16  18  1   
 30  16  37  1   
 31  16  38  1   
 32  17  39  1   
 33  17  40  1   
 34  17  41  1   
 35  18  19  1   
 36  18  42  1   
 37  18  43  1   
 38  19  20  1   
 39  19  44  1   
 40  19  45  1   
 41  20  21  1   
 42  20  22  2   
 43  21  23  2   
 44  21  24  1   
 45  22  25  1   
 46  22  26  1   
 47  23  25  1   
 48  24  46  1   
 49  24  47  1   
 50  24  48  1   
 51  25  49  1   
 52  26  50  1   
 53  26  51  1   
 54  26  52  1   
@<TRIPOS>SUBSTRUCTURE
  1 ****   9 GROUP 4 **** **** 0

# MOE 2024.06 (io_trps.svl 2023.06)
