@<TRIPOS>MOLECULE
NONAME
50 53 1 0 0 
SMALL
USER_CHARGES


@<TRIPOS>ATOM
  1 O       -0.6170     0.0010    -1.1100 O.2   1 <1>  -0.5700 
  2 C       -1.5580     0.7040    -0.7840 C.2   1 <1>   0.7160 
  3 N       -2.7300     0.0650    -0.4240 N.am  1 <1>  -0.6600 
  4 C       -1.4210     2.1560    -0.7720 C.2   1 <1>   0.1410 
  5 C       -3.9420     0.7280     0.1170 C.3   1 <1>   0.1400 
  6 C       -2.8900    -1.4060    -0.4110 C.3   1 <1>   0.1400 
  7 N       -2.4180     3.0140    -1.1680 N.2   1 <1>  -0.5650 
  8 C       -0.3560     2.9210    -0.4150 C.2   1 <1>  -0.0400 
  9 C       -4.8680    -0.4150     0.5390 C.3   1 <1>   0.2000 
 10 C       -3.9880    -1.6660     0.6230 C.3   1 <1>  -0.0800 
 11 C       -1.8950     4.1740    -1.0420 C.2   1 <1>   0.3280 
 12 O       -0.6680     4.1720    -0.5950 O.3   1 <1>  -0.2800 
 13 C        1.0380     2.6220     0.1300 C.3   1 <1>   0.1000 
 14 O       -5.4570    -0.1680     1.7690 O.3   1 <1>  -0.6800 
 15 C       -4.7870    -2.9580     0.3740 C.3   1 <1>  -0.0170 
 16 C        1.9780     2.1700    -0.9910 C.3   1 <1>  -0.2400 
 17 C        1.0120     1.6090     1.2800 C.3   1 <1>  -0.2400 
 18 C       -3.9970    -4.2710     0.4310 C.ar  1 <1>  -0.1440 
 19 C       -4.5580    -5.4620    -0.0970 C.ar  1 <1>   0.0000 
 20 C       -2.7510    -4.3710     0.9870 C.ar  1 <1>  -0.1500 
 21 C       -3.7780    -6.6440    -0.0490 C.ar  1 <1>   0.3100 
 22 C       -5.8530    -5.5540    -0.6620 C.ar  1 <1>  -0.1500 
 23 C       -2.0690    -5.5930     0.9920 C.ar  1 <1>   0.1600 
 24 N       -2.5370    -6.6920     0.4960 N.ar  1 <1>  -0.6200 
 25 C       -4.3030    -7.8320    -0.5820 C.ar  1 <1>  -0.1500 
 26 C       -6.3370    -6.7300    -1.1690 C.ar  1 <1>  -0.1500 
 27 C       -5.5530    -7.8840    -1.1330 C.ar  1 <1>  -0.1500 
 28 H       -3.6730     1.3480     0.9550 H     1 <1>   0.0800 
 29 H       -4.4090     1.3230    -0.6470 H     1 <1>   0.0800 
 30 H       -3.1980    -1.7310    -1.3900 H     1 <1>   0.0800 
 31 H       -1.9670    -1.8940    -0.1500 H     1 <1>   0.0800 
 32 H       -5.6500    -0.5320    -0.1920 H     1 <1>   0.0800 
 33 H       -3.5270    -1.6990     1.5940 H     1 <1>   0.0800 
 34 H       -2.3630     5.1190    -1.2620 H     1 <1>   0.1500 
 35 H        1.4270     3.5430     0.5320 H     1 <1>   0.0800 
 36 H       -4.7760    -0.0680     2.4610 H     1 <1>   0.4000 
 37 H       -5.2350    -2.8700    -0.6000 H     1 <1>   0.0800 
 38 H       -5.5850    -3.0150     1.0950 H     1 <1>   0.0800 
 39 H        1.6440     1.2410    -1.4160 H     1 <1>   0.0800 
 40 H        2.9750     2.0370    -0.6120 H     1 <1>   0.0800 
 41 H        2.0020     2.9110    -1.7700 H     1 <1>   0.0800 
 42 H        0.7380     0.6310     0.9320 H     1 <1>   0.0800 
 43 H        0.3100     1.9210     2.0310 H     1 <1>   0.0800 
 44 H        1.9860     1.5420     1.7300 H     1 <1>   0.0800 
 45 H       -2.2470    -3.5390     1.4390 H     1 <1>   0.1500 
 46 H       -6.4830    -4.6860    -0.6940 H     1 <1>   0.1500 
 47 H       -1.0880    -5.6180     1.4360 H     1 <1>   0.1500 
 48 H       -3.6820    -8.7080    -0.5380 H     1 <1>   0.1500 
 49 H       -7.3230    -6.7820    -1.5980 H     1 <1>   0.1500 
 50 H       -5.9430    -8.8030    -1.5370 H     1 <1>   0.1500 
@<TRIPOS>BOND
  1   1   2  2   
  2   2   3  am  
  3   2   4  1   
  4   3   5  1   
  5   3   6  1   
  6   4   7  1   
  7   4   8  2   
  8   5   9  1   
  9   5  28  1   
 10   5  29  1   
 11   6  10  1   
 12   6  30  1   
 13   6  31  1   
 14   7  11  2   
 15   8  12  1   
 16   8  13  1   
 17   9  10  1   
 18   9  14  1   
 19   9  32  1   
 20  10  15  1   
 21  10  33  1   
 22  11  12  1   
 23  11  34  1   
 24  13  16  1   
 25  13  17  1   
 26  13  35  1   
 27  14  36  1   
 28  15  18  1   
 29  15  37  1   
 30  15  38  1   
 31  16  39  1   
 32  16  40  1   
 33  16  41  1   
 34  17  42  1   
 35  17  43  1   
 36  17  44  1   
 37  18  19  ar  
 38  18  20  ar  
 39  19  21  ar  
 40  19  22  ar  
 41  20  23  ar  
 42  20  45  1   
 43  21  24  ar  
 44  21  25  ar  
 45  22  26  ar  
 46  22  46  1   
 47  23  24  ar  
 48  23  47  1   
 49  25  27  ar  
 50  25  48  1   
 51  26  27  ar  
 52  26  49  1   
 53  27  50  1   
@<TRIPOS>SUBSTRUCTURE
  1 ****   6 GROUP 4 **** **** 0

# MOE 2024.06 (io_trps.svl 2023.06)
