@<TRIPOS>MOLECULE
NONAME
48 50 1 0 0 
SMALL
USER_CHARGES


@<TRIPOS>ATOM
  1 S        0.2220     0.1210     0.4950 S.o2  1 <1>   1.2040 
  2 O       -0.0500    -0.6590    -0.6910 O.2   1 <1>  -0.6500 
  3 O       -0.5250    -0.1100     1.7100 O.2   1 <1>  -0.6500 
  4 C        0.1480     1.8830     0.0790 C.ar  1 <1>  -0.0090 
  5 C        1.9450    -0.1040     0.8870 C.3   1 <1>  -0.1350 
  6 C       -0.0800     2.8430     1.0570 C.ar  1 <1>  -0.1500 
  7 C        0.3300     2.3240    -1.2260 C.ar  1 <1>  -0.1500 
  8 C       -0.1290     4.1920     0.7480 C.ar  1 <1>  -0.1500 
  9 C        0.2830     3.6690    -1.5470 C.ar  1 <1>  -0.1500 
 10 C        0.0540     4.6150    -0.5600 C.ar  1 <1>  -0.1430 
 11 C       -0.0070     6.0930    -0.9070 C.3   1 <1>   0.4860 
 12 N        1.2340     6.7560    -0.4260 N.4   1 <1>  -0.9590 
 13 C        1.1260     8.2380    -0.5000 C.3   1 <1>   0.3430 
 14 C        2.4460     6.2530    -1.1330 C.3   1 <1>   0.3430 
 15 C        2.3390     8.8670     0.1800 C.3   1 <1>  -0.1600 
 16 C        3.6940     6.8280    -0.4670 C.3   1 <1>  -0.1600 
 17 C        3.6720     8.3700    -0.4240 C.3   1 <1>  -0.0800 
 18 C        4.9060     8.9430     0.3120 C.3   1 <1>   0.3800 
 19 O        4.8960     8.4980     1.6210 O.3   1 <1>  -0.6800 
 20 C        4.9180    10.4620     0.3290 C.2   1 <1>  -0.1400 
 21 S        5.2580    11.2640    -1.1990 S.3   1 <1>  -0.0800 
 22 C        4.7120    11.3770     1.2990 C.2   1 <1>  -0.1500 
 23 C        5.1070    12.8460    -0.4580 C.2   1 <1>  -0.1100 
 24 C        4.8200    12.7320     0.8510 C.2   1 <1>  -0.1500 
 25 H        2.1270    -1.1260     1.1570 H     1 <1>   0.0800 
 26 H        2.2270     0.5200     1.7130 H     1 <1>   0.0800 
 27 H        2.5580     0.1390     0.0410 H     1 <1>   0.0800 
 28 H       -0.2350     2.5260     2.0770 H     1 <1>   0.1500 
 29 H        0.4990     1.5970    -2.0060 H     1 <1>   0.1500 
 30 H       -0.3220     4.8970     1.5400 H     1 <1>   0.1500 
 31 H        0.4170     3.9610    -2.5760 H     1 <1>   0.1500 
 32 H       -0.8690     6.5300    -0.4300 H     1 <1>   0.0800 
 33 H       -0.1090     6.2180    -1.9730 H     1 <1>   0.0800 
 34 H        1.3470     6.5000     0.5630 H     1 <1>   0.4500 
 35 H        0.2280     8.5730    -0.0060 H     1 <1>   0.0800 
 36 H        1.0870     8.5550    -1.5310 H     1 <1>   0.0800 
 37 H        2.4170     6.5480    -2.1690 H     1 <1>   0.0800 
 38 H        2.4840     5.1760    -1.0850 H     1 <1>   0.0800 
 39 H        2.3030     8.6510     1.2330 H     1 <1>   0.0800 
 40 H        2.2700     9.9360     0.0730 H     1 <1>   0.0800 
 41 H        4.5620     6.4980    -1.0110 H     1 <1>   0.0800 
 42 H        3.7710     6.4260     0.5290 H     1 <1>   0.0800 
 43 H        3.7220     8.7240    -1.4400 H     1 <1>   0.0800 
 44 H        5.8140     8.5840    -0.1440 H     1 <1>   0.0800 
 45 H        5.6090     8.9550     2.1090 H     1 <1>   0.4000 
 46 H        4.4810    11.1610     2.3280 H     1 <1>   0.1500 
 47 H        5.2530    13.7060    -1.0890 H     1 <1>   0.1500 
 48 H        4.6780    13.5520     1.5330 H     1 <1>   0.1500 
@<TRIPOS>BOND
  1   1   2  2   
  2   1   3  2   
  3   1   4  1   
  4   1   5  1   
  5   4   6  ar  
  6   4   7  ar  
  7   5  25  1   
  8   5  26  1   
  9   5  27  1   
 10   6   8  ar  
 11   6  28  1   
 12   7   9  ar  
 13   7  29  1   
 14   8  10  ar  
 15   8  30  1   
 16   9  10  ar  
 17   9  31  1   
 18  10  11  1   
 19  11  12  1   
 20  11  32  1   
 21  11  33  1   
 22  12  13  1   
 23  12  14  1   
 24  12  34  1   
 25  13  15  1   
 26  13  35  1   
 27  13  36  1   
 28  14  16  1   
 29  14  37  1   
 30  14  38  1   
 31  15  17  1   
 32  15  39  1   
 33  15  40  1   
 34  16  17  1   
 35  16  41  1   
 36  16  42  1   
 37  17  18  1   
 38  17  43  1   
 39  18  19  1   
 40  18  20  1   
 41  18  44  1   
 42  19  45  1   
 43  20  21  1   
 44  20  22  2   
 45  21  23  1   
 46  22  24  1   
 47  22  46  1   
 48  23  24  2   
 49  23  47  1   
 50  24  48  1   
@<TRIPOS>SUBSTRUCTURE
  1 ****  14 GROUP 4 **** **** 0

# MOE 2024.06 (io_trps.svl 2023.06)
