@<TRIPOS>MOLECULE
NONAME
36 37 1 0 0 
SMALL
USER_CHARGES


@<TRIPOS>ATOM
  1 O        0.3870    -0.1400    -1.4360 O.2   1 <1>  -0.5700 
  2 C        1.2700    -0.6490    -0.7770 C.2   1 <1>   0.7160 
  3 N        2.2500     0.1160    -0.2060 N.am  1 <1>  -0.4940 
  4 C        1.2870    -2.0670    -0.5390 C.2   1 <1>  -0.0860 
  5 C        2.5550     1.4680    -0.3870 C.2   1 <1>   0.2040 
  6 C        0.1960    -2.8830    -0.2750 C.2   1 <1>   0.1080 
  7 C        2.3020    -2.9600    -0.4990 C.2   1 <1>  -0.0400 
  8 O        2.0180     2.1840    -1.3470 O.3   1 <1>  -0.0190 
  9 C        3.4000     2.2690     0.2930 C.2   1 <1>  -0.1810 
 10 N        0.5820    -4.0910    -0.0860 N.2   1 <1>  -0.4100 
 11 C       -1.2540    -2.4110    -0.2220 C.3   1 <1>   0.0210 
 12 O        1.8860    -4.1690    -0.2140 O.3   1 <1>  -0.0190 
 13 C        3.7880    -2.7800    -0.7520 C.3   1 <1>  -0.0600 
 14 N        2.4610     3.4150    -1.3430 N.2   1 <1>  -0.4100 
 15 C        3.2920     3.4930    -0.3670 C.2   1 <1>   0.1080 
 16 C        4.2780     1.9610     1.4950 C.3   1 <1>  -0.0590 
 17 C       -2.2010    -3.4110     0.4570 C.3   1 <1>  -0.2400 
 18 C        4.0370     4.7690    -0.0150 C.3   1 <1>   0.0210 
 19 C        5.4190     4.8080    -0.6760 C.3   1 <1>  -0.2400 
 20 H        2.8220    -0.3750     0.4740 H     1 <1>   0.3700 
 21 H       -1.5900    -2.2310    -1.2280 H     1 <1>   0.0800 
 22 H       -1.2990    -1.4770     0.3100 H     1 <1>   0.0800 
 23 H        4.0100    -1.7870    -1.0970 H     1 <1>   0.0800 
 24 H        4.1070    -3.4770    -1.5060 H     1 <1>   0.0800 
 25 H        4.3390    -2.9750     0.1500 H     1 <1>   0.0800 
 26 H        4.1560     0.9400     1.8060 H     1 <1>   0.0800 
 27 H        4.0120     2.6020     2.3160 H     1 <1>   0.0800 
 28 H        5.3120     2.1240     1.2470 H     1 <1>   0.0800 
 29 H       -2.2100    -4.3400    -0.0860 H     1 <1>   0.0800 
 30 H       -3.2000    -3.0160     0.4830 H     1 <1>   0.0800 
 31 H       -1.8760    -3.6030     1.4640 H     1 <1>   0.0800 
 32 H        4.1380     4.8460     1.0520 H     1 <1>   0.0800 
 33 H        3.4580     5.6110    -0.3520 H     1 <1>   0.0800 
 34 H        6.0200     3.9820    -0.3420 H     1 <1>   0.0800 
 35 H        5.9210     5.7270    -0.4310 H     1 <1>   0.0800 
 36 H        5.3130     4.7470    -1.7460 H     1 <1>   0.0800 
@<TRIPOS>BOND
  1   1   2  2   
  2   2   3  am  
  3   2   4  1   
  4   3   5  1   
  5   3  20  1   
  6   4   6  1   
  7   4   7  2   
  8   5   8  1   
  9   5   9  2   
 10   6  10  2   
 11   6  11  1   
 12   7  12  1   
 13   7  13  1   
 14   8  14  1   
 15   9  15  1   
 16   9  16  1   
 17  10  12  1   
 18  11  17  1   
 19  11  21  1   
 20  11  22  1   
 21  13  23  1   
 22  13  24  1   
 23  13  25  1   
 24  14  15  2   
 25  15  18  1   
 26  16  26  1   
 27  16  27  1   
 28  16  28  1   
 29  17  29  1   
 30  17  30  1   
 31  17  31  1   
 32  18  19  1   
 33  18  32  1   
 34  18  33  1   
 35  19  34  1   
 36  19  35  1   
 37  19  36  1   
@<TRIPOS>SUBSTRUCTURE
  1 ****   3 GROUP 4 **** **** 0

# MOE 2024.06 (io_trps.svl 2023.06)
