@<TRIPOS>MOLECULE
NONAME
48 49 1 0 0 
SMALL
USER_CHARGES


@<TRIPOS>ATOM
  1 F       -0.3750    -0.6270     0.7290 F     1 <1>  -0.1900 
  2 C       -0.2470    -1.9170     0.8900 C.ar  1 <1>   0.1900 
  3 C        0.2230    -2.7330    -0.1410 C.ar  1 <1>   0.0820 
  4 C       -0.6290    -2.4410     2.1100 C.ar  1 <1>  -0.1500 
  5 O        0.5950    -2.3100    -1.3760 O.3   1 <1>  -0.3630 
  6 C        0.2920    -4.0970     0.0850 C.ar  1 <1>  -0.1500 
  7 C       -0.5700    -3.8110     2.2990 C.ar  1 <1>  -0.1500 
  8 C        1.2830    -1.0840    -1.5350 C.3   1 <1>   0.0400 
  9 C       -0.1350    -4.6670     1.2850 C.ar  1 <1>   0.0860 
 10 C       -0.1670    -6.1020     1.4870 C.2   1 <1>   0.5440 
 11 O        0.5380    -6.5960     2.3420 O.2   1 <1>  -0.5700 
 12 N       -1.0250    -6.9170     0.7770 N.am  1 <1>  -0.6600 
 13 C       -1.2220    -8.3300     1.2640 C.3   1 <1>   0.3210 
 14 C       -1.8420    -6.4460    -0.3830 C.3   1 <1>   0.1400 
 15 C       -2.4730    -9.0390     0.7300 C.2   1 <1>   0.0460 
 16 C       -3.0620    -5.6470     0.1100 C.3   1 <1>   0.3430 
 17 N       -3.7180    -8.5750     0.9900 N.2   1 <1>  -0.5650 
 18 C       -2.5340   -10.1710    -0.0130 C.2   1 <1>  -0.3320 
 19 N       -3.7030    -4.8250    -0.9720 N.4   1 <1>  -0.9590 
 20 C       -4.4980    -9.4410     0.4280 C.2   1 <1>   0.0360 
 21 N       -3.8400   -10.4340    -0.2020 N.pl3 1 <1>   0.0330 
 22 C       -1.4420   -11.0740    -0.5660 C.3   1 <1>  -0.0600 
 23 C       -2.8510    -3.6610    -1.3830 C.3   1 <1>   0.2630 
 24 C       -5.0420    -4.3520    -0.5080 C.3   1 <1>   0.2630 
 25 H       -0.9670    -1.7870     2.8950 H     1 <1>   0.1500 
 26 H        0.6880    -4.7300    -0.6890 H     1 <1>   0.1500 
 27 H       -0.8620    -4.2350     3.2470 H     1 <1>   0.1500 
 28 H        1.7790    -1.0980    -2.4890 H     1 <1>   0.0800 
 29 H        2.0110    -0.9810    -0.7480 H     1 <1>   0.0800 
 30 H        0.5760    -0.2750    -1.5090 H     1 <1>   0.0800 
 31 H       -1.2880    -8.3220     2.3380 H     1 <1>   0.0800 
 32 H       -0.3480    -8.9000     1.0050 H     1 <1>   0.0800 
 33 H       -2.1680    -7.2810    -0.9780 H     1 <1>   0.0800 
 34 H       -1.2270    -5.8380    -1.0160 H     1 <1>   0.0800 
 35 H       -2.7520    -4.9950     0.9100 H     1 <1>   0.0800 
 36 H       -3.7850    -6.3360     0.5120 H     1 <1>   0.0800 
 37 H       -3.8510    -5.4410    -1.7870 H     1 <1>   0.4500 
 38 H       -5.5730    -9.3980     0.4520 H     1 <1>   0.1500 
 39 H       -4.2520   -11.2300    -0.6990 H     1 <1>   0.2700 
 40 H       -0.4660   -10.6900    -0.3330 H     1 <1>   0.0800 
 41 H       -1.5280   -11.1500    -1.6360 H     1 <1>   0.0800 
 42 H       -1.5270   -12.0590    -0.1410 H     1 <1>   0.0800 
 43 H       -2.6630    -3.0170    -0.5390 H     1 <1>   0.0800 
 44 H       -3.3450    -3.0860    -2.1490 H     1 <1>   0.0800 
 45 H       -1.9030    -3.9980    -1.7700 H     1 <1>   0.0800 
 46 H       -4.9360    -3.7100     0.3520 H     1 <1>   0.0800 
 47 H       -5.6600    -5.1920    -0.2350 H     1 <1>   0.0800 
 48 H       -5.5380    -3.8010    -1.2910 H     1 <1>   0.0800 
@<TRIPOS>BOND
  1   1   2  1   
  2   2   3  ar  
  3   2   4  ar  
  4   3   5  1   
  5   3   6  ar  
  6   4   7  ar  
  7   4  25  1   
  8   5   8  1   
  9   6   9  ar  
 10   6  26  1   
 11   7   9  ar  
 12   7  27  1   
 13   8  28  1   
 14   8  29  1   
 15   8  30  1   
 16   9  10  1   
 17  10  11  2   
 18  10  12  am  
 19  12  13  1   
 20  12  14  1   
 21  13  15  1   
 22  13  31  1   
 23  13  32  1   
 24  14  16  1   
 25  14  33  1   
 26  14  34  1   
 27  15  17  1   
 28  15  18  2   
 29  16  19  1   
 30  16  35  1   
 31  16  36  1   
 32  17  20  2   
 33  18  21  1   
 34  18  22  1   
 35  19  23  1   
 36  19  24  1   
 37  19  37  1   
 38  20  21  1   
 39  20  38  1   
 40  21  39  1   
 41  22  40  1   
 42  22  41  1   
 43  22  42  1   
 44  23  43  1   
 45  23  44  1   
 46  23  45  1   
 47  24  46  1   
 48  24  47  1   
 49  24  48  1   
@<TRIPOS>SUBSTRUCTURE
  1 ****  14 GROUP 4 **** **** 0

# MOE 2024.06 (io_trps.svl 2023.06)
