@<TRIPOS>MOLECULE
NONAME
50 53 1 0 0 
SMALL
USER_CHARGES


@<TRIPOS>ATOM
  1 O       -0.0180    -0.1340    -1.1660 O.2   1 <1>  -0.5700 
  2 C       -0.9210     0.3380    -0.5050 C.2   1 <1>   0.7160 
  3 N       -1.9120    -0.4870    -0.0830 N.am  1 <1>  -0.7300 
  4 C       -0.9760     1.7310    -0.1820 C.2   1 <1>  -0.0860 
  5 C       -2.2230    -1.7750    -0.7120 C.3   1 <1>   0.4000 
  6 C       -2.1290     2.4370     0.1920 C.2   1 <1>   0.3720 
  7 C       -0.0070     2.6880    -0.1680 C.2   1 <1>   0.0870 
  8 C       -3.7240    -2.0240    -0.6100 C.2   1 <1>   0.0060 
  9 C       -1.3890    -2.8800    -0.0630 C.3   1 <1>  -0.2400 
 10 N       -1.8650     3.6780     0.4020 N.2   1 <1>  -0.4100 
 11 N       -3.4210     1.8940     0.3110 N.pl3 1 <1>  -0.8210 
 12 O       -0.5870     3.8090     0.1770 O.3   1 <1>  -0.0190 
 13 C        1.4120     2.6810    -0.4300 C.ar  1 <1>   0.0530 
 14 N       -4.4910    -2.0900    -1.6460 N.2   1 <1>  -0.3380 
 15 N       -4.4250    -2.1890     0.5230 N.pl3 1 <1>   0.0480 
 16 C       -4.2690     2.5660     1.3510 C.3   1 <1>   0.2090 
 17 C       -4.1570     1.8780    -0.9990 C.3   1 <1>   0.2090 
 18 C        2.0230     3.7710    -1.0500 C.ar  1 <1>  -0.1500 
 19 C        2.2290     1.6110    -0.0650 C.ar  1 <1>  -0.1500 
 20 N       -5.7290    -2.3150    -1.2100 N.2   1 <1>  -0.3380 
 21 C       -5.6670    -2.3730     0.0730 C.2   1 <1>   0.0360 
 22 C       -4.0020    -2.1700     1.9380 C.3   1 <1>   0.0160 
 23 C       -5.6740     1.9450     1.4120 C.3   1 <1>   0.1200 
 24 C       -5.5850     1.3200    -0.8460 C.3   1 <1>   0.1200 
 25 C        3.3830     3.7920    -1.3000 C.ar  1 <1>  -0.1500 
 26 C        3.5890     1.6240    -0.3140 C.ar  1 <1>  -0.1500 
 27 O       -6.2890     1.9990     0.1580 O.3   1 <1>  -0.5600 
 28 C        4.1700     2.7160    -0.9330 C.ar  1 <1>  -0.1500 
 29 H       -2.7410     0.0270     0.2450 H     1 <1>   0.3700 
 30 H       -1.9660    -1.7240    -1.7580 H     1 <1>   0.0800 
 31 H       -1.5140    -2.8960     1.0020 H     1 <1>   0.0800 
 32 H       -0.3490    -2.7250    -0.2890 H     1 <1>   0.0800 
 33 H       -1.6810    -3.8330    -0.4650 H     1 <1>   0.0800 
 34 H       -4.3660     3.6150     1.1270 H     1 <1>   0.0800 
 35 H       -3.7920     2.4750     2.3120 H     1 <1>   0.0800 
 36 H       -3.6210     1.2710    -1.7090 H     1 <1>   0.0800 
 37 H       -4.2120     2.8780    -1.3940 H     1 <1>   0.0800 
 38 H        1.4220     4.6140    -1.3410 H     1 <1>   0.1500 
 39 H        1.7970     0.7550     0.4200 H     1 <1>   0.1500 
 40 H       -6.5100    -2.5450     0.7180 H     1 <1>   0.1500 
 41 H       -3.2490    -1.4180     2.0840 H     1 <1>   0.0800 
 42 H       -3.6070    -3.1340     2.2030 H     1 <1>   0.0800 
 43 H       -4.8470    -1.9490     2.5630 H     1 <1>   0.0800 
 44 H       -6.2910     2.4930     2.1010 H     1 <1>   0.0800 
 45 H       -5.6230     0.9190     1.7280 H     1 <1>   0.0800 
 46 H       -5.5570     0.2770    -0.5970 H     1 <1>   0.0800 
 47 H       -6.1300     1.4350    -1.7660 H     1 <1>   0.0800 
 48 H        3.8300     4.6450    -1.7810 H     1 <1>   0.1500 
 49 H        4.1970     0.7830    -0.0270 H     1 <1>   0.1500 
 50 H        5.2280     2.7270    -1.1280 H     1 <1>   0.1500 
@<TRIPOS>BOND
  1   1   2  2   
  2   2   3  am  
  3   2   4  1   
  4   3   5  1   
  5   3  29  1   
  6   4   6  1   
  7   4   7  2   
  8   5   8  1   
  9   5   9  1   
 10   5  30  1   
 11   6  10  2   
 12   6  11  1   
 13   7  12  1   
 14   7  13  1   
 15   8  14  2   
 16   8  15  1   
 17   9  31  1   
 18   9  32  1   
 19   9  33  1   
 20  10  12  1   
 21  11  16  1   
 22  11  17  1   
 23  13  18  ar  
 24  13  19  ar  
 25  14  20  1   
 26  15  21  1   
 27  15  22  1   
 28  16  23  1   
 29  16  34  1   
 30  16  35  1   
 31  17  24  1   
 32  17  36  1   
 33  17  37  1   
 34  18  25  ar  
 35  18  38  1   
 36  19  26  ar  
 37  19  39  1   
 38  20  21  2   
 39  21  40  1   
 40  22  41  1   
 41  22  42  1   
 42  22  43  1   
 43  23  27  1   
 44  23  44  1   
 45  23  45  1   
 46  24  27  1   
 47  24  46  1   
 48  24  47  1   
 49  25  28  ar  
 50  25  48  1   
 51  26  28  ar  
 52  26  49  1   
 53  28  50  1   
@<TRIPOS>SUBSTRUCTURE
  1 ****   2 GROUP 4 **** **** 0

# MOE 2024.06 (io_trps.svl 2023.06)
