@<TRIPOS>MOLECULE
NONAME
49 51 1 0 0 
SMALL
USER_CHARGES


@<TRIPOS>ATOM
  1 S        1.4740    -0.8760    -0.0540 S.3   1 <1>  -0.0800 
  2 C       -0.1380    -1.1770     0.4880 C.2   1 <1>   0.1980 
  3 C        1.2470     0.7580     0.4690 C.2   1 <1>   0.1980 
  4 N       -0.7010    -0.1490     0.9820 N.2   1 <1>  -0.3380 
  5 C       -0.7160    -2.5750     0.3380 C.3   1 <1>   0.5230 
  6 N        0.0950     0.9600     0.9680 N.2   1 <1>  -0.3380 
  7 C        2.3890     1.7330     0.2900 C.3   1 <1>  -0.0600 
  8 N       -2.1910    -2.5610     0.6230 N.4   1 <1>  -0.9590 
  9 C       -2.6900    -3.9190     1.0440 C.3   1 <1>   0.3430 
 10 C       -2.9320    -1.9320    -0.5200 C.3   1 <1>   0.3430 
 11 C       -4.1930    -3.9730     1.3930 C.3   1 <1>   0.1400 
 12 C       -4.2020    -1.2510    -0.0090 C.3   1 <1>  -0.1600 
 13 N       -5.0160    -3.6140     0.2040 N.am  1 <1>  -0.6600 
 14 C       -5.4150    -2.1810     0.1160 C.3   1 <1>   0.1400 
 15 C       -5.2810    -4.4690    -0.8380 C.2   1 <1>   0.5690 
 16 O       -5.5240    -4.0470    -1.9400 O.2   1 <1>  -0.5700 
 17 C       -5.2540    -5.9750    -0.6620 C.3   1 <1>  -0.0990 
 18 C       -6.5390    -6.4690     0.0100 C.3   1 <1>   0.0200 
 19 C       -6.4850    -7.9720     0.2230 C.2   1 <1>  -0.3320 
 20 N       -6.6790    -8.9100    -0.7360 N.pl3 1 <1>   0.3140 
 21 C       -6.2520    -8.6400     1.3740 C.2   1 <1>  -0.1500 
 22 N       -6.5640   -10.1510    -0.2340 N.2   1 <1>  -0.7070 
 23 C       -6.9930    -8.7060    -2.1570 C.3   1 <1>   0.0160 
 24 C       -6.3120    -9.9820     1.0260 C.2   1 <1>   0.1390 
 25 H       -0.2120    -3.2230     1.0360 H     1 <1>   0.0800 
 26 H       -0.5340    -2.9390    -0.6590 H     1 <1>   0.0800 
 27 H        3.2510     1.3950     0.8350 H     1 <1>   0.0800 
 28 H        2.1020     2.7020     0.6590 H     1 <1>   0.0800 
 29 H        2.6400     1.8190    -0.7520 H     1 <1>   0.0800 
 30 H       -2.2950    -1.8990     1.4090 H     1 <1>   0.4500 
 31 H       -2.1350    -4.2460     1.9080 H     1 <1>   0.0800 
 32 H       -2.5060    -4.6280     0.2530 H     1 <1>   0.0800 
 33 H       -3.1750    -2.6620    -1.2770 H     1 <1>   0.0800 
 34 H       -2.3130    -1.1720    -0.9720 H     1 <1>   0.0800 
 35 H       -4.4060    -3.3010     2.2060 H     1 <1>   0.0800 
 36 H       -4.4480    -4.9640     1.7260 H     1 <1>   0.0800 
 37 H       -4.4690    -0.4790    -0.7090 H     1 <1>   0.0800 
 38 H       -4.0140    -0.7550     0.9260 H     1 <1>   0.0800 
 39 H       -6.0540    -2.0380    -0.7410 H     1 <1>   0.0800 
 40 H       -5.9960    -1.9150     0.9830 H     1 <1>   0.0800 
 41 H       -4.3980    -6.2810    -0.0920 H     1 <1>   0.0800 
 42 H       -5.1680    -6.4290    -1.6320 H     1 <1>   0.0800 
 43 H       -7.3950    -6.2100    -0.5890 H     1 <1>   0.0800 
 44 H       -6.6560    -5.9850     0.9650 H     1 <1>   0.0800 
 45 H       -6.0610    -8.2590     2.3610 H     1 <1>   0.1500 
 46 H       -7.6950    -7.9010    -2.2600 H     1 <1>   0.0800 
 47 H       -7.4230    -9.6080    -2.5520 H     1 <1>   0.0800 
 48 H       -6.0890    -8.4800    -2.6890 H     1 <1>   0.0800 
 49 H       -6.1690   -10.7990     1.7140 H     1 <1>   0.1500 
@<TRIPOS>BOND
  1   1   2  1   
  2   1   3  1   
  3   2   4  2   
  4   2   5  1   
  5   3   6  2   
  6   3   7  1   
  7   4   6  1   
  8   5   8  1   
  9   5  25  1   
 10   5  26  1   
 11   7  27  1   
 12   7  28  1   
 13   7  29  1   
 14   8   9  1   
 15   8  10  1   
 16   8  30  1   
 17   9  11  1   
 18   9  31  1   
 19   9  32  1   
 20  10  12  1   
 21  10  33  1   
 22  10  34  1   
 23  11  13  1   
 24  11  35  1   
 25  11  36  1   
 26  12  14  1   
 27  12  37  1   
 28  12  38  1   
 29  13  14  1   
 30  13  15  am  
 31  14  39  1   
 32  14  40  1   
 33  15  16  2   
 34  15  17  1   
 35  17  18  1   
 36  17  41  1   
 37  17  42  1   
 38  18  19  1   
 39  18  43  1   
 40  18  44  1   
 41  19  20  1   
 42  19  21  2   
 43  20  22  1   
 44  20  23  1   
 45  21  24  1   
 46  21  45  1   
 47  22  24  2   
 48  23  46  1   
 49  23  47  1   
 50  23  48  1   
 51  24  49  1   
@<TRIPOS>SUBSTRUCTURE
  1 ****   9 GROUP 4 **** **** 0

# MOE 2024.06 (io_trps.svl 2023.06)
