@<TRIPOS>MOLECULE
NONAME
38 39 1 0 0 
SMALL
USER_CHARGES


@<TRIPOS>ATOM
  1 S       -0.8860    -0.3190     0.5170 S.3   1 <1>  -0.4600 
  2 C       -0.9980    -0.9690    -1.1890 C.3   1 <1>   0.1310 
  3 C       -0.2890     1.3730     0.2790 C.3   1 <1>   0.0700 
  4 C       -1.2420    -2.4750    -1.2190 C.2   1 <1>   0.5690 
  5 C       -0.1960     2.0240     1.6560 C.3   1 <1>  -0.2400 
  6 O       -0.3580    -3.1750    -1.6560 O.2   1 <1>  -0.5700 
  7 N       -2.4360    -3.0100    -0.8100 N.am  1 <1>  -0.6600 
  8 C       -3.5640    -2.2730    -0.1850 C.3   1 <1>   0.1400 
  9 C       -2.6920    -4.4700    -0.7920 C.3   1 <1>   0.1400 
 10 C       -4.5840    -3.3510     0.1850 C.3   1 <1>   0.2000 
 11 C       -3.8010    -4.6600     0.2440 C.3   1 <1>  -0.0800 
 12 O       -5.1720    -3.0970     1.4140 O.3   1 <1>  -0.6800 
 13 C       -4.6900    -5.8920     0.0010 C.3   1 <1>  -0.0170 
 14 C       -3.8950    -7.1850     0.0750 C.ar  1 <1>   0.1670 
 15 N       -3.2880    -7.5700    -1.0370 N.ar  1 <1>  -0.6200 
 16 C       -3.8310    -7.8960     1.2720 C.ar  1 <1>   0.1600 
 17 C       -2.6180    -8.6980    -0.8710 C.ar  1 <1>   0.1600 
 18 N       -3.1620    -9.0250     1.4390 N.ar  1 <1>  -0.6200 
 19 C       -2.5570    -9.4010     0.3260 C.ar  1 <1>   0.1600 
 20 H       -1.7970    -0.4480    -1.6820 H     1 <1>   0.0800 
 21 H       -0.0650    -0.7440    -1.6720 H     1 <1>   0.0800 
 22 H        0.6740     1.3140    -0.1980 H     1 <1>   0.0800 
 23 H       -0.9930     1.8830    -0.3550 H     1 <1>   0.0800 
 24 H        0.4870     1.4740     2.2790 H     1 <1>   0.0800 
 25 H       -1.1640     2.0390     2.1250 H     1 <1>   0.0800 
 26 H        0.1590     3.0340     1.5620 H     1 <1>   0.0800 
 27 H       -3.2180    -1.7650     0.6970 H     1 <1>   0.0800 
 28 H       -3.9860    -1.5710    -0.8820 H     1 <1>   0.0800 
 29 H       -3.0190    -4.7810    -1.7700 H     1 <1>   0.0800 
 30 H       -1.8030    -5.0190    -0.5260 H     1 <1>   0.0800 
 31 H       -5.3600    -3.3910    -0.5610 H     1 <1>   0.0800 
 32 H       -3.3220    -4.7480     1.2040 H     1 <1>   0.0800 
 33 H       -4.4850    -3.0000     2.1030 H     1 <1>   0.4000 
 34 H       -5.1580    -5.8240    -0.9650 H     1 <1>   0.0800 
 35 H       -5.4740    -5.9110     0.7380 H     1 <1>   0.0800 
 36 H       -4.3550    -7.5130     2.1300 H     1 <1>   0.1500 
 37 H       -2.0900    -9.0850    -1.7250 H     1 <1>   0.1500 
 38 H       -1.9840   -10.3110     0.3610 H     1 <1>   0.1500 
@<TRIPOS>BOND
  1   1   2  1   
  2   1   3  1   
  3   2   4  1   
  4   2  20  1   
  5   2  21  1   
  6   3   5  1   
  7   3  22  1   
  8   3  23  1   
  9   4   6  2   
 10   4   7  am  
 11   5  24  1   
 12   5  25  1   
 13   5  26  1   
 14   7   8  1   
 15   7   9  1   
 16   8  10  1   
 17   8  27  1   
 18   8  28  1   
 19   9  11  1   
 20   9  29  1   
 21   9  30  1   
 22  10  11  1   
 23  10  12  1   
 24  10  31  1   
 25  11  13  1   
 26  11  32  1   
 27  12  33  1   
 28  13  14  1   
 29  13  34  1   
 30  13  35  1   
 31  14  15  ar  
 32  14  16  ar  
 33  15  17  ar  
 34  16  18  ar  
 35  16  36  1   
 36  17  19  ar  
 37  17  37  1   
 38  18  19  ar  
 39  19  38  1   
@<TRIPOS>SUBSTRUCTURE
  1 ****   9 GROUP 4 **** **** 0

# MOE 2024.06 (io_trps.svl 2023.06)
