@<TRIPOS>MOLECULE
NONAME
42 43 1 0 0 
SMALL
USER_CHARGES


@<TRIPOS>ATOM
  1 O       -0.8590    -0.3250     0.4260 O.2   1 <1>  -0.5700 
  2 C       -0.5770    -1.4730     0.1420 C.2   1 <1>   0.5440 
  3 N        0.6740    -1.7290    -0.3520 N.am  1 <1>  -0.7300 
  4 C       -1.5490    -2.5310     0.3080 C.ar  1 <1>   0.0860 
  5 C        1.7390    -0.7240    -0.5310 C.3   1 <1>   0.1400 
  6 C       -2.9070    -2.2330     0.4320 C.ar  1 <1>   0.1600 
  7 C       -1.2050    -3.8820     0.3580 C.ar  1 <1>  -0.1500 
  8 C        3.0800    -1.3730    -0.2130 C.3   1 <1>  -0.2400 
  9 N       -3.8900    -3.1070     0.5730 N.ar  1 <1>  -0.6200 
 10 C       -2.2130    -4.8030     0.5080 C.ar  1 <1>  -0.1500 
 11 C       -3.5350    -4.3780     0.6070 C.ar  1 <1>   0.4100 
 12 N       -4.5760    -5.2390     0.7540 N.pl3 1 <1>  -0.8690 
 13 C       -4.6690    -6.5240     0.0400 C.3   1 <1>   0.2090 
 14 C       -6.1180    -7.0040     0.0750 C.3   1 <1>  -0.1600 
 15 C       -6.2750    -8.3560    -0.6310 C.3   1 <1>   0.0210 
 16 C       -7.7120    -8.8320    -0.5610 C.2   1 <1>  -0.1810 
 17 C       -8.7950    -8.3310    -1.2760 C.2   1 <1>   0.1390 
 18 C       -8.2340    -9.8220     0.1920 C.2   1 <1>  -0.3020 
 19 N       -9.8990    -8.9530    -0.9960 N.2   1 <1>  -0.7070 
 20 N       -9.5510    -9.8770    -0.0860 N.pl3 1 <1>   0.3140 
 21 C      -10.5400   -10.7930     0.4910 C.3   1 <1>   0.0160 
 22 H        0.8890    -2.6570    -0.7160 H     1 <1>   0.3700 
 23 H        1.5690     0.1140     0.1270 H     1 <1>   0.0800 
 24 H        1.7270    -0.3680    -1.5480 H     1 <1>   0.0800 
 25 H       -3.1910    -1.1940     0.4090 H     1 <1>   0.1500 
 26 H       -0.1800    -4.1970     0.2920 H     1 <1>   0.1500 
 27 H        3.0880    -1.7260     0.8040 H     1 <1>   0.0800 
 28 H        3.8650    -0.6480    -0.3260 H     1 <1>   0.0800 
 29 H        3.2730    -2.1920    -0.8820 H     1 <1>   0.0800 
 30 H       -1.9960    -5.8520     0.5630 H     1 <1>   0.1500 
 31 H       -5.4620    -4.7300     0.8150 H     1 <1>   0.4000 
 32 H       -4.0300    -7.2440     0.5230 H     1 <1>   0.0800 
 33 H       -4.3440    -6.3940    -0.9790 H     1 <1>   0.0800 
 34 H       -6.7480    -6.2780    -0.4090 H     1 <1>   0.0800 
 35 H       -6.4340    -7.1070     1.0980 H     1 <1>   0.0800 
 36 H       -5.6420    -9.0880    -0.1600 H     1 <1>   0.0800 
 37 H       -5.9820    -8.2740    -1.6630 H     1 <1>   0.0800 
 38 H       -8.7380    -7.5210    -1.9830 H     1 <1>   0.1500 
 39 H       -7.7540   -10.4760     0.8960 H     1 <1>   0.1500 
 40 H      -10.0380   -11.5620     1.0460 H     1 <1>   0.0800 
 41 H      -11.1130   -11.2300    -0.3050 H     1 <1>   0.0800 
 42 H      -11.1910   -10.2370     1.1390 H     1 <1>   0.0800 
@<TRIPOS>BOND
  1   1   2  2   
  2   2   3  am  
  3   2   4  1   
  4   3   5  1   
  5   3  22  1   
  6   4   6  ar  
  7   4   7  ar  
  8   5   8  1   
  9   5  23  1   
 10   5  24  1   
 11   6   9  ar  
 12   6  25  1   
 13   7  10  ar  
 14   7  26  1   
 15   8  27  1   
 16   8  28  1   
 17   8  29  1   
 18   9  11  ar  
 19  10  11  ar  
 20  10  30  1   
 21  11  12  1   
 22  12  13  1   
 23  12  31  1   
 24  13  14  1   
 25  13  32  1   
 26  13  33  1   
 27  14  15  1   
 28  14  34  1   
 29  14  35  1   
 30  15  16  1   
 31  15  36  1   
 32  15  37  1   
 33  16  17  1   
 34  16  18  2   
 35  17  19  2   
 36  17  38  1   
 37  18  20  1   
 38  18  39  1   
 39  19  20  1   
 40  20  21  1   
 41  21  40  1   
 42  21  41  1   
 43  21  42  1   
@<TRIPOS>SUBSTRUCTURE
  1 ****  12 GROUP 4 **** **** 0

# MOE 2024.06 (io_trps.svl 2023.06)
