@<TRIPOS>MOLECULE
NONAME
44 47 1 0 0 
SMALL
USER_CHARGES


@<TRIPOS>ATOM
  1 O       -4.1570     0.5100    -2.0180 O.2   1 <1>  -0.5700 
  2 C       -3.7660    -0.2420    -1.1680 C.2   1 <1>   0.5690 
  3 N       -3.1700     0.2340    -0.0620 N.am  1 <1>  -0.7300 
  4 C       -3.9770    -1.7220    -1.3270 C.3   1 <1>  -0.0190 
  5 C       -2.6550    -0.5830     1.0610 C.3   1 <1>   0.2200 
  6 C       -2.6360    -2.4890    -1.3630 C.3   1 <1>   0.1200 
  7 C       -5.0060    -2.1870    -0.2890 C.3   1 <1>   0.3430 
  8 C       -1.5570    -1.5550     0.5630 C.3   1 <1>   0.1200 
  9 C       -3.8270    -1.2890     1.8000 C.3   1 <1>   0.3430 
 10 O       -2.0780    -2.6850    -0.0910 O.3   1 <1>  -0.5600 
 11 N       -4.4350    -2.4640     1.0750 N.4   1 <1>  -0.9590 
 12 C       -5.3680    -3.2350     1.9340 C.3   1 <1>   0.5240 
 13 C       -5.5490    -4.6100     1.3310 C.2   1 <1>  -0.1810 
 14 C       -6.5950    -4.9890     0.4840 C.2   1 <1>   0.2350 
 15 C       -4.7660    -5.7030     1.4540 C.2   1 <1>  -0.3020 
 16 N       -6.4440    -6.2250     0.0930 N.2   1 <1>  -0.7070 
 17 C       -7.6730    -4.1270     0.0540 C.ar  1 <1>   0.0540 
 18 N       -5.3340    -6.6670     0.7030 N.pl3 1 <1>   0.3000 
 19 C       -7.8790    -3.8800    -1.3000 C.ar  1 <1>  -0.1500 
 20 C       -8.5120    -3.4930     0.9690 C.ar  1 <1>  -0.1500 
 21 C       -8.8530    -2.9970    -1.7280 C.ar  1 <1>  -0.1500 
 22 C       -9.4880    -2.6080     0.5470 C.ar  1 <1>  -0.1500 
 23 C       -9.6540    -2.3520    -0.8020 C.ar  1 <1>  -0.1500 
 24 H       -3.0080     1.2470    -0.0400 H     1 <1>   0.3700 
 25 H       -4.4320    -1.8500    -2.2930 H     1 <1>   0.0800 
 26 H       -2.1940     0.1000     1.7550 H     1 <1>   0.0800 
 27 H       -1.9170    -1.9780    -1.9830 H     1 <1>   0.0800 
 28 H       -2.7970    -3.4670    -1.7840 H     1 <1>   0.0800 
 29 H       -5.4390    -3.0970    -0.6690 H     1 <1>   0.0800 
 30 H       -5.7990    -1.4590    -0.2180 H     1 <1>   0.0800 
 31 H       -1.0000    -1.9210     1.4080 H     1 <1>   0.0800 
 32 H       -0.8660    -1.0540    -0.0950 H     1 <1>   0.0800 
 33 H       -4.5900    -0.5570     2.0090 H     1 <1>   0.0800 
 34 H       -3.4460    -1.6370     2.7450 H     1 <1>   0.0800 
 35 H       -3.6330    -3.0930     0.8720 H     1 <1>   0.4500 
 36 H       -4.9530    -3.3430     2.9230 H     1 <1>   0.0800 
 37 H       -6.3150    -2.7260     2.0120 H     1 <1>   0.0800 
 38 H       -3.8590    -5.8640     2.0090 H     1 <1>   0.1500 
 39 H       -4.9890    -7.6300     0.5810 H     1 <1>   0.2700 
 40 H       -7.2700    -4.3970    -2.0230 H     1 <1>   0.1500 
 41 H       -8.4110    -3.7040     2.0180 H     1 <1>   0.1500 
 42 H       -8.9960    -2.8150    -2.7800 H     1 <1>   0.1500 
 43 H      -10.1290    -2.1230     1.2650 H     1 <1>   0.1500 
 44 H      -10.4140    -1.6650    -1.1330 H     1 <1>   0.1500 
@<TRIPOS>BOND
  1   1   2  2   
  2   2   3  am  
  3   2   4  1   
  4   3   5  1   
  5   3  24  1   
  6   4   6  1   
  7   4   7  1   
  8   4  25  1   
  9   5   8  1   
 10   5   9  1   
 11   5  26  1   
 12   6  10  1   
 13   6  27  1   
 14   6  28  1   
 15   7  11  1   
 16   7  29  1   
 17   7  30  1   
 18   8  10  1   
 19   8  31  1   
 20   8  32  1   
 21   9  11  1   
 22   9  33  1   
 23   9  34  1   
 24  11  12  1   
 25  11  35  1   
 26  12  13  1   
 27  12  36  1   
 28  12  37  1   
 29  13  14  1   
 30  13  15  2   
 31  14  16  2   
 32  14  17  1   
 33  15  18  1   
 34  15  38  1   
 35  16  18  1   
 36  17  19  ar  
 37  17  20  ar  
 38  18  39  1   
 39  19  21  ar  
 40  19  40  1   
 41  20  22  ar  
 42  20  41  1   
 43  21  23  ar  
 44  21  42  1   
 45  22  23  ar  
 46  22  43  1   
 47  23  44  1   
@<TRIPOS>SUBSTRUCTURE
  1 ****   7 GROUP 4 **** **** 0

# MOE 2024.06 (io_trps.svl 2023.06)
