@<TRIPOS>MOLECULE
NONAME
42 43 1 0 0 
SMALL
USER_CHARGES


@<TRIPOS>ATOM
  1 CL       1.9630     0.8230    -2.1510 Cl    1 <1>  -0.1770 
  2 C        2.3470    -0.3030    -0.8720 C.ar  1 <1>   0.1770 
  3 C        2.9290     0.1500     0.3100 C.ar  1 <1>   0.0860 
  4 C        2.0580    -1.6390    -1.0830 C.ar  1 <1>  -0.1500 
  5 C        3.2420     1.5420     0.5320 C.2   1 <1>   0.5440 
  6 C        3.2000    -0.8030     1.2920 C.ar  1 <1>  -0.1500 
  7 C        2.3470    -2.5650    -0.0960 C.ar  1 <1>  -0.1500 
  8 O        2.6140     2.1590     1.3720 O.2   1 <1>  -0.5700 
  9 N        4.2660     2.1800    -0.1360 N.am  1 <1>  -0.6600 
 10 C        2.9170    -2.1430     1.0930 C.ar  1 <1>  -0.1500 
 11 C        5.2500     1.4980    -1.0360 C.3   1 <1>   0.1400 
 12 C        4.4990     3.6410     0.0250 C.3   1 <1>   0.1400 
 13 C        6.6070     1.2700    -0.3500 C.3   1 <1>   0.1400 
 14 C        5.3670     3.9390     1.2550 C.3   1 <1>  -0.1600 
 15 N        7.1690     2.5270     0.2390 N.am  1 <1>  -0.6600 
 16 C        6.5120     2.9490     1.5090 C.3   1 <1>   0.1400 
 17 C        8.1740     3.2190    -0.3910 C.2   1 <1>   0.5690 
 18 O        8.6150     2.8530    -1.4590 O.2   1 <1>  -0.5700 
 19 C        8.7570     4.4930     0.2370 C.3   1 <1>   0.2010 
 20 N        9.9120     5.0460    -0.5250 N.am  1 <1>  -0.7300 
 21 C       10.8770     5.7970     0.0290 C.2   1 <1>   0.6900 
 22 O       10.7900     6.2100     1.1640 O.2   1 <1>  -0.5700 
 23 N       11.9520     6.0950    -0.7000 N.am  1 <1>  -0.8000 
 24 H        1.6100    -1.9480    -2.0100 H     1 <1>   0.1500 
 25 H        3.6340    -0.4780     2.2230 H     1 <1>   0.1500 
 26 H        2.1250    -3.6080    -0.2500 H     1 <1>   0.1500 
 27 H        3.1360    -2.8610     1.8660 H     1 <1>   0.1500 
 28 H        5.4010     2.0970    -1.9180 H     1 <1>   0.0800 
 29 H        4.8670     0.5500    -1.3650 H     1 <1>   0.0800 
 30 H        3.5540     4.1500     0.1180 H     1 <1>   0.0800 
 31 H        4.9860     4.0210    -0.8570 H     1 <1>   0.0800 
 32 H        7.2940     0.8640    -1.0730 H     1 <1>   0.0800 
 33 H        6.4920     0.5320     0.4240 H     1 <1>   0.0800 
 34 H        4.7310     3.9430     2.1220 H     1 <1>   0.0800 
 35 H        5.7630     4.9320     1.1610 H     1 <1>   0.0800 
 36 H        6.1100     2.0790     2.0000 H     1 <1>   0.0800 
 37 H        7.2320     3.3840     2.1810 H     1 <1>   0.0800 
 38 H        9.0780     4.2710     1.2390 H     1 <1>   0.0800 
 39 H        7.9890     5.2420     0.2830 H     1 <1>   0.0800 
 40 H       10.1100     4.5230    -1.3820 H     1 <1>   0.3700 
 41 H       12.6360     6.7360    -0.3010 H     1 <1>   0.3700 
 42 H       11.9820     5.9440    -1.7040 H     1 <1>   0.3700 
@<TRIPOS>BOND
  1   1   2  1   
  2   2   3  ar  
  3   2   4  ar  
  4   3   5  1   
  5   3   6  ar  
  6   4   7  ar  
  7   4  24  1   
  8   5   8  2   
  9   5   9  am  
 10   6  10  ar  
 11   6  25  1   
 12   7  10  ar  
 13   7  26  1   
 14   9  11  1   
 15   9  12  1   
 16  10  27  1   
 17  11  13  1   
 18  11  28  1   
 19  11  29  1   
 20  12  14  1   
 21  12  30  1   
 22  12  31  1   
 23  13  15  1   
 24  13  32  1   
 25  13  33  1   
 26  14  16  1   
 27  14  34  1   
 28  14  35  1   
 29  15  16  1   
 30  15  17  am  
 31  16  36  1   
 32  16  37  1   
 33  17  18  2   
 34  17  19  1   
 35  19  20  1   
 36  19  38  1   
 37  19  39  1   
 38  20  21  am  
 39  20  40  1   
 40  21  22  2   
 41  21  23  am  
 42  23  41  1   
 43  23  42  1   
@<TRIPOS>SUBSTRUCTURE
  1 ****  13 GROUP 4 **** **** 0

# MOE 2024.06 (io_trps.svl 2023.06)
