@<TRIPOS>MOLECULE
NONAME
50 52 1 0 0 
SMALL
USER_CHARGES


@<TRIPOS>ATOM
  1 S       -0.3170    -0.5600    -1.0800 S.o2  1 <1>   1.4470 
  2 O       -0.9790    -1.8080    -1.3990 O.2   1 <1>  -0.6500 
  3 O       -0.3040     0.5070    -2.0600 O.2   1 <1>  -0.6500 
  4 N       -1.0040     0.0340     0.3570 N.am  1 <1>  -0.8490 
  5 C        1.3840    -0.9250    -0.5650 C.ar  1 <1>  -0.0090 
  6 C       -2.3930    -0.3610     0.6530 C.3   1 <1>   0.1960 
  7 C       -0.7040     1.4270     0.6920 C.3   1 <1>   0.1960 
  8 C        1.6400    -1.8110     0.4740 C.ar  1 <1>  -0.1500 
  9 C        2.4750    -0.3270    -1.1870 C.ar  1 <1>  -0.1500 
 10 C       -3.4590     0.5510     0.0030 C.3   1 <1>   0.0000 
 11 C       -1.6980     2.4070     0.0540 C.3   1 <1>  -0.1600 
 12 C        2.9340    -2.0890     0.8820 C.ar  1 <1>  -0.1500 
 13 C        3.7710    -0.6000    -0.7850 C.ar  1 <1>  -0.1500 
 14 C       -4.8620     0.0950     0.4500 C.3   1 <1>   0.2000 
 15 C       -3.1560     2.0310     0.3640 C.3   1 <1>  -0.1600 
 16 C       -3.5780     0.3760    -1.5230 C.3   1 <1>  -0.1600 
 17 C        4.0090    -1.4830     0.2550 C.ar  1 <1>  -0.1430 
 18 O       -5.2150     0.5620     1.7020 O.3   1 <1>  -0.6800 
 19 C       -5.8420     0.6080    -0.6020 C.3   1 <1>  -0.1600 
 20 C       -5.0170     0.7630    -1.8860 C.3   1 <1>  -0.1600 
 21 C        5.4310    -1.7850     0.6990 C.3   1 <1>  -0.0170 
 22 C        6.0000    -2.9740    -0.0840 C.3   1 <1>  -0.1600 
 23 C        7.4340    -3.2990     0.3450 C.3   1 <1>  -0.2400 
 24 H       -2.5590    -1.3860     0.3700 H     1 <1>   0.0800 
 25 H       -2.5260    -0.3120     1.7210 H     1 <1>   0.0800 
 26 H       -0.7550     1.5340     1.7630 H     1 <1>   0.0800 
 27 H        0.3010     1.6710     0.3890 H     1 <1>   0.0800 
 28 H        0.8120    -2.2890     0.9700 H     1 <1>   0.1500 
 29 H        2.3080     0.3620    -1.9980 H     1 <1>   0.1500 
 30 H       -1.5010     3.3940     0.4330 H     1 <1>   0.0800 
 31 H       -1.5390     2.4470    -1.0080 H     1 <1>   0.0800 
 32 H        3.0990    -2.7820     1.6890 H     1 <1>   0.1500 
 33 H        4.5950    -0.1230    -1.2870 H     1 <1>   0.1500 
 34 H       -4.9050    -0.9820     0.4760 H     1 <1>   0.0800 
 35 H       -3.8190     2.6960    -0.1590 H     1 <1>   0.0800 
 36 H       -3.3030     2.1820     1.4190 H     1 <1>   0.0800 
 37 H       -2.8690     0.9600    -2.0800 H     1 <1>   0.0800 
 38 H       -3.4300    -0.6600    -1.7780 H     1 <1>   0.0800 
 39 H       -5.2800     1.5350     1.6790 H     1 <1>   0.4000 
 40 H       -6.6430    -0.0970    -0.7420 H     1 <1>   0.0800 
 41 H       -6.2480     1.5630    -0.3200 H     1 <1>   0.0800 
 42 H       -5.3920     0.1340    -2.6750 H     1 <1>   0.0800 
 43 H       -5.0490     1.7870    -2.2170 H     1 <1>   0.0800 
 44 H        6.0490    -0.9180     0.5430 H     1 <1>   0.0800 
 45 H        5.4400    -2.0060     1.7520 H     1 <1>   0.0800 
 46 H        5.3750    -3.8360     0.0760 H     1 <1>   0.0800 
 47 H        5.9840    -2.7470    -1.1360 H     1 <1>   0.0800 
 48 H        7.4680    -3.5520     1.3900 H     1 <1>   0.0800 
 49 H        8.0810    -2.4560     0.1710 H     1 <1>   0.0800 
 50 H        7.8060    -4.1350    -0.2200 H     1 <1>   0.0800 
@<TRIPOS>BOND
  1   1   2  2   
  2   1   3  2   
  3   1   4  am  
  4   1   5  1   
  5   4   6  1   
  6   4   7  1   
  7   5   8  ar  
  8   5   9  ar  
  9   6  10  1   
 10   6  24  1   
 11   6  25  1   
 12   7  11  1   
 13   7  26  1   
 14   7  27  1   
 15   8  12  ar  
 16   8  28  1   
 17   9  13  ar  
 18   9  29  1   
 19  10  14  1   
 20  10  15  1   
 21  10  16  1   
 22  11  15  1   
 23  11  30  1   
 24  11  31  1   
 25  12  17  ar  
 26  12  32  1   
 27  13  17  ar  
 28  13  33  1   
 29  14  18  1   
 30  14  19  1   
 31  14  34  1   
 32  15  35  1   
 33  15  36  1   
 34  16  20  1   
 35  16  37  1   
 36  16  38  1   
 37  17  21  1   
 38  18  39  1   
 39  19  20  1   
 40  19  40  1   
 41  19  41  1   
 42  20  42  1   
 43  20  43  1   
 44  21  22  1   
 45  21  44  1   
 46  21  45  1   
 47  22  23  1   
 48  22  46  1   
 49  22  47  1   
 50  23  48  1   
 51  23  49  1   
 52  23  50  1   
@<TRIPOS>SUBSTRUCTURE
  1 ****   1 GROUP 4 **** **** 0

# MOE 2024.06 (io_trps.svl 2023.06)
