@<TRIPOS>MOLECULE
NONAME
52 54 1 0 0 
SMALL
USER_CHARGES


@<TRIPOS>ATOM
  1 O        0.3520     0.3230    -0.9790 O.2   1 <1>  -0.5700 
  2 C       -0.7400     0.8170    -0.8470 C.2   1 <1>   0.5690 
  3 N       -1.8940     0.1140    -0.6450 N.am  1 <1>  -0.5470 
  4 C       -0.8330     2.3270    -0.8730 C.3   1 <1>  -0.0990 
  5 C       -2.1380    -1.2660    -0.5640 C.ar  1 <1>   0.1170 
  6 C       -0.4500     2.9210     0.4910 C.3   1 <1>  -0.0990 
  7 C       -3.3320    -1.6900     0.0150 C.ar  1 <1>  -0.1500 
  8 C       -1.2520    -2.2300    -1.0470 C.ar  1 <1>  -0.1500 
  9 C       -0.5280     4.4320     0.4680 C.2   1 <1>   0.5690 
 10 C       -3.6160    -3.0390     0.1060 C.ar  1 <1>  -0.1430 
 11 C       -1.5410    -3.5820    -0.9520 C.ar  1 <1>  -0.1500 
 12 O       -1.6140     4.9400     0.5980 O.2   1 <1>  -0.5700 
 13 N        0.6340     5.1280     0.2920 N.am  1 <1>  -0.4940 
 14 C       -2.7320    -3.9730    -0.3700 C.ar  1 <1>  -0.1430 
 15 C       -4.8400    -3.6950     0.6930 C.3   1 <1>  -0.0170 
 16 C        0.9080     6.5180     0.2710 C.2   1 <1>  -0.0880 
 17 C       -3.2480    -5.3750    -0.1630 C.3   1 <1>  -0.0160 
 18 C       -4.4420    -5.1780     0.7870 C.3   1 <1>  -0.1600 
 19 N        0.1020     7.5300    -0.1630 N.pl3 1 <1>   0.3140 
 20 C        2.0660     7.1020     0.6660 C.2   1 <1>  -0.1810 
 21 N        0.7170     8.7280    -0.0580 N.2   1 <1>  -0.7070 
 22 C       -1.2290     7.4600    -0.7790 C.3   1 <1>   0.0160 
 23 C        1.8830     8.4640     0.4400 C.2   1 <1>   0.1080 
 24 C        3.3130     6.4510     1.2390 C.3   1 <1>  -0.0590 
 25 C        2.8970     9.5590     0.7200 C.3   1 <1>   0.0210 
 26 C        3.8170     9.7840    -0.4840 C.3   1 <1>  -0.2400 
 27 H       -2.7200     0.6860    -0.4890 H     1 <1>   0.3700 
 28 H       -1.8300     2.6290    -1.1390 H     1 <1>   0.0800 
 29 H       -0.1640     2.6950    -1.6300 H     1 <1>   0.0800 
 30 H        0.5430     2.6090     0.7590 H     1 <1>   0.0800 
 31 H       -1.1230     2.5570     1.2470 H     1 <1>   0.0800 
 32 H       -4.0350    -0.9740     0.3950 H     1 <1>   0.1500 
 33 H       -0.3280    -1.9310    -1.5050 H     1 <1>   0.1500 
 34 H       -0.8490    -4.3150    -1.3260 H     1 <1>   0.1500 
 35 H        1.4730     4.5510     0.2550 H     1 <1>   0.3700 
 36 H       -5.6720    -3.5670     0.0230 H     1 <1>   0.0800 
 37 H       -5.0820    -3.2890     1.6600 H     1 <1>   0.0800 
 38 H       -2.4970    -6.0120     0.2700 H     1 <1>   0.0800 
 39 H       -3.5730    -5.7790    -1.1060 H     1 <1>   0.0800 
 40 H       -5.2610    -5.8290     0.5390 H     1 <1>   0.0800 
 41 H       -4.1200    -5.3860     1.7920 H     1 <1>   0.0800 
 42 H       -1.2880     6.5910    -1.4050 H     1 <1>   0.0800 
 43 H       -1.3910     8.3420    -1.3690 H     1 <1>   0.0800 
 44 H       -1.9680     7.4050    -0.0030 H     1 <1>   0.0800 
 45 H        3.1840     5.3890     1.3350 H     1 <1>   0.0800 
 46 H        3.5200     6.8570     2.2130 H     1 <1>   0.0800 
 47 H        4.1530     6.6410     0.5960 H     1 <1>   0.0800 
 48 H        3.4800     9.3000     1.5850 H     1 <1>   0.0800 
 49 H        2.3670    10.4680     0.9410 H     1 <1>   0.0800 
 50 H        4.3600     8.8850    -0.7130 H     1 <1>   0.0800 
 51 H        4.5160    10.5730    -0.2760 H     1 <1>   0.0800 
 52 H        3.2280    10.0570    -1.3420 H     1 <1>   0.0800 
@<TRIPOS>BOND
  1   1   2  2   
  2   2   3  am  
  3   2   4  1   
  4   3   5  1   
  5   3  27  1   
  6   4   6  1   
  7   4  28  1   
  8   4  29  1   
  9   5   7  ar  
 10   5   8  ar  
 11   6   9  1   
 12   6  30  1   
 13   6  31  1   
 14   7  10  ar  
 15   7  32  1   
 16   8  11  ar  
 17   8  33  1   
 18   9  12  2   
 19   9  13  am  
 20  10  14  ar  
 21  10  15  1   
 22  11  14  ar  
 23  11  34  1   
 24  13  16  1   
 25  13  35  1   
 26  14  17  1   
 27  15  18  1   
 28  15  36  1   
 29  15  37  1   
 30  16  19  1   
 31  16  20  2   
 32  17  18  1   
 33  17  38  1   
 34  17  39  1   
 35  18  40  1   
 36  18  41  1   
 37  19  21  1   
 38  19  22  1   
 39  20  23  1   
 40  20  24  1   
 41  21  23  2   
 42  22  42  1   
 43  22  43  1   
 44  22  44  1   
 45  23  25  1   
 46  24  45  1   
 47  24  46  1   
 48  24  47  1   
 49  25  26  1   
 50  25  48  1   
 51  25  49  1   
 52  26  50  1   
 53  26  51  1   
 54  26  52  1   
@<TRIPOS>SUBSTRUCTURE
  1 ****   6 GROUP 4 **** **** 0

# MOE 2024.06 (io_trps.svl 2023.06)
