@<TRIPOS>MOLECULE
NONAME
47 48 1 0 0 
SMALL
USER_CHARGES


@<TRIPOS>ATOM
  1 O        0.5370     0.3900    -0.3940 O.3   1 <1>  -0.5600 
  2 C        1.7490     0.6520     0.2360 C.3   1 <1>   0.1200 
  3 C       -0.3620     1.4060    -0.1150 C.3   1 <1>   0.1200 
  4 C        1.8430     2.1750     0.3850 C.3   1 <1>  -0.0800 
  5 C        0.4840     2.6670    -0.1050 C.3   1 <1>  -0.1600 
  6 C        3.0260     2.7710    -0.4000 C.3   1 <1>  -0.1600 
  7 C        3.1510     4.2910    -0.2050 C.3   1 <1>  -0.1600 
  8 C        4.3570     4.8500    -0.9570 C.3   1 <1>   0.2090 
  9 N        4.4160     6.3140    -0.7340 N.pl3 1 <1>  -0.8690 
 10 C        5.5000     7.0550    -0.4130 C.ar  1 <1>   0.4100 
 11 N        6.6540     6.4280    -0.3310 N.ar  1 <1>  -0.6200 
 12 C        5.3730     8.4490    -0.1890 C.ar  1 <1>  -0.1440 
 13 C        7.7330     7.1350    -0.0450 C.ar  1 <1>   0.7710 
 14 C        6.5080     9.1530     0.0890 C.ar  1 <1>   0.2180 
 15 C        3.9780     9.0820    -0.2610 C.3   1 <1>  -0.0970 
 16 N        7.6670     8.4580     0.1610 N.ar  1 <1>  -0.1790 
 17 N        8.9430     6.5130     0.0450 N.pl3 1 <1>  -0.8380 
 18 C        6.6010    10.6550     0.3330 C.3   1 <1>  -0.0970 
 19 C       10.2880     7.1640     0.1470 C.3   1 <1>   0.1290 
 20 C        9.0490     5.0170    -0.0260 C.3   1 <1>   0.1290 
 21 H        2.5400     0.2400    -0.3670 H     1 <1>   0.0800 
 22 H        1.7350     0.1690     1.1980 H     1 <1>   0.0800 
 23 H       -0.7950     1.2130     0.8520 H     1 <1>   0.0800 
 24 H       -1.1270     1.4210    -0.8720 H     1 <1>   0.0800 
 25 H        1.9610     2.4010     1.4320 H     1 <1>   0.0800 
 26 H        0.0620     3.4230     0.5330 H     1 <1>   0.0800 
 27 H        0.5430     3.0430    -1.1110 H     1 <1>   0.0800 
 28 H        2.9080     2.5460    -1.4470 H     1 <1>   0.0800 
 29 H        3.9340     2.3000    -0.0650 H     1 <1>   0.0800 
 30 H        3.2640     4.5060     0.8430 H     1 <1>   0.0800 
 31 H        2.2600     4.7750    -0.5630 H     1 <1>   0.0800 
 32 H        4.2600     4.6560    -2.0120 H     1 <1>   0.0800 
 33 H        5.2570     4.3750    -0.6040 H     1 <1>   0.0800 
 34 H        3.5150     6.7770    -0.8700 H     1 <1>   0.4000 
 35 H        3.2820     8.5080     0.3260 H     1 <1>   0.0800 
 36 H        3.6340     9.0990    -1.2810 H     1 <1>   0.0800 
 37 H        3.9520    10.0840     0.1220 H     1 <1>   0.0800 
 38 H        8.5460     8.8960     0.3990 H     1 <1>   0.4570 
 39 H        5.8070    11.1850    -0.1600 H     1 <1>   0.0800 
 40 H        7.5250    11.0480    -0.0520 H     1 <1>   0.0800 
 41 H        6.5490    10.8620     1.3870 H     1 <1>   0.0800 
 42 H       10.2600     8.1960    -0.1560 H     1 <1>   0.0800 
 43 H       10.9870     6.6560    -0.4980 H     1 <1>   0.0800 
 44 H       10.6510     7.0970     1.1590 H     1 <1>   0.0800 
 45 H        8.1310     4.5420     0.2740 H     1 <1>   0.0800 
 46 H        9.8290     4.6660     0.6290 H     1 <1>   0.0800 
 47 H        9.2790     4.7160    -1.0340 H     1 <1>   0.0800 
@<TRIPOS>BOND
  1   1   2  1   
  2   1   3  1   
  3   2   4  1   
  4   2  21  1   
  5   2  22  1   
  6   3   5  1   
  7   3  23  1   
  8   3  24  1   
  9   4   5  1   
 10   4   6  1   
 11   4  25  1   
 12   5  26  1   
 13   5  27  1   
 14   6   7  1   
 15   6  28  1   
 16   6  29  1   
 17   7   8  1   
 18   7  30  1   
 19   7  31  1   
 20   8   9  1   
 21   8  32  1   
 22   8  33  1   
 23   9  10  1   
 24   9  34  1   
 25  10  11  ar  
 26  10  12  ar  
 27  11  13  ar  
 28  12  14  ar  
 29  12  15  1   
 30  13  16  ar  
 31  13  17  1   
 32  14  16  ar  
 33  14  18  1   
 34  15  35  1   
 35  15  36  1   
 36  15  37  1   
 37  16  38  1   
 38  17  19  1   
 39  17  20  1   
 40  18  39  1   
 41  18  40  1   
 42  18  41  1   
 43  19  42  1   
 44  19  43  1   
 45  19  44  1   
 46  20  45  1   
 47  20  46  1   
 48  20  47  1   
@<TRIPOS>SUBSTRUCTURE
  1 ****   9 GROUP 4 **** **** 0

# MOE 2024.06 (io_trps.svl 2023.06)
