@<TRIPOS>MOLECULE
NONAME
53 54 1 0 0 
SMALL
USER_CHARGES


@<TRIPOS>ATOM
  1 O       -0.3970    -0.1570    -0.0770 O.2   1 <1>  -0.5700 
  2 C       -1.3960     0.4800    -0.3070 C.2   1 <1>   0.5690 
  3 N       -2.6180    -0.1060    -0.4020 N.am  1 <1>  -0.7300 
  4 C       -1.2800     1.9930    -0.4780 C.3   1 <1>  -0.0190 
  5 C       -2.8770    -1.5600    -0.2680 C.3   1 <1>   0.1400 
  6 C       -2.1010     2.7580     0.5790 C.3   1 <1>  -0.1600 
  7 C       -1.6430     2.4470    -1.9130 C.3   1 <1>  -0.1600 
  8 C       -3.4380    -1.8610     1.1200 C.3   1 <1>  -0.0170 
  9 C       -1.8500     4.2790     0.5150 C.3   1 <1>   0.2000 
 10 C       -2.0600     3.9280    -2.0070 C.3   1 <1>  -0.1600 
 11 C       -3.7420    -3.3490     1.2560 C.ar  1 <1>  -0.1430 
 12 O       -3.0400     4.9300     0.8870 O.3   1 <1>  -0.5600 
 13 C       -1.4210     4.7640    -0.8960 C.3   1 <1>   0.2000 
 14 C       -4.9010    -3.8990     0.7120 C.ar  1 <1>   0.0820 
 15 C       -2.8450    -4.1650     1.9270 C.ar  1 <1>  -0.1500 
 16 C       -3.2510     5.0370     2.2610 C.3   1 <1>   0.0400 
 17 O       -1.8170     6.0750    -1.0660 O.3   1 <1>  -0.6800 
 18 O       -5.7470    -3.0640     0.0510 O.3   1 <1>  -0.3630 
 19 C       -5.1470    -5.2630     0.8570 C.ar  1 <1>  -0.1500 
 20 C       -3.0950    -5.5190     2.0670 C.ar  1 <1>  -0.1500 
 21 C       -6.9500    -3.5270    -0.5170 C.3   1 <1>   0.1200 
 22 C       -4.2470    -6.0670     1.5320 C.ar  1 <1>  -0.1500 
 23 C       -7.6550    -2.3380    -1.1720 C.3   1 <1>  -0.1600 
 24 C       -8.9810    -2.7610    -1.8150 C.3   1 <1>  -0.2400 
 25 H       -3.4400     0.4730    -0.5740 H     1 <1>   0.3700 
 26 H       -0.2450     2.2380    -0.3120 H     1 <1>   0.0800 
 27 H       -3.5770    -1.8700    -1.0240 H     1 <1>   0.0800 
 28 H       -1.9620    -2.1100    -0.4120 H     1 <1>   0.0800 
 29 H       -1.8420     2.3980     1.5590 H     1 <1>   0.0800 
 30 H       -3.1460     2.5630     0.4100 H     1 <1>   0.0800 
 31 H       -0.7880     2.2760    -2.5450 H     1 <1>   0.0800 
 32 H       -2.4470     1.8480    -2.3050 H     1 <1>   0.0800 
 33 H       -2.7180    -1.5660     1.8620 H     1 <1>   0.0800 
 34 H       -4.3380    -1.2960     1.2820 H     1 <1>   0.0800 
 35 H       -1.0700     4.5560     1.2050 H     1 <1>   0.0800 
 36 H       -3.1300     3.9980    -1.9120 H     1 <1>   0.0800 
 37 H       -1.7800     4.3220    -2.9690 H     1 <1>   0.0800 
 38 H       -0.3490     4.7280    -0.9940 H     1 <1>   0.0800 
 39 H       -1.9440    -3.7510     2.3450 H     1 <1>   0.1500 
 40 H       -4.1830     5.5510     2.4170 H     1 <1>   0.0800 
 41 H       -2.4490     5.6040     2.7010 H     1 <1>   0.0800 
 42 H       -3.3050     4.0540     2.6960 H     1 <1>   0.0800 
 43 H       -2.6290     6.1810    -0.5190 H     1 <1>   0.4000 
 44 H       -6.0300    -5.7190     0.4530 H     1 <1>   0.1500 
 45 H       -2.3930    -6.1440     2.5900 H     1 <1>   0.1500 
 46 H       -6.7140    -4.2790    -1.2490 H     1 <1>   0.0800 
 47 H       -7.5580    -3.9440     0.2670 H     1 <1>   0.0800 
 48 H       -4.4400    -7.1200     1.6420 H     1 <1>   0.1500 
 49 H       -7.8470    -1.5870    -0.4260 H     1 <1>   0.0800 
 50 H       -7.0130    -1.9190    -1.9270 H     1 <1>   0.0800 
 51 H       -9.6460    -3.1690    -1.0740 H     1 <1>   0.0800 
 52 H       -8.8120    -3.5020    -2.5770 H     1 <1>   0.0800 
 53 H       -9.4570    -1.9090    -2.2680 H     1 <1>   0.0800 
@<TRIPOS>BOND
  1   1   2  2   
  2   2   3  am  
  3   2   4  1   
  4   3   5  1   
  5   3  25  1   
  6   4   6  1   
  7   4   7  1   
  8   4  26  1   
  9   5   8  1   
 10   5  27  1   
 11   5  28  1   
 12   6   9  1   
 13   6  29  1   
 14   6  30  1   
 15   7  10  1   
 16   7  31  1   
 17   7  32  1   
 18   8  11  1   
 19   8  33  1   
 20   8  34  1   
 21   9  12  1   
 22   9  13  1   
 23   9  35  1   
 24  10  13  1   
 25  10  36  1   
 26  10  37  1   
 27  11  14  ar  
 28  11  15  ar  
 29  12  16  1   
 30  13  17  1   
 31  13  38  1   
 32  14  18  1   
 33  14  19  ar  
 34  15  20  ar  
 35  15  39  1   
 36  16  40  1   
 37  16  41  1   
 38  16  42  1   
 39  17  43  1   
 40  18  21  1   
 41  19  22  ar  
 42  19  44  1   
 43  20  22  ar  
 44  20  45  1   
 45  21  23  1   
 46  21  46  1   
 47  21  47  1   
 48  22  48  1   
 49  23  24  1   
 50  23  49  1   
 51  23  50  1   
 52  24  51  1   
 53  24  52  1   
 54  24  53  1   
@<TRIPOS>SUBSTRUCTURE
  1 ****   3 GROUP 4 **** **** 0

# MOE 2024.06 (io_trps.svl 2023.06)
