@<TRIPOS>MOLECULE
NONAME
54 58 1 0 0 
SMALL
USER_CHARGES


@<TRIPOS>ATOM
  1 O        0.1640     0.7860     1.0570 O.2   1 <1>  -0.5700 
  2 C       -0.3420     1.6470     0.3770 C.2   1 <1>   0.5690 
  3 N       -1.6780     1.6170     0.0650 N.am  1 <1>  -0.6600 
  4 C        0.5550     2.7770    -0.1110 C.3   1 <1>   0.0690 
  5 C       -2.4660     2.7470    -0.5320 C.3   1 <1>   0.1400 
  6 C       -2.5070     0.4040     0.3460 C.3   1 <1>   0.1400 
  7 C        2.0330     2.4190    -0.2590 C.2   1 <1>   0.1820 
  8 C       -3.6500     3.1470     0.3710 C.3   1 <1>   0.1440 
  9 C       -3.6940     0.7610     1.2480 C.3   1 <1>  -0.1600 
 10 N        2.9770     3.3830    -0.5830 N.pl3 1 <1>  -0.6290 
 11 C        2.6830     1.2390    -0.1380 C.2   1 <1>   0.2000 
 12 C       -4.4190     4.2520    -0.3280 C.ar  1 <1>   0.1670 
 13 C       -4.5280     1.9120     0.6590 C.3   1 <1>  -0.1600 
 14 C       -3.1780     3.8360     1.6820 C.3   1 <1>  -0.1600 
 15 C        4.1830     2.7620    -0.6420 C.cat 1 <1>   0.7910 
 16 C        2.8910     4.7380    -0.8260 C.2   1 <1>   0.2290 
 17 N        4.0110     1.4590    -0.3760 N.pl3 1 <1>  -0.7000 
 18 N       -5.1410     4.1010    -1.4150 N.ar  1 <1>  -0.6200 
 19 C       -4.2540     5.4540     0.2910 C.ar  1 <1>  -0.1440 
 20 C       -3.3550     5.3550     1.4970 C.3   1 <1>  -0.0170 
 21 C        5.3630     3.4770    -0.9470 C.2   1 <1>  -0.1290 
 22 C        4.0140     5.4530    -1.1230 C.2   1 <1>  -0.1500 
 23 C       -5.7140     5.2140    -1.8510 C.ar  1 <1>   0.4770 
 24 C       -4.8920     6.5440    -0.2480 C.ar  1 <1>   0.1600 
 25 C        5.2720     4.8230    -1.1870 C.2   1 <1>  -0.1500 
 26 C        6.7090     2.7630    -1.0070 C.3   1 <1>  -0.1020 
 27 N       -5.6320     6.4320    -1.3310 N.ar  1 <1>  -0.6200 
 28 C       -6.5690     5.0860    -3.0890 C.3   1 <1>  -0.0970 
 29 H        0.4600     3.5880     0.5850 H     1 <1>   0.0800 
 30 H        0.2130     3.1060    -1.0730 H     1 <1>   0.0800 
 31 H       -2.8500     2.4310    -1.4880 H     1 <1>   0.0800 
 32 H       -1.8560     3.6140    -0.6960 H     1 <1>   0.0800 
 33 H       -1.9190    -0.3650     0.8190 H     1 <1>   0.0800 
 34 H       -2.8710     0.0090    -0.5880 H     1 <1>   0.0800 
 35 H       -3.3240     1.0260     2.2230 H     1 <1>   0.0800 
 36 H       -4.3170    -0.1080     1.3650 H     1 <1>   0.0800 
 37 H        2.2920     0.2600     0.1010 H     1 <1>   0.1500 
 38 H       -4.9760     1.5790    -0.2620 H     1 <1>   0.0800 
 39 H       -5.3290     2.1720     1.3280 H     1 <1>   0.0800 
 40 H       -2.1650     3.5840     1.9390 H     1 <1>   0.0800 
 41 H       -3.8100     3.5290     2.4970 H     1 <1>   0.0800 
 42 H        1.9220     5.2100    -0.7740 H     1 <1>   0.1500 
 43 H        4.7590     0.7640    -0.3470 H     1 <1>   0.4500 
 44 H       -2.4130     5.8290     1.2890 H     1 <1>   0.0800 
 45 H       -3.8080     5.8060     2.3630 H     1 <1>   0.0800 
 46 H        3.9590     6.5120    -1.3150 H     1 <1>   0.1500 
 47 H       -4.7970     7.5150     0.2070 H     1 <1>   0.1500 
 48 H        6.1390     5.4200    -1.4240 H     1 <1>   0.1500 
 49 H        6.6920     1.9960    -1.7610 H     1 <1>   0.0800 
 50 H        6.9380     2.3150    -0.0560 H     1 <1>   0.0800 
 51 H        7.4980     3.4530    -1.2500 H     1 <1>   0.0800 
 52 H       -6.3430     4.1730    -3.6080 H     1 <1>   0.0800 
 53 H       -6.3850     5.9160    -3.7460 H     1 <1>   0.0800 
 54 H       -7.6040     5.0830    -2.8050 H     1 <1>   0.0800 
@<TRIPOS>BOND
  1   1   2  2   
  2   2   3  am  
  3   2   4  1   
  4   3   5  1   
  5   3   6  1   
  6   4   7  1   
  7   4  29  1   
  8   4  30  1   
  9   5   8  1   
 10   5  31  1   
 11   5  32  1   
 12   6   9  1   
 13   6  33  1   
 14   6  34  1   
 15   7  10  1   
 16   7  11  2   
 17   8  12  1   
 18   8  13  1   
 19   8  14  1   
 20   9  13  1   
 21   9  35  1   
 22   9  36  1   
 23  10  15  ar  
 24  10  16  1   
 25  11  17  1   
 26  11  37  1   
 27  12  18  ar  
 28  12  19  ar  
 29  13  38  1   
 30  13  39  1   
 31  14  20  1   
 32  14  40  1   
 33  14  41  1   
 34  15  17  ar  
 35  15  21  1   
 36  16  22  2   
 37  16  42  1   
 38  17  43  1   
 39  18  23  ar  
 40  19  20  1   
 41  19  24  ar  
 42  20  44  1   
 43  20  45  1   
 44  21  25  2   
 45  21  26  1   
 46  22  25  1   
 47  22  46  1   
 48  23  27  ar  
 49  23  28  1   
 50  24  27  ar  
 51  24  47  1   
 52  25  48  1   
 53  26  49  1   
 54  26  50  1   
 55  26  51  1   
 56  28  52  1   
 57  28  53  1   
 58  28  54  1   
@<TRIPOS>SUBSTRUCTURE
  1 ****   4 GROUP 4 **** **** 0

# MOE 2024.06 (io_trps.svl 2023.06)
