@<TRIPOS>MOLECULE
NONAME
47 49 1 0 0 
SMALL
USER_CHARGES


@<TRIPOS>ATOM
  1 S       -0.7390    -0.4820     0.1970 S.3   1 <1>  -0.0800 
  2 C       -1.5240     0.8620     0.9950 C.2   1 <1>  -0.1400 
  3 C       -0.0020     0.5900    -0.9640 C.2   1 <1>  -0.1100 
  4 C       -1.2190     2.0390     0.3980 C.2   1 <1>  -0.0540 
  5 C       -2.4090     0.5230     2.1780 C.3   1 <1>  -0.0600 
  6 C       -0.3260     1.8840    -0.7330 C.2   1 <1>  -0.0860 
  7 C       -1.7130     3.3380     0.7990 C.ar  1 <1>   0.0540 
  8 C        0.1470     3.0040    -1.5180 C.2   1 <1>   0.7160 
  9 C       -1.4050     3.8630     2.0500 C.ar  1 <1>  -0.1500 
 10 C       -2.4960     4.1030    -0.0590 C.ar  1 <1>  -0.1500 
 11 O       -0.1450     3.0580    -2.6980 O.2   1 <1>  -0.5700 
 12 N        0.9390     3.9960    -0.9850 N.am  1 <1>  -0.6600 
 13 C       -1.8520     5.1160     2.4280 C.ar  1 <1>  -0.1500 
 14 C       -2.9490     5.3550     0.3140 C.ar  1 <1>  -0.1500 
 15 C        1.1840     5.2610    -1.7560 C.3   1 <1>   0.3200 
 16 C        1.5840     3.8980     0.3570 C.3   1 <1>   0.1400 
 17 C       -2.6240     5.8650     1.5580 C.ar  1 <1>  -0.1500 
 18 C        0.9450     6.5180    -0.9310 C.2   1 <1>   0.2980 
 19 C        3.1020     3.8310     0.2120 C.3   1 <1>  -0.2400 
 20 O       -0.2880     6.8680    -0.6630 O.3   1 <1>  -0.0190 
 21 N        1.8470     7.2870    -0.4610 N.2   1 <1>  -0.5650 
 22 N       -0.1630     7.9480     0.0470 N.2   1 <1>  -0.4100 
 23 C        1.0860     8.1750     0.1720 C.2   1 <1>   0.3350 
 24 C        1.6820     9.3510     0.9400 C.3   1 <1>   0.3010 
 25 O        2.1820     8.9420     2.1860 O.3   1 <1>  -0.5600 
 26 C        2.7540     9.9650     2.9340 C.3   1 <1>   0.0400 
 27 H        0.6160     0.1500    -1.7260 H     1 <1>   0.1500 
 28 H       -3.1740    -0.1690     1.8740 H     1 <1>   0.0800 
 29 H       -2.8820     1.4080     2.5630 H     1 <1>   0.0800 
 30 H       -1.8220     0.0730     2.9580 H     1 <1>   0.0800 
 31 H       -0.8040     3.2840     2.7280 H     1 <1>   0.1500 
 32 H       -2.7470     3.7120    -1.0300 H     1 <1>   0.1500 
 33 H       -1.5960     5.5140     3.3950 H     1 <1>   0.1500 
 34 H       -3.5470     5.9370    -0.3650 H     1 <1>   0.1500 
 35 H        0.5470     5.3110    -2.6210 H     1 <1>   0.0800 
 36 H        2.2010     5.2630    -2.1030 H     1 <1>   0.0800 
 37 H        1.2530     3.0130     0.8720 H     1 <1>   0.0800 
 38 H        1.3040     4.7440     0.9630 H     1 <1>   0.0800 
 39 H       -2.9650     6.8450     1.8450 H     1 <1>   0.1500 
 40 H        3.3810     3.0160    -0.4320 H     1 <1>   0.0800 
 41 H        3.5450     3.6700     1.1780 H     1 <1>   0.0800 
 42 H        3.4900     4.7540    -0.1790 H     1 <1>   0.0800 
 43 H        0.9210    10.0920     1.1060 H     1 <1>   0.0800 
 44 H        2.4860     9.7780     0.3690 H     1 <1>   0.0800 
 45 H        3.1010     9.5460     3.8620 H     1 <1>   0.0800 
 46 H        2.0120    10.7190     3.1340 H     1 <1>   0.0800 
 47 H        3.5860    10.3820     2.3930 H     1 <1>   0.0800 
@<TRIPOS>BOND
  1   1   2  1   
  2   1   3  1   
  3   2   4  2   
  4   2   5  1   
  5   3   6  2   
  6   3  27  1   
  7   4   6  1   
  8   4   7  1   
  9   5  28  1   
 10   5  29  1   
 11   5  30  1   
 12   6   8  1   
 13   7   9  ar  
 14   7  10  ar  
 15   8  11  2   
 16   8  12  am  
 17   9  13  ar  
 18   9  31  1   
 19  10  14  ar  
 20  10  32  1   
 21  12  15  1   
 22  12  16  1   
 23  13  17  ar  
 24  13  33  1   
 25  14  17  ar  
 26  14  34  1   
 27  15  18  1   
 28  15  35  1   
 29  15  36  1   
 30  16  19  1   
 31  16  37  1   
 32  16  38  1   
 33  17  39  1   
 34  18  20  1   
 35  18  21  2   
 36  19  40  1   
 37  19  41  1   
 38  19  42  1   
 39  20  22  1   
 40  21  23  1   
 41  22  23  2   
 42  23  24  1   
 43  24  25  1   
 44  24  43  1   
 45  24  44  1   
 46  25  26  1   
 47  26  45  1   
 48  26  46  1   
 49  26  47  1   
@<TRIPOS>SUBSTRUCTURE
  1 ****  12 GROUP 4 **** **** 0

# MOE 2024.06 (io_trps.svl 2023.06)
