@<TRIPOS>MOLECULE
NONAME
50 52 1 0 0 
SMALL
USER_CHARGES


@<TRIPOS>ATOM
  1 O       -2.7300    -1.6240    -2.4000 O.co2 1 <1>  -0.9000 
  2 C       -1.9840    -1.9910    -1.4790 C.2   1 <1>   0.9060 
  3 O       -0.8000    -2.2870    -1.6370 O.co2 1 <1>  -0.9000 
  4 C       -2.5730    -1.9920    -0.0620 C.3   1 <1>   0.2370 
  5 N       -3.8030    -1.1130     0.0650 N.4   1 <1>  -0.9590 
  6 C       -4.7160    -1.3950     1.2060 C.3   1 <1>   0.3430 
  7 C       -3.4970     0.3200    -0.1870 C.3   1 <1>   0.3430 
  8 C       -6.1660    -0.9720     0.8550 C.3   1 <1>   0.1900 
  9 C       -4.7420     1.1480    -0.5610 C.3   1 <1>  -0.0800 
 10 N       -6.3320    -0.8540    -0.6330 N.3   1 <1>  -0.8100 
 11 C       -6.5800     0.2910     1.6310 C.3   1 <1>   0.1200 
 12 C       -5.2740     1.9760     0.6190 C.3   1 <1>   0.1200 
 13 C       -5.8660     0.3830    -1.2950 C.3   1 <1>   0.1100 
 14 C       -7.6030    -1.3570    -1.1770 C.3   1 <1>   0.2530 
 15 O       -5.5170     1.1900     1.7380 O.3   1 <1>  -0.5600 
 16 C       -7.7430    -2.8320    -0.8590 C.ar  1 <1>  -0.1430 
 17 C       -8.8270    -3.3280    -0.1750 C.ar  1 <1>   0.1600 
 18 C       -6.7730    -3.7350    -1.2270 C.ar  1 <1>   0.1600 
 19 N       -8.9380    -4.5990     0.1350 N.ar  1 <1>  -0.6200 
 20 N       -6.8580    -5.0130    -0.9270 N.ar  1 <1>  -0.6200 
 21 C       -7.9430    -5.3830    -0.2630 C.ar  1 <1>   0.4770 
 22 C       -8.0450    -6.8760     0.0790 C.3   1 <1>   0.0630 
 23 C       -9.3010    -7.5220    -0.5290 C.3   1 <1>  -0.2400 
 24 C       -8.0080    -7.1160     1.5980 C.3   1 <1>  -0.2400 
 25 H       -1.8070    -1.6650     0.6160 H     1 <1>   0.0800 
 26 H       -2.8260    -3.0090     0.1710 H     1 <1>   0.0800 
 27 H       -4.3670    -1.3580    -0.7760 H     1 <1>   0.4500 
 28 H       -4.7160    -2.4530     1.4030 H     1 <1>   0.0800 
 29 H       -4.3810    -0.8880     2.0950 H     1 <1>   0.0800 
 30 H       -3.0130     0.7510     0.6730 H     1 <1>   0.0800 
 31 H       -2.8100     0.3740    -1.0170 H     1 <1>   0.0800 
 32 H       -6.8030    -1.7600     1.2150 H     1 <1>   0.0800 
 33 H       -4.3930     1.8820    -1.2650 H     1 <1>   0.0800 
 34 H       -6.8410     0.0130     2.6370 H     1 <1>   0.0800 
 35 H       -7.4310     0.7750     1.1840 H     1 <1>   0.0800 
 36 H       -6.1770     2.5010     0.3590 H     1 <1>   0.0800 
 37 H       -4.5370     2.7060     0.9090 H     1 <1>   0.0800 
 38 H       -5.5060     0.1150    -2.2770 H     1 <1>   0.0800 
 39 H       -6.7010     1.0500    -1.4330 H     1 <1>   0.0800 
 40 H       -8.4250    -0.7950    -0.7660 H     1 <1>   0.0800 
 41 H       -7.6110    -1.2360    -2.2480 H     1 <1>   0.0800 
 42 H       -9.6230    -2.6720     0.1340 H     1 <1>   0.1500 
 43 H       -5.9040    -3.4010    -1.7720 H     1 <1>   0.1500 
 44 H       -7.1890    -7.3690    -0.3480 H     1 <1>   0.0800 
 45 H      -10.1900    -7.0830    -0.1100 H     1 <1>   0.0800 
 46 H       -9.3120    -8.5790    -0.3370 H     1 <1>   0.0800 
 47 H       -9.3120    -7.3640    -1.5930 H     1 <1>   0.0800 
 48 H       -8.8600    -6.6580     2.0700 H     1 <1>   0.0800 
 49 H       -7.1140    -6.6870     2.0130 H     1 <1>   0.0800 
 50 H       -8.0170    -8.1690     1.8120 H     1 <1>   0.0800 
@<TRIPOS>BOND
  1   1   2  ar  
  2   2   3  ar  
  3   2   4  1   
  4   4   5  1   
  5   4  25  1   
  6   4  26  1   
  7   5   6  1   
  8   5   7  1   
  9   5  27  1   
 10   6   8  1   
 11   6  28  1   
 12   6  29  1   
 13   7   9  1   
 14   7  30  1   
 15   7  31  1   
 16   8  10  1   
 17   8  11  1   
 18   8  32  1   
 19   9  12  1   
 20   9  13  1   
 21   9  33  1   
 22  10  13  1   
 23  10  14  1   
 24  11  15  1   
 25  11  34  1   
 26  11  35  1   
 27  12  15  1   
 28  12  36  1   
 29  12  37  1   
 30  13  38  1   
 31  13  39  1   
 32  14  16  1   
 33  14  40  1   
 34  14  41  1   
 35  16  17  ar  
 36  16  18  ar  
 37  17  19  ar  
 38  17  42  1   
 39  18  20  ar  
 40  18  43  1   
 41  19  21  ar  
 42  20  21  ar  
 43  21  22  1   
 44  22  23  1   
 45  22  24  1   
 46  22  44  1   
 47  23  45  1   
 48  23  46  1   
 49  23  47  1   
 50  24  48  1   
 51  24  49  1   
 52  24  50  1   
@<TRIPOS>SUBSTRUCTURE
  1 ****  10 GROUP 4 **** **** 0

# MOE 2024.06 (io_trps.svl 2023.06)
