@<TRIPOS>MOLECULE
NONAME
55 58 1 0 0 
SMALL
USER_CHARGES


@<TRIPOS>ATOM
  1 O       -0.4920     0.6630     0.2740 O.2   1 <1>  -0.5700 
  2 C       -0.4760     1.8700     0.3510 C.2   1 <1>   0.5690 
  3 N       -1.5770     2.6230     0.6820 N.am  1 <1>  -0.6600 
  4 C        0.8530     2.5610     0.0400 C.3   1 <1>   0.1810 
  5 C       -1.4740     4.1210     0.7710 C.3   1 <1>   0.3640 
  6 C       -2.8510     2.0550     1.2110 C.3   1 <1>   0.2200 
  7 O        0.9610     3.8360     0.6180 O.3   1 <1>  -0.5600 
  8 C       -2.5890     4.7740    -0.0500 C.ar  1 <1>  -0.1440 
  9 C       -0.1150     4.6940     0.2940 C.3   1 <1>   0.2610 
 10 C       -2.5980     1.3240     2.5290 C.3   1 <1>  -0.2400 
 11 C       -3.5330     1.1550     0.1790 C.3   1 <1>  -0.2400 
 12 C       -3.3320     5.8120     0.4960 C.ar  1 <1>  -0.1500 
 13 C       -2.8680     4.3570    -1.3460 C.ar  1 <1>  -0.1500 
 14 C        0.1310     6.1110     0.8410 C.2   1 <1>   0.5690 
 15 C       -4.3360     6.4190    -0.2370 C.ar  1 <1>  -0.1500 
 16 C       -3.8720     4.9640    -2.0800 C.ar  1 <1>  -0.1500 
 17 O       -0.4610     6.4840     1.8310 O.2   1 <1>  -0.5700 
 18 N        1.0080     6.9490     0.2010 N.am  1 <1>  -0.6600 
 19 C       -4.6070     5.9960    -1.5260 C.ar  1 <1>  -0.1500 
 20 C        1.3150     8.3120     0.7000 C.3   1 <1>   0.1400 
 21 C        1.9430     6.5800    -0.8920 C.3   1 <1>   0.1400 
 22 C        2.2950     8.8730    -0.3300 C.3   1 <1>  -0.0800 
 23 C        3.0560     7.6260    -0.8000 C.3   1 <1>  -0.0800 
 24 C        3.1740    10.0330     0.1730 C.3   1 <1>  -0.0220 
 25 C        4.1330     7.1510     0.2040 C.3   1 <1>  -0.0220 
 26 C        4.4510     9.5670     0.8450 C.2   1 <1>  -0.2880 
 27 C        4.8730     8.3020     0.8590 C.2   1 <1>  -0.2880 
 28 H        0.9690     2.6540    -1.0230 H     1 <1>   0.0800 
 29 H        1.6580     1.9620     0.4250 H     1 <1>   0.0800 
 30 H       -1.6070     4.3800     1.8070 H     1 <1>   0.0800 
 31 H       -3.5300     2.8650     1.4220 H     1 <1>   0.0800 
 32 H       -0.1440     4.7700    -0.7770 H     1 <1>   0.0800 
 33 H       -1.9890     0.4510     2.3730 H     1 <1>   0.0800 
 34 H       -3.5330     1.0080     2.9540 H     1 <1>   0.0800 
 35 H       -2.1100     1.9780     3.2280 H     1 <1>   0.0800 
 36 H       -2.9540     0.2710    -0.0110 H     1 <1>   0.0800 
 37 H       -3.6810     1.6890    -0.7410 H     1 <1>   0.0800 
 38 H       -4.4950     0.8490     0.5480 H     1 <1>   0.0800 
 39 H       -3.1280     6.1590     1.4950 H     1 <1>   0.1500 
 40 H       -2.3070     3.5520    -1.7880 H     1 <1>   0.1500 
 41 H       -4.9050     7.2240     0.1960 H     1 <1>   0.1500 
 42 H       -4.0830     4.6310    -3.0820 H     1 <1>   0.1500 
 43 H       -5.3890     6.4680    -2.0950 H     1 <1>   0.1500 
 44 H        0.4190     8.9060     0.7700 H     1 <1>   0.0800 
 45 H        1.7780     8.2380     1.6690 H     1 <1>   0.0800 
 46 H        2.3240     5.5800    -0.7690 H     1 <1>   0.0800 
 47 H        1.4320     6.6630    -1.8350 H     1 <1>   0.0800 
 48 H        1.7030     9.2450    -1.1480 H     1 <1>   0.0800 
 49 H        3.5130     7.8000    -1.7570 H     1 <1>   0.0800 
 50 H        3.4520    10.6470    -0.6660 H     1 <1>   0.0800 
 51 H        2.6080    10.6460     0.8520 H     1 <1>   0.0800 
 52 H        3.6870     6.5640     0.9890 H     1 <1>   0.0800 
 53 H        4.8360     6.5220    -0.3130 H     1 <1>   0.0800 
 54 H        4.9980    10.3670     1.3160 H     1 <1>   0.1500 
 55 H        5.7800     7.9950     1.3540 H     1 <1>   0.1500 
@<TRIPOS>BOND
  1   1   2  2   
  2   2   3  am  
  3   2   4  1   
  4   3   5  1   
  5   3   6  1   
  6   4   7  1   
  7   4  28  1   
  8   4  29  1   
  9   5   8  1   
 10   5   9  1   
 11   5  30  1   
 12   6  10  1   
 13   6  11  1   
 14   6  31  1   
 15   7   9  1   
 16   8  12  ar  
 17   8  13  ar  
 18   9  14  1   
 19   9  32  1   
 20  10  33  1   
 21  10  34  1   
 22  10  35  1   
 23  11  36  1   
 24  11  37  1   
 25  11  38  1   
 26  12  15  ar  
 27  12  39  1   
 28  13  16  ar  
 29  13  40  1   
 30  14  17  2   
 31  14  18  am  
 32  15  19  ar  
 33  15  41  1   
 34  16  19  ar  
 35  16  42  1   
 36  18  20  1   
 37  18  21  1   
 38  19  43  1   
 39  20  22  1   
 40  20  44  1   
 41  20  45  1   
 42  21  23  1   
 43  21  46  1   
 44  21  47  1   
 45  22  23  1   
 46  22  24  1   
 47  22  48  1   
 48  23  25  1   
 49  23  49  1   
 50  24  26  1   
 51  24  50  1   
 52  24  51  1   
 53  25  27  1   
 54  25  52  1   
 55  25  53  1   
 56  26  27  2   
 57  26  54  1   
 58  27  55  1   
@<TRIPOS>SUBSTRUCTURE
  1 ****   9 GROUP 4 **** **** 0

# MOE 2024.06 (io_trps.svl 2023.06)
