@<TRIPOS>MOLECULE
NONAME
43 45 1 0 0 
SMALL
USER_CHARGES


@<TRIPOS>ATOM
  1 O        1.5020     2.0210     0.7120 O.co2 1 <1>  -0.9000 
  2 C        0.9700     2.6220    -0.2280 C.2   1 <1>   0.9060 
  3 O        1.6100     2.8830    -1.2520 O.co2 1 <1>  -0.9000 
  4 C       -0.3890     3.2980     0.0090 C.3   1 <1>   0.0380 
  5 C       -1.6130     2.3620     0.0040 C.ar  1 <1>  -0.1440 
  6 C       -0.1990     3.9780     1.3560 C.3   1 <1>   0.3430 
  7 C       -0.5820     4.5170    -0.9040 C.3   1 <1>  -0.1600 
  8 C       -1.4920     1.0300    -0.3730 C.ar  1 <1>  -0.1500 
  9 C       -2.8680     2.8320     0.3770 C.ar  1 <1>  -0.1500 
 10 N        0.5860     5.2260     1.0800 N.4   1 <1>  -0.9590 
 11 C        0.4500     5.5080    -0.3860 C.3   1 <1>   0.3430 
 12 C       -2.5930     0.1900    -0.3750 C.ar  1 <1>  -0.1500 
 13 C       -3.9700     1.9940     0.3760 C.ar  1 <1>  -0.1500 
 14 C        2.0240     4.9980     1.4200 C.3   1 <1>   0.5240 
 15 C       -3.8330     0.6710     0.0000 C.ar  1 <1>  -0.1500 
 16 C        2.7940     6.2650     1.1180 C.2   1 <1>  -0.1810 
 17 C        3.6340     6.5210     0.0900 C.2   1 <1>  -0.3320 
 18 C        2.7710     7.4380     1.8600 C.2   1 <1>   0.1390 
 19 N        4.0600     7.7950     0.2460 N.pl3 1 <1>   0.3140 
 20 C        4.0650     5.6020    -1.0480 C.3   1 <1>  -0.0600 
 21 N        3.5160     8.3590     1.3380 N.2   1 <1>  -0.7070 
 22 C        4.9970     8.5350    -0.6090 C.3   1 <1>   0.0160 
 23 H        0.3030     3.3270     2.0550 H     1 <1>   0.0800 
 24 H       -1.1630     4.2380     1.7570 H     1 <1>   0.0800 
 25 H       -1.5650     4.9400    -0.8080 H     1 <1>   0.0800 
 26 H       -0.4110     4.2760    -1.9390 H     1 <1>   0.0800 
 27 H       -0.5400     0.6200    -0.6700 H     1 <1>   0.1500 
 28 H       -3.0110     3.8550     0.6710 H     1 <1>   0.1500 
 29 H        0.2430     6.0190     1.6280 H     1 <1>   0.4500 
 30 H        0.1570     6.5280    -0.5720 H     1 <1>   0.0800 
 31 H        1.3890     5.3150    -0.8840 H     1 <1>   0.0800 
 32 H       -2.4780    -0.8380    -0.6680 H     1 <1>   0.1500 
 33 H       -4.9350     2.3690     0.6660 H     1 <1>   0.1500 
 34 H        2.4280     4.1890     0.8330 H     1 <1>   0.0800 
 35 H        2.1300     4.7400     2.4600 H     1 <1>   0.0800 
 36 H       -4.6880     0.0160    -0.0020 H     1 <1>   0.1500 
 37 H        2.2080     7.5910     2.7660 H     1 <1>   0.1500 
 38 H        3.6260     4.6240    -0.9460 H     1 <1>   0.0800 
 39 H        5.1340     5.4850    -1.0470 H     1 <1>   0.0800 
 40 H        3.7600     6.0080    -1.9960 H     1 <1>   0.0800 
 41 H        4.6120     8.5680    -1.6100 H     1 <1>   0.0800 
 42 H        5.9500     8.0400    -0.5960 H     1 <1>   0.0800 
 43 H        5.1050     9.5340    -0.2300 H     1 <1>   0.0800 
@<TRIPOS>BOND
  1   1   2  ar  
  2   2   3  ar  
  3   2   4  1   
  4   4   5  1   
  5   4   6  1   
  6   4   7  1   
  7   5   8  ar  
  8   5   9  ar  
  9   6  10  1   
 10   6  23  1   
 11   6  24  1   
 12   7  11  1   
 13   7  25  1   
 14   7  26  1   
 15   8  12  ar  
 16   8  27  1   
 17   9  13  ar  
 18   9  28  1   
 19  10  11  1   
 20  10  14  1   
 21  10  29  1   
 22  11  30  1   
 23  11  31  1   
 24  12  15  ar  
 25  12  32  1   
 26  13  15  ar  
 27  13  33  1   
 28  14  16  1   
 29  14  34  1   
 30  14  35  1   
 31  15  36  1   
 32  16  17  2   
 33  16  18  1   
 34  17  19  1   
 35  17  20  1   
 36  18  21  2   
 37  18  37  1   
 38  19  21  1   
 39  19  22  1   
 40  20  38  1   
 41  20  39  1   
 42  20  40  1   
 43  22  41  1   
 44  22  42  1   
 45  22  43  1   
@<TRIPOS>SUBSTRUCTURE
  1 ****  10 GROUP 4 **** **** 0

# MOE 2024.06 (io_trps.svl 2023.06)
