@<TRIPOS>MOLECULE
NONAME
42 44 1 0 0 
SMALL
USER_CHARGES


@<TRIPOS>ATOM
  1 O        3.7220    -1.4360    -0.9320 O.2   1 <1>  -0.5700 
  2 C        2.5940    -1.8570    -0.7320 C.2   1 <1>   0.5440 
  3 N        1.7180    -1.0140    -0.0710 N.am  1 <1>  -0.6600 
  4 C        2.2400    -3.1930    -1.2230 C.ar  1 <1>   0.3960 
  5 C        0.2760    -1.2530     0.1680 C.3   1 <1>   0.1400 
  6 C        2.1230     0.3150     0.4410 C.3   1 <1>   0.1400 
  7 N        1.2840    -3.9240    -0.6230 N.ar  1 <1>  -0.6200 
  8 C        2.9300    -3.6830    -2.3380 C.ar  1 <1>   0.1600 
  9 C       -0.2770     0.1000     0.6030 C.3   1 <1>  -0.1600 
 10 C        0.9170     0.8190     1.2250 C.3   1 <1>  -0.1600 
 11 C        1.0690    -5.0870    -1.1930 C.ar  1 <1>   0.4100 
 12 N        2.7310    -4.8610    -2.9180 N.ar  1 <1>  -0.6200 
 13 N        0.0730    -5.8000    -0.5930 N.pl3 1 <1>  -0.8690 
 14 C        1.7860    -5.5440    -2.3070 C.ar  1 <1>   0.1600 
 15 C       -1.2610    -5.7390    -1.2170 C.3   1 <1>   0.4690 
 16 C       -2.3090    -5.7110    -0.1120 C.2   1 <1>   0.0060 
 17 C       -1.4440    -6.9540    -2.1220 C.3   1 <1>  -0.2400 
 18 N       -2.3630    -6.6610     0.8480 N.pl3 1 <1>   0.0330 
 19 N       -3.2190    -4.7980     0.0180 N.2   1 <1>  -0.5650 
 20 C       -3.3930    -6.3120     1.6400 C.2   1 <1>  -0.3320 
 21 C       -3.9010    -5.1750     1.1160 C.2   1 <1>   0.0770 
 22 C       -3.8220    -7.1050     2.8600 C.3   1 <1>  -0.0600 
 23 H        0.1640    -1.9740     0.9610 H     1 <1>   0.0800 
 24 H       -0.2150    -1.6120    -0.7200 H     1 <1>   0.0800 
 25 H        2.3320     0.9620    -0.3940 H     1 <1>   0.0800 
 26 H        2.9990     0.2340     1.0620 H     1 <1>   0.0800 
 27 H        3.6920    -3.0590    -2.7730 H     1 <1>   0.1500 
 28 H       -1.0980    -0.0070     1.2890 H     1 <1>   0.0800 
 29 H       -0.6140     0.6350    -0.2680 H     1 <1>   0.0800 
 30 H        0.8260     1.8890     1.1730 H     1 <1>   0.0800 
 31 H        1.0240     0.5250     2.2550 H     1 <1>   0.0800 
 32 H       -0.0440    -5.4100     0.3470 H     1 <1>   0.4000 
 33 H        1.5510    -6.5210    -2.6860 H     1 <1>   0.1500 
 34 H       -1.3550    -4.8350    -1.7980 H     1 <1>   0.0800 
 35 H       -1.2730    -7.8640    -1.5760 H     1 <1>   0.0800 
 36 H       -0.7720    -6.9030    -2.9560 H     1 <1>   0.0800 
 37 H       -2.4500    -6.9630    -2.5020 H     1 <1>   0.0800 
 38 H       -1.7330    -7.4640     0.9410 H     1 <1>   0.2700 
 39 H       -4.7370    -4.5980     1.4770 H     1 <1>   0.1500 
 40 H       -4.1070    -8.1020     2.5760 H     1 <1>   0.0800 
 41 H       -4.6650    -6.6300     3.3310 H     1 <1>   0.0800 
 42 H       -3.0180    -7.1580     3.5720 H     1 <1>   0.0800 
@<TRIPOS>BOND
  1   1   2  2   
  2   2   3  am  
  3   2   4  1   
  4   3   5  1   
  5   3   6  1   
  6   4   7  ar  
  7   4   8  ar  
  8   5   9  1   
  9   5  23  1   
 10   5  24  1   
 11   6  10  1   
 12   6  25  1   
 13   6  26  1   
 14   7  11  ar  
 15   8  12  ar  
 16   8  27  1   
 17   9  10  1   
 18   9  28  1   
 19   9  29  1   
 20  10  30  1   
 21  10  31  1   
 22  11  13  1   
 23  11  14  ar  
 24  12  14  ar  
 25  13  15  1   
 26  13  32  1   
 27  14  33  1   
 28  15  16  1   
 29  15  17  1   
 30  15  34  1   
 31  16  18  1   
 32  16  19  2   
 33  17  35  1   
 34  17  36  1   
 35  17  37  1   
 36  18  20  1   
 37  18  38  1   
 38  19  21  1   
 39  20  21  2   
 40  20  22  1   
 41  21  39  1   
 42  22  40  1   
 43  22  41  1   
 44  22  42  1   
@<TRIPOS>SUBSTRUCTURE
  1 ****   7 GROUP 4 **** **** 0

# MOE 2024.06 (io_trps.svl 2023.06)
