@<TRIPOS>MOLECULE
NONAME
44 44 1 0 0 
SMALL
USER_CHARGES


@<TRIPOS>ATOM
  1 O        2.5260    -0.1850     1.7840 O.2   1 <1>  -0.5700 
  2 C        1.7750    -0.8370     1.0980 C.2   1 <1>   0.5690 
  3 N        1.2760    -0.4030    -0.0900 N.am  1 <1>  -0.7300 
  4 C        1.3590    -2.2330     1.5760 C.3   1 <1>   0.1710 
  5 C        1.4790     0.8850    -0.7780 C.3   1 <1>   0.2200 
  6 N        0.0870    -2.7470     0.9770 N.3   1 <1>  -0.8100 
  7 C        2.9710     1.0880    -1.0820 C.3   1 <1>  -0.1600 
  8 C        0.8710     2.0030     0.0700 C.3   1 <1>  -0.2400 
  9 C       -0.0400    -4.2060     1.2250 C.3   1 <1>   0.2530 
 10 C       -1.0740    -2.0330     1.5400 C.3   1 <1>   0.0300 
 11 C        3.2410     2.2700    -2.0250 C.3   1 <1>  -0.2400 
 12 C       -1.2320    -4.8460     0.5110 C.ar  1 <1>   0.1670 
 13 N       -1.9820    -5.6720     1.2290 N.ar  1 <1>  -0.6200 
 14 C       -1.4690    -4.5530    -0.8230 C.ar  1 <1>  -0.1500 
 15 C       -3.0040    -6.2190     0.5890 C.ar  1 <1>   0.1600 
 16 C       -2.5380    -5.1320    -1.4740 C.ar  1 <1>  -0.1500 
 17 C       -3.3280    -5.9930    -0.7410 C.ar  1 <1>  -0.1430 
 18 C       -4.5260    -6.6760    -1.3790 C.3   1 <1>  -0.0170 
 19 C       -5.7820    -5.8150    -1.2240 C.3   1 <1>  -0.2400 
 20 H        0.5950    -1.0380    -0.5170 H     1 <1>   0.3700 
 21 H        1.2790    -2.2170     2.6480 H     1 <1>   0.0800 
 22 H        2.1650    -2.8950     1.3170 H     1 <1>   0.0800 
 23 H        0.9470     0.8400    -1.7130 H     1 <1>   0.0800 
 24 H        3.3530     0.1940    -1.5420 H     1 <1>   0.0800 
 25 H        3.5100     1.2450    -0.1630 H     1 <1>   0.0800 
 26 H        1.4220     2.1220     0.9860 H     1 <1>   0.0800 
 27 H       -0.1530     1.7770     0.3010 H     1 <1>   0.0800 
 28 H        0.8980     2.9340    -0.4650 H     1 <1>   0.0800 
 29 H       -0.1300    -4.3850     2.2830 H     1 <1>   0.0800 
 30 H        0.8480    -4.7060     0.8820 H     1 <1>   0.0800 
 31 H       -0.9800    -0.9730     1.3780 H     1 <1>   0.0800 
 32 H       -1.1540    -2.2150     2.5990 H     1 <1>   0.0800 
 33 H       -1.9820    -2.3640     1.0650 H     1 <1>   0.0800 
 34 H        2.6960     2.1510    -2.9450 H     1 <1>   0.0800 
 35 H        4.2910     2.3180    -2.2540 H     1 <1>   0.0800 
 36 H        2.9560     3.1990    -1.5660 H     1 <1>   0.0800 
 37 H       -0.8200    -3.8730    -1.3430 H     1 <1>   0.1500 
 38 H       -3.6230    -6.8880     1.1610 H     1 <1>   0.1500 
 39 H       -2.7420    -4.9170    -2.5080 H     1 <1>   0.1500 
 40 H       -4.6870    -7.6350    -0.9190 H     1 <1>   0.0800 
 41 H       -4.3320    -6.8450    -2.4250 H     1 <1>   0.0800 
 42 H       -5.9960    -5.6530    -0.1820 H     1 <1>   0.0800 
 43 H       -6.6250    -6.3040    -1.6780 H     1 <1>   0.0800 
 44 H       -5.6390    -4.8600    -1.6980 H     1 <1>   0.0800 
@<TRIPOS>BOND
  1   1   2  2   
  2   2   3  am  
  3   2   4  1   
  4   3   5  1   
  5   3  20  1   
  6   4   6  1   
  7   4  21  1   
  8   4  22  1   
  9   5   7  1   
 10   5   8  1   
 11   5  23  1   
 12   6   9  1   
 13   6  10  1   
 14   7  11  1   
 15   7  24  1   
 16   7  25  1   
 17   8  26  1   
 18   8  27  1   
 19   8  28  1   
 20   9  12  1   
 21   9  29  1   
 22   9  30  1   
 23  10  31  1   
 24  10  32  1   
 25  10  33  1   
 26  11  34  1   
 27  11  35  1   
 28  11  36  1   
 29  12  13  ar  
 30  12  14  ar  
 31  13  15  ar  
 32  14  16  ar  
 33  14  37  1   
 34  15  17  ar  
 35  15  38  1   
 36  16  17  ar  
 37  16  39  1   
 38  17  18  1   
 39  18  19  1   
 40  18  40  1   
 41  18  41  1   
 42  19  42  1   
 43  19  43  1   
 44  19  44  1   
@<TRIPOS>SUBSTRUCTURE
  1 ****   6 GROUP 4 **** **** 0

# MOE 2024.06 (io_trps.svl 2023.06)
