@<TRIPOS>MOLECULE
NONAME
44 45 1 0 0 
SMALL
USER_CHARGES


@<TRIPOS>ATOM
  1 S        2.4610     0.1050    -0.0090 S.3   1 <1>  -0.3320 
  2 C        1.3990    -1.2580    -0.4540 C.ar  1 <1>   0.7220 
  3 C        1.7890     0.7580     1.6010 C.3   1 <1>   0.2110 
  4 N        1.7320    -1.8570    -1.5830 N.ar  1 <1>  -0.6200 
  5 N        0.4050    -1.5230     0.3780 N.ar  1 <1>  -0.6200 
  6 C        2.1220     2.2450     1.7500 C.2   1 <1>   0.5690 
  7 C        2.3920    -0.0990     2.7230 C.3   1 <1>  -0.2400 
  8 C        0.9560    -2.8600    -1.9190 C.ar  1 <1>   0.1660 
  9 C       -0.3530    -2.5320     0.0170 C.ar  1 <1>   0.1660 
 10 O        1.5080     2.8900     2.5690 O.2   1 <1>  -0.5700 
 11 N        3.1000     2.7910     0.9680 N.am  1 <1>  -0.4930 
 12 C       -0.1130    -3.2400    -1.1390 C.ar  1 <1>  -0.1500 
 13 C        1.2910    -3.5840    -3.2050 C.3   1 <1>  -0.0970 
 14 C       -1.5080    -2.8830     0.9310 C.3   1 <1>  -0.0970 
 15 C        3.6040     4.1150     0.9540 C.2   1 <1>   0.0630 
 16 C        3.2730     5.1970     1.7710 C.2   1 <1>   0.1390 
 17 C        4.5390     4.6000     0.1130 C.2   1 <1>  -0.3020 
 18 N        3.9450     6.2690     1.4670 N.2   1 <1>  -0.7070 
 19 N        4.7330     5.8980     0.4370 N.pl3 1 <1>   0.3140 
 20 C        5.6660     6.8380    -0.2030 C.3   1 <1>   0.1570 
 21 C        4.9200     7.7720    -1.1300 C.2   1 <1>   0.5690 
 22 O        5.4070     8.0150    -2.2080 O.2   1 <1>  -0.5700 
 23 N        3.7420     8.3230    -0.7270 N.am  1 <1>  -0.7300 
 24 C        2.8950     9.2510    -1.5130 C.3   1 <1>   0.0600 
 25 H        0.7200     0.6530     1.5720 H     1 <1>   0.0800 
 26 H        3.4640    -0.0140     2.7250 H     1 <1>   0.0800 
 27 H        2.1190    -1.1300     2.5930 H     1 <1>   0.0800 
 28 H        2.0180     0.2360     3.6740 H     1 <1>   0.0800 
 29 H        3.5050     2.1590     0.2740 H     1 <1>   0.3700 
 30 H       -0.7400    -4.0630    -1.4250 H     1 <1>   0.1500 
 31 H        2.2850    -3.9890    -3.1420 H     1 <1>   0.0800 
 32 H        1.2530    -2.8930    -4.0270 H     1 <1>   0.0800 
 33 H        0.6010    -4.3860    -3.3910 H     1 <1>   0.0800 
 34 H       -2.1670    -2.0390     1.0180 H     1 <1>   0.0800 
 35 H       -1.1320    -3.1310     1.9070 H     1 <1>   0.0800 
 36 H       -2.0620    -3.7200     0.5490 H     1 <1>   0.0800 
 37 H        2.5460     5.1530     2.5640 H     1 <1>   0.1500 
 38 H        5.0650     4.1060    -0.6830 H     1 <1>   0.1500 
 39 H        6.3990     6.2870    -0.7580 H     1 <1>   0.0800 
 40 H        6.1550     7.4110     0.5600 H     1 <1>   0.0800 
 41 H        3.3580     7.9980     0.1750 H     1 <1>   0.3700 
 42 H        3.3770     9.5000    -2.4440 H     1 <1>   0.0800 
 43 H        2.7310    10.1560    -0.9530 H     1 <1>   0.0800 
 44 H        1.9470     8.7870    -1.7240 H     1 <1>   0.0800 
@<TRIPOS>BOND
  1   1   2  1   
  2   1   3  1   
  3   2   4  ar  
  4   2   5  ar  
  5   3   6  1   
  6   3   7  1   
  7   3  25  1   
  8   4   8  ar  
  9   5   9  ar  
 10   6  10  2   
 11   6  11  am  
 12   7  26  1   
 13   7  27  1   
 14   7  28  1   
 15   8  12  ar  
 16   8  13  1   
 17   9  12  ar  
 18   9  14  1   
 19  11  15  1   
 20  11  29  1   
 21  12  30  1   
 22  13  31  1   
 23  13  32  1   
 24  13  33  1   
 25  14  34  1   
 26  14  35  1   
 27  14  36  1   
 28  15  16  1   
 29  15  17  2   
 30  16  18  2   
 31  16  37  1   
 32  17  19  1   
 33  17  38  1   
 34  18  19  1   
 35  19  20  1   
 36  20  21  1   
 37  20  39  1   
 38  20  40  1   
 39  21  22  2   
 40  21  23  am  
 41  23  24  1   
 42  23  41  1   
 43  24  42  1   
 44  24  43  1   
 45  24  44  1   
@<TRIPOS>SUBSTRUCTURE
  1 ****  11 GROUP 4 **** **** 0

# MOE 2024.06 (io_trps.svl 2023.06)
