@<TRIPOS>MOLECULE
NONAME
48 50 1 0 0 
SMALL
USER_CHARGES


@<TRIPOS>ATOM
  1 O       -0.3500     1.0820     2.1360 O.2   1 <1>  -0.5700 
  2 C       -0.2310     2.2080     1.7250 C.2   1 <1>   0.5690 
  3 N       -1.2490     3.0890     1.8260 N.am  1 <1>  -0.7300 
  4 C        1.0700     2.6430     1.0450 C.3   1 <1>   0.1810 
  5 C       -1.1780     4.4880     1.3370 C.3   1 <1>   0.3640 
  6 O        1.2070     4.0450     0.9470 O.3   1 <1>  -0.5600 
  7 C       -2.4610     4.8030     0.5690 C.ar  1 <1>  -0.1440 
  8 C        0.0650     4.7230     0.4400 C.3   1 <1>   0.2610 
  9 C       -3.0030     3.9010    -0.3390 C.ar  1 <1>  -0.1500 
 10 C       -3.0990     6.0190     0.7680 C.ar  1 <1>  -0.1500 
 11 C        0.3570     6.2230     0.2570 C.2   1 <1>   0.5690 
 12 C       -4.1600     4.2100    -1.0320 C.ar  1 <1>  -0.1500 
 13 C       -4.2560     6.3290     0.0760 C.ar  1 <1>  -0.1500 
 14 O       -0.0540     7.0030     1.0910 O.2   1 <1>  -0.5700 
 15 N        1.0610     6.6740    -0.8390 N.am  1 <1>  -0.6600 
 16 C       -4.7880     5.4250    -0.8250 C.ar  1 <1>  -0.1500 
 17 C        1.2620     8.1350    -1.0600 C.3   1 <1>   0.1400 
 18 C        1.6540     5.7820    -1.8760 C.3   1 <1>   0.0600 
 19 C        2.3870     8.6980    -0.1730 C.3   1 <1>  -0.0800 
 20 C        2.5280    10.2140    -0.3850 C.3   1 <1>  -0.1600 
 21 C        3.7500     8.0270    -0.4190 C.3   1 <1>  -0.1600 
 22 C        3.7110    10.7710     0.4130 C.3   1 <1>   0.1200 
 23 C        4.8560     8.7240     0.3790 C.3   1 <1>   0.1200 
 24 O        4.8700    10.0820     0.0610 O.3   1 <1>  -0.5600 
 25 H       -2.1180     2.7980     2.2760 H     1 <1>   0.3700 
 26 H        1.1100     2.2290     0.0550 H     1 <1>   0.0800 
 27 H        1.9060     2.2730     1.6100 H     1 <1>   0.0800 
 28 H       -1.1160     5.1280     2.2010 H     1 <1>   0.0800 
 29 H       -0.1460     4.3110    -0.5280 H     1 <1>   0.0800 
 30 H       -2.5300     2.9490    -0.5120 H     1 <1>   0.1500 
 31 H       -2.6950     6.7390     1.4620 H     1 <1>   0.1500 
 32 H       -4.5740     3.5040    -1.7310 H     1 <1>   0.1500 
 33 H       -4.7410     7.2760     0.2380 H     1 <1>   0.1500 
 34 H       -5.6890     5.6660    -1.3630 H     1 <1>   0.1500 
 35 H        1.4850     8.3200    -2.0970 H     1 <1>   0.0800 
 36 H        0.3440     8.6490    -0.8290 H     1 <1>   0.0800 
 37 H        2.5150     6.2500    -2.3200 H     1 <1>   0.0800 
 38 H        0.9280     5.5890    -2.6460 H     1 <1>   0.0800 
 39 H        1.9700     4.8510    -1.4400 H     1 <1>   0.0800 
 40 H        2.1120     8.5380     0.8560 H     1 <1>   0.0800 
 41 H        1.6270    10.7120    -0.0750 H     1 <1>   0.0800 
 42 H        2.6870    10.4310    -1.4270 H     1 <1>   0.0800 
 43 H        4.0020     8.0680    -1.4640 H     1 <1>   0.0800 
 44 H        3.7080     6.9940    -0.1240 H     1 <1>   0.0800 
 45 H        3.5540    10.6630     1.4730 H     1 <1>   0.0800 
 46 H        3.8660    11.8110     0.1850 H     1 <1>   0.0800 
 47 H        5.8200     8.3180     0.1250 H     1 <1>   0.0800 
 48 H        4.6990     8.6200     1.4390 H     1 <1>   0.0800 
@<TRIPOS>BOND
  1   1   2  2   
  2   2   3  am  
  3   2   4  1   
  4   3   5  1   
  5   3  25  1   
  6   4   6  1   
  7   4  26  1   
  8   4  27  1   
  9   5   7  1   
 10   5   8  1   
 11   5  28  1   
 12   6   8  1   
 13   7   9  ar  
 14   7  10  ar  
 15   8  11  1   
 16   8  29  1   
 17   9  12  ar  
 18   9  30  1   
 19  10  13  ar  
 20  10  31  1   
 21  11  14  2   
 22  11  15  am  
 23  12  16  ar  
 24  12  32  1   
 25  13  16  ar  
 26  13  33  1   
 27  15  17  1   
 28  15  18  1   
 29  16  34  1   
 30  17  19  1   
 31  17  35  1   
 32  17  36  1   
 33  18  37  1   
 34  18  38  1   
 35  18  39  1   
 36  19  20  1   
 37  19  21  1   
 38  19  40  1   
 39  20  22  1   
 40  20  41  1   
 41  20  42  1   
 42  21  23  1   
 43  21  43  1   
 44  21  44  1   
 45  22  24  1   
 46  22  45  1   
 47  22  46  1   
 48  23  24  1   
 49  23  47  1   
 50  23  48  1   
@<TRIPOS>SUBSTRUCTURE
  1 ****  11 GROUP 4 **** **** 0

# MOE 2024.06 (io_trps.svl 2023.06)
