@<TRIPOS>MOLECULE
NONAME
47 48 1 0 0 
SMALL
USER_CHARGES


@<TRIPOS>ATOM
  1 N       -0.4830     1.3140     2.4910 N.1   1 <1>  -0.5570 
  2 C       -0.3090     2.2570     1.8750 C.1   1 <1>   0.4840 
  3 C       -0.0820     3.4450     1.1010 C.ar  1 <1>   0.0730 
  4 C       -0.2200     4.7050     1.6710 C.ar  1 <1>  -0.1500 
  5 C        0.2790     3.3670    -0.2390 C.ar  1 <1>  -0.1500 
  6 C        0.0000     5.8530     0.9290 C.ar  1 <1>  -0.1500 
  7 C        0.5010     4.5110    -0.9870 C.ar  1 <1>  -0.1500 
  8 C        0.3700     5.7640    -0.4050 C.ar  1 <1>  -0.1430 
  9 C        0.6230     7.0190    -1.2200 C.3   1 <1>   0.4870 
 10 N        1.9540     7.5780    -0.8300 N.4   1 <1>  -0.9590 
 11 C        2.1470     8.9740    -1.3300 C.3   1 <1>   0.3430 
 12 C        3.0560     6.6620    -1.2800 C.3   1 <1>   0.2630 
 13 C        2.6610     9.9210    -0.2220 C.3   1 <1>  -0.0800 
 14 C        2.7730    11.3470    -0.8100 C.3   1 <1>   0.3430 
 15 C        3.9870     9.4330     0.4040 C.3   1 <1>  -0.2400 
 16 N        3.1870    12.3560     0.2110 N.4   1 <1>  -0.9590 
 17 C        2.4950    13.6640     0.0510 C.3   1 <1>   0.3430 
 18 C        4.6390    12.6890     0.1820 C.3   1 <1>   0.3430 
 19 C        3.3490    14.6460     0.8390 C.3   1 <1>  -0.1600 
 20 C        4.7400    14.0130     0.9260 C.3   1 <1>  -0.1600 
 21 H       -0.5070     4.7860     2.7070 H     1 <1>   0.1500 
 22 H        0.3840     2.3990    -0.7010 H     1 <1>   0.1500 
 23 H       -0.1290     6.8090     1.4100 H     1 <1>   0.1500 
 24 H        0.7720     4.4050    -2.0240 H     1 <1>   0.1500 
 25 H       -0.1580     7.7320    -1.0130 H     1 <1>   0.0800 
 26 H        0.6040     6.7880    -2.2730 H     1 <1>   0.0800 
 27 H        1.9570     7.5750     0.2000 H     1 <1>   0.4500 
 28 H        1.2070     9.3540    -1.6990 H     1 <1>   0.0800 
 29 H        2.8420     8.9680    -2.1550 H     1 <1>   0.0800 
 30 H        3.0540     6.5670    -2.3540 H     1 <1>   0.0800 
 31 H        2.9270     5.6810    -0.8500 H     1 <1>   0.0800 
 32 H        4.0150     7.0420    -0.9700 H     1 <1>   0.0800 
 33 H        1.9070     9.9520     0.5470 H     1 <1>   0.0800 
 34 H        1.8100    11.6280    -1.2060 H     1 <1>   0.0800 
 35 H        3.4760    11.3540    -1.6280 H     1 <1>   0.0800 
 36 H        4.7760     9.4120    -0.3290 H     1 <1>   0.0800 
 37 H        3.8860     8.4470     0.8220 H     1 <1>   0.0800 
 38 H        4.2920    10.0710     1.2140 H     1 <1>   0.0800 
 39 H        2.9700    12.0230     1.1600 H     1 <1>   0.4500 
 40 H        1.4820    13.6330     0.4210 H     1 <1>   0.0800 
 41 H        2.4890    13.9530    -0.9880 H     1 <1>   0.0800 
 42 H        4.9640    12.8290    -0.8370 H     1 <1>   0.0800 
 43 H        5.2420    11.9270     0.6490 H     1 <1>   0.0800 
 44 H        2.9360    14.7850     1.8240 H     1 <1>   0.0800 
 45 H        3.3750    15.6020     0.3440 H     1 <1>   0.0800 
 46 H        5.4930    14.6390     0.4790 H     1 <1>   0.0800 
 47 H        5.0100    13.8380     1.9540 H     1 <1>   0.0800 
@<TRIPOS>BOND
  1   1   2  3   
  2   2   3  1   
  3   3   4  ar  
  4   3   5  ar  
  5   4   6  ar  
  6   4  21  1   
  7   5   7  ar  
  8   5  22  1   
  9   6   8  ar  
 10   6  23  1   
 11   7   8  ar  
 12   7  24  1   
 13   8   9  1   
 14   9  10  1   
 15   9  25  1   
 16   9  26  1   
 17  10  11  1   
 18  10  12  1   
 19  10  27  1   
 20  11  13  1   
 21  11  28  1   
 22  11  29  1   
 23  12  30  1   
 24  12  31  1   
 25  12  32  1   
 26  13  14  1   
 27  13  15  1   
 28  13  33  1   
 29  14  16  1   
 30  14  34  1   
 31  14  35  1   
 32  15  36  1   
 33  15  37  1   
 34  15  38  1   
 35  16  17  1   
 36  16  18  1   
 37  16  39  1   
 38  17  19  1   
 39  17  40  1   
 40  17  41  1   
 41  18  20  1   
 42  18  42  1   
 43  18  43  1   
 44  19  20  1   
 45  19  44  1   
 46  19  45  1   
 47  20  46  1   
 48  20  47  1   
@<TRIPOS>SUBSTRUCTURE
  1 ****  10 GROUP 4 **** **** 0

# MOE 2024.06 (io_trps.svl 2023.06)
