@<TRIPOS>MOLECULE
NONAME
45 48 1 0 0 
SMALL
USER_CHARGES


@<TRIPOS>ATOM
  1 O        0.9910     0.0590    -0.3960 O.2   1 <1>  -0.5700 
  2 C        1.2970    -0.3380     0.7170 C.2   1 <1>   0.5440 
  3 N        1.8890     0.5550     1.5670 N.am  1 <1>  -0.7300 
  4 C        1.0540    -1.7110     1.1260 C.ar  1 <1>   0.0860 
  5 C        2.1670     1.9790     1.2580 C.3   1 <1>   0.2780 
  6 C        0.0600    -2.4910     0.5040 C.ar  1 <1>  -0.1520 
  7 C        1.7710    -2.3330     2.1430 C.ar  1 <1>  -0.1500 
  8 C        3.4270     2.0930     0.4080 C.2   1 <1>  -0.0380 
  9 N       -0.7830    -2.1660    -0.5280 N.pl3 1 <1>   0.0330 
 10 C       -0.2120    -3.8000     0.8930 C.ar  1 <1>   0.0000 
 11 C        1.5100    -3.6470     2.5400 C.ar  1 <1>  -0.1500 
 12 N        3.4420     1.4420    -0.7950 N.pl3 1 <1>  -0.5500 
 13 C        4.5410     2.7850     0.7330 C.2   1 <1>  -0.1360 
 14 C       -1.5760    -3.2460    -0.7860 C.2   1 <1>  -0.3320 
 15 C       -1.2610    -4.2480     0.0610 C.2   1 <1>  -0.1810 
 16 C        0.5240    -4.3820     1.9250 C.ar  1 <1>  -0.1500 
 17 C        4.5240     1.4800    -1.6210 C.2   1 <1>   0.4390 
 18 C        5.6460     2.8050    -0.1610 C.2   1 <1>   0.7670 
 19 C       -2.6500    -3.3120    -1.8550 C.3   1 <1>   0.0200 
 20 C       -1.9440    -5.6010     0.0650 C.3   1 <1>   0.0210 
 21 N        5.5970     2.1260    -1.3500 N.2   1 <1>  -0.6610 
 22 C        4.4130     0.7050    -2.9100 C.3   1 <1>  -0.1790 
 23 O        6.6560     3.4280     0.1220 O.2   1 <1>  -0.5700 
 24 C       -3.0780    -4.7750    -2.0730 C.3   1 <1>  -0.1600 
 25 C       -3.2550    -5.5350    -0.7420 C.3   1 <1>  -0.1600 
 26 H        2.1810     0.2410     2.4920 H     1 <1>   0.3700 
 27 H        2.2830     2.5300     2.1760 H     1 <1>   0.0800 
 28 H        1.3340     2.3960     0.7170 H     1 <1>   0.0800 
 29 H        2.5600    -1.8060     2.6460 H     1 <1>   0.1500 
 30 H       -0.7630    -1.2630    -1.0190 H     1 <1>   0.2700 
 31 H        2.0900    -4.0860     3.3340 H     1 <1>   0.1500 
 32 H        2.6150     0.8740    -1.0480 H     1 <1>   0.4000 
 33 H        4.6540     3.3370     1.6440 H     1 <1>   0.1500 
 34 H        0.3090    -5.3930     2.2190 H     1 <1>   0.1500 
 35 H       -2.2820    -2.9020    -2.7790 H     1 <1>   0.0800 
 36 H       -3.4960    -2.7290    -1.5350 H     1 <1>   0.0800 
 37 H       -2.1540    -5.9020     1.0760 H     1 <1>   0.0800 
 38 H       -1.2790    -6.3220    -0.3760 H     1 <1>   0.0800 
 39 H        3.6000     1.0890    -3.4970 H     1 <1>   0.0800 
 40 H        4.2420    -0.3340    -2.6970 H     1 <1>   0.0800 
 41 H        5.3230     0.7980    -3.4750 H     1 <1>   0.0800 
 42 H       -2.3220    -5.2730    -2.6550 H     1 <1>   0.0800 
 43 H       -3.9960    -4.7990    -2.6340 H     1 <1>   0.0800 
 44 H       -3.9990    -5.0290    -0.1520 H     1 <1>   0.0800 
 45 H       -3.6070    -6.5340    -0.9330 H     1 <1>   0.0800 
@<TRIPOS>BOND
  1   1   2  2   
  2   2   3  am  
  3   2   4  1   
  4   3   5  1   
  5   3  26  1   
  6   4   6  ar  
  7   4   7  ar  
  8   5   8  1   
  9   5  27  1   
 10   5  28  1   
 11   6   9  1   
 12   6  10  ar  
 13   7  11  ar  
 14   7  29  1   
 15   8  12  1   
 16   8  13  2   
 17   9  14  1   
 18   9  30  1   
 19  10  15  1   
 20  10  16  ar  
 21  11  16  ar  
 22  11  31  1   
 23  12  17  1   
 24  12  32  1   
 25  13  18  1   
 26  13  33  1   
 27  14  15  2   
 28  14  19  1   
 29  15  20  1   
 30  16  34  1   
 31  17  21  2   
 32  17  22  1   
 33  18  21  1   
 34  18  23  2   
 35  19  24  1   
 36  19  35  1   
 37  19  36  1   
 38  20  25  1   
 39  20  37  1   
 40  20  38  1   
 41  22  39  1   
 42  22  40  1   
 43  22  41  1   
 44  24  25  1   
 45  24  42  1   
 46  24  43  1   
 47  25  44  1   
 48  25  45  1   
@<TRIPOS>SUBSTRUCTURE
  1 ****   2 GROUP 4 **** **** 0

# MOE 2024.06 (io_trps.svl 2023.06)
