@<TRIPOS>MOLECULE
NONAME
60 63 1 0 0 
SMALL
USER_CHARGES


@<TRIPOS>ATOM
  1 O        0.2790    -0.3360    -1.7180 O.2   1 <1>  -0.5700 
  2 C        0.9660    -1.1370    -1.1380 C.2   1 <1>   0.5690 
  3 N        0.4290    -2.0550    -0.3070 N.am  1 <1>  -0.7300 
  4 C        2.4700    -1.1490    -1.3110 C.3   1 <1>  -0.0990 
  5 C        1.2360    -3.0720     0.3960 C.3   1 <1>   0.1400 
  6 C        2.9900    -2.5920    -1.4790 C.3   1 <1>  -0.0800 
  7 C        2.2950    -3.6360    -0.5700 C.3   1 <1>  -0.0800 
  8 C        4.4930    -2.7320    -1.2100 C.3   1 <1>  -0.1600 
  9 C        3.4240    -4.3830     0.1550 C.3   1 <1>  -0.1600 
 10 C        4.6560    -4.1700    -0.7190 C.3   1 <1>   0.2200 
 11 N        5.9110    -4.4630     0.0290 N.am  1 <1>  -0.6600 
 12 C        7.0250    -3.6640    -0.0910 C.2   1 <1>   0.5440 
 13 C        6.1330    -5.9160     0.2680 C.3   1 <1>   0.0600 
 14 O        7.9210    -4.0450    -0.8220 O.2   1 <1>  -0.5700 
 15 C        7.1590    -2.4180     0.6480 C.ar  1 <1>   0.0860 
 16 C        8.0570    -1.4360     0.2380 C.ar  1 <1>  -0.1500 
 17 C        6.4100    -2.1530     1.7940 C.ar  1 <1>  -0.1500 
 18 C        8.2170    -0.2390     0.9190 C.ar  1 <1>   0.1170 
 19 C        6.5530    -0.9660     2.4880 C.ar  1 <1>  -0.1500 
 20 N        9.1720     0.6630     0.4330 N.am  1 <1>  -0.5470 
 21 C        7.4540    -0.0040     2.0660 C.ar  1 <1>  -0.1430 
 22 C        9.0180     1.9550     0.0160 C.2   1 <1>   0.5690 
 23 C        7.5860     1.2760     2.8820 C.3   1 <1>  -0.0970 
 24 O        7.9600     2.5330     0.0300 O.2   1 <1>  -0.5700 
 25 C       10.2500     2.6920    -0.5040 C.3   1 <1>  -0.0190 
 26 C       10.9060     2.0420    -1.7380 C.3   1 <1>  -0.1600 
 27 C       11.3730     2.8400     0.5320 C.3   1 <1>  -0.1600 
 28 C       12.4180     2.0470    -1.4880 C.3   1 <1>  -0.1600 
 29 C       12.6420     2.9790    -0.3010 C.3   1 <1>  -0.1600 
 30 H       -0.5830    -2.0330    -0.1640 H     1 <1>   0.3700 
 31 H        2.7410    -0.5550    -2.1650 H     1 <1>   0.0800 
 32 H        2.8970    -0.6930    -0.4370 H     1 <1>   0.0800 
 33 H        1.7120    -2.6030     1.2410 H     1 <1>   0.0800 
 34 H        0.6000    -3.8640     0.7530 H     1 <1>   0.0800 
 35 H        2.8030    -2.8880    -2.4990 H     1 <1>   0.0800 
 36 H        1.7960    -4.3400    -1.2150 H     1 <1>   0.0800 
 37 H        4.7720    -2.0420    -0.4360 H     1 <1>   0.0800 
 38 H        5.0770    -2.5440    -2.0940 H     1 <1>   0.0800 
 39 H        3.1920    -5.4260     0.2690 H     1 <1>   0.0800 
 40 H        3.6010    -3.9420     1.1200 H     1 <1>   0.0800 
 41 H        4.5980    -4.8250    -1.5730 H     1 <1>   0.0800 
 42 H        5.3960    -6.2960     0.9540 H     1 <1>   0.0800 
 43 H        7.1110    -6.0750     0.6910 H     1 <1>   0.0800 
 44 H        6.0720    -6.4550    -0.6610 H     1 <1>   0.0800 
 45 H        8.6440    -1.6170    -0.6440 H     1 <1>   0.1500 
 46 H        5.7100    -2.8890     2.1460 H     1 <1>   0.1500 
 47 H        5.9550    -0.7950     3.3670 H     1 <1>   0.1500 
 48 H       10.0950     0.2660     0.2640 H     1 <1>   0.3700 
 49 H        7.2330     1.1290     3.8860 H     1 <1>   0.0800 
 50 H        7.0050     2.0580     2.4270 H     1 <1>   0.0800 
 51 H        8.6130     1.5900     2.9320 H     1 <1>   0.0800 
 52 H        9.9420     3.6840    -0.7880 H     1 <1>   0.0800 
 53 H       10.5600     1.0360    -1.9000 H     1 <1>   0.0800 
 54 H       10.6720     2.6220    -2.6140 H     1 <1>   0.0800 
 55 H       11.2150     3.6920     1.1710 H     1 <1>   0.0800 
 56 H       11.4470     1.9560     1.1410 H     1 <1>   0.0800 
 57 H       12.7400     1.0530    -1.2240 H     1 <1>   0.0800 
 58 H       12.9680     2.3700    -2.3550 H     1 <1>   0.0800 
 59 H       12.7300     3.9940    -0.6530 H     1 <1>   0.0800 
 60 H       13.5250     2.7220     0.2580 H     1 <1>   0.0800 
@<TRIPOS>BOND
  1   1   2  2   
  2   2   3  am  
  3   2   4  1   
  4   3   5  1   
  5   3  30  1   
  6   4   6  1   
  7   4  31  1   
  8   4  32  1   
  9   5   7  1   
 10   5  33  1   
 11   5  34  1   
 12   6   7  1   
 13   6   8  1   
 14   6  35  1   
 15   7   9  1   
 16   7  36  1   
 17   8  10  1   
 18   8  37  1   
 19   8  38  1   
 20   9  10  1   
 21   9  39  1   
 22   9  40  1   
 23  10  11  1   
 24  10  41  1   
 25  11  12  am  
 26  11  13  1   
 27  12  14  2   
 28  12  15  1   
 29  13  42  1   
 30  13  43  1   
 31  13  44  1   
 32  15  16  ar  
 33  15  17  ar  
 34  16  18  ar  
 35  16  45  1   
 36  17  19  ar  
 37  17  46  1   
 38  18  20  1   
 39  18  21  ar  
 40  19  21  ar  
 41  19  47  1   
 42  20  22  am  
 43  20  48  1   
 44  21  23  1   
 45  22  24  2   
 46  22  25  1   
 47  23  49  1   
 48  23  50  1   
 49  23  51  1   
 50  25  26  1   
 51  25  27  1   
 52  25  52  1   
 53  26  28  1   
 54  26  53  1   
 55  26  54  1   
 56  27  29  1   
 57  27  55  1   
 58  27  56  1   
 59  28  29  1   
 60  28  57  1   
 61  28  58  1   
 62  29  59  1   
 63  29  60  1   
@<TRIPOS>SUBSTRUCTURE
  1 ****  15 GROUP 4 **** **** 0

# MOE 2024.06 (io_trps.svl 2023.06)
