@<TRIPOS>MOLECULE
NONAME
43 46 1 0 0 
SMALL
USER_CHARGES


@<TRIPOS>ATOM
  1 F       -1.6420     0.0680    -1.8520 F     1 <1>  -0.1900 
  2 C       -2.0210     0.7470    -0.8030 C.ar  1 <1>   0.1900 
  3 C       -2.5660     0.0850     0.3080 C.ar  1 <1>   0.3960 
  4 C       -1.8790     2.1160    -0.8610 C.ar  1 <1>  -0.1500 
  5 N       -3.0140     0.7880     1.3760 N.ar  1 <1>  -0.6200 
  6 C       -2.6510    -1.3720     0.3110 C.2   1 <1>   0.5440 
  7 C       -2.3260     2.7850     0.2520 C.ar  1 <1>   0.1900 
  8 C       -2.8770     2.1060     1.3280 C.ar  1 <1>   0.1600 
  9 O       -1.6390    -2.0310     0.1430 O.2   1 <1>  -0.5700 
 10 N       -3.8430    -2.0550     0.4930 N.am  1 <1>  -0.6600 
 11 F       -2.2330     4.0850     0.2920 F     1 <1>  -0.1900 
 12 C       -3.9040    -3.5490     0.6170 C.3   1 <1>   0.1400 
 13 C       -5.1890    -1.4090     0.5830 C.3   1 <1>   0.1400 
 14 C       -4.9970    -4.1430    -0.2930 C.3   1 <1>   0.3440 
 15 C       -6.2090    -2.1250    -0.3250 C.3   1 <1>   0.2950 
 16 O       -6.2230    -3.4970    -0.0640 O.3   1 <1>  -0.5600 
 17 C       -5.1510    -5.6400    -0.0430 C.ar  1 <1>  -0.1440 
 18 C       -7.6290    -1.5980    -0.0980 C.3   1 <1>  -0.1950 
 19 C       -4.3980    -6.5390    -0.7860 C.ar  1 <1>  -0.1500 
 20 C       -6.0190    -6.1290     0.9240 C.ar  1 <1>  -0.1500 
 21 C       -8.6890    -1.7550    -1.1420 C.3   1 <1>  -0.2000 
 22 C       -8.1340    -0.3930    -0.8300 C.3   1 <1>  -0.2000 
 23 C       -4.5110    -7.9010    -0.5670 C.ar  1 <1>  -0.1500 
 24 C       -6.1340    -7.4910     1.1440 C.ar  1 <1>  -0.1500 
 25 C       -5.3790    -8.3780     0.3990 C.ar  1 <1>  -0.1500 
 26 H       -1.4560     2.6200    -1.7100 H     1 <1>   0.1500 
 27 H       -3.2160     2.6780     2.1760 H     1 <1>   0.1500 
 28 H       -2.9600    -3.9950     0.3600 H     1 <1>   0.0800 
 29 H       -4.1200    -3.8090     1.6380 H     1 <1>   0.0800 
 30 H       -5.5300    -1.4520     1.6030 H     1 <1>   0.0800 
 31 H       -5.1390    -0.3760     0.2940 H     1 <1>   0.0800 
 32 H       -4.7290    -3.9850    -1.3230 H     1 <1>   0.0800 
 33 H       -5.9360    -1.9850    -1.3580 H     1 <1>   0.0800 
 34 H       -7.9380    -1.7120     0.9270 H     1 <1>   0.1000 
 35 H       -3.7170    -6.1840    -1.5400 H     1 <1>   0.1500 
 36 H       -6.6140    -5.4470     1.5070 H     1 <1>   0.1500 
 37 H       -8.4290    -2.2300    -2.0720 H     1 <1>   0.1000 
 38 H       -9.6860    -2.0020    -0.8210 H     1 <1>   0.1000 
 39 H       -8.7610     0.3080    -0.3060 H     1 <1>   0.1000 
 40 H       -7.5160     0.0820    -1.5710 H     1 <1>   0.1000 
 41 H       -3.9240    -8.5900    -1.1490 H     1 <1>   0.1500 
 42 H       -6.8120    -7.8580     1.8950 H     1 <1>   0.1500 
 43 H       -5.4680    -9.4370     0.5690 H     1 <1>   0.1500 
@<TRIPOS>BOND
  1   1   2  1   
  2   2   3  ar  
  3   2   4  ar  
  4   3   5  ar  
  5   3   6  1   
  6   4   7  ar  
  7   4  26  1   
  8   5   8  ar  
  9   6   9  2   
 10   6  10  am  
 11   7   8  ar  
 12   7  11  1   
 13   8  27  1   
 14  10  12  1   
 15  10  13  1   
 16  12  14  1   
 17  12  28  1   
 18  12  29  1   
 19  13  15  1   
 20  13  30  1   
 21  13  31  1   
 22  14  16  1   
 23  14  17  1   
 24  14  32  1   
 25  15  16  1   
 26  15  18  1   
 27  15  33  1   
 28  17  19  ar  
 29  17  20  ar  
 30  18  21  1   
 31  18  22  1   
 32  18  34  1   
 33  19  23  ar  
 34  19  35  1   
 35  20  24  ar  
 36  20  36  1   
 37  21  22  1   
 38  21  37  1   
 39  21  38  1   
 40  22  39  1   
 41  22  40  1   
 42  23  25  ar  
 43  23  41  1   
 44  24  25  ar  
 45  24  42  1   
 46  25  43  1   
@<TRIPOS>SUBSTRUCTURE
  1 ****  10 GROUP 4 **** **** 0

# MOE 2024.06 (io_trps.svl 2023.06)
