@<TRIPOS>MOLECULE
NONAME
47 49 1 0 0 
SMALL
USER_CHARGES


@<TRIPOS>ATOM
  1 O        1.0750    -0.4790    -1.5940 O.2   1 <1>  -0.5750 
  2 C        2.1720    -0.2080    -1.1650 C.2   1 <1>   0.6860 
  3 N        2.5820     1.1020    -0.9500 N.am  1 <1>  -0.4420 
  4 N        3.0320    -1.2310    -0.8870 N.am  1 <1>  -0.4960 
  5 C        3.8650     1.3020    -0.4620 C.2   1 <1>   0.4200 
  6 C        1.6760     2.2510    -1.2400 C.3   1 <1>   0.0510 
  7 C        4.2960    -1.0510    -0.4040 C.2   1 <1>   0.6990 
  8 N        4.4780     2.4850    -0.1800 N.pl3 1 <1>  -0.7040 
  9 C        4.7280     0.2980    -0.1830 C.2   1 <1>   0.2700 
 10 O        4.9920    -2.0230    -0.1850 O.2   1 <1>  -0.5750 
 11 C        5.7030     2.2210     0.2680 C.cat 1 <1>   1.0680 
 12 N        5.9100     0.9030     0.2870 N.pl3 1 <1>  -0.7680 
 13 N        6.5920     3.1360     0.6460 N.pl3 1 <1>  -0.7180 
 14 C        7.1000     0.1030     0.6960 C.3   1 <1>   0.2670 
 15 C        6.4710     4.6120     0.6560 C.3   1 <1>   0.1600 
 16 C        7.7130     5.2120     0.0010 C.3   1 <1>  -0.1680 
 17 C        7.6850     6.7360     0.0800 C.3   1 <1>   0.2010 
 18 N        8.9580     7.2530    -0.4540 N.pl3 1 <1>  -0.8720 
 19 C        9.4270     8.5110    -0.1370 C.ar  1 <1>   0.4040 
 20 N        8.7690     9.2050     0.7810 N.ar  1 <1>  -0.6250 
 21 C       10.5530     8.9940    -0.7970 C.ar  1 <1>  -0.1580 
 22 C        9.2480    10.4100     1.0460 C.ar  1 <1>   0.1520 
 23 C       11.0380    10.2490    -0.5120 C.ar  1 <1>  -0.1580 
 24 C       10.3590    10.9800     0.4430 C.ar  1 <1>  -0.1520 
 25 C       10.8380    12.3730     0.8120 C.3   1 <1>  -0.1050 
 26 H        2.7010    -2.1790    -1.0550 H     1 <1>   0.3630 
 27 H        0.7000     1.9050    -1.5380 H     1 <1>   0.0710 
 28 H        2.0830     2.8450    -2.0400 H     1 <1>   0.0710 
 29 H        1.5620     2.8600    -0.3610 H     1 <1>   0.0710 
 30 H        4.0840     3.4150    -0.2850 H     1 <1>   0.4440 
 31 H        7.4940     2.8020     0.9830 H     1 <1>   0.4440 
 32 H        6.8380    -0.5520     1.5100 H     1 <1>   0.0710 
 33 H        7.9070     0.7410     1.0100 H     1 <1>   0.0710 
 34 H        7.4370    -0.5010    -0.1310 H     1 <1>   0.0710 
 35 H        6.4000     4.9550     1.6760 H     1 <1>   0.0710 
 36 H        5.5890     4.9310     0.1260 H     1 <1>   0.0710 
 37 H        7.7630     4.9150    -1.0320 H     1 <1>   0.0710 
 38 H        8.5930     4.8690     0.5170 H     1 <1>   0.0710 
 39 H        7.5730     7.0420     1.1070 H     1 <1>   0.0710 
 40 H        6.8680     7.1430    -0.4920 H     1 <1>   0.0710 
 41 H        9.1820     6.9500    -1.4010 H     1 <1>   0.3940 
 42 H       11.0410     8.3780    -1.5260 H     1 <1>   0.1420 
 43 H        8.7200    10.9780     1.7910 H     1 <1>   0.1420 
 44 H       11.9070    10.6420    -1.0090 H     1 <1>   0.1420 
 45 H       10.2030    12.8120     1.5600 H     1 <1>   0.0710 
 46 H       10.8290    13.0040    -0.0590 H     1 <1>   0.0710 
 47 H       11.8410    12.3250     1.1960 H     1 <1>   0.0710 
@<TRIPOS>BOND
  1   1   2  2   
  2   2   3  am  
  3   2   4  am  
  4   3   5  1   
  5   3   6  1   
  6   4   7  am  
  7   4  26  1   
  8   5   8  1   
  9   5   9  2   
 10   6  27  1   
 11   6  28  1   
 12   6  29  1   
 13   7   9  1   
 14   7  10  2   
 15   8  11  ar  
 16   8  30  1   
 17   9  12  1   
 18  11  12  ar  
 19  11  13  ar  
 20  12  14  1   
 21  13  15  1   
 22  13  31  1   
 23  14  32  1   
 24  14  33  1   
 25  14  34  1   
 26  15  16  1   
 27  15  35  1   
 28  15  36  1   
 29  16  17  1   
 30  16  37  1   
 31  16  38  1   
 32  17  18  1   
 33  17  39  1   
 34  17  40  1   
 35  18  19  1   
 36  18  41  1   
 37  19  20  ar  
 38  19  21  ar  
 39  20  22  ar  
 40  21  23  ar  
 41  21  42  1   
 42  22  24  ar  
 43  22  43  1   
 44  23  24  ar  
 45  23  44  1   
 46  24  25  1   
 47  25  45  1   
 48  25  46  1   
 49  25  47  1   
@<TRIPOS>SUBSTRUCTURE
  1 ****  15 GROUP 4 **** **** 0

# MOE 2024.06 (io_trps.svl 2023.06)
