@<TRIPOS>MOLECULE
NONAME
59 62 1 0 0 
SMALL
USER_CHARGES


@<TRIPOS>ATOM
  1 S        0.5940    -0.6420    -1.1070 S.o2  1 <1>   1.5760 
  2 O        1.9770    -1.0260    -0.9270 O.2   1 <1>  -0.6500 
  3 O        0.0650    -0.3910    -2.4290 O.2   1 <1>  -0.6500 
  4 N       -0.4060    -1.7770    -0.3560 N.am  1 <1>  -0.8490 
  5 N        0.2970     0.7030    -0.1320 N.am  1 <1>  -0.8490 
  6 C       -1.8240    -1.3970    -0.5200 C.3   1 <1>   0.1960 
  7 C       -0.1280    -3.1260    -0.8590 C.3   1 <1>   0.1960 
  8 C        0.7820     1.9260    -0.7700 C.3   1 <1>   0.1960 
  9 C        0.8820     0.5380     1.2010 C.3   1 <1>   0.1960 
 10 C       -2.8170    -2.2990     0.2300 C.3   1 <1>   0.2090 
 11 C       -0.5870    -4.1830     0.1520 C.3   1 <1>  -0.1600 
 12 C        0.3710     3.1500     0.0570 C.3   1 <1>  -0.1600 
 13 C        0.4670     1.7030     2.1050 C.3   1 <1>  -0.1600 
 14 N       -2.9710    -3.6210    -0.4490 N.pl3 1 <1>  -0.8380 
 15 C       -2.0160    -4.6940    -0.0620 C.3   1 <1>   0.2090 
 16 C        0.8810     3.0500     1.5000 C.3   1 <1>  -0.1600 
 17 C       -4.1800    -3.9600    -1.0440 C.ar  1 <1>   0.4100 
 18 N       -4.6720    -5.1510    -0.7440 N.ar  1 <1>  -0.6200 
 19 C       -4.8390    -3.0760    -1.9140 C.ar  1 <1>   0.1600 
 20 C       -5.8480    -5.4280    -1.3340 C.ar  1 <1>   0.3960 
 21 N       -5.9930    -3.3070    -2.5040 N.ar  1 <1>  -0.6200 
 22 C       -6.5320    -6.7060    -1.1120 C.2   1 <1>   0.5440 
 23 C       -6.4630    -4.5060    -2.1880 C.ar  1 <1>   0.1600 
 24 O       -7.2530    -7.1490    -1.9920 O.2   1 <1>  -0.5700 
 25 N       -6.4390    -7.4470     0.0520 N.am  1 <1>  -0.6600 
 26 C       -7.1210    -8.7480     0.2290 C.3   1 <1>   0.1400 
 27 C       -5.7420    -7.0420     1.2940 C.3   1 <1>   0.1400 
 28 C       -6.6350    -9.2660     1.5790 C.3   1 <1>  -0.1600 
 29 C       -6.2470    -8.0120     2.3560 C.3   1 <1>  -0.1600 
 30 H       -2.0860    -1.3830    -1.5650 H     1 <1>   0.0800 
 31 H       -1.9600    -0.3990    -0.1420 H     1 <1>   0.0800 
 32 H        0.9360    -3.2460    -0.9800 H     1 <1>   0.0800 
 33 H       -0.5850    -3.2790    -1.8240 H     1 <1>   0.0800 
 34 H        0.3550     2.0160    -1.7560 H     1 <1>   0.0800 
 35 H        1.8550     1.8880    -0.8700 H     1 <1>   0.0800 
 36 H        1.9570     0.4940     1.1310 H     1 <1>   0.0800 
 37 H        0.5380    -0.3850     1.6390 H     1 <1>   0.0800 
 38 H       -3.7720    -1.8060     0.2640 H     1 <1>   0.0800 
 39 H       -2.4900    -2.4340     1.2460 H     1 <1>   0.0800 
 40 H       -0.4730    -3.8040     1.1510 H     1 <1>   0.0800 
 41 H        0.0660    -5.0330     0.0690 H     1 <1>   0.0800 
 42 H       -0.7020     3.2220     0.0540 H     1 <1>   0.0800 
 43 H        0.7620     4.0390    -0.4050 H     1 <1>   0.0800 
 44 H        0.9220     1.5850     3.0720 H     1 <1>   0.0800 
 45 H       -0.6010     1.6750     2.2360 H     1 <1>   0.0800 
 46 H       -2.3670    -5.1760     0.8340 H     1 <1>   0.0800 
 47 H       -2.0050    -5.4320    -0.8470 H     1 <1>   0.0800 
 48 H        0.4830     3.8580     2.0890 H     1 <1>   0.0800 
 49 H        1.9550     3.1270     1.5050 H     1 <1>   0.0800 
 50 H       -4.3630    -2.1370    -2.1220 H     1 <1>   0.1500 
 51 H       -7.4020    -4.7840    -2.6350 H     1 <1>   0.1500 
 52 H       -6.8710    -9.4230    -0.5720 H     1 <1>   0.0800 
 53 H       -8.1850    -8.5850     0.2440 H     1 <1>   0.0800 
 54 H       -5.9660    -6.0210     1.5510 H     1 <1>   0.0800 
 55 H       -4.6810    -7.1590     1.1540 H     1 <1>   0.0800 
 56 H       -5.7670    -9.8830     1.4220 H     1 <1>   0.0800 
 57 H       -7.3900    -9.8440     2.0790 H     1 <1>   0.0800 
 58 H       -7.1180    -7.5900     2.8280 H     1 <1>   0.0800 
 59 H       -5.5010    -8.2070     3.1060 H     1 <1>   0.0800 
@<TRIPOS>BOND
  1   1   2  2   
  2   1   3  2   
  3   1   4  am  
  4   1   5  am  
  5   4   6  1   
  6   4   7  1   
  7   5   8  1   
  8   5   9  1   
  9   6  10  1   
 10   6  30  1   
 11   6  31  1   
 12   7  11  1   
 13   7  32  1   
 14   7  33  1   
 15   8  12  1   
 16   8  34  1   
 17   8  35  1   
 18   9  13  1   
 19   9  36  1   
 20   9  37  1   
 21  10  14  1   
 22  10  38  1   
 23  10  39  1   
 24  11  15  1   
 25  11  40  1   
 26  11  41  1   
 27  12  16  1   
 28  12  42  1   
 29  12  43  1   
 30  13  16  1   
 31  13  44  1   
 32  13  45  1   
 33  14  15  1   
 34  14  17  1   
 35  15  46  1   
 36  15  47  1   
 37  16  48  1   
 38  16  49  1   
 39  17  18  ar  
 40  17  19  ar  
 41  18  20  ar  
 42  19  21  ar  
 43  19  50  1   
 44  20  22  1   
 45  20  23  ar  
 46  21  23  ar  
 47  22  24  2   
 48  22  25  am  
 49  23  51  1   
 50  25  26  1   
 51  25  27  1   
 52  26  28  1   
 53  26  52  1   
 54  26  53  1   
 55  27  29  1   
 56  27  54  1   
 57  27  55  1   
 58  28  29  1   
 59  28  56  1   
 60  28  57  1   
 61  29  58  1   
 62  29  59  1   
@<TRIPOS>SUBSTRUCTURE
  1 ****  14 GROUP 4 **** **** 0

# MOE 2024.06 (io_trps.svl 2023.06)
