@<TRIPOS>MOLECULE
NONAME
44 46 1 0 0 
SMALL
USER_CHARGES


@<TRIPOS>ATOM
  1 O       -2.7350     0.9980    -1.4410 O.2   1 <1>  -0.5700 
  2 C       -2.7340    -0.1970    -1.2710 C.2   1 <1>   0.5690 
  3 N       -1.9180    -0.7540    -0.3520 N.am  1 <1>  -0.7300 
  4 C       -3.6190    -1.0850    -2.1240 C.3   1 <1>  -0.0190 
  5 C       -1.9120    -2.2080    -0.0410 C.3   1 <1>   0.2200 
  6 C       -2.7640    -2.0490    -2.9630 C.3   1 <1>   0.1200 
  7 C       -4.7260    -1.7990    -1.3200 C.3   1 <1>   0.1100 
  8 C       -1.4120    -3.0150    -1.2590 C.3   1 <1>   0.1200 
  9 C       -3.2800    -2.7230     0.4800 C.3   1 <1>   0.1100 
 10 O       -2.3830    -3.1890    -2.2520 O.3   1 <1>  -0.5600 
 11 N       -4.4650    -1.9020     0.1300 N.3   1 <1>  -0.8100 
 12 C       -5.6720    -2.3160     0.8860 C.3   1 <1>   0.2530 
 13 C       -6.1540    -3.7430     0.5880 C.ar  1 <1>  -0.1430 
 14 C       -7.0840    -3.9750    -0.4270 C.ar  1 <1>   0.0830 
 15 C       -5.6950    -4.8180     1.3510 C.ar  1 <1>   0.0830 
 16 O       -7.5660    -2.9050    -1.1160 O.3   1 <1>  -0.3630 
 17 C       -7.5040    -5.2750    -0.7030 C.ar  1 <1>  -0.1500 
 18 O       -4.8380    -4.5610     2.3770 O.3   1 <1>  -0.3620 
 19 C       -6.1250    -6.1110     1.0620 C.ar  1 <1>  -0.1500 
 20 C       -8.5000    -3.0430    -2.1640 C.3   1 <1>   0.0400 
 21 C       -7.0220    -6.3360     0.0370 C.ar  1 <1>  -0.1500 
 22 C       -4.4320    -5.5630     3.2830 C.3   1 <1>   0.0400 
 23 H       -1.4880    -0.1180     0.3170 H     1 <1>   0.3700 
 24 H       -4.1100    -0.4390    -2.8270 H     1 <1>   0.0800 
 25 H       -1.1910    -2.3650     0.7410 H     1 <1>   0.0800 
 26 H       -1.8830    -1.5590    -3.3400 H     1 <1>   0.0800 
 27 H       -3.3440    -2.3940    -3.8010 H     1 <1>   0.0800 
 28 H       -4.9040    -2.7800    -1.7280 H     1 <1>   0.0800 
 29 H       -5.6300    -1.2280    -1.4480 H     1 <1>   0.0800 
 30 H       -1.1370    -4.0010    -0.9310 H     1 <1>   0.0800 
 31 H       -0.5440    -2.5510    -1.6940 H     1 <1>   0.0800 
 32 H       -3.2110    -2.7590     1.5530 H     1 <1>   0.0800 
 33 H       -3.4320    -3.7340     0.1420 H     1 <1>   0.0800 
 34 H       -5.4660    -2.2220     1.9380 H     1 <1>   0.0800 
 35 H       -6.4650    -1.6190     0.6760 H     1 <1>   0.0800 
 36 H       -8.2070    -5.4820    -1.4860 H     1 <1>   0.1500 
 37 H       -5.7760    -6.9570     1.6220 H     1 <1>   0.1500 
 38 H       -8.7180    -2.0620    -2.5470 H     1 <1>   0.0800 
 39 H       -9.3970    -3.4900    -1.7750 H     1 <1>   0.0800 
 40 H       -8.0670    -3.6510    -2.9390 H     1 <1>   0.0800 
 41 H       -7.3480    -7.3380    -0.1830 H     1 <1>   0.1500 
 42 H       -3.8100    -5.1040     4.0310 H     1 <1>   0.0800 
 43 H       -3.8720    -6.3100     2.7500 H     1 <1>   0.0800 
 44 H       -5.3040    -5.9890     3.7460 H     1 <1>   0.0800 
@<TRIPOS>BOND
  1   1   2  2   
  2   2   3  am  
  3   2   4  1   
  4   3   5  1   
  5   3  23  1   
  6   4   6  1   
  7   4   7  1   
  8   4  24  1   
  9   5   8  1   
 10   5   9  1   
 11   5  25  1   
 12   6  10  1   
 13   6  26  1   
 14   6  27  1   
 15   7  11  1   
 16   7  28  1   
 17   7  29  1   
 18   8  10  1   
 19   8  30  1   
 20   8  31  1   
 21   9  11  1   
 22   9  32  1   
 23   9  33  1   
 24  11  12  1   
 25  12  13  1   
 26  12  34  1   
 27  12  35  1   
 28  13  14  ar  
 29  13  15  ar  
 30  14  16  1   
 31  14  17  ar  
 32  15  18  1   
 33  15  19  ar  
 34  16  20  1   
 35  17  21  ar  
 36  17  36  1   
 37  18  22  1   
 38  19  21  ar  
 39  19  37  1   
 40  20  38  1   
 41  20  39  1   
 42  20  40  1   
 43  21  41  1   
 44  22  42  1   
 45  22  43  1   
 46  22  44  1   
@<TRIPOS>SUBSTRUCTURE
  1 ****  11 GROUP 4 **** **** 0

# MOE 2024.06 (io_trps.svl 2023.06)
