@<TRIPOS>MOLECULE
NONAME
42 45 1 0 0 
SMALL
USER_CHARGES


@<TRIPOS>ATOM
  1 S       -0.7410     0.5260     1.5440 S.3   1 <1>  -0.0800 
  2 C       -0.5200     1.9940     0.6160 C.2   1 <1>  -0.1400 
  3 C        0.9420     0.5720     2.0510 C.2   1 <1>  -0.1100 
  4 C        0.7360     2.4520     0.6930 C.2   1 <1>  -0.1810 
  5 C       -1.6340     2.6380    -0.1620 C.3   1 <1>   0.0200 
  6 C        1.5770     1.6370     1.5240 C.2   1 <1>  -0.1500 
  7 C        1.1670     3.7150    -0.0590 C.3   1 <1>   0.4610 
  8 C       -1.2130     4.0910    -0.4310 C.3   1 <1>   0.1200 
  9 O        0.1160     4.1650    -0.8960 O.3   1 <1>  -0.5600 
 10 C        1.5110     4.8440     0.9270 C.3   1 <1>  -0.1600 
 11 C        2.3340     3.4010    -1.0160 C.3   1 <1>  -0.1600 
 12 C        2.3310     5.9310     0.2380 C.3   1 <1>   0.1400 
 13 C        3.6860     3.9040    -0.5060 C.3   1 <1>   0.1400 
 14 N        3.6350     5.3700    -0.2280 N.am  1 <1>  -0.6600 
 15 C        4.7970     6.1130    -0.2490 C.2   1 <1>   0.5440 
 16 O        5.8640     5.5310    -0.2660 O.2   1 <1>  -0.5700 
 17 C        4.7870     7.5650    -0.2340 C.ar  1 <1>   0.0860 
 18 C        5.6080     8.2720     0.6430 C.ar  1 <1>  -0.1500 
 19 C        3.9790     8.3040    -1.0960 C.ar  1 <1>  -0.1500 
 20 C        5.6250     9.6600     0.6880 C.ar  1 <1>   0.0730 
 21 C        3.9760     9.6860    -1.0690 C.ar  1 <1>  -0.1500 
 22 C        6.4790    10.3580     1.6060 C.1   1 <1>   0.4840 
 23 C        4.7930    10.3590    -0.1790 C.ar  1 <1>  -0.1500 
 24 N        7.1500    10.9190     2.3380 N.1   1 <1>  -0.5570 
 25 H        1.2810    -0.2150     2.7000 H     1 <1>   0.1500 
 26 H       -2.5470     2.6220     0.4040 H     1 <1>   0.0800 
 27 H       -1.7880     2.1150    -1.0880 H     1 <1>   0.0800 
 28 H        2.6110     1.8830     1.6870 H     1 <1>   0.1500 
 29 H       -1.2960     4.6750     0.4680 H     1 <1>   0.0800 
 30 H       -1.8480     4.5270    -1.1830 H     1 <1>   0.0800 
 31 H        2.0890     4.4520     1.7440 H     1 <1>   0.0800 
 32 H        0.6180     5.2620     1.3480 H     1 <1>   0.0800 
 33 H        2.1580     3.8610    -1.9720 H     1 <1>   0.0800 
 34 H        2.3940     2.3410    -1.1810 H     1 <1>   0.0800 
 35 H        2.5060     6.7390     0.9290 H     1 <1>   0.0800 
 36 H        1.7840     6.3130    -0.6080 H     1 <1>   0.0800 
 37 H        4.4450     3.7040    -1.2450 H     1 <1>   0.0800 
 38 H        3.9600     3.3870     0.3980 H     1 <1>   0.0800 
 39 H        6.2500     7.7110     1.3020 H     1 <1>   0.1500 
 40 H        3.3520     7.7830    -1.8000 H     1 <1>   0.1500 
 41 H        3.3410    10.2380    -1.7430 H     1 <1>   0.1500 
 42 H        4.7880    11.4360    -0.1620 H     1 <1>   0.1500 
@<TRIPOS>BOND
  1   1   2  1   
  2   1   3  1   
  3   2   4  2   
  4   2   5  1   
  5   3   6  2   
  6   3  25  1   
  7   4   6  1   
  8   4   7  1   
  9   5   8  1   
 10   5  26  1   
 11   5  27  1   
 12   6  28  1   
 13   7   9  1   
 14   7  10  1   
 15   7  11  1   
 16   8   9  1   
 17   8  29  1   
 18   8  30  1   
 19  10  12  1   
 20  10  31  1   
 21  10  32  1   
 22  11  13  1   
 23  11  33  1   
 24  11  34  1   
 25  12  14  1   
 26  12  35  1   
 27  12  36  1   
 28  13  14  1   
 29  13  37  1   
 30  13  38  1   
 31  14  15  am  
 32  15  16  2   
 33  15  17  1   
 34  17  18  ar  
 35  17  19  ar  
 36  18  20  ar  
 37  18  39  1   
 38  19  21  ar  
 39  19  40  1   
 40  20  22  1   
 41  20  23  ar  
 42  21  23  ar  
 43  21  41  1   
 44  22  24  3   
 45  23  42  1   
@<TRIPOS>SUBSTRUCTURE
  1 ****  12 GROUP 4 **** **** 0

# MOE 2024.06 (io_trps.svl 2023.06)
