@<TRIPOS>MOLECULE
NONAME
42 44 1 0 0 
SMALL
USER_CHARGES


@<TRIPOS>ATOM
  1 S        1.2580    -1.2940    -2.0250 S.3   1 <1>  -0.0800 
  2 C        0.6590    -1.8320    -0.4760 C.2   1 <1>   0.1980 
  3 C        1.3880     0.3190    -1.3840 C.2   1 <1>  -0.1400 
  4 N        0.5690    -0.9150     0.4050 N.2   1 <1>  -0.5650 
  5 C        0.3140    -3.3060    -0.3380 C.3   1 <1>   0.5230 
  6 C        0.9810     0.3070    -0.1020 C.2   1 <1>   0.0460 
  7 C        1.9080     1.3850    -2.3310 C.3   1 <1>  -0.0600 
  8 N       -0.3630    -3.5560     0.9800 N.4   1 <1>  -0.9590 
  9 C        0.9250     1.4820     0.8530 C.3   1 <1>  -0.0590 
 10 C       -1.7540    -2.9900     1.0090 C.3   1 <1>   0.3430 
 11 C       -0.4540    -5.0070     1.2980 C.3   1 <1>   0.3430 
 12 C       -2.6730    -4.1410     1.4450 C.3   1 <1>   0.2000 
 13 C       -1.9120    -5.4030     1.0400 C.3   1 <1>  -0.0800 
 14 O       -2.8220    -4.1360     2.8260 O.3   1 <1>  -0.6800 
 15 C       -2.2100    -5.7630    -0.4360 C.3   1 <1>  -0.0160 
 16 C       -1.1760    -6.6920    -1.0520 C.ar  1 <1>   0.1670 
 17 N       -0.0770    -6.1140    -1.5200 N.ar  1 <1>  -0.6200 
 18 C       -1.4130    -8.0650    -1.1100 C.ar  1 <1>   0.1600 
 19 C        0.7510    -6.9980    -2.0630 C.ar  1 <1>   0.1600 
 20 N       -0.5760    -8.9420    -1.6320 N.ar  1 <1>  -0.6200 
 21 C        0.5090    -8.3660    -2.1150 C.ar  1 <1>   0.1600 
 22 H        1.2240    -3.8790    -0.3980 H     1 <1>   0.0800 
 23 H       -0.3260    -3.6070    -1.1510 H     1 <1>   0.0800 
 24 H        1.9520     2.3420    -1.8440 H     1 <1>   0.0800 
 25 H        1.2600     1.4650    -3.1850 H     1 <1>   0.0800 
 26 H        2.8950     1.1260    -2.6680 H     1 <1>   0.0800 
 27 H        0.2070    -3.0390     1.6690 H     1 <1>   0.4500 
 28 H        1.2630     2.3830     0.3770 H     1 <1>   0.0800 
 29 H        1.5510     1.2860     1.7040 H     1 <1>   0.0800 
 30 H       -0.0840     1.6270     1.1900 H     1 <1>   0.0800 
 31 H       -1.8320    -2.1530     1.6840 H     1 <1>   0.0800 
 32 H       -2.0340    -2.6650     0.0210 H     1 <1>   0.0800 
 33 H        0.2440    -5.5960     0.7260 H     1 <1>   0.0800 
 34 H       -0.2380    -5.1540     2.3440 H     1 <1>   0.0800 
 35 H       -3.6560    -4.0730     1.0100 H     1 <1>   0.0800 
 36 H       -2.1840    -6.2430     1.6570 H     1 <1>   0.0800 
 37 H       -1.9760    -4.0790     3.3100 H     1 <1>   0.4000 
 38 H       -2.2570    -4.8780    -1.0450 H     1 <1>   0.0800 
 39 H       -3.1820    -6.2240    -0.4920 H     1 <1>   0.0800 
 40 H       -2.3320    -8.4580    -0.7100 H     1 <1>   0.1500 
 41 H        1.6670    -6.6280    -2.4900 H     1 <1>   0.1500 
 42 H        1.2430    -9.0060    -2.5740 H     1 <1>   0.1500 
@<TRIPOS>BOND
  1   1   2  1   
  2   1   3  1   
  3   2   4  2   
  4   2   5  1   
  5   3   6  2   
  6   3   7  1   
  7   4   6  1   
  8   5   8  1   
  9   5  22  1   
 10   5  23  1   
 11   6   9  1   
 12   7  24  1   
 13   7  25  1   
 14   7  26  1   
 15   8  10  1   
 16   8  11  1   
 17   8  27  1   
 18   9  28  1   
 19   9  29  1   
 20   9  30  1   
 21  10  12  1   
 22  10  31  1   
 23  10  32  1   
 24  11  13  1   
 25  11  33  1   
 26  11  34  1   
 27  12  13  1   
 28  12  14  1   
 29  12  35  1   
 30  13  15  1   
 31  13  36  1   
 32  14  37  1   
 33  15  16  1   
 34  15  38  1   
 35  15  39  1   
 36  16  17  ar  
 37  16  18  ar  
 38  17  19  ar  
 39  18  20  ar  
 40  18  40  1   
 41  19  21  ar  
 42  19  41  1   
 43  20  21  ar  
 44  21  42  1   
@<TRIPOS>SUBSTRUCTURE
  1 ****   5 GROUP 4 **** **** 0

# MOE 2024.06 (io_trps.svl 2023.06)
