@<TRIPOS>MOLECULE
NONAME
62 66 1 0 0 
SMALL
USER_CHARGES


@<TRIPOS>ATOM
  1 O       -1.1210     0.7490    -0.5650 O.2   1 <1>  -0.5700 
  2 C       -2.2030     0.3490    -0.9540 C.2   1 <1>   0.7150 
  3 N       -2.5280    -0.9730    -0.7820 N.am  1 <1>  -0.6600 
  4 C       -3.1260     1.2440    -1.5940 C.2   1 <1>  -0.2370 
  5 C       -1.6680    -1.9880    -0.1960 C.3   1 <1>   0.2200 
  6 C       -3.7690    -1.4710    -0.2990 C.3   1 <1>   0.2200 
  7 N       -3.9850     0.8450    -2.5810 N.pl3 1 <1>   0.0330 
  8 C       -3.3250     2.5860    -1.3970 C.2   1 <1>  -0.1500 
  9 C       -2.1100    -3.3750    -0.8380 C.3   1 <1>   0.0610 
 10 C       -2.0720    -1.9190     1.2900 C.3   1 <1>  -0.1600 
 11 C       -3.6360    -2.8780    -0.8500 C.3   1 <1>  -0.1600 
 12 C       -3.5450    -1.5160     1.2110 C.3   1 <1>  -0.1600 
 13 C       -4.7160     1.9140    -2.9780 C.2   1 <1>  -0.3020 
 14 C       -4.3310     3.0050    -2.2640 C.2   1 <1>  -0.1500 
 15 C       -2.6160    -4.7430    -1.3610 C.2   1 <1>   0.5690 
 16 C       -0.5890    -3.8700    -0.9360 C.3   1 <1>  -0.0160 
 17 O       -2.6910    -4.9430    -2.5530 O.2   1 <1>  -0.5700 
 18 N       -2.9950    -5.7000    -0.4710 N.am  1 <1>  -0.7300 
 19 C        0.1320    -4.1160     0.3970 C.ar  1 <1>  -0.1440 
 20 C       -3.6560    -6.9670    -0.8190 C.3   1 <1>   0.2840 
 21 C       -0.1230    -5.2620     1.1370 C.ar  1 <1>  -0.1500 
 22 C        1.0730    -3.2130     0.8760 C.ar  1 <1>  -0.1500 
 23 C       -4.8580    -7.1120     0.0940 C.ar  1 <1>  -0.1440 
 24 C        0.5140    -5.4820     2.3460 C.ar  1 <1>  -0.1500 
 25 C        1.7130    -3.4300     2.0840 C.ar  1 <1>  -0.1500 
 26 C       -4.7610    -7.8260     1.2800 C.ar  1 <1>  -0.1500 
 27 C       -6.0630    -6.5170    -0.2450 C.ar  1 <1>  -0.1500 
 28 C        1.4300    -4.5630     2.8230 C.ar  1 <1>  -0.1500 
 29 C       -5.8580    -7.9400     2.1140 C.ar  1 <1>  -0.1500 
 30 C       -7.1630    -6.6310     0.5870 C.ar  1 <1>  -0.1500 
 31 C       -7.0640    -7.3470     1.7770 C.ar  1 <1>   0.0820 
 32 O       -8.0890    -7.5070     2.6510 O.3   1 <1>  -0.3630 
 33 C       -9.3710    -6.9870     2.3810 C.3   1 <1>   0.0400 
 34 H       -0.6500    -1.6670    -0.3200 H     1 <1>   0.0800 
 35 H       -4.6410    -0.9250    -0.6180 H     1 <1>   0.0800 
 36 H       -4.0340    -0.1090    -2.9570 H     1 <1>   0.2700 
 37 H       -2.7990     3.2130    -0.6970 H     1 <1>   0.1500 
 38 H       -1.9270    -2.8590     1.7910 H     1 <1>   0.0800 
 39 H       -1.4940    -1.1600     1.7900 H     1 <1>   0.0800 
 40 H       -4.3080    -3.5030    -0.2840 H     1 <1>   0.0800 
 41 H       -4.0070    -2.8440    -1.8630 H     1 <1>   0.0800 
 42 H       -3.7000    -0.5400     1.6370 H     1 <1>   0.0800 
 43 H       -4.1940    -2.2240     1.6970 H     1 <1>   0.0800 
 44 H       -5.4650     1.8530    -3.7480 H     1 <1>   0.1500 
 45 H       -4.7100     4.0110    -2.3390 H     1 <1>   0.1500 
 46 H       -0.4220    -4.7750    -1.5020 H     1 <1>   0.0800 
 47 H       -0.0210    -3.1660    -1.5220 H     1 <1>   0.0800 
 48 H       -3.0010    -5.4880     0.5280 H     1 <1>   0.3700 
 49 H       -3.9680    -6.9610    -1.8510 H     1 <1>   0.0800 
 50 H       -2.9700    -7.7840    -0.6750 H     1 <1>   0.0800 
 51 H       -0.8090    -6.0040     0.7780 H     1 <1>   0.1500 
 52 H        1.3220    -2.3290     0.3150 H     1 <1>   0.1500 
 53 H        0.3020    -6.3720     2.9130 H     1 <1>   0.1500 
 54 H        2.4330    -2.7170     2.4460 H     1 <1>   0.1500 
 55 H       -3.8340    -8.2950     1.5600 H     1 <1>   0.1500 
 56 H       -6.1460    -5.9590    -1.1630 H     1 <1>   0.1500 
 57 H        1.9260    -4.7320     3.7630 H     1 <1>   0.1500 
 58 H       -5.7890    -8.4920     3.0340 H     1 <1>   0.1500 
 59 H       -8.0830    -6.1610     0.2950 H     1 <1>   0.1500 
 60 H      -10.0170    -7.2510     3.1980 H     1 <1>   0.0800 
 61 H       -9.7390    -7.4220     1.4690 H     1 <1>   0.0800 
 62 H       -9.3040    -5.9170     2.2990 H     1 <1>   0.0800 
@<TRIPOS>BOND
  1   1   2  2   
  2   2   3  am  
  3   2   4  1   
  4   3   5  1   
  5   3   6  1   
  6   4   7  1   
  7   4   8  2   
  8   5   9  1   
  9   5  10  1   
 10   5  34  1   
 11   6  11  1   
 12   6  12  1   
 13   6  35  1   
 14   7  13  1   
 15   7  36  1   
 16   8  14  1   
 17   8  37  1   
 18   9  11  1   
 19   9  15  1   
 20   9  16  1   
 21  10  12  1   
 22  10  38  1   
 23  10  39  1   
 24  11  40  1   
 25  11  41  1   
 26  12  42  1   
 27  12  43  1   
 28  13  14  2   
 29  13  44  1   
 30  14  45  1   
 31  15  17  2   
 32  15  18  am  
 33  16  19  1   
 34  16  46  1   
 35  16  47  1   
 36  18  20  1   
 37  18  48  1   
 38  19  21  ar  
 39  19  22  ar  
 40  20  23  1   
 41  20  49  1   
 42  20  50  1   
 43  21  24  ar  
 44  21  51  1   
 45  22  25  ar  
 46  22  52  1   
 47  23  26  ar  
 48  23  27  ar  
 49  24  28  ar  
 50  24  53  1   
 51  25  28  ar  
 52  25  54  1   
 53  26  29  ar  
 54  26  55  1   
 55  27  30  ar  
 56  27  56  1   
 57  28  57  1   
 58  29  31  ar  
 59  29  58  1   
 60  30  31  ar  
 61  30  59  1   
 62  31  32  1   
 63  32  33  1   
 64  33  60  1   
 65  33  61  1   
 66  33  62  1   
@<TRIPOS>SUBSTRUCTURE
  1 ****  11 GROUP 4 **** **** 0

# MOE 2024.06 (io_trps.svl 2023.06)
