@<TRIPOS>MOLECULE
NONAME
38 38 1 0 0 
SMALL
USER_CHARGES


@<TRIPOS>ATOM
  1 S        1.3860     0.9350    -0.2190 S.3   1 <1>  -0.4600 
  2 C        0.9850     2.2900     0.9440 C.3   1 <1>   0.2110 
  3 C        0.5780    -0.5140     0.5070 C.3   1 <1>   0.0700 
  4 C        1.0720     3.6580     0.2510 C.2   1 <1>   0.5690 
  5 C        1.9570     2.1670     2.1250 C.3   1 <1>  -0.2400 
  6 C        0.8010    -1.6860    -0.4430 C.3   1 <1>  -0.2400 
  7 O        0.5350     4.6090     0.7680 O.2   1 <1>  -0.5700 
  8 N        1.7700     3.7880    -0.9050 N.am  1 <1>  -0.7300 
  9 C        1.9460     5.0340    -1.6780 C.3   1 <1>   0.3200 
 10 C        3.4230     5.3780    -1.7840 C.2   1 <1>   0.0060 
 11 N        4.1080     5.2320    -2.8740 N.2   1 <1>  -0.5650 
 12 N        4.1480     5.8720    -0.7480 N.pl3 1 <1>   0.0480 
 13 C        5.3420     5.6490    -2.5390 C.2   1 <1>   0.0770 
 14 C        5.3850     6.0430    -1.2490 C.2   1 <1>  -0.3020 
 15 C        3.7250     6.1690     0.6390 C.3   1 <1>   0.0960 
 16 C        3.1310     7.5790     0.7370 C.3   1 <1>  -0.1600 
 17 C        2.6340     7.8690     2.1570 C.3   1 <1>  -0.2400 
 18 H       -0.0270     2.1330     1.2680 H     1 <1>   0.0800 
 19 H       -0.4680    -0.2850     0.6170 H     1 <1>   0.0800 
 20 H        1.0270    -0.6940     1.4680 H     1 <1>   0.0800 
 21 H        2.9700     2.2680     1.7810 H     1 <1>   0.0800 
 22 H        1.8430     1.2170     2.6120 H     1 <1>   0.0800 
 23 H        1.7570     2.9450     2.8400 H     1 <1>   0.0800 
 24 H        0.3730    -1.4690    -1.4060 H     1 <1>   0.0800 
 25 H        0.3360    -2.5720    -0.0500 H     1 <1>   0.0800 
 26 H        1.8540    -1.8720    -0.5620 H     1 <1>   0.0800 
 27 H        2.2170     2.9580    -1.3100 H     1 <1>   0.3700 
 28 H        1.4110     5.8440    -1.2150 H     1 <1>   0.0800 
 29 H        1.5460     4.8920    -2.6670 H     1 <1>   0.0800 
 30 H        6.1460     5.6430    -3.2550 H     1 <1>   0.1500 
 31 H        6.2090     6.4250    -0.6770 H     1 <1>   0.1500 
 32 H        4.5800     6.0850     1.2840 H     1 <1>   0.0800 
 33 H        3.0010     5.4390     0.9490 H     1 <1>   0.0800 
 34 H        2.3030     7.6710     0.0550 H     1 <1>   0.0800 
 35 H        3.8790     8.3030     0.4650 H     1 <1>   0.0800 
 36 H        1.8660     7.1670     2.4350 H     1 <1>   0.0800 
 37 H        2.2210     8.8610     2.2070 H     1 <1>   0.0800 
 38 H        3.4420     7.7990     2.8640 H     1 <1>   0.0800 
@<TRIPOS>BOND
  1   1   2  1   
  2   1   3  1   
  3   2   4  1   
  4   2   5  1   
  5   2  18  1   
  6   3   6  1   
  7   3  19  1   
  8   3  20  1   
  9   4   7  2   
 10   4   8  am  
 11   5  21  1   
 12   5  22  1   
 13   5  23  1   
 14   6  24  1   
 15   6  25  1   
 16   6  26  1   
 17   8   9  1   
 18   8  27  1   
 19   9  10  1   
 20   9  28  1   
 21   9  29  1   
 22  10  11  2   
 23  10  12  1   
 24  11  13  1   
 25  12  14  1   
 26  12  15  1   
 27  13  14  2   
 28  13  30  1   
 29  14  31  1   
 30  15  16  1   
 31  15  32  1   
 32  15  33  1   
 33  16  17  1   
 34  16  34  1   
 35  16  35  1   
 36  17  36  1   
 37  17  37  1   
 38  17  38  1   
@<TRIPOS>SUBSTRUCTURE
  1 ****   8 GROUP 4 **** **** 0

# MOE 2024.06 (io_trps.svl 2023.06)
