@<TRIPOS>MOLECULE
NONAME
44 46 1 0 0 
SMALL
USER_CHARGES


@<TRIPOS>ATOM
  1 O        2.8260    -1.5510    -2.5170 O.2   1 <1>  -0.5700 
  2 C        2.2920    -1.8770    -1.4690 C.2   1 <1>   0.5440 
  3 N        1.7970    -0.8520    -0.6780 N.am  1 <1>  -0.6600 
  4 C        2.2350    -3.3020    -1.1230 C.ar  1 <1>   0.3960 
  5 C        1.1720    -0.9920     0.6590 C.3   1 <1>   0.1400 
  6 C        1.9700     0.5770    -1.0240 C.3   1 <1>   0.1400 
  7 N        1.2880    -3.7910    -0.3020 N.ar  1 <1>  -0.6200 
  8 C        3.2000    -4.1450    -1.6900 C.ar  1 <1>   0.1600 
  9 C        0.8500     0.4310     1.1040 C.3   1 <1>  -0.1600 
 10 C        1.7860     1.3200     0.2920 C.3   1 <1>  -0.1600 
 11 C        1.3730    -5.0870    -0.1020 C.ar  1 <1>   0.4100 
 12 N        3.3030    -5.4540    -1.4920 N.ar  1 <1>  -0.6200 
 13 N        0.3980    -5.5760     0.7200 N.pl3 1 <1>  -0.8690 
 14 C        2.3660    -5.8920    -0.6790 C.ar  1 <1>   0.1600 
 15 C       -0.6150    -6.4710     0.1510 C.3   1 <1>   0.4330 
 16 C       -1.9780    -5.8710     0.4800 C.ar  1 <1>  -0.1430 
 17 C       -0.4230    -7.8790     0.7320 C.3   1 <1>  -0.1600 
 18 C       -2.4400    -5.7310     1.7760 C.ar  1 <1>  -0.1500 
 19 C       -2.8260    -5.4230    -0.5140 C.ar  1 <1>  -0.1500 
 20 C       -1.4460    -8.8950     0.1980 C.3   1 <1>  -0.2400 
 21 C       -3.6870    -5.1770     2.0060 C.ar  1 <1>   0.1600 
 22 C       -4.0560    -4.8810    -0.1770 C.ar  1 <1>   0.1600 
 23 N       -4.5070    -4.7500     1.0600 N.ar  1 <1>  -0.6200 
 24 H        1.8740    -1.4530     1.3340 H     1 <1>   0.0800 
 25 H        0.2750    -1.5860     0.6030 H     1 <1>   0.0800 
 26 H        1.2070     0.8580    -1.7300 H     1 <1>   0.0800 
 27 H        2.9410     0.7600    -1.4510 H     1 <1>   0.0800 
 28 H        3.9310    -3.7050    -2.3470 H     1 <1>   0.1500 
 29 H        0.9800     0.5560     2.1640 H     1 <1>   0.0800 
 30 H       -0.1730     0.6500     0.8500 H     1 <1>   0.0800 
 31 H        1.3890     2.3080     0.1410 H     1 <1>   0.0800 
 32 H        2.7400     1.3950     0.7850 H     1 <1>   0.0800 
 33 H       -0.0950    -4.7910     1.1530 H     1 <1>   0.4000 
 34 H        2.3640    -6.9380    -0.4390 H     1 <1>   0.1500 
 35 H       -0.4960    -6.5150    -0.9200 H     1 <1>   0.0800 
 36 H       -0.4940    -7.8390     1.8040 H     1 <1>   0.0800 
 37 H        0.5630    -8.2250     0.4810 H     1 <1>   0.0800 
 38 H       -1.8400    -6.0470     2.6100 H     1 <1>   0.1500 
 39 H       -2.5450    -5.4850    -1.5500 H     1 <1>   0.1500 
 40 H       -2.4470    -8.6120     0.4780 H     1 <1>   0.0800 
 41 H       -1.2450    -9.8690     0.6090 H     1 <1>   0.0800 
 42 H       -1.3920    -8.9590    -0.8740 H     1 <1>   0.0800 
 43 H       -4.0300    -5.0800     3.0220 H     1 <1>   0.1500 
 44 H       -4.7020    -4.5360    -0.9660 H     1 <1>   0.1500 
@<TRIPOS>BOND
  1   1   2  2   
  2   2   3  am  
  3   2   4  1   
  4   3   5  1   
  5   3   6  1   
  6   4   7  ar  
  7   4   8  ar  
  8   5   9  1   
  9   5  24  1   
 10   5  25  1   
 11   6  10  1   
 12   6  26  1   
 13   6  27  1   
 14   7  11  ar  
 15   8  12  ar  
 16   8  28  1   
 17   9  10  1   
 18   9  29  1   
 19   9  30  1   
 20  10  31  1   
 21  10  32  1   
 22  11  13  1   
 23  11  14  ar  
 24  12  14  ar  
 25  13  15  1   
 26  13  33  1   
 27  14  34  1   
 28  15  16  1   
 29  15  17  1   
 30  15  35  1   
 31  16  18  ar  
 32  16  19  ar  
 33  17  20  1   
 34  17  36  1   
 35  17  37  1   
 36  18  21  ar  
 37  18  38  1   
 38  19  22  ar  
 39  19  39  1   
 40  20  40  1   
 41  20  41  1   
 42  20  42  1   
 43  21  23  ar  
 44  21  43  1   
 45  22  23  ar  
 46  22  44  1   
@<TRIPOS>SUBSTRUCTURE
  1 ****   7 GROUP 4 **** **** 0

# MOE 2024.06 (io_trps.svl 2023.06)
