@<TRIPOS>MOLECULE
NONAME
42 45 1 0 0 
SMALL
USER_CHARGES


@<TRIPOS>ATOM
  1 CL       0.2390     0.0600     0.0990 Cl    1 <1>  -0.1770 
  2 C       -1.2130     1.0200     0.1820 C.ar  1 <1>   0.1770 
  3 C       -1.1330     2.3860     0.1730 C.ar  1 <1>  -0.1500 
  4 C       -2.4410     0.3690     0.2590 C.ar  1 <1>  -0.1500 
  5 C       -2.2870     3.1930     0.2080 C.ar  1 <1>   0.0000 
  6 C       -3.5840     1.1210     0.3560 C.ar  1 <1>  -0.1500 
  7 C       -3.5240     2.5260     0.3640 C.ar  1 <1>   0.3610 
  8 C       -2.2620     4.6270     0.1510 C.ar  1 <1>   0.1000 
  9 N       -4.6660     3.2680     0.5610 N.ar  1 <1>  -0.1790 
 10 N       -1.1630     5.3610    -0.1760 N.pl3 1 <1>  -0.8380 
 11 C       -3.4670     5.2870     0.4100 C.ar  1 <1>  -0.1500 
 12 C       -4.6410     4.6100     0.6080 C.ar  1 <1>   0.2110 
 13 C       -0.8870     6.6870     0.4980 C.3   1 <1>   0.2090 
 14 C       -0.3250     5.0420    -1.3920 C.3   1 <1>   0.2090 
 15 C        0.5770     7.0280     0.8730 C.3   1 <1>   0.2200 
 16 C        1.2060     5.1890    -1.2780 C.3   1 <1>  -0.0190 
 17 N        1.3500     7.4800    -0.3190 N.am  1 <1>  -0.6600 
 18 C        1.3320     5.9420     1.6760 C.3   1 <1>   0.1200 
 19 C        1.6090     6.6410    -1.3610 C.2   1 <1>   0.5690 
 20 C        1.9320     4.4900    -0.1150 C.3   1 <1>   0.1200 
 21 C        1.7770     8.9090    -0.3300 C.3   1 <1>   0.0600 
 22 O        1.2950     4.6620     1.1120 O.3   1 <1>  -0.5600 
 23 O        2.1630     7.0160    -2.3680 O.2   1 <1>  -0.5700 
 24 H       -0.1680     2.8460     0.1540 H     1 <1>   0.1500 
 25 H       -2.4610    -0.7090     0.2520 H     1 <1>   0.1500 
 26 H       -4.5330     0.6200     0.4350 H     1 <1>   0.1500 
 27 H       -5.5450     2.7600     0.6970 H     1 <1>   0.4570 
 28 H       -3.4850     6.3610     0.4200 H     1 <1>   0.1500 
 29 H       -5.5590     5.1460     0.7920 H     1 <1>   0.1500 
 30 H       -1.2660     7.4780    -0.1260 H     1 <1>   0.0800 
 31 H       -1.4430     6.7110     1.4170 H     1 <1>   0.0800 
 32 H       -0.5410     4.0420    -1.7190 H     1 <1>   0.0800 
 33 H       -0.6520     5.6880    -2.1890 H     1 <1>   0.0800 
 34 H        0.5150     7.8770     1.5320 H     1 <1>   0.0800 
 35 H        1.6040     4.7400    -2.1690 H     1 <1>   0.0800 
 36 H        0.8770     5.8530     2.6470 H     1 <1>   0.0800 
 37 H        2.3600     6.2260     1.8160 H     1 <1>   0.0800 
 38 H        2.9470     4.8420    -0.0300 H     1 <1>   0.0800 
 39 H        1.9660     3.4310    -0.3000 H     1 <1>   0.0800 
 40 H        2.3950     9.1130     0.5270 H     1 <1>   0.0800 
 41 H        0.9130     9.5500    -0.3090 H     1 <1>   0.0800 
 42 H        2.3450     9.1320    -1.2170 H     1 <1>   0.0800 
@<TRIPOS>BOND
  1   1   2  1   
  2   2   3  ar  
  3   2   4  ar  
  4   3   5  ar  
  5   3  24  1   
  6   4   6  ar  
  7   4  25  1   
  8   5   7  ar  
  9   5   8  ar  
 10   6   7  ar  
 11   6  26  1   
 12   7   9  ar  
 13   8  10  1   
 14   8  11  ar  
 15   9  12  ar  
 16   9  27  1   
 17  10  13  1   
 18  10  14  1   
 19  11  12  ar  
 20  11  28  1   
 21  12  29  1   
 22  13  15  1   
 23  13  30  1   
 24  13  31  1   
 25  14  16  1   
 26  14  32  1   
 27  14  33  1   
 28  15  17  1   
 29  15  18  1   
 30  15  34  1   
 31  16  19  1   
 32  16  20  1   
 33  16  35  1   
 34  17  19  am  
 35  17  21  1   
 36  18  22  1   
 37  18  36  1   
 38  18  37  1   
 39  19  23  2   
 40  20  22  1   
 41  20  38  1   
 42  20  39  1   
 43  21  40  1   
 44  21  41  1   
 45  21  42  1   
@<TRIPOS>SUBSTRUCTURE
  1 ****  10 GROUP 4 **** **** 0

# MOE 2024.06 (io_trps.svl 2023.06)
