@<TRIPOS>MOLECULE
NONAME
51 54 1 0 0 
SMALL
USER_CHARGES


@<TRIPOS>ATOM
  1 O        0.2420     0.3940    -0.2640 O.2   1 <1>  -0.5700 
  2 C       -0.4570     1.0540     0.4850 C.2   1 <1>   0.6900 
  3 N       -1.8090     1.1450     0.2820 N.am  1 <1>  -0.6600 
  4 N        0.1130     1.7360     1.5020 N.am  1 <1>  -0.7300 
  5 C       -2.6600     2.2280     0.8820 C.3   1 <1>   0.1400 
  6 C       -2.4110     0.3940    -0.8600 C.3   1 <1>   0.1400 
  7 C        1.5030     2.2160     1.4700 C.3   1 <1>   0.2840 
  8 C       -3.3350     3.0720    -0.2160 C.3   1 <1>   0.1430 
  9 C       -3.9120     0.6750    -1.0070 C.3   1 <1>  -0.1600 
 10 C        1.4780     3.6610     1.0050 C.ar  1 <1>  -0.1440 
 11 C       -4.0930     4.1950     0.4760 C.ar  1 <1>   0.1670 
 12 C       -4.2320     2.1800    -1.1210 C.3   1 <1>  -0.1600 
 13 C       -2.2730     3.8660    -1.0310 C.3   1 <1>  -0.1600 
 14 C        1.5120     3.9470    -0.3510 C.ar  1 <1>  -0.1500 
 15 C        1.4080     4.7030     1.9160 C.ar  1 <1>  -0.1500 
 16 N       -5.2420     4.0750     1.1000 N.ar  1 <1>  -0.6200 
 17 C       -3.4110     5.3750     0.4050 C.ar  1 <1>  -0.1440 
 18 C       -2.1080     5.2270    -0.3380 C.3   1 <1>  -0.0170 
 19 C        1.4810     5.2590    -0.7910 C.ar  1 <1>  -0.1500 
 20 C        1.3740     6.0150     1.4750 C.ar  1 <1>  -0.1500 
 21 C       -5.6820     5.2000     1.6430 C.ar  1 <1>   0.7200 
 22 C       -3.9720     6.4790     1.0010 C.ar  1 <1>   0.1600 
 23 C        1.4090     6.3000     0.1200 C.ar  1 <1>  -0.1440 
 24 N       -5.1250     6.4030     1.6260 N.ar  1 <1>  -0.6200 
 25 N       -6.8550     5.1170     2.2730 N.pl3 1 <1>  -0.9000 
 26 C        1.3750     7.7390    -0.3620 C.3   1 <1>  -0.0970 
 27 H       -0.5070     2.2990     2.0730 H     1 <1>   0.3700 
 28 H       -2.0800     2.8790     1.5090 H     1 <1>   0.0800 
 29 H       -3.4170     1.7760     1.5000 H     1 <1>   0.0800 
 30 H       -2.2490    -0.6590    -0.7090 H     1 <1>   0.0800 
 31 H       -1.9030     0.6800    -1.7670 H     1 <1>   0.0800 
 32 H        2.0930     1.6160     0.7970 H     1 <1>   0.0800 
 33 H        1.9320     2.1410     2.4540 H     1 <1>   0.0800 
 34 H       -4.4170     0.2650    -0.1490 H     1 <1>   0.0800 
 35 H       -4.2900     0.1600    -1.8730 H     1 <1>   0.0800 
 36 H       -4.1390     2.4800    -2.1490 H     1 <1>   0.0800 
 37 H       -5.2660     2.3150    -0.8570 H     1 <1>   0.0800 
 38 H       -2.6390     4.0550    -2.0240 H     1 <1>   0.0800 
 39 H       -1.3320     3.3510    -1.1160 H     1 <1>   0.0800 
 40 H        1.5600     3.1430    -1.0670 H     1 <1>   0.1500 
 41 H        1.3800     4.4990     2.9720 H     1 <1>   0.1500 
 42 H       -1.9490     6.0200    -1.0470 H     1 <1>   0.0800 
 43 H       -1.2930     5.1960     0.3650 H     1 <1>   0.0800 
 44 H        1.5140     5.4630    -1.8470 H     1 <1>   0.1500 
 45 H        1.3230     6.8140     2.1940 H     1 <1>   0.1500 
 46 H       -3.4690     7.4300     0.9660 H     1 <1>   0.1500 
 47 H       -7.3340     6.0020     2.4080 H     1 <1>   0.4000 
 48 H       -7.4270     4.3180     2.0150 H     1 <1>   0.4000 
 49 H        0.8990     7.8030    -1.3240 H     1 <1>   0.0800 
 50 H        2.3790     8.1160    -0.4470 H     1 <1>   0.0800 
 51 H        0.8290     8.3560     0.3290 H     1 <1>   0.0800 
@<TRIPOS>BOND
  1   1   2  2   
  2   2   3  am  
  3   2   4  am  
  4   3   5  1   
  5   3   6  1   
  6   4   7  1   
  7   4  27  1   
  8   5   8  1   
  9   5  28  1   
 10   5  29  1   
 11   6   9  1   
 12   6  30  1   
 13   6  31  1   
 14   7  10  1   
 15   7  32  1   
 16   7  33  1   
 17   8  11  1   
 18   8  12  1   
 19   8  13  1   
 20   9  12  1   
 21   9  34  1   
 22   9  35  1   
 23  10  14  ar  
 24  10  15  ar  
 25  11  16  ar  
 26  11  17  ar  
 27  12  36  1   
 28  12  37  1   
 29  13  18  1   
 30  13  38  1   
 31  13  39  1   
 32  14  19  ar  
 33  14  40  1   
 34  15  20  ar  
 35  15  41  1   
 36  16  21  ar  
 37  17  18  1   
 38  17  22  ar  
 39  18  42  1   
 40  18  43  1   
 41  19  23  ar  
 42  19  44  1   
 43  20  23  ar  
 44  20  45  1   
 45  21  24  ar  
 46  21  25  1   
 47  22  24  ar  
 48  22  46  1   
 49  23  26  1   
 50  25  47  1   
 51  25  48  1   
 52  26  49  1   
 53  26  50  1   
 54  26  51  1   
@<TRIPOS>SUBSTRUCTURE
  1 ****  13 GROUP 4 **** **** 0

# MOE 2024.06 (io_trps.svl 2023.06)
