@<TRIPOS>MOLECULE
NONAME
52 54 1 0 0 
SMALL
USER_CHARGES


@<TRIPOS>ATOM
  1 O        0.3590     4.2560     1.8010 O.2   1 <1>  -0.5700 
  2 C        0.4810     3.8640     0.6620 C.2   1 <1>   0.5690 
  3 N       -0.6140     3.6870    -0.1510 N.am  1 <1>  -0.6600 
  4 C        1.9030     3.5960     0.1750 C.3   1 <1>   0.0440 
  5 C       -2.0020     3.7450     0.3930 C.3   1 <1>   0.1400 
  6 C       -0.5800     3.2610    -1.5750 C.3   1 <1>   0.1400 
  7 C        2.1950     2.1240    -0.1370 C.ar  1 <1>  -0.1440 
  8 C       -2.6540     2.3490     0.3500 C.3   1 <1>   0.0000 
  9 C       -1.1730     1.8550    -1.7000 C.3   1 <1>  -0.1600 
 10 C        2.1390     1.1300     0.8380 C.ar  1 <1>  -0.1430 
 11 C        2.5330     1.7750    -1.4380 C.ar  1 <1>  -0.1500 
 12 C       -4.0880     2.4130     0.9060 C.3   1 <1>   0.2000 
 13 C       -2.5900     1.7870    -1.0990 C.3   1 <1>  -0.1600 
 14 C       -1.9950     1.3700     1.3380 C.3   1 <1>  -0.1600 
 15 C        2.3870    -0.1870     0.4840 C.ar  1 <1>  -0.1500 
 16 C        1.8190     1.4330     2.2970 C.3   1 <1>  -0.0970 
 17 C        2.7840     0.4600    -1.7880 C.ar  1 <1>  -0.1430 
 18 O       -4.9970     2.8800    -0.0460 O.3   1 <1>  -0.5600 
 19 C       -4.4180     0.9860     1.3520 C.3   1 <1>  -0.1600 
 20 C       -3.0700     0.3310     1.6810 C.3   1 <1>  -0.1600 
 21 C        2.7040    -0.5230    -0.8190 C.ar  1 <1>  -0.1500 
 22 C        3.1390     0.1030    -3.2200 C.3   1 <1>  -0.0970 
 23 C       -6.2430     3.2420     0.4580 C.3   1 <1>   0.0400 
 24 H        2.0810     4.2080    -0.6870 H     1 <1>   0.0800 
 25 H        2.5910     3.9280     0.9310 H     1 <1>   0.0800 
 26 H       -1.9980     4.1180     1.4030 H     1 <1>   0.0800 
 27 H       -2.5830     4.4280    -0.2030 H     1 <1>   0.0800 
 28 H       -1.1680     3.9510    -2.1560 H     1 <1>   0.0800 
 29 H        0.4180     3.2780    -1.9660 H     1 <1>   0.0800 
 30 H       -1.2130     1.5800    -2.7390 H     1 <1>   0.0800 
 31 H       -0.5190     1.1560    -1.2100 H     1 <1>   0.0800 
 32 H        2.6020     2.5330    -2.1970 H     1 <1>   0.1500 
 33 H       -4.1050     3.0720     1.7580 H     1 <1>   0.0800 
 34 H       -2.9450     0.7720    -1.1280 H     1 <1>   0.0800 
 35 H       -3.2390     2.3690    -1.7290 H     1 <1>   0.0800 
 36 H       -1.1050     0.9100     0.9480 H     1 <1>   0.0800 
 37 H       -1.7280     1.9000     2.2370 H     1 <1>   0.0800 
 38 H        2.3350    -0.9640     1.2250 H     1 <1>   0.1500 
 39 H        2.0740     0.6010     2.9270 H     1 <1>   0.0800 
 40 H        0.7710     1.6340     2.4120 H     1 <1>   0.0800 
 41 H        2.3750     2.2870     2.6380 H     1 <1>   0.0800 
 42 H       -5.0640     0.9930     2.2110 H     1 <1>   0.0800 
 43 H       -4.8900     0.4510     0.5460 H     1 <1>   0.0800 
 44 H       -3.0100     0.0500     2.7180 H     1 <1>   0.0800 
 45 H       -2.9360    -0.5490     1.0750 H     1 <1>   0.0800 
 46 H        2.8900    -1.5520    -1.0710 H     1 <1>   0.1500 
 47 H        3.6610    -0.8360    -3.2590 H     1 <1>   0.0800 
 48 H        3.7720     0.8600    -3.6470 H     1 <1>   0.0800 
 49 H        2.2420     0.0260    -3.8080 H     1 <1>   0.0800 
 50 H       -6.8400     3.6080    -0.3590 H     1 <1>   0.0800 
 51 H       -6.1190     4.0200     1.1910 H     1 <1>   0.0800 
 52 H       -6.7190     2.3810     0.8930 H     1 <1>   0.0800 
@<TRIPOS>BOND
  1   1   2  2   
  2   2   3  am  
  3   2   4  1   
  4   3   5  1   
  5   3   6  1   
  6   4   7  1   
  7   4  24  1   
  8   4  25  1   
  9   5   8  1   
 10   5  26  1   
 11   5  27  1   
 12   6   9  1   
 13   6  28  1   
 14   6  29  1   
 15   7  10  ar  
 16   7  11  ar  
 17   8  12  1   
 18   8  13  1   
 19   8  14  1   
 20   9  13  1   
 21   9  30  1   
 22   9  31  1   
 23  10  15  ar  
 24  10  16  1   
 25  11  17  ar  
 26  11  32  1   
 27  12  18  1   
 28  12  19  1   
 29  12  33  1   
 30  13  34  1   
 31  13  35  1   
 32  14  20  1   
 33  14  36  1   
 34  14  37  1   
 35  15  21  ar  
 36  15  38  1   
 37  16  39  1   
 38  16  40  1   
 39  16  41  1   
 40  17  21  ar  
 41  17  22  1   
 42  18  23  1   
 43  19  20  1   
 44  19  42  1   
 45  19  43  1   
 46  20  44  1   
 47  20  45  1   
 48  21  46  1   
 49  22  47  1   
 50  22  48  1   
 51  22  49  1   
 52  23  50  1   
 53  23  51  1   
 54  23  52  1   
@<TRIPOS>SUBSTRUCTURE
  1 ****   3 GROUP 4 **** **** 0

# MOE 2024.06 (io_trps.svl 2023.06)
