@<TRIPOS>MOLECULE
NONAME
46 49 1 0 0 
SMALL
USER_CHARGES


@<TRIPOS>ATOM
  1 O        0.4460     1.1750    -0.7560 O.2   1 <1>  -0.5700 
  2 C        0.9780     2.1790    -0.3620 C.2   1 <1>   0.4230 
  3 C        2.3300     2.3550     0.0640 C.ar  1 <1>   0.0860 
  4 C        0.2470     3.5020    -0.2610 C.3   1 <1>  -0.0990 
  5 C        2.5640     3.6680     0.4180 C.ar  1 <1>  -0.1440 
  6 C        3.3580     1.4240     0.1590 C.ar  1 <1>  -0.1500 
  7 C        1.3050     4.5020     0.2530 C.3   1 <1>  -0.0160 
  8 C        3.8060     4.1050     0.8690 C.ar  1 <1>   0.0860 
  9 C        4.6010     1.8260     0.6150 C.ar  1 <1>  -0.1500 
 10 C        4.0440     5.4900     1.2190 C.2   1 <1>   0.5440 
 11 C        4.8180     3.1480     0.9690 C.ar  1 <1>  -0.1500 
 12 O        3.7360     5.8760     2.3300 O.2   1 <1>  -0.5700 
 13 N        4.6070     6.3950     0.3320 N.am  1 <1>  -0.6600 
 14 C        4.9110     7.7870     0.8020 C.3   1 <1>   0.1400 
 15 C        5.1600     5.9690    -0.9930 C.3   1 <1>   0.1400 
 16 C        6.4080     8.0250     1.1340 C.3   1 <1>   0.4230 
 17 C        6.6510     6.3150    -1.2110 C.3   1 <1>  -0.0800 
 18 N        7.2140     8.4950    -0.0520 N.4   1 <1>  -0.9590 
 19 C        7.1170     6.8270     1.8210 C.3   1 <1>   0.1200 
 20 C        7.6470     5.6360    -0.2450 C.3   1 <1>   0.1200 
 21 C        6.8650     7.8250    -1.3400 C.3   1 <1>   0.3430 
 22 C        7.1540     9.9820    -0.2020 C.3   1 <1>   0.2630 
 23 O        7.2010     5.6370     1.0740 O.3   1 <1>  -0.5600 
 24 H       -0.1240     3.7870    -1.2280 H     1 <1>   0.0800 
 25 H       -0.5710     3.4110     0.4300 H     1 <1>   0.0800 
 26 H        3.1690     0.4010    -0.1190 H     1 <1>   0.1500 
 27 H        1.0080     4.9220     1.1990 H     1 <1>   0.0800 
 28 H        1.4640     5.2930    -0.4590 H     1 <1>   0.0800 
 29 H        5.3990     1.1080     0.7010 H     1 <1>   0.1500 
 30 H        5.7840     3.4520     1.3340 H     1 <1>   0.1500 
 31 H        4.5700     8.4950     0.0690 H     1 <1>   0.0800 
 32 H        4.3480     7.9960     1.6950 H     1 <1>   0.0800 
 33 H        5.0470     4.9070    -1.1190 H     1 <1>   0.0800 
 34 H        4.5690     6.4320    -1.7650 H     1 <1>   0.0800 
 35 H        6.4230     8.8230     1.8580 H     1 <1>   0.0800 
 36 H        6.8840     5.9250    -2.1860 H     1 <1>   0.0800 
 37 H        8.1850     8.2320     0.1630 H     1 <1>   0.4500 
 38 H        6.5760     6.5790     2.7190 H     1 <1>   0.0800 
 39 H        8.1150     7.1030     2.1130 H     1 <1>   0.0800 
 40 H        8.6260     6.0810    -0.2850 H     1 <1>   0.0800 
 41 H        7.7470     4.6000    -0.5220 H     1 <1>   0.0800 
 42 H        5.9710     8.2660    -1.7500 H     1 <1>   0.0800 
 43 H        7.6630     8.0000    -2.0450 H     1 <1>   0.0800 
 44 H        6.1470    10.2980    -0.4200 H     1 <1>   0.0800 
 45 H        7.7980    10.3050    -1.0050 H     1 <1>   0.0800 
 46 H        7.4770    10.4640     0.7070 H     1 <1>   0.0800 
@<TRIPOS>BOND
  1   1   2  2   
  2   2   3  1   
  3   2   4  1   
  4   3   5  ar  
  5   3   6  ar  
  6   4   7  1   
  7   4  24  1   
  8   4  25  1   
  9   5   7  1   
 10   5   8  ar  
 11   6   9  ar  
 12   6  26  1   
 13   7  27  1   
 14   7  28  1   
 15   8  10  1   
 16   8  11  ar  
 17   9  11  ar  
 18   9  29  1   
 19  10  12  2   
 20  10  13  am  
 21  11  30  1   
 22  13  14  1   
 23  13  15  1   
 24  14  16  1   
 25  14  31  1   
 26  14  32  1   
 27  15  17  1   
 28  15  33  1   
 29  15  34  1   
 30  16  18  1   
 31  16  19  1   
 32  16  35  1   
 33  17  20  1   
 34  17  21  1   
 35  17  36  1   
 36  18  21  1   
 37  18  22  1   
 38  18  37  1   
 39  19  23  1   
 40  19  38  1   
 41  19  39  1   
 42  20  23  1   
 43  20  40  1   
 44  20  41  1   
 45  21  42  1   
 46  21  43  1   
 47  22  44  1   
 48  22  45  1   
 49  22  46  1   
@<TRIPOS>SUBSTRUCTURE
  1 ****  10 GROUP 4 **** **** 0

# MOE 2024.06 (io_trps.svl 2023.06)
