@<TRIPOS>MOLECULE
NONAME
45 46 1 0 0 
SMALL
USER_CHARGES


@<TRIPOS>ATOM
  1 F       -0.1810    -0.7550    -0.5220 F     1 <1>  -0.1900 
  2 C       -0.8210    -1.8970    -0.5190 C.ar  1 <1>   0.1900 
  3 C       -0.1670    -3.1160    -0.7350 C.ar  1 <1>   0.0820 
  4 C       -2.1830    -1.8380    -0.2960 C.ar  1 <1>  -0.1500 
  5 O        1.1660    -3.3030    -0.9630 O.3   1 <1>  -0.3630 
  6 C       -0.9350    -4.2680    -0.7200 C.ar  1 <1>  -0.1500 
  7 C       -2.9180    -3.0090    -0.2900 C.ar  1 <1>  -0.1500 
  8 C        2.1070    -2.2540    -0.9160 C.3   1 <1>   0.0400 
  9 C       -2.3140    -4.2490    -0.4990 C.ar  1 <1>   0.0530 
 10 C       -3.0700    -5.4780    -0.5110 C.2   1 <1>   0.0870 
 11 O       -2.7610    -6.3970    -1.3980 O.3   1 <1>  -0.0190 
 12 C       -4.1040    -5.9710     0.2240 C.2   1 <1>  -0.2330 
 13 N       -3.5170    -7.4590    -1.3170 N.2   1 <1>  -0.4100 
 14 C       -4.3350    -7.2170    -0.3570 C.2   1 <1>   0.3720 
 15 C       -4.8200    -5.4650     1.3600 C.2   1 <1>   1.0330 
 16 N       -5.3210    -8.0960     0.0590 N.pl3 1 <1>  -0.8520 
 17 O       -4.6150    -4.3230     1.7980 O.co2 1 <1>  -0.9000 
 18 O       -5.6620    -6.1740     1.9480 O.co2 1 <1>  -0.9000 
 19 C       -4.8320    -9.3760     0.6070 C.3   1 <1>   0.2890 
 20 C       -4.2700    -9.1340     2.0270 C.3   1 <1>   0.1200 
 21 C       -5.9920   -10.3920     0.5890 C.3   1 <1>  -0.1600 
 22 O       -3.9260   -10.3310     2.6590 O.3   1 <1>  -0.6800 
 23 C       -6.6250   -10.6390    -0.7960 C.3   1 <1>  -0.0800 
 24 C       -7.7910   -11.6260    -0.6670 C.3   1 <1>  -0.2400 
 25 C       -5.6050   -11.1750    -1.8090 C.3   1 <1>  -0.2400 
 26 H       -2.6640    -0.8920    -0.1260 H     1 <1>   0.1500 
 27 H       -0.4480    -5.2120    -0.8840 H     1 <1>   0.1500 
 28 H       -3.9800    -2.9680    -0.1150 H     1 <1>   0.1500 
 29 H        3.0840    -2.6740    -1.0760 H     1 <1>   0.0800 
 30 H        2.0640    -1.7880     0.0520 H     1 <1>   0.0800 
 31 H        1.8840    -1.5480    -1.6960 H     1 <1>   0.0800 
 32 H       -5.8340    -7.5930     0.8150 H     1 <1>   0.4000 
 33 H       -4.0280    -9.7380    -0.0110 H     1 <1>   0.0800 
 34 H       -4.9970    -8.6290     2.6400 H     1 <1>   0.0800 
 35 H       -3.3830    -8.5280     1.9680 H     1 <1>   0.0800 
 36 H       -5.6300   -11.3320     0.9640 H     1 <1>   0.0800 
 37 H       -6.7520   -10.0420     1.2660 H     1 <1>   0.0800 
 38 H       -4.7350   -10.8170     2.9050 H     1 <1>   0.4000 
 39 H       -7.0170    -9.7060    -1.1710 H     1 <1>   0.0800 
 40 H       -7.4450   -12.5780    -0.3060 H     1 <1>   0.0800 
 41 H       -8.2630   -11.7710    -1.6230 H     1 <1>   0.0800 
 42 H       -8.5280   -11.2430     0.0170 H     1 <1>   0.0800 
 43 H       -5.1340   -12.0690    -1.4420 H     1 <1>   0.0800 
 44 H       -4.8480   -10.4360    -2.0030 H     1 <1>   0.0800 
 45 H       -6.0900   -11.3970    -2.7430 H     1 <1>   0.0800 
@<TRIPOS>BOND
  1   1   2  1   
  2   2   3  ar  
  3   2   4  ar  
  4   3   5  1   
  5   3   6  ar  
  6   4   7  ar  
  7   4  26  1   
  8   5   8  1   
  9   6   9  ar  
 10   6  27  1   
 11   7   9  ar  
 12   7  28  1   
 13   8  29  1   
 14   8  30  1   
 15   8  31  1   
 16   9  10  1   
 17  10  11  1   
 18  10  12  2   
 19  11  13  1   
 20  12  14  1   
 21  12  15  1   
 22  13  14  2   
 23  14  16  1   
 24  15  17  ar  
 25  15  18  ar  
 26  16  19  1   
 27  16  32  1   
 28  19  20  1   
 29  19  21  1   
 30  19  33  1   
 31  20  22  1   
 32  20  34  1   
 33  20  35  1   
 34  21  23  1   
 35  21  36  1   
 36  21  37  1   
 37  22  38  1   
 38  23  24  1   
 39  23  25  1   
 40  23  39  1   
 41  24  40  1   
 42  24  41  1   
 43  24  42  1   
 44  25  43  1   
 45  25  44  1   
 46  25  45  1   
@<TRIPOS>SUBSTRUCTURE
  1 ****  12 GROUP 4 **** **** 0

# MOE 2024.06 (io_trps.svl 2023.06)
