@<TRIPOS>MOLECULE
NONAME
47 50 1 0 0 
SMALL
USER_CHARGES


@<TRIPOS>ATOM
  1 O       -1.2620     0.4770     2.5090 O.2   1 <1>  -0.5700 
  2 C       -1.5520     1.0940     1.4970 C.2   1 <1>   0.5440 
  3 N       -2.2380     0.4010     0.5160 N.am  1 <1>  -0.6600 
  4 C       -1.1770     2.5120     1.3910 C.ar  1 <1>   0.3960 
  5 C       -2.7810     0.9520    -0.7520 C.3   1 <1>   0.1400 
  6 C       -2.6850    -1.0000     0.6860 C.3   1 <1>   0.1400 
  7 N       -0.9040     3.0660     0.1950 N.ar  1 <1>  -0.6200 
  8 C       -1.1010     3.2690     2.5610 C.ar  1 <1>  -0.1500 
  9 C       -3.7100    -0.1310    -1.3170 C.3   1 <1>   0.2000 
 10 C       -3.1770    -1.4280    -0.6990 C.3   1 <1>  -0.0800 
 11 C       -0.5660     4.3510     0.1580 C.ar  1 <1>   0.2870 
 12 C       -0.7480     4.5990     2.5320 C.ar  1 <1>  -0.1500 
 13 O       -5.0190     0.0800    -0.8680 O.3   1 <1>  -0.5600 
 14 C       -4.1930    -2.5840    -0.6600 C.3   1 <1>   0.0200 
 15 N       -0.2890     4.9150    -1.1150 N.pl3 1 <1>   0.3260 
 16 C       -0.4750     5.1420     1.2990 C.ar  1 <1>  -0.1500 
 17 C       -5.7770     0.9590    -1.6380 C.3   1 <1>   0.0400 
 18 C       -3.5860    -3.9020    -0.2090 C.2   1 <1>  -0.0400 
 19 C       -0.4800     6.1640    -1.5670 C.2   1 <1>   0.0360 
 20 C        0.2160     4.3170    -2.2030 C.2   1 <1>   0.0360 
 21 O       -4.3700    -4.9370    -0.0670 O.3   1 <1>  -0.0190 
 22 C       -2.3380    -4.2910     0.1010 C.2   1 <1>  -0.1500 
 23 N       -0.1200     6.3080    -2.7930 N.2   1 <1>  -0.3380 
 24 N        0.3270     5.1190    -3.2030 N.2   1 <1>  -0.3380 
 25 N       -3.7170    -5.9950     0.3210 N.2   1 <1>  -0.4100 
 26 C       -2.4900    -5.6340     0.4320 C.2   1 <1>   0.1080 
 27 C       -1.3690    -6.5520     0.8650 C.3   1 <1>  -0.0590 
 28 H       -3.3030     1.8770    -0.5800 H     1 <1>   0.0800 
 29 H       -1.9640     1.1190    -1.4310 H     1 <1>   0.0800 
 30 H       -1.8790    -1.6170     1.0410 H     1 <1>   0.0800 
 31 H       -3.4930    -1.0200     1.3990 H     1 <1>   0.0800 
 32 H       -1.3200     2.7970     3.5030 H     1 <1>   0.1500 
 33 H       -3.7030    -0.1660    -2.3930 H     1 <1>   0.0800 
 34 H       -2.3210    -1.7350    -1.2720 H     1 <1>   0.0800 
 35 H       -0.6860     5.1820     3.4360 H     1 <1>   0.1500 
 36 H       -4.6100    -2.7230    -1.6420 H     1 <1>   0.0800 
 37 H       -5.0030    -2.3350     0.0040 H     1 <1>   0.0800 
 38 H       -0.1870     6.1760     1.2300 H     1 <1>   0.1500 
 39 H       -6.7490     1.0450    -1.1860 H     1 <1>   0.0800 
 40 H       -5.8770     0.5640    -2.6340 H     1 <1>   0.0800 
 41 H       -5.3030     1.9250    -1.6590 H     1 <1>   0.0800 
 42 H       -0.8940     6.9450    -0.9580 H     1 <1>   0.1500 
 43 H        0.4900     3.2780    -2.2070 H     1 <1>   0.1500 
 44 H       -1.4160    -3.7410     0.1070 H     1 <1>   0.1500 
 45 H       -0.6170    -6.5970     0.0990 H     1 <1>   0.0800 
 46 H       -1.7520    -7.5420     1.0360 H     1 <1>   0.0800 
 47 H       -0.9300    -6.1870     1.7740 H     1 <1>   0.0800 
@<TRIPOS>BOND
  1   1   2  2   
  2   2   3  am  
  3   2   4  1   
  4   3   5  1   
  5   3   6  1   
  6   4   7  ar  
  7   4   8  ar  
  8   5   9  1   
  9   5  28  1   
 10   5  29  1   
 11   6  10  1   
 12   6  30  1   
 13   6  31  1   
 14   7  11  ar  
 15   8  12  ar  
 16   8  32  1   
 17   9  10  1   
 18   9  13  1   
 19   9  33  1   
 20  10  14  1   
 21  10  34  1   
 22  11  15  1   
 23  11  16  ar  
 24  12  16  ar  
 25  12  35  1   
 26  13  17  1   
 27  14  18  1   
 28  14  36  1   
 29  14  37  1   
 30  15  19  1   
 31  15  20  1   
 32  16  38  1   
 33  17  39  1   
 34  17  40  1   
 35  17  41  1   
 36  18  21  1   
 37  18  22  2   
 38  19  23  2   
 39  19  42  1   
 40  20  24  2   
 41  20  43  1   
 42  21  25  1   
 43  22  26  1   
 44  22  44  1   
 45  23  24  1   
 46  25  26  2   
 47  26  27  1   
 48  27  45  1   
 49  27  46  1   
 50  27  47  1   
@<TRIPOS>SUBSTRUCTURE
  1 ****   3 GROUP 4 **** **** 0

# MOE 2024.06 (io_trps.svl 2023.06)
