@<TRIPOS>MOLECULE
NONAME
50 52 1 0 0 
SMALL
USER_CHARGES


@<TRIPOS>ATOM
  1 O        1.5510     1.6200    -1.1650 O.3   1 <1>  -0.0190 
  2 N        2.4470     0.6990    -0.9700 N.2   1 <1>  -0.4100 
  3 C        0.8420     1.8450    -0.0900 C.2   1 <1>  -0.0400 
  4 C        2.2950     0.3030     0.2440 C.2   1 <1>   0.1080 
  5 C        1.2740     1.0130     0.8700 C.2   1 <1>  -0.1500 
  6 C       -0.2290     2.9210    -0.0880 C.3   1 <1>   0.0200 
  7 C        3.1180    -0.7880     0.8930 C.3   1 <1>  -0.0590 
  8 C        0.2940     4.2230    -0.7260 C.3   1 <1>  -0.0800 
  9 C       -0.5800     5.4610    -0.5290 C.3   1 <1>   0.2000 
 10 C        1.6610     4.6580    -0.2020 C.3   1 <1>   0.2090 
 11 O       -0.9590     5.5230     0.8170 O.3   1 <1>  -0.5600 
 12 C        0.3830     6.6180    -0.8380 C.3   1 <1>   0.2090 
 13 N        1.7570     6.1150    -0.5100 N.pl3 1 <1>  -0.8380 
 14 C       -2.1090     6.2660     1.0770 C.3   1 <1>   0.0400 
 15 C        2.8640     6.9090    -0.3970 C.ar  1 <1>   0.4610 
 16 N        4.0310     6.3440    -0.0460 N.ar  1 <1>  -0.1790 
 17 C        2.8950     8.2640    -0.6180 C.ar  1 <1>  -0.1500 
 18 C        5.1580     7.0670     0.0860 C.ar  1 <1>   0.7710 
 19 C        4.0840     8.9580    -0.4670 C.ar  1 <1>   0.4100 
 20 N        5.2150     8.3550    -0.1090 N.ar  1 <1>  -0.6200 
 21 N        6.2960     6.4590     0.4360 N.pl3 1 <1>  -0.9000 
 22 N        4.1250    10.2950    -0.6780 N.pl3 1 <1>  -0.8690 
 23 C        5.3360    11.1630    -0.6280 C.3   1 <1>   0.2090 
 24 C        5.5090    11.7500     0.7770 C.3   1 <1>   0.1200 
 25 O        6.6320    12.5660     0.8090 O.3   1 <1>  -0.6800 
 26 H        0.9410     0.8950     1.8840 H     1 <1>   0.1500 
 27 H       -1.0850     2.5710    -0.6380 H     1 <1>   0.0800 
 28 H       -0.5370     3.0870     0.9300 H     1 <1>   0.0800 
 29 H        2.4700    -1.5560     1.2710 H     1 <1>   0.0800 
 30 H        3.6940    -0.3800     1.7030 H     1 <1>   0.0800 
 31 H        3.7870    -1.2230     0.1720 H     1 <1>   0.0800 
 32 H        0.3990     4.0540    -1.7840 H     1 <1>   0.0800 
 33 H       -1.4550     5.4530    -1.1570 H     1 <1>   0.0800 
 34 H        2.4440     4.0960    -0.6820 H     1 <1>   0.0800 
 35 H        1.7000     4.5150     0.8660 H     1 <1>   0.0800 
 36 H        0.1320     7.4920    -0.2640 H     1 <1>   0.0800 
 37 H        0.3380     6.8500    -1.8890 H     1 <1>   0.0800 
 38 H       -2.2800     6.2560     2.1400 H     1 <1>   0.0800 
 39 H       -2.9470     5.8140     0.5750 H     1 <1>   0.0800 
 40 H       -1.9700     7.2800     0.7450 H     1 <1>   0.0800 
 41 H        4.0590     5.3510     0.1160 H     1 <1>   0.4570 
 42 H        2.0120     8.7970    -0.9080 H     1 <1>   0.1500 
 43 H        6.4590     5.4660     0.6090 H     1 <1>   0.4000 
 44 H        7.1330     7.0430     0.5250 H     1 <1>   0.4000 
 45 H        3.2670    10.8060    -0.9040 H     1 <1>   0.4000 
 46 H        6.2070    10.5890    -0.8910 H     1 <1>   0.0800 
 47 H        5.2250    11.9630    -1.3400 H     1 <1>   0.0800 
 48 H        5.6360    10.9680     1.5060 H     1 <1>   0.0800 
 49 H        4.6580    12.3540     1.0360 H     1 <1>   0.0800 
 50 H        7.4520    12.0380     0.7590 H     1 <1>   0.4000 
@<TRIPOS>BOND
  1   1   2  1   
  2   1   3  1   
  3   2   4  2   
  4   3   5  2   
  5   3   6  1   
  6   4   5  1   
  7   4   7  1   
  8   5  26  1   
  9   6   8  1   
 10   6  27  1   
 11   6  28  1   
 12   7  29  1   
 13   7  30  1   
 14   7  31  1   
 15   8   9  1   
 16   8  10  1   
 17   8  32  1   
 18   9  11  1   
 19   9  12  1   
 20   9  33  1   
 21  10  13  1   
 22  10  34  1   
 23  10  35  1   
 24  11  14  1   
 25  12  13  1   
 26  12  36  1   
 27  12  37  1   
 28  13  15  1   
 29  14  38  1   
 30  14  39  1   
 31  14  40  1   
 32  15  16  ar  
 33  15  17  ar  
 34  16  18  ar  
 35  16  41  1   
 36  17  19  ar  
 37  17  42  1   
 38  18  20  ar  
 39  18  21  1   
 40  19  20  ar  
 41  19  22  1   
 42  21  43  1   
 43  21  44  1   
 44  22  23  1   
 45  22  45  1   
 46  23  24  1   
 47  23  46  1   
 48  23  47  1   
 49  24  25  1   
 50  24  48  1   
 51  24  49  1   
 52  25  50  1   
@<TRIPOS>SUBSTRUCTURE
  1 ****  13 GROUP 4 **** **** 0

# MOE 2024.06 (io_trps.svl 2023.06)
