@<TRIPOS>MOLECULE
NONAME
47 50 1 0 0 
SMALL
USER_CHARGES


@<TRIPOS>ATOM
  1 O       -1.5690     0.6830     0.0610 O.co2 1 <1>  -0.9030 
  2 C       -0.7290     1.5980     0.0510 C.2   1 <1>   0.9770 
  3 O        0.4790     1.3260    -0.0290 O.co2 1 <1>  -0.9030 
  4 C       -1.1730     2.9800     0.1340 C.ar  1 <1>  -0.1870 
  5 C       -2.5290     3.2790     0.2320 C.ar  1 <1>  -0.1170 
  6 C       -0.2590     4.0510     0.1190 C.ar  1 <1>  -0.1580 
  7 C       -2.9350     4.5980     0.3120 C.ar  1 <1>   0.3020 
  8 C       -0.6670     5.3670     0.1990 C.ar  1 <1>  -0.1170 
  9 N       -4.1820     5.1690     0.4120 N.pl3 1 <1>  -0.7040 
 10 C       -2.0270     5.6360     0.2980 C.ar  1 <1>   0.3020 
 11 C       -4.0600     6.4910     0.4390 C.cat 1 <1>   1.0690 
 12 N       -2.7530     6.8220     0.3980 N.pl3 1 <1>  -0.7670 
 13 N       -5.1250     7.3150     0.4900 N.pl3 1 <1>  -0.5970 
 14 C       -2.0960     8.1250     0.6690 C.3   1 <1>   0.2670 
 15 C       -6.4610     6.8610     0.9910 C.3   1 <1>   0.1600 
 16 C       -5.1630     8.7060    -0.0480 C.3   1 <1>   0.1600 
 17 C       -7.5260     6.8860    -0.1330 C.3   1 <1>  -0.0090 
 18 C       -6.2130     8.8150    -1.1610 C.3   1 <1>  -0.1680 
 19 C       -8.8980     6.4130     0.3860 C.3   1 <1>   0.1930 
 20 C       -7.5960     8.3140    -0.7130 C.3   1 <1>  -0.1680 
 21 C       -7.2250     5.8350    -1.2170 C.3   1 <1>  -0.1680 
 22 O       -9.1220     6.8010     1.6960 O.3   1 <1>  -0.6840 
 23 C       -8.8980     4.8850     0.2910 C.3   1 <1>  -0.1680 
 24 C       -7.7590     4.5120    -0.6650 C.3   1 <1>  -0.1680 
 25 H       -3.2530     2.4810     0.2450 H     1 <1>   0.1420 
 26 H        0.7920     3.8130     0.0410 H     1 <1>   0.1420 
 27 H        0.0540     6.1630     0.1810 H     1 <1>   0.1420 
 28 H       -5.0650     4.6700     0.3830 H     1 <1>   0.4440 
 29 H       -1.1860     7.9720     1.2230 H     1 <1>   0.0720 
 30 H       -2.7400     8.7580     1.2550 H     1 <1>   0.0720 
 31 H       -1.8590     8.6150    -0.2600 H     1 <1>   0.0720 
 32 H       -6.4050     5.8800     1.4270 H     1 <1>   0.0720 
 33 H       -6.7630     7.5340     1.7770 H     1 <1>   0.0720 
 34 H       -5.4100     9.3870     0.7500 H     1 <1>   0.0720 
 35 H       -4.2140     8.9900    -0.4610 H     1 <1>   0.0720 
 36 H       -6.2950     9.8430    -1.4670 H     1 <1>   0.0720 
 37 H       -5.8820     8.2530    -2.0170 H     1 <1>   0.0720 
 38 H       -9.6850     6.8180    -0.2280 H     1 <1>   0.0720 
 39 H       -8.2790     8.3470    -1.5440 H     1 <1>   0.0720 
 40 H       -7.9800     8.9780     0.0440 H     1 <1>   0.0720 
 41 H       -7.7850     6.0760    -2.1050 H     1 <1>   0.0720 
 42 H       -6.1880     5.7740    -1.4910 H     1 <1>   0.0720 
 43 H      -10.0160     6.5230     1.9750 H     1 <1>   0.3940 
 44 H       -8.7300     4.4310     1.2520 H     1 <1>   0.0720 
 45 H       -9.8400     4.5460    -0.1020 H     1 <1>   0.0720 
 46 H       -6.9900     3.9920    -0.1230 H     1 <1>   0.0720 
 47 H       -8.1070     3.8740    -1.4610 H     1 <1>   0.0720 
@<TRIPOS>BOND
  1   1   2  ar  
  2   2   3  ar  
  3   2   4  1   
  4   4   5  ar  
  5   4   6  ar  
  6   5   7  ar  
  7   5  25  1   
  8   6   8  ar  
  9   6  26  1   
 10   7   9  1   
 11   7  10  ar  
 12   8  10  ar  
 13   8  27  1   
 14   9  11  ar  
 15   9  28  1   
 16  10  12  1   
 17  11  12  ar  
 18  11  13  ar  
 19  12  14  1   
 20  13  15  1   
 21  13  16  1   
 22  14  29  1   
 23  14  30  1   
 24  14  31  1   
 25  15  17  1   
 26  15  32  1   
 27  15  33  1   
 28  16  18  1   
 29  16  34  1   
 30  16  35  1   
 31  17  19  1   
 32  17  20  1   
 33  17  21  1   
 34  18  20  1   
 35  18  36  1   
 36  18  37  1   
 37  19  22  1   
 38  19  23  1   
 39  19  38  1   
 40  20  39  1   
 41  20  40  1   
 42  21  24  1   
 43  21  41  1   
 44  21  42  1   
 45  22  43  1   
 46  23  24  1   
 47  23  44  1   
 48  23  45  1   
 49  24  46  1   
 50  24  47  1   
@<TRIPOS>SUBSTRUCTURE
  1 ****   9 GROUP 4 **** **** 0

# MOE 2024.06 (io_trps.svl 2023.06)
