@<TRIPOS>MOLECULE
NONAME
42 44 1 0 0 
SMALL
USER_CHARGES


@<TRIPOS>ATOM
  1 CL       0.1770     0.0090     0.2690 Cl    1 <1>  -0.1770 
  2 C        0.0900    -1.7180     0.5070 C.ar  1 <1>   0.1770 
  3 C        1.1130    -2.5420     0.0590 C.ar  1 <1>  -0.1440 
  4 C       -1.0170    -2.2370     1.1520 C.ar  1 <1>  -0.1500 
  5 C        0.9990    -3.9080     0.2670 C.ar  1 <1>  -0.1500 
  6 C        2.3360    -1.9690    -0.6400 C.3   1 <1>  -0.0960 
  7 C       -1.1110    -3.6030     1.3500 C.ar  1 <1>  -0.1500 
  8 C       -0.1100    -4.4680     0.9020 C.ar  1 <1>   0.0860 
  9 C       -0.2050    -5.9030     1.0920 C.2   1 <1>   0.5440 
 10 O        0.7110    -6.5030     1.6210 O.2   1 <1>  -0.5700 
 11 N       -1.3030    -6.6190     0.6710 N.am  1 <1>  -0.6600 
 12 C       -2.2840    -6.1480    -0.3420 C.3   1 <1>   0.1400 
 13 C       -1.3970    -8.0940     0.8250 C.3   1 <1>   0.1400 
 14 C       -3.2550    -7.3150    -0.5070 C.3   1 <1>   0.2000 
 15 C       -2.3850    -8.5510    -0.2550 C.3   1 <1>  -0.0800 
 16 O       -4.2180    -7.2150     0.4860 O.3   1 <1>  -0.6800 
 17 C       -3.1620    -9.8300     0.1090 C.3   1 <1>   0.0200 
 18 C       -2.2740   -11.0590     0.2130 C.2   1 <1>  -0.0400 
 19 O       -2.8010   -12.1770     0.6390 O.3   1 <1>  -0.0190 
 20 C       -0.9780   -11.2950    -0.0500 C.2   1 <1>  -0.1500 
 21 N       -1.9300   -13.1430     0.6790 N.2   1 <1>  -0.4100 
 22 C       -0.8210   -12.6410     0.2700 C.2   1 <1>   0.1080 
 23 C        0.4730   -13.4150     0.1550 C.3   1 <1>  -0.0590 
 24 H       -1.7900    -1.5740     1.4960 H     1 <1>   0.1500 
 25 H        1.7820    -4.5710    -0.0620 H     1 <1>   0.1500 
 26 H        3.0270    -2.7470    -0.9110 H     1 <1>   0.0800 
 27 H        2.8410    -1.2780     0.0110 H     1 <1>   0.0800 
 28 H        2.0400    -1.4490    -1.5340 H     1 <1>   0.0800 
 29 H       -1.9640    -4.0100     1.8630 H     1 <1>   0.1500 
 30 H       -2.7950    -5.2540    -0.0320 H     1 <1>   0.0800 
 31 H       -1.7680    -5.9660    -1.2690 H     1 <1>   0.0800 
 32 H       -0.4320    -8.5550     0.7000 H     1 <1>   0.0800 
 33 H       -1.7680    -8.3190     1.8110 H     1 <1>   0.0800 
 34 H       -3.7490    -7.3240    -1.4640 H     1 <1>   0.0800 
 35 H       -1.8240    -8.7380    -1.1530 H     1 <1>   0.0800 
 36 H       -3.7720    -7.0760     1.3450 H     1 <1>   0.4000 
 37 H       -3.9120   -10.0170    -0.6400 H     1 <1>   0.0800 
 38 H       -3.6690    -9.6990     1.0490 H     1 <1>   0.0800 
 39 H       -0.2090   -10.6430    -0.4180 H     1 <1>   0.1500 
 40 H        0.8140   -13.4070    -0.8630 H     1 <1>   0.0800 
 41 H        0.3190   -14.4330     0.4640 H     1 <1>   0.0800 
 42 H        1.2210   -12.9690     0.7850 H     1 <1>   0.0800 
@<TRIPOS>BOND
  1   1   2  1   
  2   2   3  ar  
  3   2   4  ar  
  4   3   5  ar  
  5   3   6  1   
  6   4   7  ar  
  7   4  24  1   
  8   5   8  ar  
  9   5  25  1   
 10   6  26  1   
 11   6  27  1   
 12   6  28  1   
 13   7   8  ar  
 14   7  29  1   
 15   8   9  1   
 16   9  10  2   
 17   9  11  am  
 18  11  12  1   
 19  11  13  1   
 20  12  14  1   
 21  12  30  1   
 22  12  31  1   
 23  13  15  1   
 24  13  32  1   
 25  13  33  1   
 26  14  15  1   
 27  14  16  1   
 28  14  34  1   
 29  15  17  1   
 30  15  35  1   
 31  16  36  1   
 32  17  18  1   
 33  17  37  1   
 34  17  38  1   
 35  18  19  1   
 36  18  20  2   
 37  19  21  1   
 38  20  22  1   
 39  20  39  1   
 40  21  22  2   
 41  22  23  1   
 42  23  40  1   
 43  23  41  1   
 44  23  42  1   
@<TRIPOS>SUBSTRUCTURE
  1 ****  11 GROUP 4 **** **** 0

# MOE 2024.06 (io_trps.svl 2023.06)
