@<TRIPOS>MOLECULE
NONAME
49 51 1 0 0 
SMALL
USER_CHARGES


@<TRIPOS>ATOM
  1 O       -0.5550     0.2550    -0.7750 O.2   1 <1>  -0.5700 
  2 C       -1.5530     0.9170    -0.6110 C.2   1 <1>   0.5690 
  3 N       -2.8010     0.3430    -0.5490 N.am  1 <1>  -0.6600 
  4 C       -1.3840     2.4210    -0.4750 C.3   1 <1>  -0.0990 
  5 C       -4.0430     1.1140    -0.2270 C.3   1 <1>   0.2200 
  6 C       -2.9460    -1.1240    -0.8070 C.3   1 <1>   0.0600 
  7 C        0.0310     2.8920    -0.8320 C.3   1 <1>   0.0960 
  8 C       -4.9970     0.4280     0.7500 C.3   1 <1>  -0.1600 
  9 C       -4.8950     1.3850    -1.4620 C.3   1 <1>  -0.1600 
 10 N        0.1240     4.3570    -0.6740 N.pl3 1 <1>   0.0480 
 11 C       -6.3440     1.1230     0.5140 C.3   1 <1>  -0.0800 
 12 C       -6.2850     1.7200    -0.9050 C.3   1 <1>  -0.0800 
 13 C        0.5070     5.0850     0.4070 C.2   1 <1>   0.0060 
 14 C       -0.2250     5.2720    -1.5960 C.2   1 <1>  -0.3020 
 15 C       -6.6050     2.2980     1.4680 C.3   1 <1>  -0.1600 
 16 C       -6.5350     3.2280    -0.7510 C.3   1 <1>  -0.1600 
 17 N        0.4180     6.3630     0.2270 N.2   1 <1>  -0.5650 
 18 C        0.9920     4.4760     1.7130 C.3   1 <1>   0.0200 
 19 C       -0.0390     6.4830    -1.0320 C.2   1 <1>   0.0770 
 20 C       -7.2360     3.3670     0.5910 C.3   1 <1>   0.2000 
 21 C        2.4730     4.0950     1.6320 C.3   1 <1>  -0.2400 
 22 O       -7.0060     4.6170     1.1220 O.3   1 <1>  -0.6800 
 23 H       -2.0820     2.9070    -1.1300 H     1 <1>   0.0800 
 24 H       -1.6000     2.6930     0.5410 H     1 <1>   0.0800 
 25 H       -3.7870     2.0630     0.2100 H     1 <1>   0.0800 
 26 H       -3.8340    -1.3230    -1.3780 H     1 <1>   0.0800 
 27 H       -2.9990    -1.6520     0.1290 H     1 <1>   0.0800 
 28 H       -2.1030    -1.4990    -1.3610 H     1 <1>   0.0800 
 29 H        0.2610     2.6360    -1.8510 H     1 <1>   0.0800 
 30 H        0.7550     2.4180    -0.1940 H     1 <1>   0.0800 
 31 H       -5.1200    -0.6110     0.5080 H     1 <1>   0.0800 
 32 H       -4.6600     0.5170     1.7680 H     1 <1>   0.0800 
 33 H       -4.4900     2.1780    -2.0640 H     1 <1>   0.0800 
 34 H       -4.9700     0.4950    -2.0600 H     1 <1>   0.0800 
 35 H       -7.1540     0.4160     0.5850 H     1 <1>   0.0800 
 36 H       -7.0550     1.2860    -1.5210 H     1 <1>   0.0800 
 37 H       -0.5780     5.0210    -2.5790 H     1 <1>   0.1500 
 38 H       -5.6770     2.6620     1.8740 H     1 <1>   0.0800 
 39 H       -7.2630     2.0140     2.2700 H     1 <1>   0.0800 
 40 H       -7.1470     3.6070    -1.5500 H     1 <1>   0.0800 
 41 H       -5.6010     3.7610    -0.7300 H     1 <1>   0.0800 
 42 H        0.8600     5.2020     2.4970 H     1 <1>   0.0800 
 43 H        0.3990     3.6150     1.9630 H     1 <1>   0.0800 
 44 H       -0.2110     7.4520    -1.4710 H     1 <1>   0.1500 
 45 H       -8.2980     3.2140     0.4930 H     1 <1>   0.0800 
 46 H        3.0580     4.9690     1.4030 H     1 <1>   0.0800 
 47 H        2.6370     3.3620     0.8640 H     1 <1>   0.0800 
 48 H        2.8050     3.6950     2.5730 H     1 <1>   0.0800 
 49 H       -6.0490     4.7750     1.2090 H     1 <1>   0.4000 
@<TRIPOS>BOND
  1   1   2  2   
  2   2   3  am  
  3   2   4  1   
  4   3   5  1   
  5   3   6  1   
  6   4   7  1   
  7   4  23  1   
  8   4  24  1   
  9   5   8  1   
 10   5   9  1   
 11   5  25  1   
 12   6  26  1   
 13   6  27  1   
 14   6  28  1   
 15   7  10  1   
 16   7  29  1   
 17   7  30  1   
 18   8  11  1   
 19   8  31  1   
 20   8  32  1   
 21   9  12  1   
 22   9  33  1   
 23   9  34  1   
 24  10  13  1   
 25  10  14  1   
 26  11  12  1   
 27  11  15  1   
 28  11  35  1   
 29  12  16  1   
 30  12  36  1   
 31  13  17  2   
 32  13  18  1   
 33  14  19  2   
 34  14  37  1   
 35  15  20  1   
 36  15  38  1   
 37  15  39  1   
 38  16  20  1   
 39  16  40  1   
 40  16  41  1   
 41  17  19  1   
 42  18  21  1   
 43  18  42  1   
 44  18  43  1   
 45  19  44  1   
 46  20  22  1   
 47  20  45  1   
 48  21  46  1   
 49  21  47  1   
 50  21  48  1   
 51  22  49  1   
@<TRIPOS>SUBSTRUCTURE
  1 ****   4 GROUP 4 **** **** 0

# MOE 2024.06 (io_trps.svl 2023.06)
