@<TRIPOS>MOLECULE
NONAME
47 49 1 0 0 
SMALL
USER_CHARGES


@<TRIPOS>ATOM
  1 CL       2.2760     3.8550     2.5040 Cl    1 <1>  -0.1770 
  2 C        1.0940     2.9410     1.5950 C.ar  1 <1>   0.1770 
  3 C        1.4860     2.0610     0.5930 C.ar  1 <1>  -0.1440 
  4 C       -0.2390     3.1280     1.9130 C.ar  1 <1>  -0.1500 
  5 C        0.4960     1.3630    -0.0900 C.ar  1 <1>  -0.1500 
  6 C        2.9590     1.8710     0.2370 C.3   1 <1>   0.3640 
  7 C       -1.2110     2.4250     1.2250 C.ar  1 <1>  -0.1500 
  8 C       -0.8410     1.5430     0.2250 C.ar  1 <1>  -0.1500 
  9 N        3.2450     0.4170     0.1560 N.am  1 <1>  -0.7300 
 10 C        3.3330     2.5920    -1.0810 C.3   1 <1>   0.2610 
 11 C        4.0140    -0.1400    -0.8060 C.2   1 <1>   0.5690 
 12 O        4.5860     2.1230    -1.5660 O.3   1 <1>  -0.5600 
 13 C        3.3660     4.1020    -0.8510 C.2   1 <1>   0.5690 
 14 O        4.2260    -1.3250    -0.8130 O.2   1 <1>  -0.5700 
 15 C        4.5960     0.7530    -1.9080 C.3   1 <1>   0.1810 
 16 O        2.3390     4.7310    -0.9440 O.2   1 <1>  -0.5700 
 17 N        4.5500     4.6940    -0.5410 N.am  1 <1>  -0.7300 
 18 C        4.7510     6.1220    -0.2470 C.3   1 <1>   0.2200 
 19 C        5.7140     6.6880    -1.3000 C.3   1 <1>  -0.1600 
 20 C        5.3170     6.2180     1.1770 C.3   1 <1>  -0.1600 
 21 C        5.5700     8.1980    -1.5560 C.3   1 <1>  -0.1600 
 22 C        5.3320     7.6330     1.7750 C.3   1 <1>  -0.1600 
 23 C        5.2990     9.0800    -0.3280 C.3   1 <1>  -0.1600 
 24 C        6.0750     8.6840     0.9370 C.3   1 <1>  -0.1600 
 25 H       -0.5080     3.8200     2.6910 H     1 <1>   0.1500 
 26 H        0.7570     0.6710    -0.8730 H     1 <1>   0.1500 
 27 H        3.5800     2.2710     1.0180 H     1 <1>   0.0800 
 28 H       -2.2510     2.5650     1.4650 H     1 <1>   0.1500 
 29 H       -1.5970     0.9950    -0.3120 H     1 <1>   0.1500 
 30 H        2.8650    -0.1810     0.8910 H     1 <1>   0.3700 
 31 H        2.5910     2.3890    -1.8320 H     1 <1>   0.0800 
 32 H        4.0280     0.6240    -2.8110 H     1 <1>   0.0800 
 33 H        5.6150     0.4680    -2.0960 H     1 <1>   0.0800 
 34 H        5.3980     4.1260    -0.6000 H     1 <1>   0.3700 
 35 H        3.8010     6.6290    -0.3020 H     1 <1>   0.0800 
 36 H        6.7270     6.4770    -1.0070 H     1 <1>   0.0800 
 37 H        5.5420     6.1920    -2.2400 H     1 <1>   0.0800 
 38 H        4.7110     5.6060     1.8240 H     1 <1>   0.0800 
 39 H        6.3160     5.8210     1.1950 H     1 <1>   0.0800 
 40 H        6.4710     8.5390    -2.0370 H     1 <1>   0.0800 
 41 H        4.7660     8.3520    -2.2550 H     1 <1>   0.0800 
 42 H        4.3180     7.9580     1.9390 H     1 <1>   0.0800 
 43 H        5.8010     7.5790     2.7430 H     1 <1>   0.0800 
 44 H        5.5610    10.0920    -0.5890 H     1 <1>   0.0800 
 45 H        4.2440     9.0830    -0.1150 H     1 <1>   0.0800 
 46 H        6.1810     9.5660     1.5460 H     1 <1>   0.0800 
 47 H        7.0670     8.3480     0.6890 H     1 <1>   0.0800 
@<TRIPOS>BOND
  1   1   2  1   
  2   2   3  ar  
  3   2   4  ar  
  4   3   5  ar  
  5   3   6  1   
  6   4   7  ar  
  7   4  25  1   
  8   5   8  ar  
  9   5  26  1   
 10   6   9  1   
 11   6  10  1   
 12   6  27  1   
 13   7   8  ar  
 14   7  28  1   
 15   8  29  1   
 16   9  11  am  
 17   9  30  1   
 18  10  12  1   
 19  10  13  1   
 20  10  31  1   
 21  11  14  2   
 22  11  15  1   
 23  12  15  1   
 24  13  16  2   
 25  13  17  am  
 26  15  32  1   
 27  15  33  1   
 28  17  18  1   
 29  17  34  1   
 30  18  19  1   
 31  18  20  1   
 32  18  35  1   
 33  19  21  1   
 34  19  36  1   
 35  19  37  1   
 36  20  22  1   
 37  20  38  1   
 38  20  39  1   
 39  21  23  1   
 40  21  40  1   
 41  21  41  1   
 42  22  24  1   
 43  22  42  1   
 44  22  43  1   
 45  23  24  1   
 46  23  44  1   
 47  23  45  1   
 48  24  46  1   
 49  24  47  1   
@<TRIPOS>SUBSTRUCTURE
  1 ****  13 GROUP 4 **** **** 0

# MOE 2024.06 (io_trps.svl 2023.06)
