@<TRIPOS>MOLECULE
NONAME
43 45 1 0 0 
SMALL
USER_CHARGES


@<TRIPOS>ATOM
  1 O       -1.6240    -0.4200    -2.6580 O.2   1 <1>  -0.5700 
  2 C       -1.7790    -0.8080    -1.5290 C.2   1 <1>   0.5690 
  3 N       -2.2340     0.0150    -0.5310 N.am  1 <1>  -0.6600 
  4 C       -1.5370    -2.2780    -1.2620 C.3   1 <1>  -0.0190 
  5 C       -2.5490    -0.4830     0.8510 C.3   1 <1>   0.2200 
  6 C       -2.3670     1.4910    -0.7360 C.3   1 <1>   0.0600 
  7 C       -0.4930    -2.5030    -0.1630 C.3   1 <1>   0.1200 
  8 C       -2.8530    -3.0220    -0.9960 C.3   1 <1>   0.3430 
  9 C       -1.3020    -1.0750     1.5310 C.3   1 <1>   0.1200 
 10 C       -3.7080    -1.5160     0.8520 C.3   1 <1>   0.3430 
 11 O       -1.0720    -2.3820     1.0980 O.3   1 <1>  -0.5600 
 12 N       -3.9780    -2.1540    -0.4910 N.4   1 <1>  -0.9590 
 13 C       -5.3000    -2.8600    -0.5350 C.3   1 <1>   0.3430 
 14 C       -5.3840    -4.0700     0.4040 C.3   1 <1>  -0.0170 
 15 C       -6.7650    -4.6810     0.2740 C.ar  1 <1>  -0.1440 
 16 C       -7.0090    -5.6630    -0.6740 C.ar  1 <1>  -0.1500 
 17 C       -7.7980    -4.2550     1.0950 C.ar  1 <1>  -0.1500 
 18 C       -8.2740    -6.2080    -0.8050 C.ar  1 <1>  -0.1500 
 19 C       -9.0640    -4.8000     0.9640 C.ar  1 <1>  -0.1500 
 20 C       -9.3030    -5.7750     0.0130 C.ar  1 <1>  -0.1500 
 21 H       -1.1120    -2.6940    -2.1570 H     1 <1>   0.0800 
 22 H       -2.8540     0.3550     1.4530 H     1 <1>   0.0800 
 23 H       -3.3850     1.7980    -0.5720 H     1 <1>   0.0800 
 24 H       -2.0860     1.7670    -1.7390 H     1 <1>   0.0800 
 25 H       -1.7230     2.0160    -0.0520 H     1 <1>   0.0800 
 26 H        0.3340    -1.8170    -0.2510 H     1 <1>   0.0800 
 27 H       -0.1050    -3.5050    -0.2310 H     1 <1>   0.0800 
 28 H       -2.6650    -3.8200    -0.2950 H     1 <1>   0.0800 
 29 H       -3.1640    -3.4720    -1.9250 H     1 <1>   0.0800 
 30 H       -1.4670    -1.1280     2.5940 H     1 <1>   0.0800 
 31 H       -0.4290    -0.4680     1.3580 H     1 <1>   0.0800 
 32 H       -4.5980    -1.0040     1.1780 H     1 <1>   0.0800 
 33 H       -3.4940    -2.2780     1.5830 H     1 <1>   0.0800 
 34 H       -4.0320    -1.3580    -1.1510 H     1 <1>   0.4500 
 35 H       -6.0850    -2.1690    -0.2720 H     1 <1>   0.0800 
 36 H       -5.4950    -3.1950    -1.5410 H     1 <1>   0.0800 
 37 H       -4.6490    -4.8090     0.1430 H     1 <1>   0.0800 
 38 H       -5.2260    -3.7740     1.4250 H     1 <1>   0.0800 
 39 H       -6.2240    -6.0180    -1.3180 H     1 <1>   0.1500 
 40 H       -7.6350    -3.5010     1.8450 H     1 <1>   0.1500 
 41 H       -8.4620    -6.9710    -1.5410 H     1 <1>   0.1500 
 42 H       -9.8650    -4.4680     1.6030 H     1 <1>   0.1500 
 43 H      -10.2870    -6.2000    -0.0880 H     1 <1>   0.1500 
@<TRIPOS>BOND
  1   1   2  2   
  2   2   3  am  
  3   2   4  1   
  4   3   5  1   
  5   3   6  1   
  6   4   7  1   
  7   4   8  1   
  8   4  21  1   
  9   5   9  1   
 10   5  10  1   
 11   5  22  1   
 12   6  23  1   
 13   6  24  1   
 14   6  25  1   
 15   7  11  1   
 16   7  26  1   
 17   7  27  1   
 18   8  12  1   
 19   8  28  1   
 20   8  29  1   
 21   9  11  1   
 22   9  30  1   
 23   9  31  1   
 24  10  12  1   
 25  10  32  1   
 26  10  33  1   
 27  12  13  1   
 28  12  34  1   
 29  13  14  1   
 30  13  35  1   
 31  13  36  1   
 32  14  15  1   
 33  14  37  1   
 34  14  38  1   
 35  15  16  ar  
 36  15  17  ar  
 37  16  18  ar  
 38  16  39  1   
 39  17  19  ar  
 40  17  40  1   
 41  18  20  ar  
 42  18  41  1   
 43  19  20  ar  
 44  19  42  1   
 45  20  43  1   
@<TRIPOS>SUBSTRUCTURE
  1 ****  12 GROUP 4 **** **** 0

# MOE 2024.06 (io_trps.svl 2023.06)
