@<TRIPOS>MOLECULE
NONAME
45 46 1 0 0 
SMALL
USER_CHARGES


@<TRIPOS>ATOM
  1 O       -2.0400    -1.8670    -1.3250 O.2   1 <1>  -0.5700 
  2 C       -2.7670    -0.8990    -1.1980 C.2   1 <1>   0.5440 
  3 N       -2.2820     0.3540    -1.5220 N.am  1 <1>  -0.6600 
  4 C       -4.1060    -1.1120    -0.7070 C.ar  1 <1>   0.0860 
  5 C       -0.9880     0.5220    -2.2430 C.3   1 <1>   0.0600 
  6 C       -2.8800     1.6270    -1.0320 C.3   1 <1>   0.0600 
  7 C       -4.3190    -1.9310     0.3980 C.ar  1 <1>   0.1600 
  8 C       -5.2350    -0.5600    -1.3050 C.ar  1 <1>  -0.1500 
  9 N       -5.4920    -2.2340     0.9290 N.ar  1 <1>  -0.6200 
 10 C       -6.4620    -0.8540    -0.7630 C.ar  1 <1>  -0.1500 
 11 C       -6.5540    -1.6860     0.3500 C.ar  1 <1>   0.4100 
 12 N       -7.7800    -1.9930     0.8740 N.pl3 1 <1>  -0.8690 
 13 C       -7.9800    -2.2670     2.3160 C.3   1 <1>   0.2090 
 14 C       -8.5000    -3.6880     2.5360 C.3   1 <1>  -0.1600 
 15 C       -7.6240    -4.7810     1.9000 C.3   1 <1>   0.3540 
 16 N       -8.0460    -5.1190     0.5080 N.pl3 1 <1>  -0.4570 
 17 N       -9.3320    -5.4680     0.2310 N.2   1 <1>  -0.2600 
 18 C       -7.3230    -5.1520    -0.5990 C.cat 1 <1>   0.6560 
 19 C       -9.3400    -5.6790    -1.0350 C.2   1 <1>   0.4850 
 20 N       -8.1170    -5.4960    -1.5830 N.pl3 1 <1>  -0.7000 
 21 C       -5.8440    -4.8980    -0.7890 C.3   1 <1>  -0.0960 
 22 C      -10.5440    -6.0900    -1.8510 C.3   1 <1>  -0.0720 
 23 H       -0.7020    -0.3950    -2.7300 H     1 <1>   0.0800 
 24 H       -0.2180     0.7950    -1.5430 H     1 <1>   0.0800 
 25 H       -1.0810     1.2900    -2.9900 H     1 <1>   0.0800 
 26 H       -3.6160     1.4400    -0.2700 H     1 <1>   0.0800 
 27 H       -3.3420     2.1500    -1.8510 H     1 <1>   0.0800 
 28 H       -2.1100     2.2500    -0.6090 H     1 <1>   0.0800 
 29 H       -3.4470    -2.3630     0.8620 H     1 <1>   0.1500 
 30 H       -5.1360     0.0730    -2.1700 H     1 <1>   0.1500 
 31 H       -7.3590    -0.4470    -1.1910 H     1 <1>   0.1500 
 32 H       -8.5840    -1.5330     0.4400 H     1 <1>   0.4000 
 33 H       -8.6860    -1.5580     2.7150 H     1 <1>   0.0800 
 34 H       -7.0560    -2.1330     2.8550 H     1 <1>   0.0800 
 35 H       -9.5190    -3.7620     2.2030 H     1 <1>   0.0800 
 36 H       -8.5090    -3.8530     3.5980 H     1 <1>   0.0800 
 37 H       -7.7130    -5.6770     2.4890 H     1 <1>   0.0800 
 38 H       -6.5930    -4.4770     1.9220 H     1 <1>   0.0800 
 39 H       -7.8710    -5.6100    -2.5650 H     1 <1>   0.4500 
 40 H       -5.3300    -4.8790     0.1520 H     1 <1>   0.0800 
 41 H       -5.7010    -3.9570    -1.2860 H     1 <1>   0.0800 
 42 H       -5.4150    -5.6760    -1.3920 H     1 <1>   0.0800 
 43 H      -11.4060    -6.1780    -1.2140 H     1 <1>   0.0800 
 44 H      -10.3630    -7.0400    -2.3200 H     1 <1>   0.0800 
 45 H      -10.7450    -5.3520    -2.6060 H     1 <1>   0.0800 
@<TRIPOS>BOND
  1   1   2  2   
  2   2   3  am  
  3   2   4  1   
  4   3   5  1   
  5   3   6  1   
  6   4   7  ar  
  7   4   8  ar  
  8   5  23  1   
  9   5  24  1   
 10   5  25  1   
 11   6  26  1   
 12   6  27  1   
 13   6  28  1   
 14   7   9  ar  
 15   7  29  1   
 16   8  10  ar  
 17   8  30  1   
 18   9  11  ar  
 19  10  11  ar  
 20  10  31  1   
 21  11  12  1   
 22  12  13  1   
 23  12  32  1   
 24  13  14  1   
 25  13  33  1   
 26  13  34  1   
 27  14  15  1   
 28  14  35  1   
 29  14  36  1   
 30  15  16  1   
 31  15  37  1   
 32  15  38  1   
 33  16  17  1   
 34  16  18  ar  
 35  17  19  2   
 36  18  20  ar  
 37  18  21  1   
 38  19  20  1   
 39  19  22  1   
 40  20  39  1   
 41  21  40  1   
 42  21  41  1   
 43  21  42  1   
 44  22  43  1   
 45  22  44  1   
 46  22  45  1   
@<TRIPOS>SUBSTRUCTURE
  1 ****  11 GROUP 4 **** **** 0

# MOE 2024.06 (io_trps.svl 2023.06)
