@<TRIPOS>MOLECULE
NONAME
45 48 1 0 0 
SMALL
USER_CHARGES


@<TRIPOS>ATOM
  1 O       -1.8220     0.2860    -1.2790 O.2   1 <1>  -0.5700 
  2 C       -2.3110     0.9290    -0.3620 C.2   1 <1>   0.7160 
  3 N       -3.6210     0.6280    -0.0130 N.am  1 <1>  -0.6600 
  4 C       -1.4860     1.9650     0.2500 C.2   1 <1>   0.1410 
  5 C       -4.3610    -0.4800    -0.6980 C.3   1 <1>   0.1400 
  6 C       -4.5140     1.4880     0.8130 C.3   1 <1>   0.1400 
  7 N       -1.7810     2.6760     1.3650 N.2   1 <1>  -0.2270 
  8 C       -0.2740     2.3950    -0.1780 C.2   1 <1>  -0.3020 
  9 C       -5.1300     0.0210    -1.9350 C.3   1 <1>   0.1400 
 10 C       -4.9760     2.7250     0.0310 C.3   1 <1>  -0.1600 
 11 N       -0.8250     3.4970     1.6120 N.2   1 <1>  -0.4180 
 12 N        0.1090     3.3350     0.6770 N.pl3 1 <1>   0.3000 
 13 N       -6.0300     1.1840    -1.6310 N.am  1 <1>  -0.6600 
 14 C       -5.3100     2.4750    -1.4480 C.3   1 <1>   0.1400 
 15 C       -7.3920     1.1150    -1.4610 C.2   1 <1>   0.5690 
 16 O       -8.0430     2.1000    -1.1960 O.2   1 <1>  -0.5700 
 17 C       -8.1510    -0.2010    -1.5840 C.3   1 <1>   0.0440 
 18 C       -7.7630    -1.2070    -0.5040 C.ar  1 <1>  -0.1430 
 19 C       -7.3720    -2.4960    -0.8530 C.ar  1 <1>  -0.1500 
 20 C       -7.7920    -0.8270     0.8380 C.ar  1 <1>  -0.1500 
 21 C       -7.0010    -3.3610     0.1570 C.ar  1 <1>   0.0830 
 22 C       -7.4180    -1.7120     1.8410 C.ar  1 <1>  -0.1500 
 23 O       -6.5830    -4.6260     0.0520 O.3   1 <1>  -0.3630 
 24 C       -7.0220    -2.9800     1.4670 C.ar  1 <1>   0.0830 
 25 C       -6.3360    -5.0860     1.3800 C.3   1 <1>   0.4000 
 26 O       -6.6200    -3.9890     2.2460 O.3   1 <1>  -0.3630 
 27 H       -5.0450    -0.9370    -0.0060 H     1 <1>   0.0800 
 28 H       -3.6710    -1.2470    -1.0030 H     1 <1>   0.0800 
 29 H       -4.0340     1.7730     1.7310 H     1 <1>   0.0800 
 30 H       -5.3860     0.9200     1.0920 H     1 <1>   0.0800 
 31 H        0.3000     2.0700    -1.0270 H     1 <1>   0.1500 
 32 H       -5.6940    -0.7940    -2.3460 H     1 <1>   0.0800 
 33 H       -4.4160     0.3140    -2.6850 H     1 <1>   0.0800 
 34 H       -4.2180     3.4840     0.0880 H     1 <1>   0.0800 
 35 H       -5.8490     3.1240     0.5150 H     1 <1>   0.0800 
 36 H        0.9790     3.8780     0.6650 H     1 <1>   0.2700 
 37 H       -4.4000     2.4590    -2.0220 H     1 <1>   0.0800 
 38 H       -5.9140     3.2850    -1.8210 H     1 <1>   0.0800 
 39 H       -7.9810    -0.6050    -2.5630 H     1 <1>   0.0800 
 40 H       -9.2030     0.0010    -1.5000 H     1 <1>   0.0800 
 41 H       -7.3480    -2.8320    -1.8740 H     1 <1>   0.1500 
 42 H       -8.1040     0.1690     1.1070 H     1 <1>   0.1500 
 43 H       -7.4330    -1.4310     2.8780 H     1 <1>   0.1500 
 44 H       -5.3020    -5.3670     1.4790 H     1 <1>   0.0800 
 45 H       -6.9960    -5.9040     1.6060 H     1 <1>   0.0800 
@<TRIPOS>BOND
  1   1   2  2   
  2   2   3  am  
  3   2   4  1   
  4   3   5  1   
  5   3   6  1   
  6   4   7  1   
  7   4   8  2   
  8   5   9  1   
  9   5  27  1   
 10   5  28  1   
 11   6  10  1   
 12   6  29  1   
 13   6  30  1   
 14   7  11  2   
 15   8  12  1   
 16   8  31  1   
 17   9  13  1   
 18   9  32  1   
 19   9  33  1   
 20  10  14  1   
 21  10  34  1   
 22  10  35  1   
 23  11  12  1   
 24  12  36  1   
 25  13  14  1   
 26  13  15  am  
 27  14  37  1   
 28  14  38  1   
 29  15  16  2   
 30  15  17  1   
 31  17  18  1   
 32  17  39  1   
 33  17  40  1   
 34  18  19  ar  
 35  18  20  ar  
 36  19  21  ar  
 37  19  41  1   
 38  20  22  ar  
 39  20  42  1   
 40  21  23  1   
 41  21  24  ar  
 42  22  24  ar  
 43  22  43  1   
 44  23  25  1   
 45  24  26  1   
 46  25  26  1   
 47  25  44  1   
 48  25  45  1   
@<TRIPOS>SUBSTRUCTURE
  1 ****   5 GROUP 4 **** **** 0

# MOE 2024.06 (io_trps.svl 2023.06)
