@<TRIPOS>MOLECULE
NONAME
49 51 1 0 0 
SMALL
USER_CHARGES


@<TRIPOS>ATOM
  1 F       -0.2240     0.8490     0.5680 F     1 <1>  -0.1900 
  2 C       -1.5180     1.0190     0.4790 C.ar  1 <1>   0.1900 
  3 C       -2.0810     2.0720    -0.2510 C.ar  1 <1>   0.0830 
  4 C       -2.3050     0.1020     1.1480 C.ar  1 <1>  -0.1500 
  5 O       -1.4150     3.0360    -0.9500 O.3   1 <1>  -0.3630 
  6 C       -3.4630     2.1660    -0.2810 C.ar  1 <1>  -0.1500 
  7 C       -3.6810     0.2260     1.0970 C.ar  1 <1>  -0.1500 
  8 C       -0.0090     3.0690    -1.0660 C.3   1 <1>   0.0400 
  9 C       -4.2910     1.2560     0.3790 C.ar  1 <1>   0.0530 
 10 C       -5.7250     1.3990     0.3240 C.2   1 <1>   0.0870 
 11 O       -6.2510     2.5980     0.3630 O.3   1 <1>  -0.0190 
 12 C       -6.7590     0.5170     0.2450 C.2   1 <1>  -0.0860 
 13 N       -7.5550     2.5870     0.3250 N.2   1 <1>  -0.4100 
 14 C       -7.8900     1.3470     0.2530 C.2   1 <1>   0.3720 
 15 C       -6.7740    -0.9120     0.1500 C.2   1 <1>   0.7160 
 16 N       -9.2260     0.9140     0.1740 N.pl3 1 <1>  -0.8210 
 17 O       -5.7920    -1.5460    -0.1860 O.2   1 <1>  -0.5700 
 18 N       -7.9170    -1.5930     0.4160 N.am  1 <1>  -0.7300 
 19 C       -9.6770     0.6360    -1.2200 C.3   1 <1>   0.1290 
 20 C      -10.2030     1.7720     0.9040 C.3   1 <1>   0.1290 
 21 C       -8.2270    -2.9440    -0.1090 C.3   1 <1>   0.2200 
 22 C       -9.6890    -3.3000     0.0760 C.3   1 <1>   0.2000 
 23 C       -7.5140    -4.0710     0.6360 C.3   1 <1>   0.1200 
 24 O      -10.4560    -2.8100    -0.9910 O.3   1 <1>  -0.5600 
 25 C       -9.6360    -4.8210     0.1260 C.3   1 <1>   0.1200 
 26 O       -8.4190    -5.1390     0.7340 O.3   1 <1>  -0.5600 
 27 C      -11.8340    -2.8990    -0.8060 C.3   1 <1>   0.0400 
 28 H       -1.8450    -0.6980     1.7000 H     1 <1>   0.1500 
 29 H       -3.9070     2.9710    -0.8390 H     1 <1>   0.1500 
 30 H       -4.2910    -0.4880     1.6220 H     1 <1>   0.1500 
 31 H        0.2550     3.9070    -1.6850 H     1 <1>   0.0800 
 32 H        0.3260     2.1560    -1.5270 H     1 <1>   0.0800 
 33 H        0.4210     3.1890    -0.0880 H     1 <1>   0.0800 
 34 H       -8.7370    -0.9740     0.5090 H     1 <1>   0.3700 
 35 H      -10.5920     0.0700    -1.2050 H     1 <1>   0.0800 
 36 H       -8.9320     0.0640    -1.7470 H     1 <1>   0.0800 
 37 H       -9.8380     1.5610    -1.7490 H     1 <1>   0.0800 
 38 H      -11.1490     1.2660     0.9860 H     1 <1>   0.0800 
 39 H      -10.3420     2.7050     0.3830 H     1 <1>   0.0800 
 40 H       -9.8360     1.9820     1.8940 H     1 <1>   0.0800 
 41 H       -7.9660    -3.0010    -1.1530 H     1 <1>   0.0800 
 42 H      -10.0610    -2.9070     1.0070 H     1 <1>   0.0800 
 43 H       -7.2490    -3.7710     1.6340 H     1 <1>   0.0800 
 44 H       -6.6400    -4.4030     0.1030 H     1 <1>   0.0800 
 45 H       -9.6260    -5.2380    -0.8660 H     1 <1>   0.0800 
 46 H      -10.4350    -5.2410     0.7100 H     1 <1>   0.0800 
 47 H      -12.3150    -2.4780    -1.6710 H     1 <1>   0.0800 
 48 H      -12.1130    -2.3410     0.0710 H     1 <1>   0.0800 
 49 H      -12.1180    -3.9320    -0.7050 H     1 <1>   0.0800 
@<TRIPOS>BOND
  1   1   2  1   
  2   2   3  ar  
  3   2   4  ar  
  4   3   5  1   
  5   3   6  ar  
  6   4   7  ar  
  7   4  28  1   
  8   5   8  1   
  9   6   9  ar  
 10   6  29  1   
 11   7   9  ar  
 12   7  30  1   
 13   8  31  1   
 14   8  32  1   
 15   8  33  1   
 16   9  10  1   
 17  10  11  1   
 18  10  12  2   
 19  11  13  1   
 20  12  14  1   
 21  12  15  1   
 22  13  14  2   
 23  14  16  1   
 24  15  17  2   
 25  15  18  am  
 26  16  19  1   
 27  16  20  1   
 28  18  21  1   
 29  18  34  1   
 30  19  35  1   
 31  19  36  1   
 32  19  37  1   
 33  20  38  1   
 34  20  39  1   
 35  20  40  1   
 36  21  22  1   
 37  21  23  1   
 38  21  41  1   
 39  22  24  1   
 40  22  25  1   
 41  22  42  1   
 42  23  26  1   
 43  23  43  1   
 44  23  44  1   
 45  24  27  1   
 46  25  26  1   
 47  25  45  1   
 48  25  46  1   
 49  27  47  1   
 50  27  48  1   
 51  27  49  1   
@<TRIPOS>SUBSTRUCTURE
  1 ****  12 GROUP 4 **** **** 0

# MOE 2024.06 (io_trps.svl 2023.06)
