@<TRIPOS>MOLECULE
NONAME
42 43 1 0 0 
SMALL
USER_CHARGES


@<TRIPOS>ATOM
  1 O        0.7700    -0.0280     2.3220 O.2   1 <1>  -0.5700 
  2 C        1.2820    -0.5830     1.3820 C.2   1 <1>   0.5690 
  3 N        1.9820     0.0640     0.4020 N.am  1 <1>  -0.4940 
  4 C        1.1510    -2.0910     1.2840 C.3   1 <1>  -0.0990 
  5 C        2.2730     1.4370     0.2040 C.2   1 <1>  -0.0880 
  6 C       -0.1770    -2.5320     0.6400 C.3   1 <1>  -0.0800 
  7 N        1.5020     2.5130     0.5340 N.pl3 1 <1>   0.3140 
  8 C        3.3830     1.9370    -0.3920 C.2   1 <1>  -0.1810 
  9 C       -0.3200    -4.0620     0.7060 C.3   1 <1>   0.1200 
 10 C       -0.3060    -2.0500    -0.8170 C.3   1 <1>  -0.1600 
 11 N        2.0870     3.6700     0.1570 N.2   1 <1>  -0.7070 
 12 C        0.1590     2.5440     1.1270 C.3   1 <1>   0.0160 
 13 C        3.2080     3.3180    -0.3870 C.2   1 <1>   0.1080 
 14 C        4.5820     1.1880    -0.9490 C.3   1 <1>  -0.0590 
 15 O       -1.5140    -4.4570     0.1030 O.3   1 <1>  -0.5600 
 16 C       -1.5620    -2.6500    -1.4580 C.3   1 <1>  -0.1600 
 17 C        4.1830     4.3410    -0.9420 C.3   1 <1>   0.0210 
 18 C       -1.6090    -4.1690    -1.2570 C.3   1 <1>   0.1200 
 19 C        5.1780     4.7950     0.1310 C.3   1 <1>  -0.2400 
 20 H        2.4280    -0.5470    -0.2790 H     1 <1>   0.3700 
 21 H        1.2050    -2.4850     2.2830 H     1 <1>   0.0800 
 22 H        1.9820    -2.4920     0.7330 H     1 <1>   0.0800 
 23 H       -0.9840    -2.1090     1.2170 H     1 <1>   0.0800 
 24 H       -0.3510    -4.3940     1.7300 H     1 <1>   0.0800 
 25 H        0.4940    -4.5560     0.2030 H     1 <1>   0.0800 
 26 H        0.5560    -2.3620    -1.3810 H     1 <1>   0.0800 
 27 H       -0.3680    -0.9760    -0.8570 H     1 <1>   0.0800 
 28 H       -0.4160     1.7180     0.7540 H     1 <1>   0.0800 
 29 H       -0.3210     3.4670     0.8630 H     1 <1>   0.0800 
 30 H        0.2480     2.4770     2.1940 H     1 <1>   0.0800 
 31 H        4.5330     0.1450    -0.6960 H     1 <1>   0.0800 
 32 H        5.4880     1.5940    -0.5380 H     1 <1>   0.0800 
 33 H        4.6080     1.2860    -2.0190 H     1 <1>   0.0800 
 34 H       -1.5820    -2.4250    -2.5100 H     1 <1>   0.0800 
 35 H       -2.4420    -2.2180    -1.0130 H     1 <1>   0.0800 
 36 H        3.6250     5.1910    -1.2940 H     1 <1>   0.0800 
 37 H        4.7100     3.9230    -1.7790 H     1 <1>   0.0800 
 38 H       -2.5430    -4.5690    -1.6120 H     1 <1>   0.0800 
 39 H       -0.7990    -4.6590    -1.7710 H     1 <1>   0.0800 
 40 H        4.6440     5.2280     0.9590 H     1 <1>   0.0800 
 41 H        5.8520     5.5290    -0.2710 H     1 <1>   0.0800 
 42 H        5.7460     3.9560     0.4920 H     1 <1>   0.0800 
@<TRIPOS>BOND
  1   1   2  2   
  2   2   3  am  
  3   2   4  1   
  4   3   5  1   
  5   3  20  1   
  6   4   6  1   
  7   4  21  1   
  8   4  22  1   
  9   5   7  1   
 10   5   8  2   
 11   6   9  1   
 12   6  10  1   
 13   6  23  1   
 14   7  11  1   
 15   7  12  1   
 16   8  13  1   
 17   8  14  1   
 18   9  15  1   
 19   9  24  1   
 20   9  25  1   
 21  10  16  1   
 22  10  26  1   
 23  10  27  1   
 24  11  13  2   
 25  12  28  1   
 26  12  29  1   
 27  12  30  1   
 28  13  17  1   
 29  14  31  1   
 30  14  32  1   
 31  14  33  1   
 32  15  18  1   
 33  16  18  1   
 34  16  34  1   
 35  16  35  1   
 36  17  19  1   
 37  17  36  1   
 38  17  37  1   
 39  18  38  1   
 40  18  39  1   
 41  19  40  1   
 42  19  41  1   
 43  19  42  1   
@<TRIPOS>SUBSTRUCTURE
  1 ****   3 GROUP 4 **** **** 0

# MOE 2024.06 (io_trps.svl 2023.06)
