@<TRIPOS>MOLECULE
NONAME
43 44 1 0 0 
SMALL
USER_CHARGES


@<TRIPOS>ATOM
  1 S       -0.9270     0.5580     1.4560 S.o2  1 <1>   1.4470 
  2 O       -0.9430    -0.5730     2.3570 O.2   1 <1>  -0.6500 
  3 O       -1.6060     1.7720     1.8640 O.2   1 <1>  -0.6500 
  4 N       -1.6060     0.1040    -0.0350 N.am  1 <1>  -0.8490 
  5 C        0.7890     0.9800     1.0380 C.ar  1 <1>  -0.0090 
  6 C       -0.9980    -1.0630    -0.7070 C.3   1 <1>   0.1960 
  7 C       -3.0720     0.0770    -0.0600 C.3   1 <1>   0.1960 
  8 C        1.1230     2.2430     0.5650 C.ar  1 <1>  -0.1500 
  9 C        1.8090     0.0430     1.1550 C.ar  1 <1>  -0.1500 
 10 C       -1.5220    -2.4070    -0.1870 C.3   1 <1>  -0.1860 
 11 C       -3.6340    -1.2260     0.5120 C.3   1 <1>  -0.1600 
 12 C        2.4250     2.5760     0.2250 C.ar  1 <1>  -0.1440 
 13 C        3.1140     0.3540     0.8180 C.ar  1 <1>  -0.1500 
 14 C       -0.9510    -3.5430    -1.0090 C.2   1 <1>   0.9060 
 15 C       -3.0480    -2.4160    -0.2390 C.3   1 <1>   0.2000 
 16 C        3.4330     1.6250     0.3510 C.ar  1 <1>   0.0820 
 17 C        2.7400     3.9750    -0.2830 C.3   1 <1>  -0.0970 
 18 O       -0.0340    -3.3150    -1.8030 O.co2 1 <1>  -0.9000 
 19 O       -1.4300    -4.6750    -0.8630 O.co2 1 <1>  -0.9000 
 20 O       -3.5090    -3.5740     0.3420 O.3   1 <1>  -0.6800 
 21 O        4.6950     1.9910     0.0040 O.3   1 <1>  -0.3630 
 22 C        5.7670     1.0790     0.0320 C.3   1 <1>   0.1200 
 23 C        7.0180     1.8050    -0.4520 C.3   1 <1>  -0.2400 
 24 H       -1.2200    -0.9990    -1.7600 H     1 <1>   0.0800 
 25 H        0.0750    -1.0350    -0.6190 H     1 <1>   0.0800 
 26 H       -3.4700     0.9180     0.4820 H     1 <1>   0.0800 
 27 H       -3.3940     0.1720    -1.0830 H     1 <1>   0.0800 
 28 H        0.3400     2.9750     0.4640 H     1 <1>   0.1500 
 29 H        1.5750    -0.9470     1.5120 H     1 <1>   0.1500 
 30 H       -1.1910    -2.5540     0.8210 H     1 <1>   0.0800 
 31 H       -4.7030    -1.2300     0.4050 H     1 <1>   0.0800 
 32 H       -3.3960    -1.2970     1.5580 H     1 <1>   0.0800 
 33 H        3.8620    -0.4090     0.9240 H     1 <1>   0.1500 
 34 H       -3.3760    -2.4140    -1.2650 H     1 <1>   0.0800 
 35 H        1.8580     4.5880    -0.3140 H     1 <1>   0.0800 
 36 H        3.1540     3.9170    -1.2740 H     1 <1>   0.0800 
 37 H        3.4610     4.4420     0.3630 H     1 <1>   0.0800 
 38 H       -2.9020    -4.2980     0.0060 H     1 <1>   0.4000 
 39 H        5.8940     0.7350     1.0440 H     1 <1>   0.0800 
 40 H        5.5290     0.2540    -0.6180 H     1 <1>   0.0800 
 41 H        7.2360     2.6370     0.1930 H     1 <1>   0.0800 
 42 H        6.8730     2.1580    -1.4580 H     1 <1>   0.0800 
 43 H        7.8570     1.1330    -0.4420 H     1 <1>   0.0800 
@<TRIPOS>BOND
  1   1   2  2   
  2   1   3  2   
  3   1   4  am  
  4   1   5  1   
  5   4   6  1   
  6   4   7  1   
  7   5   8  ar  
  8   5   9  ar  
  9   6  10  1   
 10   6  24  1   
 11   6  25  1   
 12   7  11  1   
 13   7  26  1   
 14   7  27  1   
 15   8  12  ar  
 16   8  28  1   
 17   9  13  ar  
 18   9  29  1   
 19  10  14  1   
 20  10  15  1   
 21  10  30  1   
 22  11  15  1   
 23  11  31  1   
 24  11  32  1   
 25  12  16  ar  
 26  12  17  1   
 27  13  16  ar  
 28  13  33  1   
 29  14  18  ar  
 30  14  19  ar  
 31  15  20  1   
 32  15  34  1   
 33  16  21  1   
 34  17  35  1   
 35  17  36  1   
 36  17  37  1   
 37  20  38  1   
 38  21  22  1   
 39  22  23  1   
 40  22  39  1   
 41  22  40  1   
 42  23  41  1   
 43  23  42  1   
 44  23  43  1   
@<TRIPOS>SUBSTRUCTURE
  1 ****   5 GROUP 4 **** **** 0

# MOE 2024.06 (io_trps.svl 2023.06)
