@<TRIPOS>MOLECULE
NONAME
47 49 1 0 0 
SMALL
USER_CHARGES


@<TRIPOS>ATOM
  1 S        0.9620    -0.0430    -1.1350 S.o2  1 <1>   1.3330 
  2 O        2.1050    -0.7210    -0.5630 O.2   1 <1>  -0.6500 
  3 O        0.7340    -0.1150    -2.5600 O.2   1 <1>  -0.6500 
  4 N       -0.4350    -0.6550    -0.3850 N.am  1 <1>  -0.8490 
  5 C        0.9830     1.6860    -0.6330 C.3   1 <1>  -0.0550 
  6 C       -0.3280    -2.0880    -0.0960 C.3   1 <1>   0.1160 
  7 C       -1.6660    -0.3950    -1.1420 C.3   1 <1>   0.1160 
  8 C        1.5170     2.0200     0.7780 C.3   1 <1>  -0.0800 
  9 C        3.0160     1.7500     0.9410 C.3   1 <1>   0.2200 
 10 C        0.8790     1.2810     1.9610 C.3   1 <1>   0.1200 
 11 N        3.7050     3.0230     1.2550 N.am  1 <1>  -0.7300 
 12 C        3.0690     0.8060     2.1390 C.3   1 <1>   0.1200 
 13 O        1.9170     1.0850     2.8660 O.3   1 <1>  -0.5600 
 14 C        4.1110     3.9340     0.3220 C.2   1 <1>   0.5440 
 15 O        3.9010     3.6800    -0.8480 O.2   1 <1>  -0.5700 
 16 C        4.7670     5.1760     0.7050 C.ar  1 <1>   0.0860 
 17 C        5.4510     5.9380    -0.2430 C.ar  1 <1>  -0.1500 
 18 C        4.7430     5.6640     2.0140 C.ar  1 <1>  -0.1500 
 19 C        6.0940     7.1270     0.0800 C.ar  1 <1>  -0.0230 
 20 C        5.3770     6.8440     2.3560 C.ar  1 <1>  -0.1500 
 21 N        6.7830     7.8730    -0.9140 N.pl3 1 <1>   0.3260 
 22 C        6.0520     7.5730     1.3950 C.ar  1 <1>  -0.1500 
 23 C        7.6140     7.4440    -1.8740 C.2   1 <1>   0.0360 
 24 C        6.7880     9.1950    -1.1300 C.2   1 <1>   0.0360 
 25 N        8.0770     8.4070    -2.5930 N.2   1 <1>  -0.3380 
 26 N        7.5460     9.5330    -2.1140 N.2   1 <1>  -0.3380 
 27 H        1.5930     2.2240    -1.3340 H     1 <1>   0.0800 
 28 H       -0.0090     2.0810    -0.7250 H     1 <1>   0.0800 
 29 H       -1.2250    -2.4420     0.3840 H     1 <1>   0.0800 
 30 H        0.5010    -2.2700     0.5680 H     1 <1>   0.0800 
 31 H       -0.1700    -2.6430    -1.0060 H     1 <1>   0.0800 
 32 H       -2.5230    -0.7160    -0.5750 H     1 <1>   0.0800 
 33 H       -1.6490    -0.9230    -2.0820 H     1 <1>   0.0800 
 34 H       -1.7660     0.6580    -1.3410 H     1 <1>   0.0800 
 35 H        1.3310     3.0680     0.9330 H     1 <1>   0.0800 
 36 H        3.4690     1.2980     0.0740 H     1 <1>   0.0800 
 37 H        0.5030     0.3110     1.6990 H     1 <1>   0.0800 
 38 H        0.1040     1.8570     2.4370 H     1 <1>   0.0800 
 39 H        3.7640     3.2310     2.2520 H     1 <1>   0.3700 
 40 H        3.9370     0.9530     2.7570 H     1 <1>   0.0800 
 41 H        3.0170    -0.2210     1.8170 H     1 <1>   0.0800 
 42 H        5.4710     5.5850    -1.2610 H     1 <1>   0.1500 
 43 H        4.2190     5.1220     2.7800 H     1 <1>   0.1500 
 44 H        5.3460     7.1970     3.3740 H     1 <1>   0.1500 
 45 H        6.5470     8.4870     1.6770 H     1 <1>   0.1500 
 46 H        7.8550     6.4060    -2.0070 H     1 <1>   0.1500 
 47 H        6.2130     9.8780    -0.5350 H     1 <1>   0.1500 
@<TRIPOS>BOND
  1   1   2  2   
  2   1   3  2   
  3   1   4  am  
  4   1   5  1   
  5   4   6  1   
  6   4   7  1   
  7   5   8  1   
  8   5  27  1   
  9   5  28  1   
 10   6  29  1   
 11   6  30  1   
 12   6  31  1   
 13   7  32  1   
 14   7  33  1   
 15   7  34  1   
 16   8   9  1   
 17   8  10  1   
 18   8  35  1   
 19   9  11  1   
 20   9  12  1   
 21   9  36  1   
 22  10  13  1   
 23  10  37  1   
 24  10  38  1   
 25  11  14  am  
 26  11  39  1   
 27  12  13  1   
 28  12  40  1   
 29  12  41  1   
 30  14  15  2   
 31  14  16  1   
 32  16  17  ar  
 33  16  18  ar  
 34  17  19  ar  
 35  17  42  1   
 36  18  20  ar  
 37  18  43  1   
 38  19  21  1   
 39  19  22  ar  
 40  20  22  ar  
 41  20  44  1   
 42  21  23  1   
 43  21  24  1   
 44  22  45  1   
 45  23  25  2   
 46  23  46  1   
 47  24  26  2   
 48  24  47  1   
 49  25  26  1   
@<TRIPOS>SUBSTRUCTURE
  1 ****  14 GROUP 4 **** **** 0

# MOE 2024.06 (io_trps.svl 2023.06)
