@<TRIPOS>MOLECULE
NONAME
54 55 1 0 0 
SMALL
USER_CHARGES


@<TRIPOS>ATOM
  1 O       -0.9070     0.6830     1.7930 O.2   1 <1>  -0.5700 
  2 C       -1.5530     0.6980     0.7730 C.2   1 <1>   0.5690 
  3 N       -2.3040    -0.3660     0.3920 N.am  1 <1>  -0.7300 
  4 C       -1.4840     1.9660    -0.0990 C.3   1 <1>   0.4040 
  5 C       -2.5030    -1.5780     1.2100 C.3   1 <1>   0.2840 
  6 N       -0.2080     2.7650     0.0900 N.4   1 <1>  -0.9590 
  7 C       -3.7820    -2.2330     0.7170 C.ar  1 <1>  -0.1430 
  8 C       -0.2070     4.1380    -0.5130 C.3   1 <1>   0.4230 
  9 C        0.9620     1.9390    -0.3410 C.3   1 <1>   0.3430 
 10 C       -3.7870    -3.1780    -0.3070 C.ar  1 <1>  -0.1430 
 11 C       -4.9800    -1.8560     1.3050 C.ar  1 <1>  -0.1500 
 12 C        1.1150     4.8420    -0.1500 C.3   1 <1>  -0.1600 
 13 C       -1.4280     4.9500    -0.0280 C.3   1 <1>  -0.1600 
 14 C        2.2650     2.6210     0.0640 C.3   1 <1>  -0.1600 
 15 C       -4.9920    -3.7250    -0.7210 C.ar  1 <1>  -0.1500 
 16 C       -2.5060    -3.6410    -0.9880 C.3   1 <1>  -0.0970 
 17 C       -6.1770    -2.4060     0.8850 C.ar  1 <1>  -0.1500 
 18 C        2.3560     4.0270    -0.5290 C.3   1 <1>  -0.1600 
 19 C       -1.4740     6.3870    -0.5810 C.3   1 <1>  -0.1600 
 20 C       -6.1830    -3.3420    -0.1310 C.ar  1 <1>  -0.1500 
 21 C       -2.7770     7.1000    -0.2180 C.3   1 <1>   0.1200 
 22 O       -2.7190     8.3590    -0.7930 O.3   1 <1>  -0.5600 
 23 C       -3.8310     9.1550    -0.5380 C.3   1 <1>   0.0400 
 24 H       -2.9130    -0.3660    -0.4320 H     1 <1>   0.3700 
 25 H       -2.3340     2.5660     0.1680 H     1 <1>   0.0800 
 26 H       -1.5860     1.6830    -1.1320 H     1 <1>   0.0800 
 27 H       -2.5940    -1.3110     2.2500 H     1 <1>   0.0800 
 28 H       -1.6600    -2.2370     1.1050 H     1 <1>   0.0800 
 29 H       -0.1010     2.8710     1.1100 H     1 <1>   0.4500 
 30 H       -0.2580     4.0490    -1.5870 H     1 <1>   0.0800 
 31 H        0.9440     1.8060    -1.4100 H     1 <1>   0.0800 
 32 H        0.9210     0.9670     0.1250 H     1 <1>   0.0800 
 33 H       -4.9910    -1.1280     2.0980 H     1 <1>   0.1500 
 34 H        1.1320     5.0550     0.9050 H     1 <1>   0.0800 
 35 H        1.1790     5.7830    -0.6680 H     1 <1>   0.0800 
 36 H       -1.4320     4.9940     1.0480 H     1 <1>   0.0800 
 37 H       -2.3310     4.4700    -0.3560 H     1 <1>   0.0800 
 38 H        3.0950     2.0310    -0.2850 H     1 <1>   0.0800 
 39 H        2.3290     2.6640     1.1380 H     1 <1>   0.0800 
 40 H       -5.0150    -4.4580    -1.5080 H     1 <1>   0.1500 
 41 H       -1.9390    -2.7980    -1.3380 H     1 <1>   0.0800 
 42 H       -2.7250    -4.2690    -1.8330 H     1 <1>   0.0800 
 43 H       -1.9080    -4.2070    -0.2960 H     1 <1>   0.0800 
 44 H       -7.1020    -2.1070     1.3470 H     1 <1>   0.1500 
 45 H        3.2430     4.5200    -0.1660 H     1 <1>   0.0800 
 46 H        2.4330     3.9630    -1.6020 H     1 <1>   0.0800 
 47 H       -1.3870     6.3680    -1.6540 H     1 <1>   0.0800 
 48 H       -0.6650     6.9710    -0.1790 H     1 <1>   0.0800 
 49 H       -7.1120    -3.7740    -0.4610 H     1 <1>   0.1500 
 50 H       -2.8720     7.2110     0.8500 H     1 <1>   0.0800 
 51 H       -3.6310     6.5800    -0.6160 H     1 <1>   0.0800 
 52 H       -3.6830    10.1020    -1.0270 H     1 <1>   0.0800 
 53 H       -3.9250     9.3080     0.5240 H     1 <1>   0.0800 
 54 H       -4.7110     8.6780    -0.9330 H     1 <1>   0.0800 
@<TRIPOS>BOND
  1   1   2  2   
  2   2   3  am  
  3   2   4  1   
  4   3   5  1   
  5   3  24  1   
  6   4   6  1   
  7   4  25  1   
  8   4  26  1   
  9   5   7  1   
 10   5  27  1   
 11   5  28  1   
 12   6   8  1   
 13   6   9  1   
 14   6  29  1   
 15   7  10  ar  
 16   7  11  ar  
 17   8  12  1   
 18   8  13  1   
 19   8  30  1   
 20   9  14  1   
 21   9  31  1   
 22   9  32  1   
 23  10  15  ar  
 24  10  16  1   
 25  11  17  ar  
 26  11  33  1   
 27  12  18  1   
 28  12  34  1   
 29  12  35  1   
 30  13  19  1   
 31  13  36  1   
 32  13  37  1   
 33  14  18  1   
 34  14  38  1   
 35  14  39  1   
 36  15  20  ar  
 37  15  40  1   
 38  16  41  1   
 39  16  42  1   
 40  16  43  1   
 41  17  20  ar  
 42  17  44  1   
 43  18  45  1   
 44  18  46  1   
 45  19  21  1   
 46  19  47  1   
 47  19  48  1   
 48  20  49  1   
 49  21  22  1   
 50  21  50  1   
 51  21  51  1   
 52  22  23  1   
 53  23  52  1   
 54  23  53  1   
 55  23  54  1   
@<TRIPOS>SUBSTRUCTURE
  1 ****   4 GROUP 4 **** **** 0

# MOE 2024.06 (io_trps.svl 2023.06)
