@<TRIPOS>MOLECULE
NONAME
41 42 1 0 0 
SMALL
USER_CHARGES


@<TRIPOS>ATOM
  1 O       -0.7610     0.6070     0.9950 O.3   1 <1>  -0.3630 
  2 C       -1.5580     1.5810     0.4730 C.ar  1 <1>   0.3920 
  3 C       -1.3190    -0.5800     1.5290 C.3   1 <1>   0.0400 
  4 N       -2.8680     1.3980     0.5150 N.ar  1 <1>  -0.6200 
  5 C       -0.9380     2.7430    -0.0740 C.ar  1 <1>   0.4100 
  6 C       -3.5330     2.4170    -0.0100 C.ar  1 <1>   0.1600 
  7 N       -1.6230     3.7670    -0.5590 N.ar  1 <1>  -0.6200 
  8 N        0.4420     2.9260    -0.1520 N.pl3 1 <1>  -0.8380 
  9 C       -2.9330     3.5550    -0.5240 C.ar  1 <1>   0.1600 
 10 C        1.1260     3.4390     1.0800 C.3   1 <1>   0.2090 
 11 C        1.1950     1.9070    -0.9300 C.3   1 <1>   0.2090 
 12 C        1.6160     4.8800     0.8390 C.3   1 <1>   0.3430 
 13 C        2.2040     2.6110    -1.8290 C.3   1 <1>  -0.2400 
 14 N        0.5790     5.6330     0.0810 N.4   1 <1>  -0.9590 
 15 C        1.0700     6.5330    -0.9740 C.3   1 <1>   0.3430 
 16 C       -0.4090     6.3710     0.8970 C.3   1 <1>   0.3430 
 17 C       -0.1570     7.3550    -1.3300 C.3   1 <1>  -0.1600 
 18 C       -0.9800     7.4310    -0.0400 C.3   1 <1>  -0.1600 
 19 H       -0.5180    -1.2080     1.8730 H     1 <1>   0.0800 
 20 H       -1.8750    -1.0820     0.7560 H     1 <1>   0.0800 
 21 H       -1.9670    -0.3240     2.3490 H     1 <1>   0.0800 
 22 H       -4.6070     2.3390    -0.0280 H     1 <1>   0.1500 
 23 H       -3.5660     4.3270    -0.9260 H     1 <1>   0.1500 
 24 H        1.9560     2.8080     1.3460 H     1 <1>   0.0800 
 25 H        0.4350     3.4340     1.9060 H     1 <1>   0.0800 
 26 H        0.5120     1.3400    -1.5430 H     1 <1>   0.0800 
 27 H        1.6920     1.2180    -0.2660 H     1 <1>   0.0800 
 28 H        2.5180     4.8290     0.2530 H     1 <1>   0.0800 
 29 H        1.8450     5.3670     1.7720 H     1 <1>   0.0800 
 30 H        1.6990     3.3090    -2.4720 H     1 <1>   0.0800 
 31 H        2.7010     1.8830    -2.4440 H     1 <1>   0.0800 
 32 H        2.9470     3.1210    -1.2460 H     1 <1>   0.0800 
 33 H        0.0360     4.8680    -0.3950 H     1 <1>   0.4500 
 34 H        1.4450     5.9830    -1.8230 H     1 <1>   0.0800 
 35 H        1.8420     7.1760    -0.5810 H     1 <1>   0.0800 
 36 H        0.0780     6.8480     1.7320 H     1 <1>   0.0800 
 37 H       -1.1800     5.7070     1.2550 H     1 <1>   0.0800 
 38 H       -0.7130     6.8360    -2.0910 H     1 <1>   0.0800 
 39 H        0.1150     8.3280    -1.7010 H     1 <1>   0.0800 
 40 H       -0.8910     8.4000     0.4190 H     1 <1>   0.0800 
 41 H       -2.0200     7.2390    -0.2360 H     1 <1>   0.0800 
@<TRIPOS>BOND
  1   1   2  1   
  2   1   3  1   
  3   2   4  ar  
  4   2   5  ar  
  5   3  19  1   
  6   3  20  1   
  7   3  21  1   
  8   4   6  ar  
  9   5   7  ar  
 10   5   8  1   
 11   6   9  ar  
 12   6  22  1   
 13   7   9  ar  
 14   8  10  1   
 15   8  11  1   
 16   9  23  1   
 17  10  12  1   
 18  10  24  1   
 19  10  25  1   
 20  11  13  1   
 21  11  26  1   
 22  11  27  1   
 23  12  14  1   
 24  12  28  1   
 25  12  29  1   
 26  13  30  1   
 27  13  31  1   
 28  13  32  1   
 29  14  15  1   
 30  14  16  1   
 31  14  33  1   
 32  15  17  1   
 33  15  34  1   
 34  15  35  1   
 35  16  18  1   
 36  16  36  1   
 37  16  37  1   
 38  17  18  1   
 39  17  38  1   
 40  17  39  1   
 41  18  40  1   
 42  18  41  1   
@<TRIPOS>SUBSTRUCTURE
  1 ****   5 GROUP 4 **** **** 0

# MOE 2024.06 (io_trps.svl 2023.06)
