@<TRIPOS>MOLECULE
NONAME
57 59 1 0 0 
SMALL
USER_CHARGES


@<TRIPOS>ATOM
  1 O       -2.4940     3.8900    -1.5370 O.2   1 <1>  -0.5700 
  2 C       -2.3110     3.2880    -0.4950 C.2   1 <1>   0.5440 
  3 N       -3.2050     2.2960    -0.1310 N.am  1 <1>  -0.6600 
  4 C       -1.1600     3.6200     0.3270 C.ar  1 <1>   0.0860 
  5 C       -4.5420     2.2350    -0.7980 C.3   1 <1>   0.2200 
  6 C       -2.7210     1.0810     0.5950 C.3   1 <1>   0.0600 
  7 C        0.0890     3.8490    -0.2480 C.ar  1 <1>  -0.1500 
  8 C       -1.2580     3.7260     1.7140 C.ar  1 <1>  -0.1500 
  9 C       -5.3560     3.5000    -0.5220 C.3   1 <1>  -0.1600 
 10 C       -5.4700     1.1190    -0.3070 C.3   1 <1>  -0.1600 
 11 C        1.2070     4.1550     0.5140 C.ar  1 <1>  -0.1430 
 12 C       -0.1550     4.0300     2.4890 C.ar  1 <1>  -0.1500 
 13 C       -6.8080     3.1080    -0.8130 C.3   1 <1>  -0.0800 
 14 C       -6.8760     1.5820    -0.7090 C.3   1 <1>  -0.0800 
 15 C        1.0740     4.2420     1.8910 C.ar  1 <1>  -0.1500 
 16 C        2.5660     4.4000    -0.1380 C.3   1 <1>   0.0630 
 17 C       -7.8460     3.6430     0.1830 C.3   1 <1>  -0.1600 
 18 C       -7.9880     1.2790     0.3090 C.3   1 <1>  -0.1600 
 19 C        2.5100     5.6060    -1.0800 C.3   1 <1>  -0.2400 
 20 C        3.0490     3.1500    -0.8820 C.3   1 <1>  -0.2400 
 21 C       -8.8830     2.5240     0.3190 C.3   1 <1>   0.4230 
 22 N       -9.8130     2.5170    -0.8570 N.4   1 <1>  -0.9590 
 23 C      -10.6030     3.7840    -0.9800 C.3   1 <1>   0.2630 
 24 C      -10.7680     1.3620    -0.8330 C.3   1 <1>   0.2630 
 25 H       -4.3990     2.1330    -1.8620 H     1 <1>   0.0800 
 26 H       -2.9290     0.1980     0.0150 H     1 <1>   0.0800 
 27 H       -3.2100     1.0070     1.5500 H     1 <1>   0.0800 
 28 H       -1.6580     1.1250     0.7550 H     1 <1>   0.0800 
 29 H        0.1690     3.7840    -1.3190 H     1 <1>   0.1500 
 30 H       -2.2130     3.5710     2.1830 H     1 <1>   0.1500 
 31 H       -5.2280     3.7780     0.5090 H     1 <1>   0.0800 
 32 H       -5.0400     4.3150    -1.1500 H     1 <1>   0.0800 
 33 H       -5.2250     0.1740    -0.7570 H     1 <1>   0.0800 
 34 H       -5.4020     1.0440     0.7630 H     1 <1>   0.0800 
 35 H       -0.2510     4.1060     3.5590 H     1 <1>   0.1500 
 36 H       -7.0630     3.4030    -1.8180 H     1 <1>   0.0800 
 37 H       -7.1260     1.1770    -1.6760 H     1 <1>   0.0800 
 38 H        1.9250     4.4780     2.5060 H     1 <1>   0.1500 
 39 H        3.2860     4.6200     0.6330 H     1 <1>   0.0800 
 40 H       -8.2380     4.5990    -0.1070 H     1 <1>   0.0800 
 41 H       -7.3830     3.7670     1.1470 H     1 <1>   0.0800 
 42 H       -7.5600     1.1900     1.2920 H     1 <1>   0.0800 
 43 H       -8.4940     0.3570     0.0980 H     1 <1>   0.0800 
 44 H        1.8400     5.4220    -1.9010 H     1 <1>   0.0800 
 45 H        3.4880     5.8170    -1.4760 H     1 <1>   0.0800 
 46 H        2.1630     6.4720    -0.5450 H     1 <1>   0.0800 
 47 H        2.3910     2.9130    -1.6990 H     1 <1>   0.0800 
 48 H        3.0750     2.3120    -0.2090 H     1 <1>   0.0800 
 49 H        4.0380     3.3080    -1.2720 H     1 <1>   0.0800 
 50 H       -9.4380     2.6070     1.2400 H     1 <1>   0.0800 
 51 H       -9.2120     2.4270    -1.6900 H     1 <1>   0.4500 
 52 H      -11.1690     3.9610    -0.0800 H     1 <1>   0.0800 
 53 H      -11.2880     3.7170    -1.8100 H     1 <1>   0.0800 
 54 H       -9.9530     4.6250    -1.1510 H     1 <1>   0.0800 
 55 H      -11.3480     1.3750     0.0750 H     1 <1>   0.0800 
 56 H      -10.2380     0.4260    -0.8930 H     1 <1>   0.0800 
 57 H      -11.4420     1.4180    -1.6730 H     1 <1>   0.0800 
@<TRIPOS>BOND
  1   1   2  2   
  2   2   3  am  
  3   2   4  1   
  4   3   5  1   
  5   3   6  1   
  6   4   7  ar  
  7   4   8  ar  
  8   5   9  1   
  9   5  10  1   
 10   5  25  1   
 11   6  26  1   
 12   6  27  1   
 13   6  28  1   
 14   7  11  ar  
 15   7  29  1   
 16   8  12  ar  
 17   8  30  1   
 18   9  13  1   
 19   9  31  1   
 20   9  32  1   
 21  10  14  1   
 22  10  33  1   
 23  10  34  1   
 24  11  15  ar  
 25  11  16  1   
 26  12  15  ar  
 27  12  35  1   
 28  13  14  1   
 29  13  17  1   
 30  13  36  1   
 31  14  18  1   
 32  14  37  1   
 33  15  38  1   
 34  16  19  1   
 35  16  20  1   
 36  16  39  1   
 37  17  21  1   
 38  17  40  1   
 39  17  41  1   
 40  18  21  1   
 41  18  42  1   
 42  18  43  1   
 43  19  44  1   
 44  19  45  1   
 45  19  46  1   
 46  20  47  1   
 47  20  48  1   
 48  20  49  1   
 49  21  22  1   
 50  21  50  1   
 51  22  23  1   
 52  22  24  1   
 53  22  51  1   
 54  23  52  1   
 55  23  53  1   
 56  23  54  1   
 57  24  55  1   
 58  24  56  1   
 59  24  57  1   
@<TRIPOS>SUBSTRUCTURE
  1 ****   3 GROUP 4 **** **** 0

# MOE 2024.06 (io_trps.svl 2023.06)
