@<TRIPOS>MOLECULE
NONAME
61 64 1 0 0 
SMALL
USER_CHARGES


@<TRIPOS>ATOM
  1 O        0.3470     0.9270     0.8630 O.2   1 <1>  -0.5700 
  2 C       -0.3500     1.8360     0.4740 C.2   1 <1>   0.5690 
  3 N       -1.7160     1.7120     0.4040 N.am  1 <1>  -0.6600 
  4 C        0.3190     3.1420     0.0550 C.3   1 <1>  -0.0990 
  5 C       -2.6680     2.7860    -0.0220 C.3   1 <1>   0.1400 
  6 C       -2.3970     0.4310     0.7450 C.3   1 <1>   0.1400 
  7 C        1.8580     3.1460     0.1730 C.3   1 <1>  -0.1600 
  8 C       -3.6760     3.0950     1.1010 C.3   1 <1>   0.1440 
  9 C       -3.4180     0.6620     1.8650 C.3   1 <1>  -0.1600 
 10 C        2.4980     4.5130    -0.1360 C.3   1 <1>  -0.0800 
 11 C       -4.6900     4.1240     0.6370 C.ar  1 <1>   0.1670 
 12 C       -4.4010     1.8000     1.5300 C.3   1 <1>  -0.1600 
 13 C       -3.0130     3.8120     2.3100 C.3   1 <1>  -0.1600 
 14 C        2.2710     4.9510    -1.5960 C.3   1 <1>  -0.1600 
 15 C        4.0050     4.4540     0.1730 C.3   1 <1>  -0.1600 
 16 N       -5.3350     4.0890    -0.5020 N.ar  1 <1>  -0.6200 
 17 C       -4.8580     5.1150     1.5550 C.ar  1 <1>  -0.1440 
 18 C       -3.9910     4.9070     2.7710 C.3   1 <1>  -0.0160 
 19 C        2.9760     6.2790    -1.9080 C.3   1 <1>  -0.1600 
 20 C        4.7030     5.7850    -0.1330 C.3   1 <1>  -0.1600 
 21 C       -6.1830     5.1010    -0.7080 C.ar  1 <1>   0.7200 
 22 C       -5.7490     6.1150     1.2580 C.ar  1 <1>   0.1600 
 23 C        4.4730     6.2050    -1.5890 C.3   1 <1>  -0.1600 
 24 N       -6.4150     6.1180     0.1280 N.ar  1 <1>  -0.6200 
 25 N       -6.8810     5.0960    -1.9000 N.pl3 1 <1>  -0.8380 
 26 C       -7.6310     6.2890    -2.3800 C.3   1 <1>   0.1290 
 27 C       -6.9890     3.8790    -2.7500 C.3   1 <1>   0.1290 
 28 H       -0.0720     3.9310     0.6690 H     1 <1>   0.0800 
 29 H        0.0430     3.3300    -0.9640 H     1 <1>   0.0800 
 30 H       -3.2040     2.4430    -0.8900 H     1 <1>   0.0800 
 31 H       -2.1560     3.6880    -0.3010 H     1 <1>   0.0800 
 32 H       -1.6820    -0.3120     1.0570 H     1 <1>   0.0800 
 33 H       -2.8960     0.0590    -0.1340 H     1 <1>   0.0800 
 34 H        2.2640     2.3960    -0.4850 H     1 <1>   0.0800 
 35 H        2.1180     2.8630     1.1790 H     1 <1>   0.0800 
 36 H       -2.8850     0.8800     2.7730 H     1 <1>   0.0800 
 37 H       -3.9680    -0.2480     2.0290 H     1 <1>   0.0800 
 38 H        2.0560     5.2510     0.5140 H     1 <1>   0.0800 
 39 H       -5.0320     1.4790     0.7190 H     1 <1>   0.0800 
 40 H       -5.0390     1.9960     2.3740 H     1 <1>   0.0800 
 41 H       -2.1080     4.2920     1.9850 H     1 <1>   0.0800 
 42 H       -2.7640     3.1410     3.1110 H     1 <1>   0.0800 
 43 H        1.2210     5.0740    -1.7900 H     1 <1>   0.0800 
 44 H        2.6440     4.1900    -2.2600 H     1 <1>   0.0800 
 45 H        4.4610     3.6750    -0.4140 H     1 <1>   0.0800 
 46 H        4.1530     4.2110     1.2120 H     1 <1>   0.0800 
 47 H       -3.4740     5.8070     3.0550 H     1 <1>   0.0800 
 48 H       -4.5960     4.5560     3.5900 H     1 <1>   0.0800 
 49 H        2.5270     7.0650    -1.3240 H     1 <1>   0.0800 
 50 H        2.8410     6.5230    -2.9470 H     1 <1>   0.0800 
 51 H        5.7590     5.6880     0.0510 H     1 <1>   0.0800 
 52 H        4.3220     6.5480     0.5240 H     1 <1>   0.0800 
 53 H       -5.9180     6.9190     1.9530 H     1 <1>   0.1500 
 54 H        4.9280     7.1650    -1.7650 H     1 <1>   0.0800 
 55 H        4.9420     5.4910    -2.2450 H     1 <1>   0.0800 
 56 H       -7.1640     7.1940    -2.0320 H     1 <1>   0.0800 
 57 H       -8.6400     6.2520    -2.0100 H     1 <1>   0.0800 
 58 H       -7.6460     6.3100    -3.4560 H     1 <1>   0.0800 
 59 H       -6.8980     2.9890    -2.1510 H     1 <1>   0.0800 
 60 H       -6.2060     3.8860    -3.4880 H     1 <1>   0.0800 
 61 H       -7.9450     3.8550    -3.2440 H     1 <1>   0.0800 
@<TRIPOS>BOND
  1   1   2  2   
  2   2   3  am  
  3   2   4  1   
  4   3   5  1   
  5   3   6  1   
  6   4   7  1   
  7   4  28  1   
  8   4  29  1   
  9   5   8  1   
 10   5  30  1   
 11   5  31  1   
 12   6   9  1   
 13   6  32  1   
 14   6  33  1   
 15   7  10  1   
 16   7  34  1   
 17   7  35  1   
 18   8  11  1   
 19   8  12  1   
 20   8  13  1   
 21   9  12  1   
 22   9  36  1   
 23   9  37  1   
 24  10  14  1   
 25  10  15  1   
 26  10  38  1   
 27  11  16  ar  
 28  11  17  ar  
 29  12  39  1   
 30  12  40  1   
 31  13  18  1   
 32  13  41  1   
 33  13  42  1   
 34  14  19  1   
 35  14  43  1   
 36  14  44  1   
 37  15  20  1   
 38  15  45  1   
 39  15  46  1   
 40  16  21  ar  
 41  17  18  1   
 42  17  22  ar  
 43  18  47  1   
 44  18  48  1   
 45  19  23  1   
 46  19  49  1   
 47  19  50  1   
 48  20  23  1   
 49  20  51  1   
 50  20  52  1   
 51  21  24  ar  
 52  21  25  1   
 53  22  24  ar  
 54  22  53  1   
 55  23  54  1   
 56  23  55  1   
 57  25  26  1   
 58  25  27  1   
 59  26  56  1   
 60  26  57  1   
 61  26  58  1   
 62  27  59  1   
 63  27  60  1   
 64  27  61  1   
@<TRIPOS>SUBSTRUCTURE
  1 ****   5 GROUP 4 **** **** 0

# MOE 2024.06 (io_trps.svl 2023.06)
