@<TRIPOS>MOLECULE
NONAME
48 50 1 0 0 
SMALL
USER_CHARGES


@<TRIPOS>ATOM
  1 F        0.9730    -1.2660    -0.6470 F     1 <1>  -0.1900 
  2 C       -0.2260    -1.3160    -0.1250 C.ar  1 <1>   0.1900 
  3 C       -0.4930    -0.6750     1.0720 C.ar  1 <1>   0.1900 
  4 C       -1.2110    -2.0190    -0.7890 C.ar  1 <1>  -0.1500 
  5 F        0.4440    -0.0140     1.6970 F     1 <1>  -0.1900 
  6 C       -1.7590    -0.7250     1.6250 C.ar  1 <1>  -0.1500 
  7 C       -2.5000    -2.0960    -0.2520 C.ar  1 <1>   0.0860 
  8 C       -2.7480    -1.4320     0.9570 C.ar  1 <1>  -0.1500 
  9 C       -3.5420    -2.8370    -0.9440 C.2   1 <1>   0.5440 
 10 O       -3.5710    -2.8170    -2.1590 O.2   1 <1>  -0.5700 
 11 N       -4.4900    -3.5780    -0.2600 N.am  1 <1>  -0.6600 
 12 C       -5.7410    -4.0170    -0.9570 C.3   1 <1>   0.2200 
 13 C       -4.0670    -4.3860     0.9260 C.3   1 <1>   0.0600 
 14 C       -6.5050    -2.8410    -1.5660 C.3   1 <1>  -0.1600 
 15 C       -6.7870    -4.6330    -0.0250 C.3   1 <1>  -0.1600 
 16 C       -7.9370    -3.3500    -1.7700 C.3   1 <1>  -0.0800 
 17 C       -8.1230    -4.5000    -0.7700 C.3   1 <1>  -0.0800 
 18 C       -9.0100    -2.3050    -1.4470 C.3   1 <1>  -0.1600 
 19 C       -9.2970    -4.1050     0.1350 C.3   1 <1>  -0.1600 
 20 C       -9.3820    -2.5870     0.0070 C.3   1 <1>   0.4230 
 21 N      -10.7050    -2.0340     0.4340 N.4   1 <1>  -0.9590 
 22 C      -11.8790    -2.4750    -0.3900 C.3   1 <1>   0.2630 
 23 C      -10.6530    -0.5410     0.4930 C.3   1 <1>   0.2630 
 24 H       -0.9880    -2.5060    -1.7220 H     1 <1>   0.1500 
 25 H       -1.9590    -0.2190     2.5530 H     1 <1>   0.1500 
 26 H       -3.7390    -1.4700     1.3750 H     1 <1>   0.1500 
 27 H       -5.4880    -4.7200    -1.7350 H     1 <1>   0.0800 
 28 H       -4.6320    -4.0930     1.7920 H     1 <1>   0.0800 
 29 H       -3.0200    -4.2480     1.1340 H     1 <1>   0.0800 
 30 H       -4.2270    -5.4330     0.7320 H     1 <1>   0.0800 
 31 H       -6.4830    -2.0160    -0.8760 H     1 <1>   0.0800 
 32 H       -6.0750    -2.5330    -2.5030 H     1 <1>   0.0800 
 33 H       -6.5660    -5.6650     0.1870 H     1 <1>   0.0800 
 34 H       -6.8190    -4.0710     0.8910 H     1 <1>   0.0800 
 35 H       -8.0450    -3.7140    -2.7800 H     1 <1>   0.0800 
 36 H       -8.3340    -5.4180    -1.2960 H     1 <1>   0.0800 
 37 H       -9.8430    -2.4770    -2.1030 H     1 <1>   0.0800 
 38 H       -8.6450    -1.3030    -1.5880 H     1 <1>   0.0800 
 39 H       -9.1440    -4.4170     1.1530 H     1 <1>   0.0800 
 40 H      -10.1820    -4.5770    -0.2510 H     1 <1>   0.0800 
 41 H       -8.6050    -2.1690     0.6290 H     1 <1>   0.0800 
 42 H      -10.8580    -2.3780     1.3930 H     1 <1>   0.4500 
 43 H      -11.7840    -2.1220    -1.4040 H     1 <1>   0.0800 
 44 H      -12.7930    -2.0790     0.0230 H     1 <1>   0.0800 
 45 H      -11.9530    -3.5500    -0.4040 H     1 <1>   0.0800 
 46 H      -10.4950    -0.1320    -0.4920 H     1 <1>   0.0800 
 47 H       -9.8460    -0.2190     1.1320 H     1 <1>   0.0800 
 48 H      -11.5770    -0.1480     0.8840 H     1 <1>   0.0800 
@<TRIPOS>BOND
  1   1   2  1   
  2   2   3  ar  
  3   2   4  ar  
  4   3   5  1   
  5   3   6  ar  
  6   4   7  ar  
  7   4  24  1   
  8   6   8  ar  
  9   6  25  1   
 10   7   8  ar  
 11   7   9  1   
 12   8  26  1   
 13   9  10  2   
 14   9  11  am  
 15  11  12  1   
 16  11  13  1   
 17  12  14  1   
 18  12  15  1   
 19  12  27  1   
 20  13  28  1   
 21  13  29  1   
 22  13  30  1   
 23  14  16  1   
 24  14  31  1   
 25  14  32  1   
 26  15  17  1   
 27  15  33  1   
 28  15  34  1   
 29  16  17  1   
 30  16  18  1   
 31  16  35  1   
 32  17  19  1   
 33  17  36  1   
 34  18  20  1   
 35  18  37  1   
 36  18  38  1   
 37  19  20  1   
 38  19  39  1   
 39  19  40  1   
 40  20  21  1   
 41  20  41  1   
 42  21  22  1   
 43  21  23  1   
 44  21  42  1   
 45  22  43  1   
 46  22  44  1   
 47  22  45  1   
 48  23  46  1   
 49  23  47  1   
 50  23  48  1   
@<TRIPOS>SUBSTRUCTURE
  1 ****  11 GROUP 4 **** **** 0

# MOE 2024.06 (io_trps.svl 2023.06)
