@<TRIPOS>MOLECULE
NONAME
56 59 1 0 0 
SMALL
USER_CHARGES


@<TRIPOS>ATOM
  1 O        0.2710     0.8680     1.4860 O.2   1 <1>  -0.5700 
  2 C       -0.3460     1.8670     1.1580 C.2   1 <1>   0.5440 
  3 N       -1.7220     1.8030     1.0800 N.am  1 <1>  -0.6600 
  4 C        0.3670     3.1010     0.9150 C.ar  1 <1>   0.0860 
  5 C       -2.5870     2.9660     0.7150 C.3   1 <1>   0.1400 
  6 C       -2.4360     0.5210     1.3610 C.3   1 <1>   0.1400 
  7 C        0.9740     3.3800    -0.3140 C.ar  1 <1>   0.0830 
  8 C        0.4520     4.0590     1.9250 C.ar  1 <1>  -0.1500 
  9 C       -3.4760     2.6520    -0.5090 C.3   1 <1>   0.1440 
 10 C       -3.9080     0.5660     0.9180 C.3   1 <1>  -0.1600 
 11 O        0.8860     2.4470    -1.2930 O.3   1 <1>  -0.3630 
 12 C        1.6380     4.5890    -0.5060 C.ar  1 <1>  -0.1500 
 13 C        1.1060     5.2620     1.7340 C.ar  1 <1>  -0.1430 
 14 C       -4.5620     3.7130    -0.5480 C.ar  1 <1>   0.1670 
 15 C       -4.0430     1.2070    -0.4720 C.3   1 <1>  -0.1600 
 16 C       -2.7200     2.9220    -1.8360 C.3   1 <1>  -0.1600 
 17 C        1.7310     2.4580    -2.4210 C.3   1 <1>   0.0400 
 18 C        1.7010     5.5220     0.5110 C.ar  1 <1>  -0.1500 
 19 C        1.1830     6.2920     2.8470 C.3   1 <1>  -0.0970 
 20 N       -5.6140     3.7550     0.2320 N.ar  1 <1>  -0.6200 
 21 C       -4.3030     4.6590    -1.4940 C.ar  1 <1>  -0.1430 
 22 C       -3.0190     4.3770    -2.2320 C.3   1 <1>  -0.0170 
 23 C       -6.4350     4.7890     0.0290 C.ar  1 <1>   0.7200 
 24 C       -5.2000     5.6880    -1.6300 C.ar  1 <1>   0.1600 
 25 N       -6.2700     5.7620    -0.8740 N.ar  1 <1>  -0.6200 
 26 N       -7.5580     4.8610     0.8300 N.pl3 1 <1>  -0.8380 
 27 C       -8.6890     5.7810     0.5240 C.3   1 <1>   0.1290 
 28 C       -7.7280     4.0050     2.0360 C.3   1 <1>   0.1290 
 29 H       -2.0030     3.8470     0.5190 H     1 <1>   0.0800 
 30 H       -3.2190     3.1870     1.5590 H     1 <1>   0.0800 
 31 H       -2.3740     0.3050     2.4140 H     1 <1>   0.0800 
 32 H       -1.9320    -0.2700     0.8310 H     1 <1>   0.0800 
 33 H       -0.0090     3.8390     2.8720 H     1 <1>   0.1500 
 34 H       -4.4850     1.1260     1.6340 H     1 <1>   0.0800 
 35 H       -4.3010    -0.4350     0.9000 H     1 <1>   0.0800 
 36 H        2.1080     4.8220    -1.4420 H     1 <1>   0.1500 
 37 H       -3.4990     0.5860    -1.1630 H     1 <1>   0.0800 
 38 H       -5.0740     1.2060    -0.7790 H     1 <1>   0.0800 
 39 H       -3.1140     2.2870    -2.6100 H     1 <1>   0.0800 
 40 H       -1.6660     2.7330    -1.7480 H     1 <1>   0.0800 
 41 H        1.5680     1.5460    -2.9670 H     1 <1>   0.0800 
 42 H        2.7530     2.5060    -2.0900 H     1 <1>   0.0800 
 43 H        1.4830     3.3030    -3.0380 H     1 <1>   0.0800 
 44 H        2.2160     6.4540     0.3520 H     1 <1>   0.1500 
 45 H        0.5830     5.9960     3.6880 H     1 <1>   0.0800 
 46 H        0.8280     7.2430     2.4930 H     1 <1>   0.0800 
 47 H        2.2020     6.4000     3.1740 H     1 <1>   0.0800 
 48 H       -3.1350     4.4830    -3.2970 H     1 <1>   0.0800 
 49 H       -2.2430     5.0350    -1.8790 H     1 <1>   0.0800 
 50 H       -5.0390     6.4580    -2.3640 H     1 <1>   0.1500 
 51 H       -8.7620     5.9480    -0.5370 H     1 <1>   0.0800 
 52 H       -8.5270     6.7240     1.0160 H     1 <1>   0.0800 
 53 H       -9.6160     5.3550     0.8630 H     1 <1>   0.0800 
 54 H       -6.7710     3.7760     2.4740 H     1 <1>   0.0800 
 55 H       -8.2140     3.0860     1.7590 H     1 <1>   0.0800 
 56 H       -8.3220     4.5150     2.7730 H     1 <1>   0.0800 
@<TRIPOS>BOND
  1   1   2  2   
  2   2   3  am  
  3   2   4  1   
  4   3   5  1   
  5   3   6  1   
  6   4   7  ar  
  7   4   8  ar  
  8   5   9  1   
  9   5  29  1   
 10   5  30  1   
 11   6  10  1   
 12   6  31  1   
 13   6  32  1   
 14   7  11  1   
 15   7  12  ar  
 16   8  13  ar  
 17   8  33  1   
 18   9  14  1   
 19   9  15  1   
 20   9  16  1   
 21  10  15  1   
 22  10  34  1   
 23  10  35  1   
 24  11  17  1   
 25  12  18  ar  
 26  12  36  1   
 27  13  18  ar  
 28  13  19  1   
 29  14  20  ar  
 30  14  21  ar  
 31  15  37  1   
 32  15  38  1   
 33  16  22  1   
 34  16  39  1   
 35  16  40  1   
 36  17  41  1   
 37  17  42  1   
 38  17  43  1   
 39  18  44  1   
 40  19  45  1   
 41  19  46  1   
 42  19  47  1   
 43  20  23  ar  
 44  21  22  1   
 45  21  24  ar  
 46  22  48  1   
 47  22  49  1   
 48  23  25  ar  
 49  23  26  1   
 50  24  25  ar  
 51  24  50  1   
 52  26  27  1   
 53  26  28  1   
 54  27  51  1   
 55  27  52  1   
 56  27  53  1   
 57  28  54  1   
 58  28  55  1   
 59  28  56  1   
@<TRIPOS>SUBSTRUCTURE
  1 ****   5 GROUP 4 **** **** 0

# MOE 2024.06 (io_trps.svl 2023.06)
