@<TRIPOS>MOLECULE
NONAME
45 48 1 0 0 
SMALL
USER_CHARGES


@<TRIPOS>ATOM
  1 O       -0.9600     0.1620    -2.9210 O.2   1 <1>  -0.5700 
  2 C       -1.4380     0.8860    -2.0790 C.2   1 <1>   0.5690 
  3 N       -2.1080     0.3690    -1.0010 N.am  1 <1>  -0.6600 
  4 C       -1.2930     2.3910    -2.2720 C.3   1 <1>   0.0440 
  5 C       -2.7090     1.1350     0.1200 C.3   1 <1>   0.1400 
  6 C       -2.2340    -1.0890    -0.7710 C.3   1 <1>   0.1400 
  7 C       -0.5830     3.0930    -1.1180 C.ar  1 <1>  -0.1440 
  8 C       -3.4280     0.0840     0.9640 C.3   1 <1>   0.2000 
  9 C       -2.7020    -1.2290     0.6790 C.3   1 <1>  -0.0800 
 10 C        0.6300     2.5980    -0.6470 C.ar  1 <1>  -0.1500 
 11 C       -1.1470     4.2260    -0.5300 C.ar  1 <1>  -0.1500 
 12 O       -3.3680     0.3830     2.3150 O.3   1 <1>  -0.6800 
 13 C       -3.5810    -2.4640     0.9280 C.3   1 <1>   0.0200 
 14 C        1.2370     3.2500     0.4080 C.ar  1 <1>   0.0830 
 15 C       -0.5210     4.8690     0.5300 C.ar  1 <1>  -0.1500 
 16 C       -2.8530    -3.7390     0.5500 C.2   1 <1>  -0.0400 
 17 O        2.3890     2.9510     1.0170 O.3   1 <1>  -0.3630 
 18 C        0.6770     4.3540     0.9800 C.ar  1 <1>   0.0830 
 19 O       -1.7670    -4.0850     1.1870 O.3   1 <1>  -0.0190 
 20 C       -3.0990    -4.6710    -0.3830 C.2   1 <1>  -0.1500 
 21 C        2.5830     3.9340     2.0310 C.3   1 <1>   0.4000 
 22 O        1.4510     4.8000     1.9760 O.3   1 <1>  -0.3630 
 23 N       -1.2710    -5.1980     0.7290 N.2   1 <1>  -0.4100 
 24 C       -2.0530    -5.5740    -0.2180 C.2   1 <1>   0.1080 
 25 C       -1.8540    -6.8290    -1.0370 C.3   1 <1>  -0.0590 
 26 H       -0.7350     2.5670    -3.1730 H     1 <1>   0.0800 
 27 H       -2.2730     2.8030    -2.4160 H     1 <1>   0.0800 
 28 H       -1.9260     1.6040     0.6890 H     1 <1>   0.0800 
 29 H       -3.4000     1.8720    -0.2480 H     1 <1>   0.0800 
 30 H       -2.9640    -1.4870    -1.4550 H     1 <1>   0.0800 
 31 H       -1.2910    -1.5870    -0.9290 H     1 <1>   0.0800 
 32 H       -4.4640     0.0320     0.6730 H     1 <1>   0.0800 
 33 H       -1.8190    -1.2900     1.2920 H     1 <1>   0.0800 
 34 H        1.0960     1.7290    -1.0790 H     1 <1>   0.1500 
 35 H       -2.0810     4.6180    -0.8960 H     1 <1>   0.1500 
 36 H       -2.4390     0.4110     2.6170 H     1 <1>   0.4000 
 37 H       -4.4870    -2.3920     0.3520 H     1 <1>   0.0800 
 38 H       -3.8510    -2.5100     1.9690 H     1 <1>   0.0800 
 39 H       -0.9430     5.7430     0.9930 H     1 <1>   0.1500 
 40 H       -3.8950    -4.7380    -1.1010 H     1 <1>   0.1500 
 41 H        2.6270     3.4570     2.9940 H     1 <1>   0.0800 
 42 H        3.4760     4.4960     1.8220 H     1 <1>   0.0800 
 43 H       -2.7060    -7.4740    -0.9300 H     1 <1>   0.0800 
 44 H       -0.9760    -7.3520    -0.7000 H     1 <1>   0.0800 
 45 H       -1.7290    -6.5730    -2.0730 H     1 <1>   0.0800 
@<TRIPOS>BOND
  1   1   2  2   
  2   2   3  am  
  3   2   4  1   
  4   3   5  1   
  5   3   6  1   
  6   4   7  1   
  7   4  26  1   
  8   4  27  1   
  9   5   8  1   
 10   5  28  1   
 11   5  29  1   
 12   6   9  1   
 13   6  30  1   
 14   6  31  1   
 15   7  10  ar  
 16   7  11  ar  
 17   8   9  1   
 18   8  12  1   
 19   8  32  1   
 20   9  13  1   
 21   9  33  1   
 22  10  14  ar  
 23  10  34  1   
 24  11  15  ar  
 25  11  35  1   
 26  12  36  1   
 27  13  16  1   
 28  13  37  1   
 29  13  38  1   
 30  14  17  1   
 31  14  18  ar  
 32  15  18  ar  
 33  15  39  1   
 34  16  19  1   
 35  16  20  2   
 36  17  21  1   
 37  18  22  1   
 38  19  23  1   
 39  20  24  1   
 40  20  40  1   
 41  21  22  1   
 42  21  41  1   
 43  21  42  1   
 44  23  24  2   
 45  24  25  1   
 46  25  43  1   
 47  25  44  1   
 48  25  45  1   
@<TRIPOS>SUBSTRUCTURE
  1 ****   3 GROUP 4 **** **** 0

# MOE 2024.06 (io_trps.svl 2023.06)
