@<TRIPOS>MOLECULE
NONAME
57 60 1 0 0 
SMALL
USER_CHARGES


@<TRIPOS>ATOM
  1 O        0.4590    -0.3580     1.2650 O.2   1 <1>  -0.5700 
  2 C        1.2030    -0.8790     0.4550 C.2   1 <1>   0.5440 
  3 N        2.1630    -0.1250    -0.1800 N.am  1 <1>  -0.4940 
  4 C        1.1150    -2.2970     0.1810 C.ar  1 <1>   0.0860 
  5 C        2.3550     1.2780    -0.1680 C.2   1 <1>  -0.0880 
  6 C        0.6860    -3.1930     1.1630 C.ar  1 <1>  -0.1500 
  7 C        1.4550    -2.8380    -1.0630 C.ar  1 <1>  -0.1500 
  8 N        3.5600     1.8940    -0.0160 N.pl3 1 <1>   0.3140 
  9 C        1.4380     2.2650    -0.3160 C.2   1 <1>  -0.1810 
 10 C        0.6190    -4.5520     0.9260 C.ar  1 <1>  -0.1500 
 11 C        1.3900    -4.1970    -1.3010 C.ar  1 <1>  -0.1500 
 12 N        3.4350     3.2440    -0.0890 N.2   1 <1>  -0.7070 
 13 C        4.8670     1.2180     0.2320 C.3   1 <1>   0.1760 
 14 C        2.1660     3.4470    -0.2570 C.2   1 <1>   0.1390 
 15 C       -0.0630     2.1610    -0.5100 C.3   1 <1>  -0.0590 
 16 C        0.9750    -5.0790    -0.3100 C.ar  1 <1>   0.1000 
 17 C        5.6870     1.8430     1.3620 C.3   1 <1>  -0.1600 
 18 C        5.8030     1.2760    -0.9770 C.3   1 <1>  -0.1600 
 19 N        0.9210    -6.4410    -0.5660 N.pl3 1 <1>  -0.8380 
 20 C        7.1140     1.3580     1.1060 C.3   1 <1>  -0.1600 
 21 C        7.2200     1.1340    -0.4080 C.3   1 <1>  -0.1600 
 22 C        2.1420    -7.1800    -1.0050 C.3   1 <1>   0.2090 
 23 C       -0.2600    -7.2670    -0.1710 C.3   1 <1>   0.2090 
 24 C        2.4940    -8.3090    -0.0120 C.3   1 <1>   0.3430 
 25 C        0.1480    -8.3960     0.8010 C.3   1 <1>   0.3430 
 26 N        1.3190    -9.2070     0.2950 N.4   1 <1>  -0.9590 
 27 C        1.6960   -10.2760     1.2670 C.3   1 <1>   0.2630 
 28 H        2.8510    -0.6630    -0.7030 H     1 <1>   0.3700 
 29 H        0.4030    -2.8030     2.1270 H     1 <1>   0.1500 
 30 H        1.7600    -2.1860    -1.8620 H     1 <1>   0.1500 
 31 H        0.2920    -5.2050     1.7120 H     1 <1>   0.1500 
 32 H        1.6470    -4.5850    -2.2690 H     1 <1>   0.1500 
 33 H        4.6840     0.1910     0.4850 H     1 <1>   0.0800 
 34 H        1.7350     4.4300    -0.3420 H     1 <1>   0.1500 
 35 H       -0.3190     1.2090    -0.9360 H     1 <1>   0.0800 
 36 H       -0.4100     2.9380    -1.1670 H     1 <1>   0.0800 
 37 H       -0.5550     2.2550     0.4410 H     1 <1>   0.0800 
 38 H        5.3270     1.5460     2.3310 H     1 <1>   0.0800 
 39 H        5.6650     2.9170     1.2840 H     1 <1>   0.0800 
 40 H        5.7130     2.2390    -1.4520 H     1 <1>   0.0800 
 41 H        5.5790     0.5020    -1.6900 H     1 <1>   0.0800 
 42 H        7.2750     0.4250     1.6190 H     1 <1>   0.0800 
 43 H        7.8380     2.0740     1.4540 H     1 <1>   0.0800 
 44 H        7.8730     1.8650    -0.8560 H     1 <1>   0.0800 
 45 H        7.6140     0.1520    -0.6080 H     1 <1>   0.0800 
 46 H        2.9730    -6.4990    -1.0740 H     1 <1>   0.0800 
 47 H        1.9740    -7.5920    -1.9850 H     1 <1>   0.0800 
 48 H       -0.7010    -7.6930    -1.0550 H     1 <1>   0.0800 
 49 H       -1.0070    -6.6430     0.2910 H     1 <1>   0.0800 
 50 H        2.8420    -7.8510     0.8990 H     1 <1>   0.0800 
 51 H        3.3050    -8.8900    -0.4180 H     1 <1>   0.0800 
 52 H       -0.7010    -9.0380     0.9660 H     1 <1>   0.0800 
 53 H        0.4070    -7.9440     1.7440 H     1 <1>   0.0800 
 54 H        1.0280    -9.6460    -0.5910 H     1 <1>   0.4500 
 55 H        2.0050    -9.8400     2.2040 H     1 <1>   0.0800 
 56 H        2.5100   -10.8670     0.8780 H     1 <1>   0.0800 
 57 H        0.8580   -10.9290     1.4520 H     1 <1>   0.0800 
@<TRIPOS>BOND
  1   1   2  2   
  2   2   3  am  
  3   2   4  1   
  4   3   5  1   
  5   3  28  1   
  6   4   6  ar  
  7   4   7  ar  
  8   5   8  1   
  9   5   9  2   
 10   6  10  ar  
 11   6  29  1   
 12   7  11  ar  
 13   7  30  1   
 14   8  12  1   
 15   8  13  1   
 16   9  14  1   
 17   9  15  1   
 18  10  16  ar  
 19  10  31  1   
 20  11  16  ar  
 21  11  32  1   
 22  12  14  2   
 23  13  17  1   
 24  13  18  1   
 25  13  33  1   
 26  14  34  1   
 27  15  35  1   
 28  15  36  1   
 29  15  37  1   
 30  16  19  1   
 31  17  20  1   
 32  17  38  1   
 33  17  39  1   
 34  18  21  1   
 35  18  40  1   
 36  18  41  1   
 37  19  22  1   
 38  19  23  1   
 39  20  21  1   
 40  20  42  1   
 41  20  43  1   
 42  21  44  1   
 43  21  45  1   
 44  22  24  1   
 45  22  46  1   
 46  22  47  1   
 47  23  25  1   
 48  23  48  1   
 49  23  49  1   
 50  24  26  1   
 51  24  50  1   
 52  24  51  1   
 53  25  26  1   
 54  25  52  1   
 55  25  53  1   
 56  26  27  1   
 57  26  54  1   
 58  27  55  1   
 59  27  56  1   
 60  27  57  1   
@<TRIPOS>SUBSTRUCTURE
  1 ****   4 GROUP 4 **** **** 0

# MOE 2024.06 (io_trps.svl 2023.06)
