@<TRIPOS>MOLECULE
NONAME
48 50 1 0 0 
SMALL
USER_CHARGES


@<TRIPOS>ATOM
  1 S        0.3840    -0.1010     2.7740 S.3   1 <1>  -0.0800 
  2 C        0.8110    -0.9290     1.2720 C.2   1 <1>  -0.0450 
  3 C        1.2490     1.3470     2.3110 C.2   1 <1>  -0.1100 
  4 C        1.5800    -0.0950     0.5220 C.2   1 <1>  -0.1810 
  5 C        0.3090    -2.2660     1.0800 C.2   1 <1>   0.7150 
  6 C        1.8150     1.1830     1.1030 C.2   1 <1>  -0.1810 
  7 C        2.2490    -0.3820    -0.8140 C.3   1 <1>   0.0210 
  8 O        0.3410    -3.0750     1.9890 O.2   1 <1>  -0.5700 
  9 N       -0.2980    -2.6510    -0.0990 N.am  1 <1>  -0.6600 
 10 C        2.6630     2.1820     0.3380 C.3   1 <1>   0.0210 
 11 C        3.7180     0.0630    -0.7490 C.3   1 <1>  -0.1600 
 12 C       -0.3390    -4.0900    -0.4750 C.3   1 <1>   0.3200 
 13 C       -0.9790    -1.6770    -1.0220 C.3   1 <1>   0.1400 
 14 C        3.9270     1.5050    -0.2240 C.3   1 <1>  -0.1600 
 15 C       -1.5940    -4.6930     0.1170 C.2   1 <1>  -0.3320 
 16 C       -2.5220    -1.7550    -0.9540 C.3   1 <1>   0.3430 
 17 N       -1.7330    -4.9130     1.4390 N.pl3 1 <1>   0.0330 
 18 C       -2.7420    -5.1090    -0.4630 C.2   1 <1>   0.0770 
 19 N       -3.0260    -1.9310     0.4440 N.4   1 <1>  -0.9590 
 20 C       -2.9770    -5.4120     1.5830 C.2   1 <1>   0.0360 
 21 N       -3.6220    -5.5230     0.4660 N.2   1 <1>  -0.5650 
 22 C       -4.4540    -2.3750     0.4630 C.3   1 <1>   0.2630 
 23 C       -2.8250    -0.7260     1.3050 C.3   1 <1>   0.2630 
 24 H        1.2490     2.1730     3.0000 H     1 <1>   0.1500 
 25 H        1.7450     0.1650    -1.5900 H     1 <1>   0.0800 
 26 H        2.1990    -1.4310    -1.0470 H     1 <1>   0.0800 
 27 H        2.9360     3.0080     0.9710 H     1 <1>   0.0800 
 28 H        2.0790     2.5700    -0.4780 H     1 <1>   0.0800 
 29 H        4.1690    -0.0380    -1.7210 H     1 <1>   0.0800 
 30 H        4.2360    -0.6110    -0.0880 H     1 <1>   0.0800 
 31 H        0.5300    -4.6000    -0.0910 H     1 <1>   0.0800 
 32 H       -0.3390    -4.1940    -1.5470 H     1 <1>   0.0800 
 33 H       -0.6580    -1.8590    -2.0330 H     1 <1>   0.0800 
 34 H       -0.6880    -0.6710    -0.7810 H     1 <1>   0.0800 
 35 H        4.6660     1.4710     0.5580 H     1 <1>   0.0800 
 36 H        4.3280     2.1210    -1.0110 H     1 <1>   0.0800 
 37 H       -2.8370    -2.5990    -1.5460 H     1 <1>   0.0800 
 38 H       -2.9500    -0.8700    -1.3970 H     1 <1>   0.0800 
 39 H       -1.0280    -4.7180     2.1680 H     1 <1>   0.2700 
 40 H       -2.9940    -5.1270    -1.5110 H     1 <1>   0.1500 
 41 H       -2.4620    -2.7160     0.8260 H     1 <1>   0.4500 
 42 H       -3.3750    -5.6870     2.5460 H     1 <1>   0.1500 
 43 H       -5.0950    -1.6080     0.0620 H     1 <1>   0.0800 
 44 H       -4.7630    -2.5940     1.4720 H     1 <1>   0.0800 
 45 H       -4.5760    -3.2710    -0.1250 H     1 <1>   0.0800 
 46 H       -3.4370     0.0900     0.9580 H     1 <1>   0.0800 
 47 H       -1.7940    -0.4150     1.2820 H     1 <1>   0.0800 
 48 H       -3.0910    -0.9480     2.3260 H     1 <1>   0.0800 
@<TRIPOS>BOND
  1   1   2  1   
  2   1   3  1   
  3   2   4  2   
  4   2   5  1   
  5   3   6  2   
  6   3  24  1   
  7   4   6  1   
  8   4   7  1   
  9   5   8  2   
 10   5   9  am  
 11   6  10  1   
 12   7  11  1   
 13   7  25  1   
 14   7  26  1   
 15   9  12  1   
 16   9  13  1   
 17  10  14  1   
 18  10  27  1   
 19  10  28  1   
 20  11  14  1   
 21  11  29  1   
 22  11  30  1   
 23  12  15  1   
 24  12  31  1   
 25  12  32  1   
 26  13  16  1   
 27  13  33  1   
 28  13  34  1   
 29  14  35  1   
 30  14  36  1   
 31  15  17  1   
 32  15  18  2   
 33  16  19  1   
 34  16  37  1   
 35  16  38  1   
 36  17  20  1   
 37  17  39  1   
 38  18  21  1   
 39  18  40  1   
 40  19  22  1   
 41  19  23  1   
 42  19  41  1   
 43  20  21  2   
 44  20  42  1   
 45  22  43  1   
 46  22  44  1   
 47  22  45  1   
 48  23  46  1   
 49  23  47  1   
 50  23  48  1   
@<TRIPOS>SUBSTRUCTURE
  1 ****   5 GROUP 4 **** **** 0

# MOE 2024.06 (io_trps.svl 2023.06)
