@<TRIPOS>MOLECULE
NONAME
42 44 1 0 0 
SMALL
USER_CHARGES


@<TRIPOS>ATOM
  1 O        0.3340     0.5080     0.7230 O.3   1 <1>  -0.0190 
  2 N        1.2110    -0.4500     0.6300 N.2   1 <1>  -0.4100 
  3 C        0.7940     1.6410     0.2590 C.2   1 <1>  -0.0400 
  4 C        2.2550     0.0750     0.0960 C.2   1 <1>   0.1080 
  5 C        2.0480     1.4250    -0.1700 C.2   1 <1>  -0.1500 
  6 C       -0.1090     2.8630     0.2910 C.3   1 <1>   0.0200 
  7 C        3.5300    -0.6810    -0.2000 C.3   1 <1>  -0.0590 
  8 C        0.5940     4.1490    -0.1820 C.3   1 <1>  -0.0800 
  9 C       -0.3280     5.3620    -0.3450 C.3   1 <1>   0.2000 
 10 C        1.6810     4.6400     0.7760 C.3   1 <1>   0.2090 
 11 O       -1.2520     5.3710     0.7110 O.3   1 <1>  -0.5600 
 12 C        0.6260     6.5640    -0.2530 C.3   1 <1>   0.2090 
 13 N        1.8340     6.0780     0.4600 N.pl3 1 <1>  -0.8380 
 14 C       -2.3600     6.1940     0.5250 C.3   1 <1>   0.0400 
 15 C        3.0430     6.7340     0.4170 C.ar  1 <1>   0.7200 
 16 N        3.0410     7.9570    -0.1140 N.ar  1 <1>  -0.6200 
 17 N        4.1000     6.0910     0.9100 N.ar  1 <1>  -0.6200 
 18 C        4.1960     8.5810    -0.1360 C.ar  1 <1>   0.1600 
 19 C        5.2400     6.7420     0.8730 C.ar  1 <1>   0.1600 
 20 C        5.3570     8.0130     0.3540 C.ar  1 <1>   0.0820 
 21 O        6.5850     8.6100     0.3590 O.3   1 <1>  -0.3630 
 22 C        6.7410     9.9230    -0.1350 C.3   1 <1>   0.0400 
 23 H        2.7570     2.0960    -0.6170 H     1 <1>   0.1500 
 24 H       -0.9600     2.6720    -0.3380 H     1 <1>   0.0800 
 25 H       -0.4720     2.9960     1.2960 H     1 <1>   0.0800 
 26 H        3.7520    -0.6270    -1.2490 H     1 <1>   0.0800 
 27 H        3.4180    -1.7130     0.0800 H     1 <1>   0.0800 
 28 H        4.3430    -0.2550     0.3580 H     1 <1>   0.0800 
 29 H        1.0580     3.9630    -1.1330 H     1 <1>   0.0800 
 30 H       -0.8630     5.3330    -1.2790 H     1 <1>   0.0800 
 31 H        2.6000     4.0980     0.6400 H     1 <1>   0.0800 
 32 H        1.3570     4.5450     1.7980 H     1 <1>   0.0800 
 33 H        0.1860     7.3900     0.2770 H     1 <1>   0.0800 
 34 H        0.9070     6.8810    -1.2420 H     1 <1>   0.0800 
 35 H       -2.9870     6.1070     1.3950 H     1 <1>   0.0800 
 36 H       -2.9030     5.8700    -0.3450 H     1 <1>   0.0800 
 37 H       -2.0400     7.2150     0.4150 H     1 <1>   0.0800 
 38 H        4.2070     9.5690    -0.5580 H     1 <1>   0.1500 
 39 H        6.1160     6.2580     1.2660 H     1 <1>   0.1500 
 40 H        7.7750    10.2000    -0.0270 H     1 <1>   0.0800 
 41 H        6.1250    10.5910     0.4400 H     1 <1>   0.0800 
 42 H        6.4670     9.9430    -1.1750 H     1 <1>   0.0800 
@<TRIPOS>BOND
  1   1   2  1   
  2   1   3  1   
  3   2   4  2   
  4   3   5  2   
  5   3   6  1   
  6   4   5  1   
  7   4   7  1   
  8   5  23  1   
  9   6   8  1   
 10   6  24  1   
 11   6  25  1   
 12   7  26  1   
 13   7  27  1   
 14   7  28  1   
 15   8   9  1   
 16   8  10  1   
 17   8  29  1   
 18   9  11  1   
 19   9  12  1   
 20   9  30  1   
 21  10  13  1   
 22  10  31  1   
 23  10  32  1   
 24  11  14  1   
 25  12  13  1   
 26  12  33  1   
 27  12  34  1   
 28  13  15  1   
 29  14  35  1   
 30  14  36  1   
 31  14  37  1   
 32  15  16  ar  
 33  15  17  ar  
 34  16  18  ar  
 35  17  19  ar  
 36  18  20  ar  
 37  18  38  1   
 38  19  20  ar  
 39  19  39  1   
 40  20  21  1   
 41  21  22  1   
 42  22  40  1   
 43  22  41  1   
 44  22  42  1   
@<TRIPOS>SUBSTRUCTURE
  1 ****  10 GROUP 4 **** **** 0

# MOE 2024.06 (io_trps.svl 2023.06)
