@<TRIPOS>MOLECULE
NONAME
49 51 1 0 0 
SMALL
USER_CHARGES


@<TRIPOS>ATOM
  1 O        1.6600    -2.9730     1.4180 O.2   1 <1>  -0.5700 
  2 C        1.1970    -2.8220     0.3070 C.2   1 <1>   0.6900 
  3 N       -0.0210    -3.2640    -0.1250 N.am  1 <1>  -0.4770 
  4 N        1.8690    -2.2090    -0.6790 N.am  1 <1>  -0.7300 
  5 C       -1.0040    -3.9370     0.6120 C.ar  1 <1>   0.1170 
  6 C       -0.1770    -2.9560    -1.5660 C.3   1 <1>   0.1400 
  7 C        1.1470    -2.2740    -1.9570 C.3   1 <1>   0.1400 
  8 C       -1.7370    -3.3040     1.6180 C.ar  1 <1>  -0.1440 
  9 C       -1.2570    -5.2720     0.3340 C.ar  1 <1>  -0.1500 
 10 C       -2.6930    -4.0200     2.3190 C.ar  1 <1>  -0.1500 
 11 C       -1.4950    -1.8420     1.9740 C.3   1 <1>  -0.0970 
 12 C       -2.2210    -6.0020     1.0220 C.ar  1 <1>   0.0860 
 13 C       -2.9300    -5.3500     2.0270 C.ar  1 <1>  -0.1500 
 14 C       -2.4760    -7.3930     0.7070 C.2   1 <1>   0.5440 
 15 O       -2.3480    -8.2380     1.5750 O.2   1 <1>  -0.5700 
 16 N       -2.8950    -7.7850    -0.5460 N.am  1 <1>  -0.6600 
 17 C       -2.8490    -9.2160    -0.9530 C.3   1 <1>   0.3200 
 18 C       -3.5990    -6.8640    -1.4890 C.3   1 <1>   0.1400 
 19 C       -4.1210    -9.9050    -0.5120 C.2   1 <1>  -0.3320 
 20 C       -5.1110    -6.8660    -1.2340 C.3   1 <1>   0.1200 
 21 N       -4.4670    -9.9870     0.7830 N.pl3 1 <1>   0.0330 
 22 C       -5.0970   -10.5300    -1.2050 C.2   1 <1>   0.0770 
 23 O       -5.6950    -5.8320    -1.9530 O.3   1 <1>  -0.6800 
 24 C       -5.6400   -10.6530     0.7990 C.2   1 <1>   0.0060 
 25 N       -6.0520   -10.9960    -0.3780 N.2   1 <1>  -0.5650 
 26 C       -6.3870   -10.9580     2.0780 C.3   1 <1>  -0.0600 
 27 H        2.8650    -2.0110    -0.5840 H     1 <1>   0.3700 
 28 H       -1.0090    -2.2910    -1.7120 H     1 <1>   0.0800 
 29 H       -0.3270    -3.8590    -2.1310 H     1 <1>   0.0800 
 30 H        1.6930    -2.8680    -2.6700 H     1 <1>   0.0800 
 31 H        0.9760    -1.2860    -2.3500 H     1 <1>   0.0800 
 32 H       -0.6800    -5.7630    -0.4280 H     1 <1>   0.1500 
 33 H       -3.2550    -3.5450     3.1050 H     1 <1>   0.1500 
 34 H       -1.4700    -1.2400     1.0850 H     1 <1>   0.0800 
 35 H       -0.5520    -1.7460     2.4830 H     1 <1>   0.0800 
 36 H       -2.2690    -1.4660     2.6170 H     1 <1>   0.0800 
 37 H       -3.6670    -5.8990     2.5850 H     1 <1>   0.1500 
 38 H       -2.0020    -9.6950    -0.4910 H     1 <1>   0.0800 
 39 H       -2.7330    -9.2920    -2.0200 H     1 <1>   0.0800 
 40 H       -3.4110    -7.1710    -2.5030 H     1 <1>   0.0800 
 41 H       -3.2250    -5.8640    -1.3690 H     1 <1>   0.0800 
 42 H       -5.3310    -6.7190    -0.1910 H     1 <1>   0.0800 
 43 H       -5.5520    -7.7890    -1.5680 H     1 <1>   0.0800 
 44 H       -3.9260    -9.5920     1.5660 H     1 <1>   0.2700 
 45 H       -5.1710   -10.6720    -2.2700 H     1 <1>   0.1500 
 46 H       -5.5690    -4.9760    -1.4980 H     1 <1>   0.4000 
 47 H       -5.7810   -11.5680     2.7210 H     1 <1>   0.0800 
 48 H       -7.2930   -11.4910     1.8500 H     1 <1>   0.0800 
 49 H       -6.6400   -10.0450     2.5840 H     1 <1>   0.0800 
@<TRIPOS>BOND
  1   1   2  2   
  2   2   3  am  
  3   2   4  am  
  4   3   5  1   
  5   3   6  1   
  6   4   7  1   
  7   4  27  1   
  8   5   8  ar  
  9   5   9  ar  
 10   6   7  1   
 11   6  28  1   
 12   6  29  1   
 13   7  30  1   
 14   7  31  1   
 15   8  10  ar  
 16   8  11  1   
 17   9  12  ar  
 18   9  32  1   
 19  10  13  ar  
 20  10  33  1   
 21  11  34  1   
 22  11  35  1   
 23  11  36  1   
 24  12  13  ar  
 25  12  14  1   
 26  13  37  1   
 27  14  15  2   
 28  14  16  am  
 29  16  17  1   
 30  16  18  1   
 31  17  19  1   
 32  17  38  1   
 33  17  39  1   
 34  18  20  1   
 35  18  40  1   
 36  18  41  1   
 37  19  21  1   
 38  19  22  2   
 39  20  23  1   
 40  20  42  1   
 41  20  43  1   
 42  21  24  1   
 43  21  44  1   
 44  22  25  1   
 45  22  45  1   
 46  23  46  1   
 47  24  25  2   
 48  24  26  1   
 49  26  47  1   
 50  26  48  1   
 51  26  49  1   
@<TRIPOS>SUBSTRUCTURE
  1 ****  12 GROUP 4 **** **** 0

# MOE 2024.06 (io_trps.svl 2023.06)
