@<TRIPOS>MOLECULE
NONAME
49 51 1 0 0 
SMALL
USER_CHARGES


@<TRIPOS>ATOM
  1 O       -3.8800     1.9760    -2.1330 O.2   1 <1>  -0.5700 
  2 C       -2.7700     1.9410    -1.6360 C.2   1 <1>   0.5440 
  3 N       -2.1470     0.7300    -1.5910 N.am  1 <1>  -0.7300 
  4 C       -2.1380     3.1490    -1.1200 C.ar  1 <1>   0.0860 
  5 C       -2.7290    -0.5660    -1.9970 C.3   1 <1>   0.2200 
  6 C       -1.0620     3.1530    -0.2110 C.ar  1 <1>   0.0820 
  7 C       -2.6130     4.3920    -1.5490 C.ar  1 <1>  -0.1500 
  8 C       -3.4480    -1.1830    -0.8110 C.3   1 <1>  -0.0800 
  9 C       -1.6080    -1.5720    -2.2470 C.3   1 <1>   0.1200 
 10 O       -0.5810     1.9660     0.2440 O.3   1 <1>  -0.3630 
 11 C       -0.5060     4.3580     0.2190 C.ar  1 <1>  -0.1500 
 12 C       -2.0610     5.5810    -1.1190 C.ar  1 <1>  -0.1500 
 13 C       -2.2930    -1.8490    -0.0610 C.3   1 <1>   0.1200 
 14 C       -4.5170    -2.1940    -1.2630 C.3   1 <1>  -0.0170 
 15 O       -1.3200    -2.1680    -1.0140 O.3   1 <1>  -0.5600 
 16 C        0.5790     1.8440     1.0370 C.3   1 <1>   0.1200 
 17 C       -1.0020     5.5650    -0.2320 C.ar  1 <1>  -0.1500 
 18 C       -5.2500    -2.8020    -0.0770 C.ar  1 <1>  -0.1430 
 19 C        0.8370     0.3550     1.2670 C.3   1 <1>  -0.1600 
 20 C       -6.1900    -2.0870     0.6370 C.ar  1 <1>  -0.1500 
 21 C       -5.0160    -4.0950     0.3470 C.ar  1 <1>  -0.1500 
 22 C        2.1120     0.1300     2.0870 C.3   1 <1>  -0.2400 
 23 C       -6.8320    -2.6820     1.7110 C.ar  1 <1>   0.1600 
 24 C       -5.7130    -4.5950     1.4350 C.ar  1 <1>   0.1600 
 25 N       -6.6160    -3.9190     2.1280 N.ar  1 <1>  -0.6200 
 26 H       -1.2980     0.6690    -1.0170 H     1 <1>   0.3700 
 27 H       -3.3610    -0.4300    -2.8590 H     1 <1>   0.0800 
 28 H       -3.4380     4.4230    -2.2410 H     1 <1>   0.1500 
 29 H       -3.9180    -0.4280    -0.2050 H     1 <1>   0.0800 
 30 H       -0.7200    -1.1110    -2.6420 H     1 <1>   0.0800 
 31 H       -1.9400    -2.3500    -2.9110 H     1 <1>   0.0800 
 32 H        0.3140     4.3820     0.9110 H     1 <1>   0.1500 
 33 H       -2.4530     6.5200    -1.4730 H     1 <1>   0.1500 
 34 H       -2.5820    -2.7430     0.4630 H     1 <1>   0.0800 
 35 H       -1.8500    -1.1560     0.6330 H     1 <1>   0.0800 
 36 H       -4.0670    -2.9770    -1.8480 H     1 <1>   0.0800 
 37 H       -5.2350    -1.6930    -1.8890 H     1 <1>   0.0800 
 38 H        1.4010     2.2960     0.5090 H     1 <1>   0.0800 
 39 H        0.4090     2.3490     1.9720 H     1 <1>   0.0800 
 40 H       -0.5680     6.4910     0.1050 H     1 <1>   0.1500 
 41 H        0.0010    -0.0720     1.7940 H     1 <1>   0.0800 
 42 H        0.9350    -0.1440     0.3180 H     1 <1>   0.0800 
 43 H       -6.4290    -1.0750     0.3670 H     1 <1>   0.1500 
 44 H       -4.2990    -4.7170    -0.1560 H     1 <1>   0.1500 
 45 H        2.0300     0.6010     3.0510 H     1 <1>   0.0800 
 46 H        2.9670     0.5330     1.5730 H     1 <1>   0.0800 
 47 H        2.2700    -0.9240     2.2350 H     1 <1>   0.0800 
 48 H       -7.5630    -2.1080     2.2550 H     1 <1>   0.1500 
 49 H       -5.5170    -5.6050     1.7520 H     1 <1>   0.1500 
@<TRIPOS>BOND
  1   1   2  2   
  2   2   3  am  
  3   2   4  1   
  4   3   5  1   
  5   3  26  1   
  6   4   6  ar  
  7   4   7  ar  
  8   5   8  1   
  9   5   9  1   
 10   5  27  1   
 11   6  10  1   
 12   6  11  ar  
 13   7  12  ar  
 14   7  28  1   
 15   8  13  1   
 16   8  14  1   
 17   8  29  1   
 18   9  15  1   
 19   9  30  1   
 20   9  31  1   
 21  10  16  1   
 22  11  17  ar  
 23  11  32  1   
 24  12  17  ar  
 25  12  33  1   
 26  13  15  1   
 27  13  34  1   
 28  13  35  1   
 29  14  18  1   
 30  14  36  1   
 31  14  37  1   
 32  16  19  1   
 33  16  38  1   
 34  16  39  1   
 35  17  40  1   
 36  18  20  ar  
 37  18  21  ar  
 38  19  22  1   
 39  19  41  1   
 40  19  42  1   
 41  20  23  ar  
 42  20  43  1   
 43  21  24  ar  
 44  21  44  1   
 45  22  45  1   
 46  22  46  1   
 47  22  47  1   
 48  23  25  ar  
 49  23  48  1   
 50  24  25  ar  
 51  24  49  1   
@<TRIPOS>SUBSTRUCTURE
  1 ****   3 GROUP 4 **** **** 0

# MOE 2024.06 (io_trps.svl 2023.06)
