@<TRIPOS>MOLECULE
NONAME
50 52 1 0 0 
SMALL
USER_CHARGES


@<TRIPOS>ATOM
  1 O        0.5420     1.3680    -0.9890 O.2   1 <1>  -0.5700 
  2 C        0.3830     2.5470    -0.8040 C.2   1 <1>   0.5690 
  3 N       -0.5860     2.9890     0.0280 N.am  1 <1>  -0.7300 
  4 C        1.2620     3.5660    -1.5350 C.3   1 <1>   0.1810 
  5 C       -0.8560     4.4240     0.2860 C.3   1 <1>   0.3640 
  6 O        1.2460     4.8370    -0.9220 O.3   1 <1>  -0.5600 
  7 C       -2.3570     4.6750     0.1790 C.ar  1 <1>  -0.1440 
  8 C       -0.0560     5.3470    -0.6670 C.3   1 <1>   0.2610 
  9 C       -3.1090     4.1380    -0.8590 C.ar  1 <1>  -0.1500 
 10 C       -2.9900     5.4620     1.1310 C.ar  1 <1>  -0.1500 
 11 C       -0.0260     6.7740    -0.0980 C.2   1 <1>   0.5690 
 12 C       -4.4690     4.3800    -0.9390 C.ar  1 <1>  -0.1500 
 13 C       -4.3500     5.7040     1.0510 C.ar  1 <1>  -0.1500 
 14 O       -0.7320     7.5890    -0.6460 O.2   1 <1>  -0.5700 
 15 N        0.7320     7.1260     0.9980 N.am  1 <1>  -0.6600 
 16 C       -5.0910     5.1630     0.0160 C.ar  1 <1>  -0.1500 
 17 C        0.7310     8.5390     1.4930 C.3   1 <1>   0.3210 
 18 C        1.8010     6.2820     1.6110 C.3   1 <1>   0.0600 
 19 C        2.0550     9.2280     1.1900 C.2   1 <1>   0.1080 
 20 N        2.9510     9.5040     2.0920 N.2   1 <1>  -0.7070 
 21 C        2.4510     9.6300    -0.0810 C.2   1 <1>  -0.1500 
 22 N        3.9470    10.1000     1.4080 N.pl3 1 <1>   0.3000 
 23 C        3.6680    10.1880     0.0910 C.2   1 <1>  -0.3320 
 24 C        4.5950    10.8050    -0.9410 C.3   1 <1>   0.0200 
 25 C        4.7340    12.3140    -0.7120 C.3   1 <1>  -0.1600 
 26 C        5.6450    12.9610    -1.7610 C.3   1 <1>  -0.2400 
 27 H       -1.1970     2.3090     0.4830 H     1 <1>   0.3700 
 28 H        0.9220     3.6730    -2.5490 H     1 <1>   0.0800 
 29 H        2.2790     3.2190    -1.5440 H     1 <1>   0.0800 
 30 H       -0.5530     4.6320     1.2970 H     1 <1>   0.0800 
 31 H       -0.5670     5.3920    -1.6120 H     1 <1>   0.0800 
 32 H       -2.6420     3.5270    -1.6130 H     1 <1>   0.1500 
 33 H       -2.4310     5.8980     1.9410 H     1 <1>   0.1500 
 34 H       -5.0440     3.9590    -1.7460 H     1 <1>   0.1500 
 35 H       -4.8320     6.3180     1.7920 H     1 <1>   0.1500 
 36 H       -6.1480     5.3520    -0.0470 H     1 <1>   0.1500 
 37 H       -0.0650     9.1060     1.0450 H     1 <1>   0.0800 
 38 H        0.5730     8.5400     2.5560 H     1 <1>   0.0800 
 39 H        1.9190     6.5350     2.6510 H     1 <1>   0.0800 
 40 H        2.7340     6.4680     1.1060 H     1 <1>   0.0800 
 41 H        1.5720     5.2360     1.5380 H     1 <1>   0.0800 
 42 H        1.8770     9.5020    -0.9830 H     1 <1>   0.1500 
 43 H        4.8020    10.4370     1.8660 H     1 <1>   0.2700 
 44 H        5.5600    10.3310    -0.8890 H     1 <1>   0.0800 
 45 H        4.1930    10.6280    -1.9240 H     1 <1>   0.0800 
 46 H        3.7580    12.7670    -0.7590 H     1 <1>   0.0800 
 47 H        5.1370    12.4970     0.2680 H     1 <1>   0.0800 
 48 H        5.2450    12.8140    -2.7490 H     1 <1>   0.0800 
 49 H        6.6320    12.5350    -1.7190 H     1 <1>   0.0800 
 50 H        5.7210    14.0180    -1.5790 H     1 <1>   0.0800 
@<TRIPOS>BOND
  1   1   2  2   
  2   2   3  am  
  3   2   4  1   
  4   3   5  1   
  5   3  27  1   
  6   4   6  1   
  7   4  28  1   
  8   4  29  1   
  9   5   7  1   
 10   5   8  1   
 11   5  30  1   
 12   6   8  1   
 13   7   9  ar  
 14   7  10  ar  
 15   8  11  1   
 16   8  31  1   
 17   9  12  ar  
 18   9  32  1   
 19  10  13  ar  
 20  10  33  1   
 21  11  14  2   
 22  11  15  am  
 23  12  16  ar  
 24  12  34  1   
 25  13  16  ar  
 26  13  35  1   
 27  15  17  1   
 28  15  18  1   
 29  16  36  1   
 30  17  19  1   
 31  17  37  1   
 32  17  38  1   
 33  18  39  1   
 34  18  40  1   
 35  18  41  1   
 36  19  20  2   
 37  19  21  1   
 38  20  22  1   
 39  21  23  2   
 40  21  42  1   
 41  22  23  1   
 42  22  43  1   
 43  23  24  1   
 44  24  25  1   
 45  24  44  1   
 46  24  45  1   
 47  25  26  1   
 48  25  46  1   
 49  25  47  1   
 50  26  48  1   
 51  26  49  1   
 52  26  50  1   
@<TRIPOS>SUBSTRUCTURE
  1 ****  11 GROUP 4 **** **** 0

# MOE 2024.06 (io_trps.svl 2023.06)
