@<TRIPOS>MOLECULE
NONAME
50 51 1 0 0 
SMALL
USER_CHARGES


@<TRIPOS>ATOM
  1 O       -0.5070     0.8220    -1.2560 O.2   1 <1>  -0.5700 
  2 C       -0.6170     2.0220    -1.1650 C.2   1 <1>   0.5690 
  3 N       -1.3510     2.6460    -0.1860 N.am  1 <1>  -0.6600 
  4 C        0.1070     2.8720    -2.2060 C.3   1 <1>   0.1810 
  5 C       -1.4060     4.1470    -0.1150 C.3   1 <1>   0.3640 
  6 C       -2.0070     1.9460     0.9550 C.3   1 <1>   0.2200 
  7 O        0.5220     4.1020    -1.6760 O.3   1 <1>  -0.5600 
  8 C       -2.8530     4.6290    -0.2140 C.ar  1 <1>  -0.1440 
  9 C       -0.5440     4.8860    -1.1720 C.3   1 <1>   0.2610 
 10 C       -0.9520     1.2910     1.8450 C.3   1 <1>  -0.2400 
 11 C       -3.0520     0.9400     0.4710 C.3   1 <1>  -0.2400 
 12 C       -3.7280     4.1000    -1.1550 C.ar  1 <1>  -0.1500 
 13 C       -3.3060     5.6250     0.6400 C.ar  1 <1>  -0.1500 
 14 C       -0.0470     6.2070    -0.5690 C.2   1 <1>   0.5690 
 15 C       -5.0330     4.5520    -1.2340 C.ar  1 <1>  -0.1500 
 16 C       -4.6110     6.0780     0.5610 C.ar  1 <1>  -0.1500 
 17 O       -0.5890     7.2190    -0.9540 O.2   1 <1>  -0.5700 
 18 N        0.9480     6.2640     0.3870 N.am  1 <1>  -0.6600 
 19 C       -5.4760     5.5410    -0.3750 C.ar  1 <1>  -0.1500 
 20 C        1.3900     7.5860     0.9280 C.3   1 <1>   0.1400 
 21 C        1.7770     5.1070     0.8400 C.3   1 <1>   0.0600 
 22 C        2.3550     8.2660    -0.0420 C.3   1 <1>   0.1200 
 23 O        2.9190     9.3690     0.5960 O.3   1 <1>  -0.5600 
 24 C        3.7540    10.1220    -0.2210 C.3   1 <1>   0.0400 
 25 H       -0.5380     3.0540    -3.0460 H     1 <1>   0.0800 
 26 H        0.9830     2.3500    -2.5450 H     1 <1>   0.0800 
 27 H       -1.0360     4.4230     0.8570 H     1 <1>   0.0800 
 28 H       -2.5270     2.6760     1.5540 H     1 <1>   0.0800 
 29 H       -1.1670     5.1340    -2.0130 H     1 <1>   0.0800 
 30 H       -0.4460     0.5010     1.3200 H     1 <1>   0.0800 
 31 H       -1.4230     0.8670     2.7140 H     1 <1>   0.0800 
 32 H       -0.2330     2.0200     2.1700 H     1 <1>   0.0800 
 33 H       -2.5950     0.1240    -0.0570 H     1 <1>   0.0800 
 34 H       -3.7660     1.4230    -0.1690 H     1 <1>   0.0800 
 35 H       -3.5800     0.5340     1.3150 H     1 <1>   0.0800 
 36 H       -3.3990     3.3280    -1.8300 H     1 <1>   0.1500 
 37 H       -2.6460     6.0620     1.3700 H     1 <1>   0.1500 
 38 H       -5.7040     4.1340    -1.9640 H     1 <1>   0.1500 
 39 H       -4.9520     6.8520     1.2260 H     1 <1>   0.1500 
 40 H       -6.4910     5.8940    -0.4360 H     1 <1>   0.1500 
 41 H        0.5330     8.2210     1.0740 H     1 <1>   0.0800 
 42 H        1.8750     7.4470     1.8780 H     1 <1>   0.0800 
 43 H        1.9870     5.1930     1.8920 H     1 <1>   0.0800 
 44 H        2.7060     5.0970     0.2970 H     1 <1>   0.0800 
 45 H        1.2740     4.1710     0.6780 H     1 <1>   0.0800 
 46 H        1.8220     8.6010    -0.9160 H     1 <1>   0.0800 
 47 H        3.1470     7.5930    -0.3200 H     1 <1>   0.0800 
 48 H        4.1430    10.9400     0.3600 H     1 <1>   0.0800 
 49 H        3.1870    10.5050    -1.0510 H     1 <1>   0.0800 
 50 H        4.5650     9.5050    -0.5680 H     1 <1>   0.0800 
@<TRIPOS>BOND
  1   1   2  2   
  2   2   3  am  
  3   2   4  1   
  4   3   5  1   
  5   3   6  1   
  6   4   7  1   
  7   4  25  1   
  8   4  26  1   
  9   5   8  1   
 10   5   9  1   
 11   5  27  1   
 12   6  10  1   
 13   6  11  1   
 14   6  28  1   
 15   7   9  1   
 16   8  12  ar  
 17   8  13  ar  
 18   9  14  1   
 19   9  29  1   
 20  10  30  1   
 21  10  31  1   
 22  10  32  1   
 23  11  33  1   
 24  11  34  1   
 25  11  35  1   
 26  12  15  ar  
 27  12  36  1   
 28  13  16  ar  
 29  13  37  1   
 30  14  17  2   
 31  14  18  am  
 32  15  19  ar  
 33  15  38  1   
 34  16  19  ar  
 35  16  39  1   
 36  18  20  1   
 37  18  21  1   
 38  19  40  1   
 39  20  22  1   
 40  20  41  1   
 41  20  42  1   
 42  21  43  1   
 43  21  44  1   
 44  21  45  1   
 45  22  23  1   
 46  22  46  1   
 47  22  47  1   
 48  23  24  1   
 49  24  48  1   
 50  24  49  1   
 51  24  50  1   
@<TRIPOS>SUBSTRUCTURE
  1 ****   5 GROUP 4 **** **** 0

# MOE 2024.06 (io_trps.svl 2023.06)
