@<TRIPOS>MOLECULE
NONAME
51 55 1 0 0 
SMALL
USER_CHARGES


@<TRIPOS>ATOM
  1 O       -0.5290     0.1870     0.2200 O.2   1 <1>  -0.5700 
  2 C       -1.5080     0.8510    -0.0830 C.2   1 <1>   0.7150 
  3 N       -2.7020     0.1670    -0.2160 N.am  1 <1>  -0.6600 
  4 C       -1.3790     2.2860    -0.2780 C.2   1 <1>   0.1020 
  5 C       -4.0340     0.7640    -0.5000 C.3   1 <1>   0.1400 
  6 C       -2.7960    -1.3140    -0.2000 C.3   1 <1>   0.1400 
  7 N       -2.2300     3.0750    -0.8870 N.2   1 <1>  -0.3380 
  8 N       -0.3240     3.0150     0.1400 N.pl3 1 <1>   0.0480 
  9 C       -5.0220    -0.3780    -0.2700 C.3   1 <1>   0.2000 
 10 C       -4.2260    -1.6290    -0.6620 C.3   1 <1>  -0.0800 
 11 N       -1.7420     4.3070    -0.8700 N.2   1 <1>  -0.3380 
 12 C       -0.6100     4.2500    -0.2610 C.2   1 <1>   0.0070 
 13 C        0.9250     2.6080     0.8330 C.3   1 <1>   0.0960 
 14 O       -5.3250    -0.4230     1.0840 O.3   1 <1>  -0.6800 
 15 C       -4.7920    -2.9520    -0.1040 C.3   1 <1>  -0.0170 
 16 C        0.3050     5.4340    -0.0070 C.3   1 <1>   0.0200 
 17 C        1.6970     3.8290     1.3660 C.3   1 <1>  -0.1600 
 18 C       -4.1180    -4.2450    -0.5820 C.ar  1 <1>  -0.1440 
 19 C        1.7300     4.9730     0.3380 C.3   1 <1>  -0.1600 
 20 C       -4.4370    -5.4760     0.0460 C.ar  1 <1>   0.0000 
 21 C       -3.2140    -4.2930    -1.6080 C.ar  1 <1>  -0.1500 
 22 C       -3.7830    -6.6470    -0.4110 C.ar  1 <1>   0.3100 
 23 C       -5.3750    -5.6160     1.0970 C.ar  1 <1>  -0.1500 
 24 C       -2.6290    -5.5070    -1.9850 C.ar  1 <1>   0.1600 
 25 N       -2.8820    -6.6450    -1.4240 N.ar  1 <1>  -0.6200 
 26 C       -4.0750    -7.8760     0.2020 C.ar  1 <1>  -0.1500 
 27 C       -5.6390    -6.8300     1.6710 C.ar  1 <1>  -0.1500 
 28 C       -4.9800    -7.9760     1.2220 C.ar  1 <1>  -0.1500 
 29 H       -4.2430     1.6070     0.1360 H     1 <1>   0.0800 
 30 H       -4.0650     1.0760    -1.5300 H     1 <1>   0.0800 
 31 H       -2.0570    -1.7480    -0.8510 H     1 <1>   0.0800 
 32 H       -2.6300    -1.6650     0.8040 H     1 <1>   0.0800 
 33 H       -5.9390    -0.2620    -0.8230 H     1 <1>   0.0800 
 34 H       -4.2310    -1.6730    -1.7360 H     1 <1>   0.0800 
 35 H        0.6830     1.9460     1.6450 H     1 <1>   0.0800 
 36 H        1.5340     2.0720     0.1270 H     1 <1>   0.0800 
 37 H       -4.4980    -0.3160     1.5950 H     1 <1>   0.4000 
 38 H       -5.8370    -3.0080    -0.3560 H     1 <1>   0.0800 
 39 H       -4.7210    -2.9160     0.9680 H     1 <1>   0.0800 
 40 H        0.3210     6.0700    -0.8750 H     1 <1>   0.0800 
 41 H       -0.0990     6.0020     0.8130 H     1 <1>   0.0800 
 42 H        1.2260     4.1740     2.2720 H     1 <1>   0.0800 
 43 H        2.7000     3.5320     1.6170 H     1 <1>   0.0800 
 44 H        2.2170     4.6300    -0.5590 H     1 <1>   0.0800 
 45 H        2.2940     5.8040     0.7250 H     1 <1>   0.0800 
 46 H       -2.9160    -3.4260    -2.1640 H     1 <1>   0.1500 
 47 H       -5.9010    -4.7530     1.4590 H     1 <1>   0.1500 
 48 H       -1.9200    -5.4920    -2.7950 H     1 <1>   0.1500 
 49 H       -3.5570    -8.7440    -0.1640 H     1 <1>   0.1500 
 50 H       -6.3530    -6.9180     2.4720 H     1 <1>   0.1500 
 51 H       -5.1950    -8.9250     1.6820 H     1 <1>   0.1500 
@<TRIPOS>BOND
  1   1   2  2   
  2   2   3  am  
  3   2   4  1   
  4   3   5  1   
  5   3   6  1   
  6   4   7  2   
  7   4   8  1   
  8   5   9  1   
  9   5  29  1   
 10   5  30  1   
 11   6  10  1   
 12   6  31  1   
 13   6  32  1   
 14   7  11  1   
 15   8  12  1   
 16   8  13  1   
 17   9  10  1   
 18   9  14  1   
 19   9  33  1   
 20  10  15  1   
 21  10  34  1   
 22  11  12  2   
 23  12  16  1   
 24  13  17  1   
 25  13  35  1   
 26  13  36  1   
 27  14  37  1   
 28  15  18  1   
 29  15  38  1   
 30  15  39  1   
 31  16  19  1   
 32  16  40  1   
 33  16  41  1   
 34  17  19  1   
 35  17  42  1   
 36  17  43  1   
 37  18  20  ar  
 38  18  21  ar  
 39  19  44  1   
 40  19  45  1   
 41  20  22  ar  
 42  20  23  ar  
 43  21  24  ar  
 44  21  46  1   
 45  22  25  ar  
 46  22  26  ar  
 47  23  27  ar  
 48  23  47  1   
 49  24  25  ar  
 50  24  48  1   
 51  26  28  ar  
 52  26  49  1   
 53  27  28  ar  
 54  27  50  1   
 55  28  51  1   
@<TRIPOS>SUBSTRUCTURE
  1 ****   6 GROUP 4 **** **** 0

# MOE 2024.06 (io_trps.svl 2023.06)
