@<TRIPOS>MOLECULE
NONAME
53 55 1 0 0 
SMALL
USER_CHARGES


@<TRIPOS>ATOM
  1 CL       0.0130     0.6350    -0.2380 Cl    1 <1>  -0.1770 
  2 C       -1.6860     0.8320     0.0990 C.ar  1 <1>   0.1770 
  3 C       -2.0960     1.1100     1.3890 C.ar  1 <1>  -0.1500 
  4 C       -2.6040     0.7100    -0.9260 C.ar  1 <1>  -0.1500 
  5 C       -3.4460     1.2660     1.6510 C.ar  1 <1>  -0.1500 
  6 C       -3.9510     0.8700    -0.6520 C.ar  1 <1>  -0.1500 
  7 C       -4.4020     1.1460     0.6400 C.ar  1 <1>   0.0530 
  8 C       -5.8010     1.3270     0.9390 C.2   1 <1>   0.0870 
  9 O       -6.1590     2.3320     1.6980 O.3   1 <1>  -0.0190 
 10 C       -6.9380     0.6520     0.6070 C.2   1 <1>  -0.0860 
 11 N       -7.4480     2.3950     1.8910 N.2   1 <1>  -0.4100 
 12 C       -7.9380     1.4090     1.2360 C.2   1 <1>   0.3720 
 13 C       -7.1260    -0.5570    -0.1400 C.2   1 <1>   0.7160 
 14 N       -9.3110     1.2060     1.2200 N.pl3 1 <1>  -0.8520 
 15 O       -6.1900    -1.1120    -0.6820 O.2   1 <1>  -0.5700 
 16 N       -8.3710    -1.1010    -0.2310 N.am  1 <1>  -0.7300 
 17 C       -9.9790     1.7340    -0.0020 C.3   1 <1>   0.2090 
 18 C       -8.8190    -2.3960    -0.7620 C.3   1 <1>   0.3000 
 19 C      -11.4660     1.3770     0.0130 C.3   1 <1>   0.1200 
 20 C      -10.3440    -2.4620    -0.5640 C.3   1 <1>  -0.1600 
 21 C       -8.1500    -3.5470     0.0140 C.3   1 <1>  -0.1600 
 22 C       -8.4980    -2.4680    -2.2570 C.3   1 <1>  -0.2400 
 23 O      -12.0340     1.7970    -1.1860 O.3   1 <1>  -0.5600 
 24 C      -10.7640    -2.4910     0.9180 C.3   1 <1>  -0.1600 
 25 C       -8.5490    -3.5790     1.5000 C.3   1 <1>  -0.1600 
 26 C      -13.3910     1.5120    -1.3000 C.3   1 <1>   0.0400 
 27 C      -10.0730    -3.6400     1.6640 C.3   1 <1>  -0.1600 
 28 H       -1.3650     1.2020     2.1720 H     1 <1>   0.1500 
 29 H       -2.2660     0.4920    -1.9230 H     1 <1>   0.1500 
 30 H       -3.7690     1.4830     2.6550 H     1 <1>   0.1500 
 31 H       -4.6650     0.7770    -1.4520 H     1 <1>   0.1500 
 32 H       -9.6830     1.7210     2.0270 H     1 <1>   0.4000 
 33 H       -9.0760    -0.6300     0.3450 H     1 <1>   0.3700 
 34 H       -9.5230     1.3070    -0.8800 H     1 <1>   0.0800 
 35 H       -9.8680     2.8050    -0.0400 H     1 <1>   0.0800 
 36 H      -11.9640     1.8790     0.8240 H     1 <1>   0.0800 
 37 H      -11.5930     0.3130     0.0960 H     1 <1>   0.0800 
 38 H      -10.7110    -3.3590    -1.0320 H     1 <1>   0.0800 
 39 H      -10.8110    -1.6320    -1.0640 H     1 <1>   0.0800 
 40 H       -7.0810    -3.4790    -0.0750 H     1 <1>   0.0800 
 41 H       -8.4430    -4.4790    -0.4360 H     1 <1>   0.0800 
 42 H       -8.9230    -1.6260    -2.7730 H     1 <1>   0.0800 
 43 H       -8.9030    -3.3680    -2.6810 H     1 <1>   0.0800 
 44 H       -7.4360    -2.4780    -2.4200 H     1 <1>   0.0800 
 45 H      -11.8320    -2.6130     0.9870 H     1 <1>   0.0800 
 46 H      -10.5110    -1.5600     1.3940 H     1 <1>   0.0800 
 47 H       -8.1690    -2.7000     1.9940 H     1 <1>   0.0800 
 48 H       -8.1010    -4.4360     1.9720 H     1 <1>   0.0800 
 49 H      -13.7300     1.8750    -2.2540 H     1 <1>   0.0800 
 50 H      -13.9280     2.0110    -0.5120 H     1 <1>   0.0800 
 51 H      -13.5370     0.4470    -1.2450 H     1 <1>   0.0800 
 52 H      -10.4320    -4.5800     1.2800 H     1 <1>   0.0800 
 53 H      -10.3250    -3.5960     2.7090 H     1 <1>   0.0800 
@<TRIPOS>BOND
  1   1   2  1   
  2   2   3  ar  
  3   2   4  ar  
  4   3   5  ar  
  5   3  28  1   
  6   4   6  ar  
  7   4  29  1   
  8   5   7  ar  
  9   5  30  1   
 10   6   7  ar  
 11   6  31  1   
 12   7   8  1   
 13   8   9  1   
 14   8  10  2   
 15   9  11  1   
 16  10  12  1   
 17  10  13  1   
 18  11  12  2   
 19  12  14  1   
 20  13  15  2   
 21  13  16  am  
 22  14  17  1   
 23  14  32  1   
 24  16  18  1   
 25  16  33  1   
 26  17  19  1   
 27  17  34  1   
 28  17  35  1   
 29  18  20  1   
 30  18  21  1   
 31  18  22  1   
 32  19  23  1   
 33  19  36  1   
 34  19  37  1   
 35  20  24  1   
 36  20  38  1   
 37  20  39  1   
 38  21  25  1   
 39  21  40  1   
 40  21  41  1   
 41  22  42  1   
 42  22  43  1   
 43  22  44  1   
 44  23  26  1   
 45  24  27  1   
 46  24  45  1   
 47  24  46  1   
 48  25  27  1   
 49  25  47  1   
 50  25  48  1   
 51  26  49  1   
 52  26  50  1   
 53  26  51  1   
 54  27  52  1   
 55  27  53  1   
@<TRIPOS>SUBSTRUCTURE
  1 ****  13 GROUP 4 **** **** 0

# MOE 2024.06 (io_trps.svl 2023.06)
