@<TRIPOS>MOLECULE
NONAME
48 50 1 0 0 
SMALL
USER_CHARGES


@<TRIPOS>ATOM
  1 O       -0.6220    -0.8990     0.0110 O.3   1 <1>  -0.3630 
  2 C       -1.8630    -1.1800     0.4790 C.ar  1 <1>   0.0830 
  3 C       -0.2410     0.4250    -0.3030 C.3   1 <1>   0.1200 
  4 C       -2.0970    -2.4880     0.8690 C.ar  1 <1>  -0.1500 
  5 C       -2.8820    -0.2390     0.5850 C.ar  1 <1>  -0.1500 
  6 C        1.2350     0.4260    -0.7010 C.3   1 <1>   0.1200 
  7 C       -3.3370    -2.8690     1.3600 C.ar  1 <1>  -0.1440 
  8 C       -4.1180    -0.6140     1.0810 C.ar  1 <1>  -0.1500 
  9 O        1.6090     1.7090    -1.0750 O.3   1 <1>  -0.6800 
 10 C       -4.3460    -1.9230     1.4680 C.ar  1 <1>  -0.1500 
 11 C       -3.5950    -4.3040     1.7780 C.3   1 <1>   0.4860 
 12 N       -3.6780    -5.1610     0.5620 N.4   1 <1>  -0.9590 
 13 C       -4.8490    -4.7720    -0.2850 C.3   1 <1>   0.3430 
 14 C       -3.8760    -6.5960     0.9440 C.3   1 <1>   0.3430 
 15 C       -5.9540    -5.7730     0.0570 C.3   1 <1>   0.2000 
 16 C       -5.1840    -7.0710     0.2880 C.3   1 <1>  -0.0800 
 17 O       -6.5360    -5.3940     1.2630 O.3   1 <1>  -0.6800 
 18 C       -4.9410    -7.8280    -1.0370 C.3   1 <1>  -0.0170 
 19 C       -4.2680    -9.1760    -0.8160 C.ar  1 <1>   0.1670 
 20 N       -2.9830    -9.1430    -0.5020 N.ar  1 <1>  -0.6200 
 21 C       -4.9980   -10.3560    -0.9510 C.ar  1 <1>   0.1600 
 22 C       -2.4790   -10.3590    -0.3450 C.ar  1 <1>   0.1600 
 23 N       -4.4980   -11.5670    -0.7810 N.ar  1 <1>  -0.6200 
 24 C       -3.2120   -11.5310    -0.4790 C.ar  1 <1>   0.1600 
 25 H       -0.8540     0.7650    -1.1180 H     1 <1>   0.0800 
 26 H       -0.3880     1.0370     0.5700 H     1 <1>   0.0800 
 27 H       -1.2870    -3.1910     0.7850 H     1 <1>   0.1500 
 28 H       -2.7350     0.7840     0.2920 H     1 <1>   0.1500 
 29 H        1.4140    -0.2350    -1.5320 H     1 <1>   0.0800 
 30 H        1.8460     0.1360     0.1370 H     1 <1>   0.0800 
 31 H       -4.9040     0.1180     1.1670 H     1 <1>   0.1500 
 32 H        1.2270     1.9490    -1.9420 H     1 <1>   0.4000 
 33 H       -5.3160    -2.1910     1.8560 H     1 <1>   0.1500 
 34 H       -4.5170    -4.3630     2.3330 H     1 <1>   0.0800 
 35 H       -2.7910    -4.6390     2.4140 H     1 <1>   0.0800 
 36 H       -2.8080    -5.0360     0.0290 H     1 <1>   0.4500 
 37 H       -5.1720    -3.7590    -0.1080 H     1 <1>   0.0800 
 38 H       -4.5880    -4.8780    -1.3250 H     1 <1>   0.0800 
 39 H       -3.0330    -7.1910     0.6380 H     1 <1>   0.0800 
 40 H       -3.9770    -6.6770     2.0140 H     1 <1>   0.0800 
 41 H       -6.7190    -5.8290    -0.7000 H     1 <1>   0.0800 
 42 H       -5.7190    -7.7250     0.9540 H     1 <1>   0.0800 
 43 H       -7.3630    -5.8960     1.4330 H     1 <1>   0.4000 
 44 H       -4.3260    -7.2470    -1.7020 H     1 <1>   0.0800 
 45 H       -5.8830    -7.9900    -1.5320 H     1 <1>   0.0800 
 46 H       -6.0410   -10.3040    -1.2110 H     1 <1>   0.1500 
 47 H       -1.4340   -10.4360    -0.0980 H     1 <1>   0.1500 
 48 H       -2.7160   -12.4750    -0.3300 H     1 <1>   0.1500 
@<TRIPOS>BOND
  1   1   2  1   
  2   1   3  1   
  3   2   4  ar  
  4   2   5  ar  
  5   3   6  1   
  6   3  25  1   
  7   3  26  1   
  8   4   7  ar  
  9   4  27  1   
 10   5   8  ar  
 11   5  28  1   
 12   6   9  1   
 13   6  29  1   
 14   6  30  1   
 15   7  10  ar  
 16   7  11  1   
 17   8  10  ar  
 18   8  31  1   
 19   9  32  1   
 20  10  33  1   
 21  11  12  1   
 22  11  34  1   
 23  11  35  1   
 24  12  13  1   
 25  12  14  1   
 26  12  36  1   
 27  13  15  1   
 28  13  37  1   
 29  13  38  1   
 30  14  16  1   
 31  14  39  1   
 32  14  40  1   
 33  15  16  1   
 34  15  17  1   
 35  15  41  1   
 36  16  18  1   
 37  16  42  1   
 38  17  43  1   
 39  18  19  1   
 40  18  44  1   
 41  18  45  1   
 42  19  20  ar  
 43  19  21  ar  
 44  20  22  ar  
 45  21  23  ar  
 46  21  46  1   
 47  22  24  ar  
 48  22  47  1   
 49  23  24  ar  
 50  24  48  1   
@<TRIPOS>SUBSTRUCTURE
  1 ****  12 GROUP 4 **** **** 0

# MOE 2024.06 (io_trps.svl 2023.06)
