@<TRIPOS>MOLECULE
NONAME
46 48 1 0 0 
SMALL
USER_CHARGES


@<TRIPOS>ATOM
  1 O       -0.3080     0.1310     0.1220 O.2   1 <1>  -0.5700 
  2 C       -1.3530     0.7270     0.0060 C.2   1 <1>   0.5690 
  3 N       -2.5360     0.0570    -0.1360 N.am  1 <1>  -0.6600 
  4 C       -1.3540     2.2480     0.0120 C.3   1 <1>  -0.0990 
  5 C       -3.8750     0.6600    -0.3440 C.3   1 <1>   0.1400 
  6 C       -2.6150    -1.4220    -0.1370 C.3   1 <1>   0.1400 
  7 C        0.0250     2.8690     0.2810 C.3   1 <1>  -0.0160 
  8 C       -4.8000    -0.5260    -0.6210 C.3   1 <1>   0.2000 
  9 C       -4.1050    -1.7440    -0.0130 C.3   1 <1>  -0.0800 
 10 C       -0.0710     4.3860     0.2890 C.ar  1 <1>  -0.1440 
 11 O       -6.0450    -0.3470    -0.0390 O.3   1 <1>  -0.6800 
 12 C       -4.5110    -3.0620    -0.6890 C.3   1 <1>  -0.0170 
 13 C        0.0640     5.1000    -0.8930 C.ar  1 <1>  -0.1500 
 14 C       -0.2970     5.0680     1.4770 C.ar  1 <1>  -0.1500 
 15 C       -3.8010    -4.2470    -0.0520 C.ar  1 <1>  -0.1440 
 16 C       -0.0270     6.4810    -0.8900 C.ar  1 <1>  -0.1500 
 17 C       -0.3880     6.4490     1.4850 C.ar  1 <1>  -0.1500 
 18 C       -4.2730    -4.8360     1.1030 C.ar  1 <1>  -0.1500 
 19 C       -2.6530    -4.7930    -0.5890 C.ar  1 <1>  -0.1500 
 20 C       -0.2520     7.1510     0.2990 C.ar  1 <1>   0.0820 
 21 C       -3.5930    -5.9110     1.6510 C.ar  1 <1>   0.1600 
 22 C       -2.0480    -5.8690     0.0390 C.ar  1 <1>   0.1600 
 23 O       -0.3370     8.4900     0.2910 O.3   1 <1>  -0.5330 
 24 N       -2.4910    -6.4410     1.1470 N.ar  1 <1>  -0.6200 
 25 H       -1.7080     2.5920    -0.9410 H     1 <1>   0.0800 
 26 H       -2.0360     2.5860     0.7690 H     1 <1>   0.0800 
 27 H       -4.1740     1.1800     0.5500 H     1 <1>   0.0800 
 28 H       -3.8610     1.3340    -1.1830 H     1 <1>   0.0800 
 29 H       -2.2140    -1.7880    -1.0660 H     1 <1>   0.0800 
 30 H       -2.0500    -1.8380     0.6810 H     1 <1>   0.0800 
 31 H        0.7210     2.5530    -0.4770 H     1 <1>   0.0800 
 32 H        0.4010     2.5210     1.2290 H     1 <1>   0.0800 
 33 H       -4.9360    -0.6400    -1.6830 H     1 <1>   0.0800 
 34 H       -4.3300    -1.7970     1.0370 H     1 <1>   0.0800 
 35 H       -5.9640    -0.2900     0.9330 H     1 <1>   0.4000 
 36 H       -4.2820    -3.0240    -1.7400 H     1 <1>   0.0800 
 37 H       -5.5750    -3.1960    -0.5970 H     1 <1>   0.0800 
 38 H        0.2410     4.5830    -1.8200 H     1 <1>   0.1500 
 39 H       -0.4010     4.5230     2.3990 H     1 <1>   0.1500 
 40 H        0.0770     7.0410    -1.8010 H     1 <1>   0.1500 
 41 H       -0.5620     6.9680     2.4100 H     1 <1>   0.1500 
 42 H       -5.1630    -4.4710     1.5820 H     1 <1>   0.1500 
 43 H       -2.2200    -4.3950    -1.4890 H     1 <1>   0.1500 
 44 H       -3.9760    -6.3580     2.5520 H     1 <1>   0.1500 
 45 H       -1.1520    -6.2810    -0.3930 H     1 <1>   0.1500 
 46 H       -0.4820     8.8690     1.1750 H     1 <1>   0.4500 
@<TRIPOS>BOND
  1   1   2  2   
  2   2   3  am  
  3   2   4  1   
  4   3   5  1   
  5   3   6  1   
  6   4   7  1   
  7   4  25  1   
  8   4  26  1   
  9   5   8  1   
 10   5  27  1   
 11   5  28  1   
 12   6   9  1   
 13   6  29  1   
 14   6  30  1   
 15   7  10  1   
 16   7  31  1   
 17   7  32  1   
 18   8   9  1   
 19   8  11  1   
 20   8  33  1   
 21   9  12  1   
 22   9  34  1   
 23  10  13  ar  
 24  10  14  ar  
 25  11  35  1   
 26  12  15  1   
 27  12  36  1   
 28  12  37  1   
 29  13  16  ar  
 30  13  38  1   
 31  14  17  ar  
 32  14  39  1   
 33  15  18  ar  
 34  15  19  ar  
 35  16  20  ar  
 36  16  40  1   
 37  17  20  ar  
 38  17  41  1   
 39  18  21  ar  
 40  18  42  1   
 41  19  22  ar  
 42  19  43  1   
 43  20  23  1   
 44  21  24  ar  
 45  21  44  1   
 46  22  24  ar  
 47  22  45  1   
 48  23  46  1   
@<TRIPOS>SUBSTRUCTURE
  1 ****   3 GROUP 4 **** **** 0

# MOE 2024.06 (io_trps.svl 2023.06)
