@<TRIPOS>MOLECULE
NONAME
50 54 1 0 0 
SMALL
USER_CHARGES


@<TRIPOS>ATOM
  1 O       -0.3880     2.5590     1.8180 O.co2 1 <1>  -0.9030 
  2 C       -0.2830     3.3470     0.8640 C.2   1 <1>   0.9770 
  3 O        0.8410     3.7020     0.4770 O.co2 1 <1>  -0.9030 
  4 C       -1.4820     3.8470     0.2110 C.ar  1 <1>  -0.1860 
  5 C       -2.7400     3.4480     0.6510 C.ar  1 <1>  -0.1170 
  6 C       -1.4130     4.7420    -0.8740 C.ar  1 <1>  -0.1580 
  7 C       -3.8710     3.9330     0.0210 C.ar  1 <1>   0.3020 
  8 C       -2.5430     5.2250    -1.5020 C.ar  1 <1>  -0.1170 
  9 N       -5.2120     3.7160     0.2460 N.pl3 1 <1>  -0.7040 
 10 C       -3.7870     4.8080    -1.0430 C.ar  1 <1>   0.3020 
 11 C       -5.9230     4.4330    -0.6180 C.cat 1 <1>   1.0690 
 12 N       -5.0890     5.0970    -1.4450 N.pl3 1 <1>  -0.7680 
 13 N       -7.2710     4.4610    -0.6050 N.pl3 1 <1>  -0.5970 
 14 C       -5.3760     5.7950    -2.7250 C.3   1 <1>   0.2670 
 15 C       -8.1000     5.6230    -1.0600 C.3   1 <1>   0.1600 
 16 C       -8.1050     3.3890     0.0130 C.3   1 <1>   0.1600 
 17 C       -8.8650     6.2530     0.1200 C.3   1 <1>   0.1360 
 18 C       -8.8610     3.9430     1.2260 C.3   1 <1>  -0.1680 
 19 C       -9.7660     7.3620    -0.3870 C.ar  1 <1>   0.1590 
 20 C       -9.6990     5.1800     0.8530 C.3   1 <1>  -0.1680 
 21 C       -7.9260     7.0140     1.0980 C.3   1 <1>  -0.1680 
 22 N      -10.5630     7.2700    -1.4240 N.ar  1 <1>  -0.6240 
 23 C       -9.6430     8.4940     0.3620 C.ar  1 <1>  -0.1510 
 24 C       -8.6480     8.3190     1.4810 C.3   1 <1>  -0.0250 
 25 C      -11.2420     8.3810    -1.6780 C.ar  1 <1>   0.7160 
 26 C      -10.4030     9.5820     0.0070 C.ar  1 <1>   0.1520 
 27 N      -11.2180     9.5340    -1.0230 N.ar  1 <1>  -0.6240 
 28 N      -12.0740     8.3270    -2.7180 N.pl3 1 <1>  -0.9030 
 29 H       -2.8240     2.7650     1.4800 H     1 <1>   0.1420 
 30 H       -0.4330     5.0490    -1.2100 H     1 <1>   0.1420 
 31 H       -2.4590     5.9090    -2.3250 H     1 <1>   0.1420 
 32 H       -5.5860     3.1540     1.0040 H     1 <1>   0.4440 
 33 H       -4.5910     5.6010    -3.4360 H     1 <1>   0.0720 
 34 H       -5.4390     6.8570    -2.5580 H     1 <1>   0.0720 
 35 H       -6.3010     5.4430    -3.1500 H     1 <1>   0.0720 
 36 H       -8.8060     5.2800    -1.7990 H     1 <1>   0.0720 
 37 H       -7.5010     6.3910    -1.5090 H     1 <1>   0.0720 
 38 H       -7.5040     2.5460     0.3080 H     1 <1>   0.0720 
 39 H       -8.8160     3.0390    -0.7170 H     1 <1>   0.0720 
 40 H       -8.1630     4.1840     2.0070 H     1 <1>   0.0720 
 41 H       -9.5170     3.1800     1.6090 H     1 <1>   0.0720 
 42 H      -10.5020     4.8690     0.2060 H     1 <1>   0.0720 
 43 H      -10.1480     5.6010     1.7370 H     1 <1>   0.0720 
 44 H       -7.0140     7.2790     0.5920 H     1 <1>   0.0720 
 45 H       -7.6730     6.4420     1.9720 H     1 <1>   0.0720 
 46 H       -7.9660     9.1490     1.5440 H     1 <1>   0.0720 
 47 H       -9.1730     8.2050     2.4140 H     1 <1>   0.0720 
 48 H      -10.3440    10.4970     0.5710 H     1 <1>   0.1420 
 49 H      -12.7840     9.0550    -2.7310 H     1 <1>   0.3940 
 50 H      -12.3750     7.3950    -2.9860 H     1 <1>   0.3940 
@<TRIPOS>BOND
  1   1   2  ar  
  2   2   3  ar  
  3   2   4  1   
  4   4   5  ar  
  5   4   6  ar  
  6   5   7  ar  
  7   5  29  1   
  8   6   8  ar  
  9   6  30  1   
 10   7   9  1   
 11   7  10  ar  
 12   8  10  ar  
 13   8  31  1   
 14   9  11  ar  
 15   9  32  1   
 16  10  12  1   
 17  11  12  ar  
 18  11  13  ar  
 19  12  14  1   
 20  13  15  1   
 21  13  16  1   
 22  14  33  1   
 23  14  34  1   
 24  14  35  1   
 25  15  17  1   
 26  15  36  1   
 27  15  37  1   
 28  16  18  1   
 29  16  38  1   
 30  16  39  1   
 31  17  19  1   
 32  17  20  1   
 33  17  21  1   
 34  18  20  1   
 35  18  40  1   
 36  18  41  1   
 37  19  22  ar  
 38  19  23  ar  
 39  20  42  1   
 40  20  43  1   
 41  21  24  1   
 42  21  44  1   
 43  21  45  1   
 44  22  25  ar  
 45  23  24  1   
 46  23  26  ar  
 47  24  46  1   
 48  24  47  1   
 49  25  27  ar  
 50  25  28  1   
 51  26  27  ar  
 52  26  48  1   
 53  28  49  1   
 54  28  50  1   
@<TRIPOS>SUBSTRUCTURE
  1 ****  11 GROUP 4 **** **** 0

# MOE 2024.06 (io_trps.svl 2023.06)
