@<TRIPOS>MOLECULE
NONAME
52 55 1 0 0 
SMALL
USER_CHARGES


@<TRIPOS>ATOM
  1 S        1.5210     0.5870    -0.4390 S.3   1 <1>  -0.3320 
  2 C        0.9710     2.2890    -0.2260 C.ar  1 <1>   0.1020 
  3 C        0.1030    -0.5040     0.0180 C.3   1 <1>  -0.0100 
  4 C        1.8610     3.2870    -0.5070 C.ar  1 <1>  -0.1500 
  5 C       -0.3230     2.5910     0.2120 C.ar  1 <1>  -0.1500 
  6 C        1.5110     4.6370    -0.3670 C.ar  1 <1>   0.3100 
  7 C       -0.6920     3.9020     0.3570 C.ar  1 <1>  -0.1500 
  8 N        2.4510     5.5660    -0.6620 N.ar  1 <1>  -0.6200 
  9 C        0.2030     4.9580     0.0740 C.ar  1 <1>   0.0000 
 10 C        2.1200     6.8200    -0.5300 C.ar  1 <1>   0.4100 
 11 C       -0.1250     6.3260     0.2010 C.ar  1 <1>  -0.1430 
 12 N        3.0680     7.7860    -0.7980 N.pl3 1 <1>  -0.8380 
 13 C        0.8430     7.2320    -0.1060 C.ar  1 <1>  -0.1500 
 14 C       -1.5030     6.7820     0.6570 C.3   1 <1>  -0.0970 
 15 C        3.5490     8.5890     0.3770 C.3   1 <1>   0.2090 
 16 C        4.1350     7.4860    -1.8150 C.3   1 <1>   0.2090 
 17 C        4.9400     9.2270     0.1720 C.3   1 <1>   0.2090 
 18 C        5.4750     7.1350    -1.1420 C.3   1 <1>   0.2090 
 19 N        5.9780     8.2280    -0.2440 N.pl3 1 <1>  -0.8380 
 20 C        7.2840     8.6440    -0.3990 C.ar  1 <1>   0.4100 
 21 N        7.4570     9.8320    -0.9420 N.ar  1 <1>  -0.6200 
 22 C        8.3660     7.8510    -0.0220 C.ar  1 <1>  -0.1430 
 23 C        8.7080    10.1980    -1.1210 C.ar  1 <1>   0.4700 
 24 C        9.6250     8.3490    -0.2800 C.ar  1 <1>   0.1670 
 25 C        8.1480     6.4980     0.6620 C.3   1 <1>  -0.0970 
 26 N        9.8080     9.5310    -0.8300 N.ar  1 <1>  -0.6200 
 27 C       10.8990     7.5890     0.0460 C.3   1 <1>  -0.0970 
 28 H        0.4250    -1.5220    -0.1070 H     1 <1>   0.0800 
 29 H       -0.7150    -0.2790    -0.6430 H     1 <1>   0.0800 
 30 H       -0.1510    -0.3080     1.0440 H     1 <1>   0.0800 
 31 H        2.8540     3.0540    -0.8430 H     1 <1>   0.1500 
 32 H       -1.0210     1.8090     0.4330 H     1 <1>   0.1500 
 33 H       -1.6850     4.1340     0.6930 H     1 <1>   0.1500 
 34 H        0.6660     8.2870    -0.0450 H     1 <1>   0.1500 
 35 H       -1.7100     6.4050     1.6430 H     1 <1>   0.0800 
 36 H       -2.2540     6.4230    -0.0240 H     1 <1>   0.0800 
 37 H       -1.5610     7.8550     0.6860 H     1 <1>   0.0800 
 38 H        3.5950     7.9490     1.2410 H     1 <1>   0.0800 
 39 H        2.8370     9.3680     0.5810 H     1 <1>   0.0800 
 40 H        4.2730     8.3470    -2.4450 H     1 <1>   0.0800 
 41 H        3.8280     6.6720    -2.4470 H     1 <1>   0.0800 
 42 H        5.2550     9.6990     1.0860 H     1 <1>   0.0800 
 43 H        4.8600     9.9910    -0.5810 H     1 <1>   0.0800 
 44 H        6.2060     6.9320    -1.9050 H     1 <1>   0.0800 
 45 H        5.3390     6.2380    -0.5640 H     1 <1>   0.0800 
 46 H        8.8520    11.1670    -1.5650 H     1 <1>   0.1500 
 47 H        7.2340     6.5030     1.2290 H     1 <1>   0.0800 
 48 H        8.9430     6.2740     1.3470 H     1 <1>   0.0800 
 49 H        8.0890     5.7210    -0.0780 H     1 <1>   0.0800 
 50 H       10.7780     6.5380    -0.1380 H     1 <1>   0.0800 
 51 H       11.1590     7.7480     1.0760 H     1 <1>   0.0800 
 52 H       11.7070     7.9420    -0.5700 H     1 <1>   0.0800 
@<TRIPOS>BOND
  1   1   2  1   
  2   1   3  1   
  3   2   4  ar  
  4   2   5  ar  
  5   3  28  1   
  6   3  29  1   
  7   3  30  1   
  8   4   6  ar  
  9   4  31  1   
 10   5   7  ar  
 11   5  32  1   
 12   6   8  ar  
 13   6   9  ar  
 14   7   9  ar  
 15   7  33  1   
 16   8  10  ar  
 17   9  11  ar  
 18  10  12  1   
 19  10  13  ar  
 20  11  13  ar  
 21  11  14  1   
 22  12  15  1   
 23  12  16  1   
 24  13  34  1   
 25  14  35  1   
 26  14  36  1   
 27  14  37  1   
 28  15  17  1   
 29  15  38  1   
 30  15  39  1   
 31  16  18  1   
 32  16  40  1   
 33  16  41  1   
 34  17  19  1   
 35  17  42  1   
 36  17  43  1   
 37  18  19  1   
 38  18  44  1   
 39  18  45  1   
 40  19  20  1   
 41  20  21  ar  
 42  20  22  ar  
 43  21  23  ar  
 44  22  24  ar  
 45  22  25  1   
 46  23  26  ar  
 47  23  46  1   
 48  24  26  ar  
 49  24  27  1   
 50  25  47  1   
 51  25  48  1   
 52  25  49  1   
 53  27  50  1   
 54  27  51  1   
 55  27  52  1   
@<TRIPOS>SUBSTRUCTURE
  1 ****   8 GROUP 4 **** **** 0

# MOE 2024.06 (io_trps.svl 2023.06)
