@<TRIPOS>MOLECULE
NONAME
43 46 1 0 0 
SMALL
USER_CHARGES


@<TRIPOS>ATOM
  1 CL      -2.2790     3.1650    -2.3090 Cl    1 <1>  -0.1770 
  2 C       -1.9940     3.3040    -0.5900 C.ar  1 <1>   0.1770 
  3 C       -2.4540     2.3310     0.2820 C.ar  1 <1>   0.0860 
  4 C       -1.3150     4.4110    -0.1150 C.ar  1 <1>   0.1600 
  5 C       -3.1690     1.1610    -0.1610 C.2   1 <1>   0.5440 
  6 C       -2.1710     2.5660     1.6210 C.ar  1 <1>  -0.1500 
  7 N       -1.0550     4.6380     1.1650 N.ar  1 <1>  -0.6200 
  8 O       -2.5420     0.2460    -0.6560 O.2   1 <1>  -0.5700 
  9 N       -4.5360     1.0490    -0.0120 N.am  1 <1>  -0.6600 
 10 C       -1.4870     3.7060     2.0020 C.ar  1 <1>   0.1600 
 11 C       -5.4200     2.1180     0.5520 C.3   1 <1>   0.1400 
 12 C       -5.2810    -0.1650    -0.4520 C.3   1 <1>   0.1400 
 13 C       -6.4650     2.5720    -0.4850 C.3   1 <1>   0.1430 
 14 C       -6.3260     0.2220    -1.5050 C.3   1 <1>  -0.1600 
 15 C       -7.4250     3.5760     0.1240 C.ar  1 <1>   0.1670 
 16 C       -7.2520     1.3520    -1.0160 C.3   1 <1>  -0.1600 
 17 C       -5.8280     3.3940    -1.6380 C.3   1 <1>  -0.1600 
 18 N       -8.0240     3.4490     1.2890 N.ar  1 <1>  -0.6200 
 19 C       -7.6080     4.6550    -0.6880 C.ar  1 <1>  -0.1430 
 20 C       -6.8010     4.5420    -1.9570 C.3   1 <1>  -0.0170 
 21 C       -8.8230     4.4580     1.6050 C.ar  1 <1>   0.4770 
 22 C       -8.4580     5.6430    -0.2590 C.ar  1 <1>   0.1600 
 23 N       -9.0770     5.5520     0.8990 N.ar  1 <1>  -0.6200 
 24 C       -9.5380     4.3510     2.9300 C.3   1 <1>  -0.0970 
 25 H       -0.9730     5.1440    -0.8250 H     1 <1>   0.1500 
 26 H       -2.4860     1.8530     2.3610 H     1 <1>   0.1500 
 27 H       -1.2810     3.8630     3.0480 H     1 <1>   0.1500 
 28 H       -4.8510     2.9670     0.8830 H     1 <1>   0.0800 
 29 H       -5.9310     1.7180     1.4120 H     1 <1>   0.0800 
 30 H       -5.7680    -0.6030     0.4020 H     1 <1>   0.0800 
 31 H       -4.6110    -0.9000    -0.8640 H     1 <1>   0.0800 
 32 H       -6.9160    -0.6440    -1.7470 H     1 <1>   0.0800 
 33 H       -5.8130     0.5180    -2.4030 H     1 <1>   0.0800 
 34 H       -7.9110     1.6560    -1.8100 H     1 <1>   0.0800 
 35 H       -7.8650     0.9700    -0.2180 H     1 <1>   0.0800 
 36 H       -5.6080     2.8030    -2.5080 H     1 <1>   0.0800 
 37 H       -4.9100     3.8330    -1.2920 H     1 <1>   0.0800 
 38 H       -7.4490     4.2750    -2.7750 H     1 <1>   0.0800 
 39 H       -6.2780     5.4540    -2.1840 H     1 <1>   0.0800 
 40 H       -8.6350     6.5140    -0.8660 H     1 <1>   0.1500 
 41 H       -9.0230     3.6670     3.5790 H     1 <1>   0.0800 
 42 H      -10.5380     3.9960     2.7650 H     1 <1>   0.0800 
 43 H       -9.5800     5.3150     3.4020 H     1 <1>   0.0800 
@<TRIPOS>BOND
  1   1   2  1   
  2   2   3  ar  
  3   2   4  ar  
  4   3   5  1   
  5   3   6  ar  
  6   4   7  ar  
  7   4  25  1   
  8   5   8  2   
  9   5   9  am  
 10   6  10  ar  
 11   6  26  1   
 12   7  10  ar  
 13   9  11  1   
 14   9  12  1   
 15  10  27  1   
 16  11  13  1   
 17  11  28  1   
 18  11  29  1   
 19  12  14  1   
 20  12  30  1   
 21  12  31  1   
 22  13  15  1   
 23  13  16  1   
 24  13  17  1   
 25  14  16  1   
 26  14  32  1   
 27  14  33  1   
 28  15  18  ar  
 29  15  19  ar  
 30  16  34  1   
 31  16  35  1   
 32  17  20  1   
 33  17  36  1   
 34  17  37  1   
 35  18  21  ar  
 36  19  20  1   
 37  19  22  ar  
 38  20  38  1   
 39  20  39  1   
 40  21  23  ar  
 41  21  24  1   
 42  22  23  ar  
 43  22  40  1   
 44  24  41  1   
 45  24  42  1   
 46  24  43  1   
@<TRIPOS>SUBSTRUCTURE
  1 ****  11 GROUP 4 **** **** 0

# MOE 2024.06 (io_trps.svl 2023.06)
