@<TRIPOS>MOLECULE
NONAME
50 53 1 0 0 
SMALL
USER_CHARGES


@<TRIPOS>ATOM
  1 O        0.6870     0.2230     1.7380 O.3   1 <1>  -0.6800 
  2 C        1.3280    -0.1230     0.5550 C.3   1 <1>   0.2000 
  3 C        1.9600    -1.5000     0.7500 C.3   1 <1>  -0.0800 
  4 C        2.5370     0.8120     0.3730 C.3   1 <1>   0.3430 
  5 C        3.1880    -1.1330     1.5840 C.3   1 <1>   0.3430 
  6 C        2.3070    -2.1430    -0.6180 C.3   1 <1>   0.0210 
  7 N        3.7270     0.0670     0.9050 N.4   1 <1>  -0.9590 
  8 C        3.6810    -2.7890    -0.6690 C.2   1 <1>   0.1080 
  9 C        4.6500     0.8770     1.7380 C.3   1 <1>   0.4860 
 10 N        4.7820    -2.1030    -0.7690 N.2   1 <1>  -0.7070 
 11 C        3.9120    -4.1580    -0.6240 C.2   1 <1>  -0.1500 
 12 C        4.9850     2.1710     1.0180 C.ar  1 <1>  -0.1440 
 13 N        5.7560    -3.0420    -0.8210 N.pl3 1 <1>   0.3000 
 14 C        5.2500    -4.2880    -0.7210 C.2   1 <1>  -0.3320 
 15 C        5.8120     2.1750    -0.1330 C.ar  1 <1>   0.0000 
 16 C        4.4540     3.3410     1.4940 C.ar  1 <1>  -0.1500 
 17 C        6.0900    -5.5530    -0.7380 C.3   1 <1>  -0.0600 
 18 C        6.0370     3.4000    -0.8110 C.ar  1 <1>   0.3100 
 19 C        6.4350     1.0210    -0.6560 C.ar  1 <1>  -0.1500 
 20 C        4.6990     4.5500     0.8420 C.ar  1 <1>  -0.1500 
 21 N        6.7800     3.4710    -1.9490 N.ar  1 <1>  -0.6200 
 22 C        5.4680     4.5840    -0.2890 C.ar  1 <1>  -0.1440 
 23 C        7.1800     1.1340    -1.7890 C.ar  1 <1>  -0.1500 
 24 C        7.3180     2.3840    -2.4010 C.ar  1 <1>   0.1600 
 25 C        5.7130     5.9170    -0.9890 C.3   1 <1>  -0.0970 
 26 H       -0.1940    -0.2020     1.8050 H     1 <1>   0.4000 
 27 H        0.6210    -0.0570    -0.2550 H     1 <1>   0.0800 
 28 H        1.3200    -2.1660     1.3020 H     1 <1>   0.0800 
 29 H        2.3700     1.7310     0.9090 H     1 <1>   0.0800 
 30 H        2.6900     1.0330    -0.6710 H     1 <1>   0.0800 
 31 H        3.9120    -1.9330     1.6210 H     1 <1>   0.0800 
 32 H        2.8760    -0.8810     2.5850 H     1 <1>   0.0800 
 33 H        2.2820    -1.4100    -1.4050 H     1 <1>   0.0800 
 34 H        1.5630    -2.8810    -0.8620 H     1 <1>   0.0800 
 35 H        4.2550    -0.3120     0.0910 H     1 <1>   0.4500 
 36 H        4.1770     1.1080     2.6780 H     1 <1>   0.0800 
 37 H        5.5530     0.3240     1.9400 H     1 <1>   0.0800 
 38 H        3.1690    -4.9330    -0.5380 H     1 <1>   0.1500 
 39 H        6.7520    -2.8150    -0.9370 H     1 <1>   0.2700 
 40 H        3.8330     3.3650     2.3750 H     1 <1>   0.1500 
 41 H        5.4580    -6.4190    -0.6520 H     1 <1>   0.0800 
 42 H        6.7840    -5.5550     0.0830 H     1 <1>   0.0800 
 43 H        6.6390    -5.6250    -1.6610 H     1 <1>   0.0800 
 44 H        6.3360     0.0670    -0.1760 H     1 <1>   0.1500 
 45 H        4.2680     5.4510     1.2460 H     1 <1>   0.1500 
 46 H        7.6700     0.2860    -2.2320 H     1 <1>   0.1500 
 47 H        7.9080     2.4450    -3.3000 H     1 <1>   0.1500 
 48 H        5.2260     6.7260    -0.4760 H     1 <1>   0.0800 
 49 H        5.3390     5.8750    -1.9970 H     1 <1>   0.0800 
 50 H        6.7680     6.1210    -1.0250 H     1 <1>   0.0800 
@<TRIPOS>BOND
  1   1   2  1   
  2   1  26  1   
  3   2   3  1   
  4   2   4  1   
  5   2  27  1   
  6   3   5  1   
  7   3   6  1   
  8   3  28  1   
  9   4   7  1   
 10   4  29  1   
 11   4  30  1   
 12   5   7  1   
 13   5  31  1   
 14   5  32  1   
 15   6   8  1   
 16   6  33  1   
 17   6  34  1   
 18   7   9  1   
 19   7  35  1   
 20   8  10  2   
 21   8  11  1   
 22   9  12  1   
 23   9  36  1   
 24   9  37  1   
 25  10  13  1   
 26  11  14  2   
 27  11  38  1   
 28  12  15  ar  
 29  12  16  ar  
 30  13  14  1   
 31  13  39  1   
 32  14  17  1   
 33  15  18  ar  
 34  15  19  ar  
 35  16  20  ar  
 36  16  40  1   
 37  17  41  1   
 38  17  42  1   
 39  17  43  1   
 40  18  21  ar  
 41  18  22  ar  
 42  19  23  ar  
 43  19  44  1   
 44  20  22  ar  
 45  20  45  1   
 46  21  24  ar  
 47  22  25  1   
 48  23  24  ar  
 49  23  46  1   
 50  24  47  1   
 51  25  48  1   
 52  25  49  1   
 53  25  50  1   
@<TRIPOS>SUBSTRUCTURE
  1 ****   7 GROUP 4 **** **** 0

# MOE 2024.06 (io_trps.svl 2023.06)
