@<TRIPOS>MOLECULE
NONAME
45 46 1 0 0 
SMALL
USER_CHARGES


@<TRIPOS>ATOM
  1 S       -0.6820     0.4200     1.3190 S.o2  1 <1>   1.4470 
  2 O       -1.1700     1.5290     2.1150 O.2   1 <1>  -0.6500 
  3 O       -0.7090    -0.8780     1.9560 O.2   1 <1>  -0.6500 
  4 N       -1.7100     0.3070    -0.0280 N.am  1 <1>  -0.8490 
  5 C        0.9530     0.8670     0.5740 C.ar  1 <1>  -0.0090 
  6 C       -1.3500    -0.7570    -0.9890 C.3   1 <1>   0.1960 
  7 C       -3.1500     0.3780     0.2990 C.3   1 <1>   0.1960 
  8 C        2.0290    -0.0430     0.5140 C.ar  1 <1>  -0.1440 
  9 C        1.1470     2.1520     0.0280 C.ar  1 <1>  -0.1440 
 10 C       -1.8760    -2.1690    -0.6380 C.3   1 <1>   0.2000 
 11 C       -3.9680    -0.8330    -0.1790 C.3   1 <1>  -0.1600 
 12 C        3.2500     0.3330    -0.0450 C.ar  1 <1>  -0.1440 
 13 C        1.8890    -1.4680     1.0620 C.3   1 <1>  -0.0960 
 14 C        2.3760     2.5200    -0.5150 C.ar  1 <1>  -0.1440 
 15 C        0.0140     3.1880     0.0260 C.3   1 <1>  -0.0970 
 16 O       -2.0190    -2.8300    -1.8450 O.3   1 <1>  -0.6800 
 17 C       -3.2170    -2.1390     0.1280 C.3   1 <1>  -0.1860 
 18 C        3.4050     1.6060    -0.5480 C.ar  1 <1>  -0.1500 
 19 C        4.4620    -0.5900    -0.1380 C.3   1 <1>  -0.0970 
 20 C        2.6640     3.9060    -1.0850 C.3   1 <1>  -0.0970 
 21 C       -4.0980    -3.3700    -0.0210 C.2   1 <1>   0.9060 
 22 O       -4.7380    -3.7520     0.9610 O.co2 1 <1>  -0.9000 
 23 O       -4.1730    -3.9440    -1.1170 O.co2 1 <1>  -0.9000 
 24 H       -1.7760    -0.4770    -1.9380 H     1 <1>   0.0800 
 25 H       -0.2840    -0.7980    -1.1240 H     1 <1>   0.0800 
 26 H       -3.2750     0.4540     1.3670 H     1 <1>   0.0800 
 27 H       -3.5590     1.2750    -0.1330 H     1 <1>   0.0800 
 28 H       -1.1500    -2.7160    -0.0630 H     1 <1>   0.0800 
 29 H       -4.9170    -0.8380     0.3280 H     1 <1>   0.0800 
 30 H       -4.1640    -0.7620    -1.2350 H     1 <1>   0.0800 
 31 H        2.7470    -2.0880     0.9010 H     1 <1>   0.0800 
 32 H        1.0660    -1.9700     0.5880 H     1 <1>   0.0800 
 33 H        1.7230    -1.4370     2.1240 H     1 <1>   0.0800 
 34 H        0.1730     3.9870    -0.6690 H     1 <1>   0.0800 
 35 H       -0.0870     3.6180     1.0070 H     1 <1>   0.0800 
 36 H       -0.9220     2.7470    -0.2560 H     1 <1>   0.0800 
 37 H       -2.8490    -3.4050    -1.7590 H     1 <1>   0.4000 
 38 H       -2.9670    -2.1060     1.1720 H     1 <1>   0.0800 
 39 H        4.3500     1.8940    -0.9740 H     1 <1>   0.1500 
 40 H        5.3060    -0.0890    -0.5750 H     1 <1>   0.0800 
 41 H        4.2310    -1.4420    -0.7520 H     1 <1>   0.0800 
 42 H        4.7500    -0.9220     0.8430 H     1 <1>   0.0800 
 43 H        3.7060     4.0230    -1.3210 H     1 <1>   0.0800 
 44 H        2.4040     4.6640    -0.3680 H     1 <1>   0.0800 
 45 H        2.0990     4.0580    -1.9870 H     1 <1>   0.0800 
@<TRIPOS>BOND
  1   1   2  2   
  2   1   3  2   
  3   1   4  am  
  4   1   5  1   
  5   4   6  1   
  6   4   7  1   
  7   5   8  ar  
  8   5   9  ar  
  9   6  10  1   
 10   6  24  1   
 11   6  25  1   
 12   7  11  1   
 13   7  26  1   
 14   7  27  1   
 15   8  12  ar  
 16   8  13  1   
 17   9  14  ar  
 18   9  15  1   
 19  10  16  1   
 20  10  17  1   
 21  10  28  1   
 22  11  17  1   
 23  11  29  1   
 24  11  30  1   
 25  12  18  ar  
 26  12  19  1   
 27  13  31  1   
 28  13  32  1   
 29  13  33  1   
 30  14  18  ar  
 31  14  20  1   
 32  15  34  1   
 33  15  35  1   
 34  15  36  1   
 35  16  37  1   
 36  17  21  1   
 37  17  38  1   
 38  18  39  1   
 39  19  40  1   
 40  19  41  1   
 41  19  42  1   
 42  20  43  1   
 43  20  44  1   
 44  20  45  1   
 45  21  22  ar  
 46  21  23  ar  
@<TRIPOS>SUBSTRUCTURE
  1 ****   4 GROUP 4 **** **** 0

# MOE 2024.06 (io_trps.svl 2023.06)
