@<TRIPOS>MOLECULE
NONAME
40 41 1 0 0 
SMALL
USER_CHARGES


@<TRIPOS>ATOM
  1 O       -1.6000    -0.9320     1.5080 O.3   1 <1>  -0.5600 
  2 C       -2.4440    -1.9760     1.9210 C.3   1 <1>   0.1200 
  3 C       -1.6370    -0.6760     0.1300 C.3   1 <1>   0.1200 
  4 C       -2.1430    -3.2830     1.1520 C.3   1 <1>   0.3430 
  5 C       -1.2390    -1.9290    -0.6860 C.3   1 <1>   0.3430 
  6 N       -0.9890    -3.1120     0.2030 N.4   1 <1>  -0.9590 
  7 C       -0.7130    -4.3630    -0.5790 C.3   1 <1>   0.3430 
  8 C       -0.2110    -5.5380     0.2850 C.3   1 <1>   0.2090 
  9 N       -0.8350    -6.8160    -0.1640 N.pl3 1 <1>  -0.8380 
 10 C       -2.2130    -6.9750    -0.1500 C.ar  1 <1>   0.4100 
 11 C        0.0200    -8.0230     0.0480 C.3   1 <1>   0.1290 
 12 N       -2.9150    -6.1720     0.6460 N.ar  1 <1>  -0.6200 
 13 C       -2.8120    -7.9400    -0.9560 C.ar  1 <1>  -0.1500 
 14 C       -4.2240    -6.3800     0.6630 C.ar  1 <1>   0.1600 
 15 C       -4.1730    -8.1220    -0.9350 C.ar  1 <1>  -0.1500 
 16 C       -4.9250    -7.3190    -0.0900 C.ar  1 <1>   0.0280 
 17 C       -6.3640    -7.4360     0.0140 C.2   1 <1>  -0.1780 
 18 C       -7.1970    -8.1380    -0.7710 C.2   1 <1>  -0.3000 
 19 H       -3.4660    -1.6740     1.7720 H     1 <1>   0.0800 
 20 H       -2.2880    -2.1250     2.9750 H     1 <1>   0.0800 
 21 H       -0.9530     0.1310    -0.0720 H     1 <1>   0.0800 
 22 H       -2.6280    -0.3490    -0.1330 H     1 <1>   0.0800 
 23 H       -3.0230    -3.5790     0.6050 H     1 <1>   0.0800 
 24 H       -1.9360    -4.0700     1.8590 H     1 <1>   0.0800 
 25 H       -0.3550    -1.7080    -1.2610 H     1 <1>   0.0800 
 26 H       -2.0300    -2.1550    -1.3820 H     1 <1>   0.0800 
 27 H       -0.1820    -2.8570     0.7900 H     1 <1>   0.4500 
 28 H        0.0210    -4.1650    -1.3400 H     1 <1>   0.0800 
 29 H       -1.6220    -4.6730    -1.0680 H     1 <1>   0.0800 
 30 H       -0.4490    -5.3910     1.3240 H     1 <1>   0.0800 
 31 H        0.8580    -5.6070     0.1900 H     1 <1>   0.0800 
 32 H        0.7160    -8.1230    -0.7670 H     1 <1>   0.0800 
 33 H       -0.5810    -8.9150     0.1020 H     1 <1>   0.0800 
 34 H        0.5670    -7.9350     0.9710 H     1 <1>   0.0800 
 35 H       -2.1970    -8.5400    -1.5990 H     1 <1>   0.1500 
 36 H       -4.7990    -5.7580     1.3250 H     1 <1>   0.1500 
 37 H       -4.6370    -8.8700    -1.5520 H     1 <1>   0.1500 
 38 H       -6.7870    -6.8780     0.8330 H     1 <1>   0.1500 
 39 H       -8.2620    -8.1740    -0.6240 H     1 <1>   0.1500 
 40 H       -6.8940    -8.7270    -1.6180 H     1 <1>   0.1500 
@<TRIPOS>BOND
  1   1   2  1   
  2   1   3  1   
  3   2   4  1   
  4   2  19  1   
  5   2  20  1   
  6   3   5  1   
  7   3  21  1   
  8   3  22  1   
  9   4   6  1   
 10   4  23  1   
 11   4  24  1   
 12   5   6  1   
 13   5  25  1   
 14   5  26  1   
 15   6   7  1   
 16   6  27  1   
 17   7   8  1   
 18   7  28  1   
 19   7  29  1   
 20   8   9  1   
 21   8  30  1   
 22   8  31  1   
 23   9  10  1   
 24   9  11  1   
 25  10  12  ar  
 26  10  13  ar  
 27  11  32  1   
 28  11  33  1   
 29  11  34  1   
 30  12  14  ar  
 31  13  15  ar  
 32  13  35  1   
 33  14  16  ar  
 34  14  36  1   
 35  15  16  ar  
 36  15  37  1   
 37  16  17  1   
 38  17  18  2   
 39  17  38  1   
 40  18  39  1   
 41  18  40  1   
@<TRIPOS>SUBSTRUCTURE
  1 ****  12 GROUP 4 **** **** 0

# MOE 2024.06 (io_trps.svl 2023.06)
