@<TRIPOS>MOLECULE
NONAME
56 58 1 0 0 
SMALL
USER_CHARGES


@<TRIPOS>ATOM
  1 O       -0.9920    -0.1550     1.0520 O.2   1 <1>  -0.5700 
  2 C       -1.8870     0.5690     0.6600 C.2   1 <1>   0.7160 
  3 N       -3.1490     0.0590     0.6840 N.am  1 <1>  -0.7300 
  4 C       -1.6450     1.8780     0.1370 C.2   1 <1>  -0.0860 
  5 C       -3.5820    -1.1550     1.4360 C.3   1 <1>   0.1400 
  6 C       -2.6220     2.8360    -0.1650 C.2   1 <1>   0.3720 
  7 C       -0.4880     2.4910    -0.2380 C.2   1 <1>   0.0870 
  8 C       -3.8320    -2.4240     0.5700 C.3   1 <1>   0.4230 
  9 N       -2.0980     3.8940    -0.6740 N.2   1 <1>  -0.4100 
 10 N       -3.9990     2.6920     0.0590 N.pl3 1 <1>  -0.8210 
 11 O       -0.8130     3.6670    -0.7100 O.3   1 <1>  -0.0190 
 12 C        0.8940     2.0880    -0.2290 C.ar  1 <1>   0.0530 
 13 N       -2.6290    -2.9800    -0.1550 N.4   1 <1>  -0.9590 
 14 C       -5.0030    -2.2110    -0.4080 C.3   1 <1>  -0.1600 
 15 C       -4.4380     3.4120     1.2970 C.3   1 <1>   0.2090 
 16 C       -4.8440     3.1610    -1.0890 C.3   1 <1>   0.2090 
 17 C        1.4970     1.5360     0.9010 C.ar  1 <1>  -0.1500 
 18 C        1.6830     2.2480    -1.3680 C.ar  1 <1>  -0.1500 
 19 C       -1.5030    -3.2960     0.7800 C.3   1 <1>   0.2630 
 20 C       -2.1140    -2.1320    -1.2780 C.3   1 <1>   0.2630 
 21 C       -5.3820    -3.4640    -1.2160 C.3   1 <1>  -0.2400 
 22 C       -5.9490     3.2360     1.5320 C.3   1 <1>   0.1200 
 23 C       -6.3410     2.9860    -0.7770 C.3   1 <1>   0.1200 
 24 C        2.8230     1.1470     0.8910 C.ar  1 <1>  -0.1500 
 25 C        3.0100     1.8610    -1.3850 C.ar  1 <1>  -0.1500 
 26 O       -6.6830     3.6430     0.4120 O.3   1 <1>  -0.5600 
 27 C        3.5830     1.3060    -0.2540 C.ar  1 <1>  -0.1500 
 28 H       -3.8750     0.7570     0.4430 H     1 <1>   0.3700 
 29 H       -4.4950    -0.9140     1.9530 H     1 <1>   0.0800 
 30 H       -2.8550    -1.3830     2.1960 H     1 <1>   0.0800 
 31 H       -4.1560    -3.1850     1.2610 H     1 <1>   0.0800 
 32 H       -2.9470    -3.8640    -0.5760 H     1 <1>   0.4500 
 33 H       -4.7910    -1.3950    -1.0770 H     1 <1>   0.0800 
 34 H       -5.8660    -1.9180     0.1660 H     1 <1>   0.0800 
 35 H       -4.2160     4.4630     1.2060 H     1 <1>   0.0800 
 36 H       -3.8970     3.0330     2.1460 H     1 <1>   0.0800 
 37 H       -4.5920     2.6000    -1.9730 H     1 <1>   0.0800 
 38 H       -4.6500     4.2020    -1.2910 H     1 <1>   0.0800 
 39 H        0.9200     1.4130     1.8000 H     1 <1>   0.1500 
 40 H        1.2470     2.6830    -2.2500 H     1 <1>   0.1500 
 41 H       -1.1220    -2.3950     1.2320 H     1 <1>   0.0800 
 42 H       -0.6960    -3.7720     0.2460 H     1 <1>   0.0800 
 43 H       -1.8350    -3.9600     1.5610 H     1 <1>   0.0800 
 44 H       -1.6710    -1.2290    -0.9010 H     1 <1>   0.0800 
 45 H       -2.9100    -1.8720    -1.9560 H     1 <1>   0.0800 
 46 H       -1.3580    -2.6670    -1.8300 H     1 <1>   0.0800 
 47 H       -4.6050    -3.7430    -1.9060 H     1 <1>   0.0800 
 48 H       -6.2720    -3.2670    -1.7910 H     1 <1>   0.0800 
 49 H       -5.5880    -4.2940    -0.5620 H     1 <1>   0.0800 
 50 H       -6.2670     3.8380     2.3650 H     1 <1>   0.0800 
 51 H       -6.1830     2.2070     1.7400 H     1 <1>   0.0800 
 52 H       -6.5900     1.9450    -0.6790 H     1 <1>   0.0800 
 53 H       -6.9350     3.4110    -1.5660 H     1 <1>   0.0800 
 54 H        3.2670     0.7210     1.7740 H     1 <1>   0.1500 
 55 H        3.5990     1.9920    -2.2760 H     1 <1>   0.1500 
 56 H        4.6160     1.0040    -0.2640 H     1 <1>   0.1500 
@<TRIPOS>BOND
  1   1   2  2   
  2   2   3  am  
  3   2   4  1   
  4   3   5  1   
  5   3  28  1   
  6   4   6  1   
  7   4   7  2   
  8   5   8  1   
  9   5  29  1   
 10   5  30  1   
 11   6   9  2   
 12   6  10  1   
 13   7  11  1   
 14   7  12  1   
 15   8  13  1   
 16   8  14  1   
 17   8  31  1   
 18   9  11  1   
 19  10  15  1   
 20  10  16  1   
 21  12  17  ar  
 22  12  18  ar  
 23  13  19  1   
 24  13  20  1   
 25  13  32  1   
 26  14  21  1   
 27  14  33  1   
 28  14  34  1   
 29  15  22  1   
 30  15  35  1   
 31  15  36  1   
 32  16  23  1   
 33  16  37  1   
 34  16  38  1   
 35  17  24  ar  
 36  17  39  1   
 37  18  25  ar  
 38  18  40  1   
 39  19  41  1   
 40  19  42  1   
 41  19  43  1   
 42  20  44  1   
 43  20  45  1   
 44  20  46  1   
 45  21  47  1   
 46  21  48  1   
 47  21  49  1   
 48  22  26  1   
 49  22  50  1   
 50  22  51  1   
 51  23  26  1   
 52  23  52  1   
 53  23  53  1   
 54  24  27  ar  
 55  24  54  1   
 56  25  27  ar  
 57  25  55  1   
 58  27  56  1   
@<TRIPOS>SUBSTRUCTURE
  1 ****   2 GROUP 4 **** **** 0

# MOE 2024.06 (io_trps.svl 2023.06)
