@<TRIPOS>MOLECULE
NONAME
52 54 1 0 0 
SMALL
USER_CHARGES


@<TRIPOS>ATOM
  1 O       -0.5690     0.1040    -0.1300 O.2   1 <1>  -0.5700 
  2 C       -1.4670     0.7810     0.3440 C.2   1 <1>   0.5440 
  3 N       -2.6290     0.1500     0.7380 N.am  1 <1>  -0.6600 
  4 C       -1.3160     2.2140     0.4630 C.ar  1 <1>   0.0860 
  5 C       -2.7400    -1.3420     0.7660 C.3   1 <1>   0.1400 
  6 C       -3.9650     0.8100     0.6240 C.3   1 <1>   0.1400 
  7 C       -0.9510     3.0040    -0.6410 C.ar  1 <1>   0.1000 
  8 C       -1.5490     2.8470     1.6860 C.ar  1 <1>  -0.1500 
  9 C       -3.5950    -1.8450    -0.4090 C.3   1 <1>   0.3440 
 10 C       -4.7630     0.2100    -0.5580 C.3   1 <1>   0.2000 
 11 N       -0.6830     2.4350    -1.8750 N.pl3 1 <1>  -0.9000 
 12 C       -0.8530     4.3850    -0.5030 C.ar  1 <1>  -0.1500 
 13 C       -1.4400     4.2180     1.8040 C.ar  1 <1>   0.0830 
 14 O       -4.8360    -1.1870    -0.4110 O.3   1 <1>  -0.5600 
 15 C       -3.8110    -3.3520    -0.3110 C.ar  1 <1>  -0.1430 
 16 C       -6.2020     0.7840    -0.7300 C.3   1 <1>   0.0000 
 17 C       -1.0970     4.9930     0.7110 C.ar  1 <1>  -0.1500 
 18 O       -1.6670     4.8210     2.9850 O.3   1 <1>  -0.5330 
 19 C       -4.8940    -3.8900     0.3720 C.ar  1 <1>  -0.1500 
 20 C       -2.8980    -4.2120    -0.9060 C.ar  1 <1>  -0.1500 
 21 C       -7.0980     0.4840     0.4860 C.3   1 <1>  -0.2400 
 22 C       -6.8570     0.1600    -1.9770 C.3   1 <1>  -0.2400 
 23 C       -6.1620     2.3090    -0.9420 C.3   1 <1>  -0.2400 
 24 C       -5.0610    -5.2610     0.4600 C.ar  1 <1>  -0.1500 
 25 C       -3.0630    -5.5840    -0.8190 C.ar  1 <1>  -0.1500 
 26 C       -4.1450    -6.1090    -0.1350 C.ar  1 <1>  -0.1500 
 27 H       -1.7660    -1.7980     0.7190 H     1 <1>   0.0800 
 28 H       -3.1980    -1.6480     1.6900 H     1 <1>   0.0800 
 29 H       -4.5050     0.6630     1.5420 H     1 <1>   0.0800 
 30 H       -3.8470     1.8660     0.4720 H     1 <1>   0.0800 
 31 H       -1.8150     2.2460     2.5360 H     1 <1>   0.1500 
 32 H       -3.0990    -1.6180    -1.3370 H     1 <1>   0.0800 
 33 H       -4.2180     0.4100    -1.4650 H     1 <1>   0.0800 
 34 H       -0.4480     1.4290    -1.8290 H     1 <1>   0.4000 
 35 H       -0.0410     2.9380    -2.4920 H     1 <1>   0.4000 
 36 H       -0.5860     4.9820    -1.3550 H     1 <1>   0.1500 
 37 H       -1.0210     6.0600     0.8220 H     1 <1>   0.1500 
 38 H       -1.8450     4.1920     3.7070 H     1 <1>   0.4500 
 39 H       -5.6140    -3.2380     0.8360 H     1 <1>   0.1500 
 40 H       -2.0510    -3.8170    -1.4400 H     1 <1>   0.1500 
 41 H       -8.1000     0.8350     0.3120 H     1 <1>   0.0800 
 42 H       -6.7290     0.9640     1.3730 H     1 <1>   0.0800 
 43 H       -7.1420    -0.5760     0.6660 H     1 <1>   0.0800 
 44 H       -7.8410     0.5640    -2.1370 H     1 <1>   0.0800 
 45 H       -6.9500    -0.9060    -1.8610 H     1 <1>   0.0800 
 46 H       -6.2630     0.3520    -2.8520 H     1 <1>   0.0800 
 47 H       -7.1460     2.6830    -1.1670 H     1 <1>   0.0800 
 48 H       -5.5120     2.5600    -1.7620 H     1 <1>   0.0800 
 49 H       -5.8140     2.8190    -0.0620 H     1 <1>   0.0800 
 50 H       -5.9040    -5.6650     0.9910 H     1 <1>   0.1500 
 51 H       -2.3500    -6.2410    -1.2840 H     1 <1>   0.1500 
 52 H       -4.2740    -7.1750    -0.0680 H     1 <1>   0.1500 
@<TRIPOS>BOND
  1   1   2  2   
  2   2   3  am  
  3   2   4  1   
  4   3   5  1   
  5   3   6  1   
  6   4   7  ar  
  7   4   8  ar  
  8   5   9  1   
  9   5  27  1   
 10   5  28  1   
 11   6  10  1   
 12   6  29  1   
 13   6  30  1   
 14   7  11  1   
 15   7  12  ar  
 16   8  13  ar  
 17   8  31  1   
 18   9  14  1   
 19   9  15  1   
 20   9  32  1   
 21  10  14  1   
 22  10  16  1   
 23  10  33  1   
 24  11  34  1   
 25  11  35  1   
 26  12  17  ar  
 27  12  36  1   
 28  13  17  ar  
 29  13  18  1   
 30  15  19  ar  
 31  15  20  ar  
 32  16  21  1   
 33  16  22  1   
 34  16  23  1   
 35  17  37  1   
 36  18  38  1   
 37  19  24  ar  
 38  19  39  1   
 39  20  25  ar  
 40  20  40  1   
 41  21  41  1   
 42  21  42  1   
 43  21  43  1   
 44  22  44  1   
 45  22  45  1   
 46  22  46  1   
 47  23  47  1   
 48  23  48  1   
 49  23  49  1   
 50  24  26  ar  
 51  24  50  1   
 52  25  26  ar  
 53  25  51  1   
 54  26  52  1   
@<TRIPOS>SUBSTRUCTURE
  1 ****   3 GROUP 4 **** **** 0

# MOE 2024.06 (io_trps.svl 2023.06)
