@<TRIPOS>MOLECULE
NONAME
52 54 1 0 0 
SMALL
USER_CHARGES


@<TRIPOS>ATOM
  1 S        0.8830     1.2880    -2.1080 S.o2  1 <1>   1.4470 
  2 O        0.7180     2.4830    -1.3180 O.2   1 <1>  -0.6500 
  3 O       -0.0910     0.9260    -3.1070 O.2   1 <1>  -0.6500 
  4 N        2.2220     1.6210    -3.0190 N.am  1 <1>  -0.9780 
  5 C        1.3740    -0.1320    -1.0920 C.ar  1 <1>  -0.0090 
  6 C        1.3470    -1.4210    -1.6020 C.ar  1 <1>  -0.1500 
  7 C        1.8140     0.0350     0.2160 C.ar  1 <1>  -0.1500 
  8 C        1.7320    -2.5350    -0.8590 C.ar  1 <1>   0.0860 
  9 C        2.2080    -1.0460     0.9820 C.ar  1 <1>  -0.1500 
 10 C        2.1730    -2.3330     0.4540 C.ar  1 <1>   0.0830 
 11 C        1.6740    -3.8440    -1.4710 C.2   1 <1>   0.5440 
 12 O        2.5550    -3.4170     1.1700 O.3   1 <1>  -0.3630 
 13 O        2.4470    -4.1160    -2.3720 O.2   1 <1>  -0.5700 
 14 N        0.7280    -4.7740    -1.1120 N.am  1 <1>  -0.6600 
 15 C        3.0960    -3.3270     2.4690 C.3   1 <1>   0.0400 
 16 C       -0.2740    -4.6230    -0.0360 C.3   1 <1>   0.1400 
 17 C        0.7250    -6.1560    -1.6350 C.3   1 <1>   0.1400 
 18 C       -0.5070    -6.0510     0.4710 C.3   1 <1>  -0.0800 
 19 C       -0.2790    -6.9310    -0.7730 C.3   1 <1>  -0.0800 
 20 C       -1.8480    -6.3000     1.2260 C.3   1 <1>   0.2800 
 21 C       -1.6030    -7.1970    -1.5060 C.3   1 <1>  -0.1600 
 22 O       -2.8100    -5.4010     0.8040 O.3   1 <1>  -0.6800 
 23 C       -2.3870    -7.7050     0.8980 C.3   1 <1>  -0.1600 
 24 C       -1.7110    -6.1280     2.7550 C.3   1 <1>  -0.1600 
 25 C       -2.6090    -7.9460    -0.6110 C.3   1 <1>  -0.1600 
 26 C       -1.2410    -4.7410     3.2300 C.3   1 <1>  -0.2400 
 27 H        2.2780     2.6360    -2.9920 H     1 <1>   0.4200 
 28 H        1.9320     1.3780    -3.9630 H     1 <1>   0.4200 
 29 H        1.0190    -1.5800    -2.6170 H     1 <1>   0.1500 
 30 H        1.8500     1.0270     0.6370 H     1 <1>   0.1500 
 31 H        2.5400    -0.8650     1.9870 H     1 <1>   0.1500 
 32 H        3.3500    -4.3210     2.7930 H     1 <1>   0.0800 
 33 H        2.3580    -2.9050     3.1280 H     1 <1>   0.0800 
 34 H        3.9810    -2.7170     2.4370 H     1 <1>   0.0800 
 35 H        0.0720    -3.9790     0.7490 H     1 <1>   0.0800 
 36 H       -1.1650    -4.2070    -0.4710 H     1 <1>   0.0800 
 37 H        0.4500    -6.1560    -2.6760 H     1 <1>   0.0800 
 38 H        1.7130    -6.5700    -1.5310 H     1 <1>   0.0800 
 39 H        0.3000    -6.2770     1.1440 H     1 <1>   0.0800 
 40 H        0.1530    -7.8760    -0.4930 H     1 <1>   0.0800 
 41 H       -2.0320    -6.2520    -1.7960 H     1 <1>   0.0800 
 42 H       -1.4270    -7.7630    -2.4050 H     1 <1>   0.0800 
 43 H       -3.6640    -5.6320     1.2090 H     1 <1>   0.4000 
 44 H       -1.6670    -8.4230     1.2490 H     1 <1>   0.0800 
 45 H       -3.3000    -7.8940     1.4330 H     1 <1>   0.0800 
 46 H       -2.6580    -6.3450     3.2150 H     1 <1>   0.0800 
 47 H       -1.0140    -6.8620     3.1210 H     1 <1>   0.0800 
 48 H       -2.5430    -9.0030    -0.8030 H     1 <1>   0.0800 
 49 H       -3.6020    -7.6310    -0.8820 H     1 <1>   0.0800 
 50 H       -1.8760    -3.9670     2.8360 H     1 <1>   0.0800 
 51 H       -0.2290    -4.5530     2.9210 H     1 <1>   0.0800 
 52 H       -1.2760    -4.6940     4.3040 H     1 <1>   0.0800 
@<TRIPOS>BOND
  1   1   2  2   
  2   1   3  2   
  3   1   4  am  
  4   1   5  1   
  5   4  27  1   
  6   4  28  1   
  7   5   6  ar  
  8   5   7  ar  
  9   6   8  ar  
 10   6  29  1   
 11   7   9  ar  
 12   7  30  1   
 13   8  10  ar  
 14   8  11  1   
 15   9  10  ar  
 16   9  31  1   
 17  10  12  1   
 18  11  13  2   
 19  11  14  am  
 20  12  15  1   
 21  14  16  1   
 22  14  17  1   
 23  15  32  1   
 24  15  33  1   
 25  15  34  1   
 26  16  18  1   
 27  16  35  1   
 28  16  36  1   
 29  17  19  1   
 30  17  37  1   
 31  17  38  1   
 32  18  19  1   
 33  18  20  1   
 34  18  39  1   
 35  19  21  1   
 36  19  40  1   
 37  20  22  1   
 38  20  23  1   
 39  20  24  1   
 40  21  25  1   
 41  21  41  1   
 42  21  42  1   
 43  22  43  1   
 44  23  25  1   
 45  23  44  1   
 46  23  45  1   
 47  24  26  1   
 48  24  46  1   
 49  24  47  1   
 50  25  48  1   
 51  25  49  1   
 52  26  50  1   
 53  26  51  1   
 54  26  52  1   
@<TRIPOS>SUBSTRUCTURE
  1 ****  16 GROUP 4 **** **** 0

# MOE 2024.06 (io_trps.svl 2023.06)
