@<TRIPOS>MOLECULE
NONAME
45 47 1 0 0 
SMALL
USER_CHARGES


@<TRIPOS>ATOM
  1 F       -0.0810     0.8800     0.2980 F     1 <1>  -0.1900 
  2 C       -1.2390     1.4490     0.1120 C.ar  1 <1>   0.1900 
  3 C       -1.3190     2.8150     0.0580 C.ar  1 <1>  -0.1500 
  4 C       -2.3550     0.6290    -0.0240 C.ar  1 <1>  -0.1500 
  5 C       -2.5660     3.4420    -0.1430 C.ar  1 <1>   0.0000 
  6 C       -3.5790     1.2170    -0.2200 C.ar  1 <1>  -0.1500 
  7 C       -3.7040     2.6170    -0.2820 C.ar  1 <1>   0.3610 
  8 C       -2.7290     4.8600    -0.2100 C.ar  1 <1>   0.1000 
  9 N       -4.9360     3.2020    -0.4790 N.ar  1 <1>  -0.1790 
 10 N       -1.6650     5.6760    -0.0850 N.pl3 1 <1>  -0.8690 
 11 C       -4.0140     5.3630    -0.4130 C.ar  1 <1>  -0.1500 
 12 C       -5.1000     4.5350    -0.5450 C.ar  1 <1>   0.2180 
 13 C       -1.5580     7.1540    -0.1080 C.3   1 <1>   0.3890 
 14 C       -6.5010     5.0830    -0.7670 C.3   1 <1>  -0.0970 
 15 C       -0.1350     7.5550     0.2660 C.2   1 <1>   0.0060 
 16 N        0.8920     6.7790     0.1510 N.2   1 <1>  -0.3380 
 17 N        0.2130     8.7550     0.7510 N.pl3 1 <1>   0.0480 
 18 N        1.9550     7.4670     0.5650 N.2   1 <1>  -0.3380 
 19 C        1.5310     8.6310     0.9140 C.2   1 <1>   0.0360 
 20 C       -0.6100     9.9410     1.0740 C.3   1 <1>   0.0960 
 21 C       -1.1070    10.6290    -0.2020 C.3   1 <1>  -0.1600 
 22 C       -1.9280    11.8730     0.1280 C.3   1 <1>   0.1200 
 23 O       -2.4620    12.3340    -1.0640 O.3   1 <1>  -0.5600 
 24 C       -3.2050    13.5040    -0.9420 C.3   1 <1>   0.0400 
 25 H       -0.4210     3.3960     0.1710 H     1 <1>   0.1500 
 26 H       -2.2280    -0.4400     0.0270 H     1 <1>   0.1500 
 27 H       -4.4480     0.5910    -0.3270 H     1 <1>   0.1500 
 28 H       -5.7430     2.5830    -0.5770 H     1 <1>   0.4570 
 29 H       -0.7080     5.3000     0.0330 H     1 <1>   0.4000 
 30 H       -4.1480     6.4280    -0.4690 H     1 <1>   0.1500 
 31 H       -2.2570     7.5740     0.5930 H     1 <1>   0.0800 
 32 H       -1.7810     7.5130    -1.0980 H     1 <1>   0.0800 
 33 H       -6.9000     4.7280    -1.7010 H     1 <1>   0.0800 
 34 H       -6.4870     6.1590    -0.8000 H     1 <1>   0.0800 
 35 H       -7.1550     4.7830     0.0320 H     1 <1>   0.0800 
 36 H        2.1570     9.4180     1.2940 H     1 <1>   0.1500 
 37 H       -0.0120    10.6270     1.6480 H     1 <1>   0.0800 
 38 H       -1.4410     9.6300     1.6810 H     1 <1>   0.0800 
 39 H       -1.7250     9.9550    -0.7660 H     1 <1>   0.0800 
 40 H       -0.2650    10.9230    -0.8070 H     1 <1>   0.0800 
 41 H       -1.3070    12.6440     0.5550 H     1 <1>   0.0800 
 42 H       -2.7400    11.6380     0.7960 H     1 <1>   0.0800 
 43 H       -3.5750    13.7670    -1.9170 H     1 <1>   0.0800 
 44 H       -2.5710    14.2920    -0.5720 H     1 <1>   0.0800 
 45 H       -4.0320    13.3360    -0.2740 H     1 <1>   0.0800 
@<TRIPOS>BOND
  1   1   2  1   
  2   2   3  ar  
  3   2   4  ar  
  4   3   5  ar  
  5   3  25  1   
  6   4   6  ar  
  7   4  26  1   
  8   5   7  ar  
  9   5   8  ar  
 10   6   7  ar  
 11   6  27  1   
 12   7   9  ar  
 13   8  10  1   
 14   8  11  ar  
 15   9  12  ar  
 16   9  28  1   
 17  10  13  1   
 18  10  29  1   
 19  11  12  ar  
 20  11  30  1   
 21  12  14  1   
 22  13  15  1   
 23  13  31  1   
 24  13  32  1   
 25  14  33  1   
 26  14  34  1   
 27  14  35  1   
 28  15  16  2   
 29  15  17  1   
 30  16  18  1   
 31  17  19  1   
 32  17  20  1   
 33  18  19  2   
 34  19  36  1   
 35  20  21  1   
 36  20  37  1   
 37  20  38  1   
 38  21  22  1   
 39  21  39  1   
 40  21  40  1   
 41  22  23  1   
 42  22  41  1   
 43  22  42  1   
 44  23  24  1   
 45  24  43  1   
 46  24  44  1   
 47  24  45  1   
@<TRIPOS>SUBSTRUCTURE
  1 ****  10 GROUP 4 **** **** 0

# MOE 2024.06 (io_trps.svl 2023.06)
