@<TRIPOS>MOLECULE
NONAME
47 50 1 0 0 
SMALL
USER_CHARGES


@<TRIPOS>ATOM
  1 F        0.4150    -1.0070     1.5480 F     1 <1>  -0.1900 
  2 C        0.1560    -2.1570     0.9910 C.ar  1 <1>   0.1900 
  3 C       -1.1170    -2.6550     1.0370 C.ar  1 <1>  -0.1500 
  4 C        1.2010    -2.8370     0.3760 C.ar  1 <1>  -0.1500 
  5 C       -1.4370    -3.8810     0.4140 C.ar  1 <1>   0.0000 
  6 C        0.9410    -4.0700    -0.1660 C.ar  1 <1>  -0.1500 
  7 C       -0.3530    -4.6210    -0.1130 C.ar  1 <1>   0.3610 
  8 C       -2.7620    -4.4350     0.3400 C.ar  1 <1>   0.1000 
  9 N       -0.5620    -5.9170    -0.5210 N.ar  1 <1>  -0.1790 
 10 N       -3.9030    -3.7040     0.5140 N.pl3 1 <1>  -0.8380 
 11 C       -2.8430    -5.7920     0.0090 C.ar  1 <1>  -0.1500 
 12 C       -1.7600    -6.5130    -0.4230 C.ar  1 <1>   0.2180 
 13 C       -5.2320    -4.2700     0.9380 C.3   1 <1>   0.2090 
 14 C       -4.0080    -2.2360     0.1930 C.3   1 <1>   0.2090 
 15 C       -1.8780    -7.9760    -0.8170 C.3   1 <1>  -0.0970 
 16 C       -6.3290    -4.1750    -0.1680 C.3   1 <1>   0.0000 
 17 C       -5.3430    -1.8610    -0.4700 C.3   1 <1>  -0.1600 
 18 C       -7.6890    -4.0060     0.5510 C.3   1 <1>   0.2000 
 19 C       -5.9830    -3.0550    -1.1840 C.3   1 <1>  -0.1600 
 20 C       -6.5190    -5.5200    -0.8940 C.3   1 <1>  -0.1600 
 21 O       -8.6780    -3.6080    -0.3310 O.3   1 <1>  -0.6800 
 22 C       -8.0560    -5.4140     1.0200 C.3   1 <1>  -0.1600 
 23 C       -7.4120    -6.3790     0.0130 C.3   1 <1>  -0.1600 
 24 H       -1.8640    -2.1020     1.5710 H     1 <1>   0.1500 
 25 H        2.1810    -2.3880     0.3530 H     1 <1>   0.1500 
 26 H        1.7450    -4.6190    -0.6230 H     1 <1>   0.1500 
 27 H        0.2430    -6.4420    -0.8680 H     1 <1>   0.4570 
 28 H       -3.7900    -6.2860     0.0580 H     1 <1>   0.1500 
 29 H       -5.1320    -5.2790     1.2930 H     1 <1>   0.0800 
 30 H       -5.5490    -3.6930     1.7900 H     1 <1>   0.0800 
 31 H       -3.9030    -1.6590     1.0950 H     1 <1>   0.0800 
 32 H       -3.2130    -1.9670    -0.4810 H     1 <1>   0.0800 
 33 H       -2.8880    -8.3240    -0.6880 H     1 <1>   0.0800 
 34 H       -1.2360    -8.5840    -0.2050 H     1 <1>   0.0800 
 35 H       -1.6110    -8.1100    -1.8510 H     1 <1>   0.0800 
 36 H       -6.0210    -1.4890     0.2790 H     1 <1>   0.0800 
 37 H       -5.1750    -1.0610    -1.1690 H     1 <1>   0.0800 
 38 H       -7.6630    -3.2900     1.3550 H     1 <1>   0.0800 
 39 H       -5.2730    -3.4330    -1.8990 H     1 <1>   0.0800 
 40 H       -6.8460    -2.7320    -1.7370 H     1 <1>   0.0800 
 41 H       -7.0400    -5.3500    -1.8210 H     1 <1>   0.0800 
 42 H       -5.5890    -6.0000    -1.1310 H     1 <1>   0.0800 
 43 H       -8.7610    -4.2740    -1.0390 H     1 <1>   0.4000 
 44 H       -7.6270    -5.5810     1.9920 H     1 <1>   0.0800 
 45 H       -9.1220    -5.5490     1.0980 H     1 <1>   0.0800 
 46 H       -6.8290    -7.1190     0.5340 H     1 <1>   0.0800 
 47 H       -8.1640    -6.8820    -0.5710 H     1 <1>   0.0800 
@<TRIPOS>BOND
  1   1   2  1   
  2   2   3  ar  
  3   2   4  ar  
  4   3   5  ar  
  5   3  24  1   
  6   4   6  ar  
  7   4  25  1   
  8   5   7  ar  
  9   5   8  ar  
 10   6   7  ar  
 11   6  26  1   
 12   7   9  ar  
 13   8  10  1   
 14   8  11  ar  
 15   9  12  ar  
 16   9  27  1   
 17  10  13  1   
 18  10  14  1   
 19  11  12  ar  
 20  11  28  1   
 21  12  15  1   
 22  13  16  1   
 23  13  29  1   
 24  13  30  1   
 25  14  17  1   
 26  14  31  1   
 27  14  32  1   
 28  15  33  1   
 29  15  34  1   
 30  15  35  1   
 31  16  18  1   
 32  16  19  1   
 33  16  20  1   
 34  17  19  1   
 35  17  36  1   
 36  17  37  1   
 37  18  21  1   
 38  18  22  1   
 39  18  38  1   
 40  19  39  1   
 41  19  40  1   
 42  20  23  1   
 43  20  41  1   
 44  20  42  1   
 45  21  43  1   
 46  22  23  1   
 47  22  44  1   
 48  22  45  1   
 49  23  46  1   
 50  23  47  1   
@<TRIPOS>SUBSTRUCTURE
  1 ****   8 GROUP 4 **** **** 0

# MOE 2024.06 (io_trps.svl 2023.06)
