@<TRIPOS>MOLECULE
NONAME
51 53 1 0 0 
SMALL
USER_CHARGES


@<TRIPOS>ATOM
  1 O        1.3880    -0.0250    -1.6290 O.2   1 <1>  -0.5700 
  2 C        1.7960    -0.5570    -0.6270 C.2   1 <1>   0.5690 
  3 N        2.2560     0.1520     0.4290 N.am  1 <1>  -0.7300 
  4 C        1.7730    -2.0650    -0.5450 C.3   1 <1>  -0.0990 
  5 C        2.3550     1.6170     0.4640 C.3   1 <1>   0.3200 
  6 C        0.3460    -2.5720    -0.3210 C.3   1 <1>   0.0200 
  7 C        3.6600     2.0200     1.1270 C.2   1 <1>  -0.3320 
  8 C        0.3270    -4.0860    -0.2680 C.2   1 <1>   0.0060 
  9 N        3.9760     3.2980     1.4320 N.pl3 1 <1>   0.0480 
 10 C        4.7140     1.2680     1.5190 C.2   1 <1>   0.0770 
 11 N        0.4680    -4.7650     0.8160 N.2   1 <1>  -0.5650 
 12 N        0.1680    -4.8510    -1.3790 N.pl3 1 <1>   0.0330 
 13 C        5.2010     3.2240     2.0000 C.2   1 <1>   0.0360 
 14 C        3.2050     4.5300     1.1770 C.3   1 <1>   0.0960 
 15 N        5.6780     2.0260     2.0720 N.2   1 <1>  -0.5650 
 16 C        0.3990    -6.0650     0.4110 C.ar  1 <1>   0.2270 
 17 C        0.2130    -6.1370    -0.9540 C.ar  1 <1>  -0.1520 
 18 C        3.4530     5.0110    -0.2500 C.3   1 <1>   0.1200 
 19 C        0.4880    -7.2360     1.1580 C.ar  1 <1>  -0.1500 
 20 C        0.1140    -7.3670    -1.6050 C.ar  1 <1>  -0.1500 
 21 O        2.6710     6.1410    -0.4570 O.3   1 <1>  -0.5600 
 22 C        0.3920    -8.4620     0.5300 C.ar  1 <1>  -0.1430 
 23 C        0.2030    -8.5270    -0.8640 C.ar  1 <1>  -0.1430 
 24 C        2.7820     6.6790    -1.7360 C.3   1 <1>   0.0400 
 25 C        0.4930    -9.7290     1.3680 C.3   1 <1>  -0.0970 
 26 C        0.0940    -9.8690    -1.5740 C.3   1 <1>  -0.0970 
 27 H        2.5700    -0.3180     1.2790 H     1 <1>   0.3700 
 28 H        2.4050    -2.4010     0.2560 H     1 <1>   0.0800 
 29 H        2.1600    -2.4620    -1.4650 H     1 <1>   0.0800 
 30 H        1.5220     2.0060     1.0230 H     1 <1>   0.0800 
 31 H        2.3130     2.0130    -0.5370 H     1 <1>   0.0800 
 32 H       -0.3020    -2.2240    -1.1070 H     1 <1>   0.0800 
 33 H       -0.0290    -2.1870     0.6120 H     1 <1>   0.0800 
 34 H        4.8400     0.2020     1.4310 H     1 <1>   0.1500 
 35 H        0.0370    -4.5320    -2.3410 H     1 <1>   0.2700 
 36 H        5.7200     4.0980     2.3520 H     1 <1>   0.1500 
 37 H        3.5160     5.2870     1.8740 H     1 <1>   0.0800 
 38 H        2.1600     4.3290     1.3220 H     1 <1>   0.0800 
 39 H        3.1620     4.2580    -0.9620 H     1 <1>   0.0800 
 40 H        4.4870     5.2770    -0.3860 H     1 <1>   0.0800 
 41 H        0.6310    -7.1440     2.2170 H     1 <1>   0.1500 
 42 H       -0.0310    -7.3910    -2.6700 H     1 <1>   0.1500 
 43 H        2.1460     7.5450    -1.7920 H     1 <1>   0.0800 
 44 H        2.4630     5.9480    -2.4590 H     1 <1>   0.0800 
 45 H        3.8040     6.9680    -1.9140 H     1 <1>   0.0800 
 46 H        0.6340    -9.4920     2.4070 H     1 <1>   0.0800 
 47 H        1.3270   -10.3220     1.0410 H     1 <1>   0.0800 
 48 H       -0.4090   -10.3060     1.2740 H     1 <1>   0.0800 
 49 H       -0.0470    -9.7350    -2.6310 H     1 <1>   0.0800 
 50 H       -0.7430   -10.4220    -1.1900 H     1 <1>   0.0800 
 51 H        0.9930   -10.4390    -1.4240 H     1 <1>   0.0800 
@<TRIPOS>BOND
  1   1   2  2   
  2   2   3  am  
  3   2   4  1   
  4   3   5  1   
  5   3  27  1   
  6   4   6  1   
  7   4  28  1   
  8   4  29  1   
  9   5   7  1   
 10   5  30  1   
 11   5  31  1   
 12   6   8  1   
 13   6  32  1   
 14   6  33  1   
 15   7   9  1   
 16   7  10  2   
 17   8  11  2   
 18   8  12  1   
 19   9  13  1   
 20   9  14  1   
 21  10  15  1   
 22  10  34  1   
 23  11  16  1   
 24  12  17  1   
 25  12  35  1   
 26  13  15  2   
 27  13  36  1   
 28  14  18  1   
 29  14  37  1   
 30  14  38  1   
 31  16  17  ar  
 32  16  19  ar  
 33  17  20  ar  
 34  18  21  1   
 35  18  39  1   
 36  18  40  1   
 37  19  22  ar  
 38  19  41  1   
 39  20  23  ar  
 40  20  42  1   
 41  21  24  1   
 42  22  23  ar  
 43  22  25  1   
 44  23  26  1   
 45  24  43  1   
 46  24  44  1   
 47  24  45  1   
 48  25  46  1   
 49  25  47  1   
 50  25  48  1   
 51  26  49  1   
 52  26  50  1   
 53  26  51  1   
@<TRIPOS>SUBSTRUCTURE
  1 ****   4 GROUP 4 **** **** 0

# MOE 2024.06 (io_trps.svl 2023.06)
