@<TRIPOS>MOLECULE
NONAME
43 46 1 0 0 
SMALL
USER_CHARGES


@<TRIPOS>ATOM
  1 O       -0.5470     0.5110    -0.5800 O.2   1 <1>  -0.5700 
  2 C       -1.5600     1.1340    -0.3190 C.2   1 <1>   0.5440 
  3 N       -2.7710     0.4620    -0.3090 N.am  1 <1>  -0.6600 
  4 C       -1.4590     2.5550    -0.0550 C.ar  1 <1>   0.0860 
  5 C       -4.0740     1.1850    -0.4230 C.3   1 <1>   0.2200 
  6 C       -2.7830    -1.0310    -0.3860 C.3   1 <1>   0.0600 
  7 C       -2.0140     3.1300     1.0790 C.ar  1 <1>  -0.1500 
  8 C       -0.7870     3.3980    -0.9660 C.ar  1 <1>  -0.1500 
  9 C       -4.9780     1.0020     0.7940 C.3   1 <1>  -0.1600 
 10 C       -4.9380     0.7440    -1.6020 C.3   1 <1>  -0.1600 
 11 C       -1.9450     4.5020     1.2780 C.ar  1 <1>   0.2270 
 12 C       -0.6970     4.7570    -0.7750 C.ar  1 <1>  -0.1500 
 13 C       -6.3760     1.3850     0.2910 C.3   1 <1>  -0.0800 
 14 C       -6.3430     1.2440    -1.2420 C.3   1 <1>  -0.0800 
 15 N       -2.4510     5.2540     2.2950 N.2   1 <1>  -0.5650 
 16 C       -1.2930     5.3050     0.3620 C.ar  1 <1>  -0.1520 
 17 C       -6.7470     2.8460     0.5870 C.3   1 <1>  -0.1600 
 18 C       -6.6580     2.6350    -1.8110 C.3   1 <1>  -0.1600 
 19 C       -2.1060     6.4580     2.0000 C.2   1 <1>   0.0360 
 20 N       -1.4010     6.5660     0.8450 N.pl3 1 <1>   0.0330 
 21 C       -7.4010     3.3460    -0.6920 C.3   1 <1>   0.2000 
 22 O       -7.2400     4.7090    -0.8050 O.3   1 <1>  -0.6800 
 23 H       -3.9010     2.2400    -0.5470 H     1 <1>   0.0800 
 24 H       -3.6580    -1.4350     0.0880 H     1 <1>   0.0800 
 25 H       -1.9150    -1.4330     0.1070 H     1 <1>   0.0800 
 26 H       -2.7630    -1.3370    -1.4170 H     1 <1>   0.0800 
 27 H       -2.5060     2.5290     1.8190 H     1 <1>   0.1500 
 28 H       -0.3360     2.9410    -1.8310 H     1 <1>   0.1500 
 29 H       -4.9920    -0.0290     1.0960 H     1 <1>   0.0800 
 30 H       -4.6630     1.6050     1.6260 H     1 <1>   0.0800 
 31 H       -4.5800     1.1480    -2.5320 H     1 <1>   0.0800 
 32 H       -4.9710    -0.3280    -1.6700 H     1 <1>   0.0800 
 33 H       -0.1810     5.3870    -1.4790 H     1 <1>   0.1500 
 34 H       -7.1220     0.7290     0.7090 H     1 <1>   0.0800 
 35 H       -7.0930     0.5420    -1.5680 H     1 <1>   0.0800 
 36 H       -5.8600     3.4220     0.7910 H     1 <1>   0.0800 
 37 H       -7.4210     2.9190     1.4220 H     1 <1>   0.0800 
 38 H       -7.2610     2.5690    -2.6990 H     1 <1>   0.0800 
 39 H       -5.7460     3.1620    -2.0320 H     1 <1>   0.0800 
 40 H       -2.3420     7.3210     2.6000 H     1 <1>   0.1500 
 41 H       -1.0230     7.4190     0.4260 H     1 <1>   0.2700 
 42 H       -8.4520     3.1110    -0.7120 H     1 <1>   0.0800 
 43 H       -6.2980     4.9400    -0.7050 H     1 <1>   0.4000 
@<TRIPOS>BOND
  1   1   2  2   
  2   2   3  am  
  3   2   4  1   
  4   3   5  1   
  5   3   6  1   
  6   4   7  ar  
  7   4   8  ar  
  8   5   9  1   
  9   5  10  1   
 10   5  23  1   
 11   6  24  1   
 12   6  25  1   
 13   6  26  1   
 14   7  11  ar  
 15   7  27  1   
 16   8  12  ar  
 17   8  28  1   
 18   9  13  1   
 19   9  29  1   
 20   9  30  1   
 21  10  14  1   
 22  10  31  1   
 23  10  32  1   
 24  11  15  1   
 25  11  16  ar  
 26  12  16  ar  
 27  12  33  1   
 28  13  14  1   
 29  13  17  1   
 30  13  34  1   
 31  14  18  1   
 32  14  35  1   
 33  15  19  2   
 34  16  20  1   
 35  17  21  1   
 36  17  36  1   
 37  17  37  1   
 38  18  21  1   
 39  18  38  1   
 40  18  39  1   
 41  19  20  1   
 42  19  40  1   
 43  20  41  1   
 44  21  22  1   
 45  21  42  1   
 46  22  43  1   
@<TRIPOS>SUBSTRUCTURE
  1 ****   5 GROUP 4 **** **** 0

# MOE 2024.06 (io_trps.svl 2023.06)
