@<TRIPOS>MOLECULE
NONAME
61 63 1 0 0 
SMALL
USER_CHARGES


@<TRIPOS>ATOM
  1 O        0.1480     0.2250    -0.6000 O.3   1 <1>  -0.5600 
  2 C        1.4440    -0.2020    -0.9470 C.3   1 <1>   0.2000 
  3 C        0.0030     1.6010    -0.4150 C.3   1 <1>   0.1200 
  4 C        2.4930     0.2660     0.1000 C.3   1 <1>   0.5660 
  5 C        1.4430    -1.7350    -1.0560 C.3   1 <1>   0.1200 
  6 C        0.8920     2.0670     0.7490 C.3   1 <1>   0.3430 
  7 N        2.3260     1.6900     0.5340 N.4   1 <1>  -0.9590 
  8 C        3.9130     0.1360    -0.4350 C.ar  1 <1>  -0.1440 
  9 O        1.4250    -2.3080     0.2140 O.3   1 <1>  -0.6800 
 10 C        3.1580     1.9870     1.7250 C.3   1 <1>   0.4870 
 11 C        4.8280    -0.6470     0.2560 C.ar  1 <1>  -0.1500 
 12 C        4.3230     0.7970    -1.5890 C.ar  1 <1>  -0.1500 
 13 C        3.6270     3.4160     1.5830 C.ar  1 <1>  -0.1440 
 14 C        6.1380    -0.7550    -0.1760 C.ar  1 <1>   0.0820 
 15 C        5.6330     0.6920    -2.0250 C.ar  1 <1>  -0.1500 
 16 C        4.7550     3.6870     0.8210 C.ar  1 <1>  -0.1500 
 17 C        2.9440     4.4560     2.1990 C.ar  1 <1>  -0.1500 
 18 O        6.9590    -1.5510     0.5470 O.3   1 <1>  -0.3620 
 19 C        6.5540    -0.0560    -1.3140 C.ar  1 <1>   0.0820 
 20 C        5.2010     4.9960     0.6690 C.ar  1 <1>   0.0820 
 21 C        3.3820     5.7600     2.0430 C.ar  1 <1>  -0.1500 
 22 C        7.4520    -2.7060    -0.1000 C.3   1 <1>   0.0400 
 23 O        7.8280    -0.0630    -1.7730 O.3   1 <1>  -0.3630 
 24 O        6.2980     5.3520    -0.0450 O.3   1 <1>  -0.3620 
 25 C        4.5030     6.0250     1.2790 C.ar  1 <1>  -0.1500 
 26 C        8.8260     0.4610    -0.9230 C.3   1 <1>   0.0400 
 27 C        7.1830     4.4270    -0.6350 C.3   1 <1>   0.2000 
 28 C        8.5470     5.1050    -0.7290 C.3   1 <1>  -0.2400 
 29 C        6.6530     4.0630    -2.0220 C.3   1 <1>  -0.2400 
 30 H        1.6630     0.2100    -1.9160 H     1 <1>   0.0800 
 31 H        0.2520     2.1080    -1.3310 H     1 <1>   0.0800 
 32 H       -1.0320     1.7900    -0.1880 H     1 <1>   0.0800 
 33 H        2.3890    -0.3720     0.9630 H     1 <1>   0.0800 
 34 H        2.3300    -2.0800    -1.5590 H     1 <1>   0.0800 
 35 H        0.5750    -2.0680    -1.6010 H     1 <1>   0.0800 
 36 H        0.5260     1.6100     1.6530 H     1 <1>   0.0800 
 37 H        0.8070     3.1360     0.8580 H     1 <1>   0.0800 
 38 H        2.7150     2.2710    -0.2160 H     1 <1>   0.4500 
 39 H        1.1790    -3.2560     0.1630 H     1 <1>   0.4000 
 40 H        2.5930     1.8550     2.6340 H     1 <1>   0.0800 
 41 H        4.0210     1.3430     1.7600 H     1 <1>   0.0800 
 42 H        4.5410    -1.1920     1.1390 H     1 <1>   0.1500 
 43 H        3.6440     1.4000    -2.1670 H     1 <1>   0.1500 
 44 H        5.9550     1.1960    -2.9200 H     1 <1>   0.1500 
 45 H        5.2830     2.8770     0.3530 H     1 <1>   0.1500 
 46 H        2.0750     4.2710     2.8070 H     1 <1>   0.1500 
 47 H        2.8560     6.5720     2.5180 H     1 <1>   0.1500 
 48 H        8.0170    -3.2770     0.6150 H     1 <1>   0.0800 
 49 H        8.0860    -2.4170    -0.9180 H     1 <1>   0.0800 
 50 H        6.6210    -3.2860    -0.4590 H     1 <1>   0.0800 
 51 H        4.8510     7.0360     1.1560 H     1 <1>   0.1500 
 52 H        9.7470     0.5050    -1.4750 H     1 <1>   0.0800 
 53 H        8.9450    -0.1800    -0.0690 H     1 <1>   0.0800 
 54 H        8.5360     1.4490    -0.6120 H     1 <1>   0.0800 
 55 H        7.2670     3.5620     0.0000 H     1 <1>   0.0800 
 56 H        8.4830     5.9960    -1.3280 H     1 <1>   0.0800 
 57 H        9.2610     4.4390    -1.1780 H     1 <1>   0.0800 
 58 H        8.8950     5.3650     0.2550 H     1 <1>   0.0800 
 59 H        6.6070     4.9410    -2.6420 H     1 <1>   0.0800 
 60 H        5.6740     3.6320    -1.9510 H     1 <1>   0.0800 
 61 H        7.3100     3.3510    -2.4880 H     1 <1>   0.0800 
@<TRIPOS>BOND
  1   1   2  1   
  2   1   3  1   
  3   2   4  1   
  4   2   5  1   
  5   2  30  1   
  6   3   6  1   
  7   3  31  1   
  8   3  32  1   
  9   4   7  1   
 10   4   8  1   
 11   4  33  1   
 12   5   9  1   
 13   5  34  1   
 14   5  35  1   
 15   6   7  1   
 16   6  36  1   
 17   6  37  1   
 18   7  10  1   
 19   7  38  1   
 20   8  11  ar  
 21   8  12  ar  
 22   9  39  1   
 23  10  13  1   
 24  10  40  1   
 25  10  41  1   
 26  11  14  ar  
 27  11  42  1   
 28  12  15  ar  
 29  12  43  1   
 30  13  16  ar  
 31  13  17  ar  
 32  14  18  1   
 33  14  19  ar  
 34  15  19  ar  
 35  15  44  1   
 36  16  20  ar  
 37  16  45  1   
 38  17  21  ar  
 39  17  46  1   
 40  18  22  1   
 41  19  23  1   
 42  20  24  1   
 43  20  25  ar  
 44  21  25  ar  
 45  21  47  1   
 46  22  48  1   
 47  22  49  1   
 48  22  50  1   
 49  23  26  1   
 50  24  27  1   
 51  25  51  1   
 52  26  52  1   
 53  26  53  1   
 54  26  54  1   
 55  27  28  1   
 56  27  29  1   
 57  27  55  1   
 58  28  56  1   
 59  28  57  1   
 60  28  58  1   
 61  29  59  1   
 62  29  60  1   
 63  29  61  1   
@<TRIPOS>SUBSTRUCTURE
  1 ****   8 GROUP 4 **** **** 0

# MOE 2024.06 (io_trps.svl 2023.06)
