@<TRIPOS>MOLECULE
NONAME
46 46 1 0 0 
SMALL
USER_CHARGES


@<TRIPOS>ATOM
  1 O       -0.4710    -0.1260    -1.4290 O.2   1 <1>  -0.5700 
  2 C       -1.1340     0.8590    -1.2180 C.2   1 <1>   0.5690 
  3 N       -2.4670     0.7850    -0.8770 N.am  1 <1>  -0.6600 
  4 C       -0.4020     2.2070    -1.2790 C.3   1 <1>   0.4040 
  5 C       -3.1420    -0.5410    -0.7260 C.3   1 <1>   0.0600 
  6 C       -3.4120     1.9350    -0.7720 C.3   1 <1>   0.0600 
  7 N       -0.1100     2.8080     0.0860 N.4   1 <1>  -0.9590 
  8 C        1.2860     2.5000     0.5570 C.3   1 <1>   0.5610 
  9 C       -0.3660     4.2910     0.0690 C.3   1 <1>   0.4230 
 10 C        2.2670     3.2960    -0.2900 C.2   1 <1>  -0.2880 
 11 C        1.6150     0.9960     0.5740 C.3   1 <1>  -0.0220 
 12 C        0.5680     5.0140    -0.9320 C.3   1 <1>  -0.0220 
 13 C       -0.2600     4.8810     1.4880 C.3   1 <1>  -0.0220 
 14 C        1.9660     4.4110    -0.9630 C.2   1 <1>  -0.2760 
 15 C        2.8120     0.6370     1.4500 C.2   1 <1>  -0.2880 
 16 C       -0.9190     6.2490     1.5620 C.2   1 <1>  -0.2880 
 17 C        2.9700     5.1800    -1.8070 C.3   1 <1>  -0.1020 
 18 C        3.5510     1.4490     2.2140 C.2   1 <1>  -0.3000 
 19 C       -0.2690     7.3900     1.8080 C.2   1 <1>  -0.3000 
 20 H       -1.0150     2.8800    -1.8520 H     1 <1>   0.0800 
 21 H        0.5180     2.0710    -1.8220 H     1 <1>   0.0800 
 22 H       -3.7000    -0.5680     0.1940 H     1 <1>   0.0800 
 23 H       -2.4240    -1.3440    -0.7100 H     1 <1>   0.0800 
 24 H       -3.8150    -0.7040    -1.5500 H     1 <1>   0.0800 
 25 H       -3.8030     1.9930     0.2300 H     1 <1>   0.0800 
 26 H       -4.2360     1.7840    -1.4500 H     1 <1>   0.0800 
 27 H       -2.9410     2.8670    -1.0200 H     1 <1>   0.0800 
 28 H       -0.7550     2.3650     0.7500 H     1 <1>   0.4500 
 29 H        1.3830     2.8410     1.5750 H     1 <1>   0.0800 
 30 H       -1.3790     4.4570    -0.2550 H     1 <1>   0.0800 
 31 H        3.2580     2.8720    -0.2840 H     1 <1>   0.1500 
 32 H        0.7700     0.4480     0.9500 H     1 <1>   0.0800 
 33 H        1.8230     0.6600    -0.4270 H     1 <1>   0.0800 
 34 H        0.1410     4.9610    -1.9170 H     1 <1>   0.0800 
 35 H        0.6290     6.0590    -0.6800 H     1 <1>   0.0800 
 36 H       -0.7540     4.2400     2.1950 H     1 <1>   0.0800 
 37 H        0.7730     4.9740     1.7750 H     1 <1>   0.0800 
 38 H        3.0300    -0.4190     1.3980 H     1 <1>   0.1500 
 39 H       -1.9860     6.2270     1.4030 H     1 <1>   0.1500 
 40 H        2.6400     5.2330    -2.8300 H     1 <1>   0.0800 
 41 H        3.9320     4.6990    -1.7880 H     1 <1>   0.0800 
 42 H        3.0870     6.1810    -1.4300 H     1 <1>   0.0800 
 43 H        4.3830     1.0980     2.8040 H     1 <1>   0.1500 
 44 H        3.4210     2.5100     2.3360 H     1 <1>   0.1500 
 45 H       -0.7490     8.3540     1.8630 H     1 <1>   0.1500 
 46 H        0.7920     7.4700     1.9800 H     1 <1>   0.1500 
@<TRIPOS>BOND
  1   1   2  2   
  2   2   3  am  
  3   2   4  1   
  4   3   5  1   
  5   3   6  1   
  6   4   7  1   
  7   4  20  1   
  8   4  21  1   
  9   5  22  1   
 10   5  23  1   
 11   5  24  1   
 12   6  25  1   
 13   6  26  1   
 14   6  27  1   
 15   7   8  1   
 16   7   9  1   
 17   7  28  1   
 18   8  10  1   
 19   8  11  1   
 20   8  29  1   
 21   9  12  1   
 22   9  13  1   
 23   9  30  1   
 24  10  14  2   
 25  10  31  1   
 26  11  15  1   
 27  11  32  1   
 28  11  33  1   
 29  12  14  1   
 30  12  34  1   
 31  12  35  1   
 32  13  16  1   
 33  13  36  1   
 34  13  37  1   
 35  14  17  1   
 36  15  18  2   
 37  15  38  1   
 38  16  19  2   
 39  16  39  1   
 40  17  40  1   
 41  17  41  1   
 42  17  42  1   
 43  18  43  1   
 44  18  44  1   
 45  19  45  1   
 46  19  46  1   
@<TRIPOS>SUBSTRUCTURE
  1 ****   7 GROUP 4 **** **** 0

# MOE 2024.06 (io_trps.svl 2023.06)
