@<TRIPOS>MOLECULE
NONAME
49 50 1 0 0 
SMALL
USER_CHARGES


@<TRIPOS>ATOM
  1 O        1.4920     0.3860     1.9960 O.2   1 <1>  -0.5700 
  2 C        1.1530    -0.5410     1.2980 C.2   1 <1>   0.5690 
  3 N        1.2720    -0.5500    -0.0560 N.am  1 <1>  -0.7300 
  4 C        0.5520    -1.7870     1.9570 C.3   1 <1>   0.1710 
  5 C        1.7730     0.4770    -0.9680 C.3   1 <1>   0.3000 
  6 N       -0.3480    -2.5830     1.0680 N.3   1 <1>  -0.8100 
  7 C        1.6620    -0.0970    -2.3780 C.3   1 <1>  -0.2400 
  8 C        3.2360     0.7790    -0.6450 C.3   1 <1>  -0.2400 
  9 C        0.9060     1.7300    -0.8490 C.3   1 <1>  -0.2400 
 10 C       -1.6270    -1.8680     0.8380 C.3   1 <1>   0.1100 
 11 C       -0.6370    -3.9050     1.6640 C.3   1 <1>   0.1100 
 12 C       -2.5780    -2.6580    -0.0790 C.3   1 <1>   0.2090 
 13 C       -1.5600    -4.7570     0.7720 C.3   1 <1>   0.2090 
 14 N       -2.8280    -4.0370     0.4380 N.pl3 1 <1>  -0.8210 
 15 C       -3.8050    -4.7730    -0.2350 C.2   1 <1>   0.5990 
 16 N       -4.7290    -4.2810    -0.9710 N.2   1 <1>  -0.4100 
 17 N       -3.8510    -6.0970    -0.1540 N.2   1 <1>  -0.5650 
 18 O       -5.4400    -5.2840    -1.4110 O.3   1 <1>  -0.0190 
 19 C       -4.8620    -6.3340    -0.8820 C.2   1 <1>   0.2980 
 20 C       -5.4320    -7.7080    -1.1790 C.3   1 <1>   0.0200 
 21 C       -6.8200    -7.8940    -0.5470 C.3   1 <1>  -0.1600 
 22 C       -7.3890    -9.2880    -0.8340 C.3   1 <1>  -0.2400 
 23 H        0.8940    -1.3850    -0.5100 H     1 <1>   0.3700 
 24 H        0.0200    -1.4850     2.8420 H     1 <1>   0.0800 
 25 H        1.3770    -2.4030     2.2650 H     1 <1>   0.0800 
 26 H        2.2540    -0.9910    -2.4690 H     1 <1>   0.0800 
 27 H        2.0210     0.6170    -3.0960 H     1 <1>   0.0800 
 28 H        0.6380    -0.3260    -2.6140 H     1 <1>   0.0800 
 29 H        3.8240    -0.1190    -0.6890 H     1 <1>   0.0800 
 30 H        3.3260     1.2070     0.3370 H     1 <1>   0.0800 
 31 H        3.6340     1.4840    -1.3520 H     1 <1>   0.0800 
 32 H       -0.1250     1.4940    -1.0370 H     1 <1>   0.0800 
 33 H        1.2250     2.4690    -1.5610 H     1 <1>   0.0800 
 34 H        0.9940     2.1580     0.1340 H     1 <1>   0.0800 
 35 H       -1.4330    -0.9110     0.3860 H     1 <1>   0.0800 
 36 H       -2.1240    -1.6950     1.7780 H     1 <1>   0.0800 
 37 H       -1.1090    -3.7790     2.6240 H     1 <1>   0.0800 
 38 H        0.2850    -4.4390     1.8110 H     1 <1>   0.0800 
 39 H       -2.1520    -2.7180    -1.0660 H     1 <1>   0.0800 
 40 H       -3.5110    -2.1250    -0.1490 H     1 <1>   0.0800 
 41 H       -1.7890    -5.6710     1.2920 H     1 <1>   0.0800 
 42 H       -1.0430    -5.0100    -0.1380 H     1 <1>   0.0800 
 43 H       -4.7580    -8.4510    -0.7920 H     1 <1>   0.0800 
 44 H       -5.4930    -7.8330    -2.2450 H     1 <1>   0.0800 
 45 H       -7.4940    -7.1480    -0.9330 H     1 <1>   0.0800 
 46 H       -6.7440    -7.7520     0.5180 H     1 <1>   0.0800 
 47 H       -7.4940    -9.4430    -1.8940 H     1 <1>   0.0800 
 48 H       -8.3590    -9.3890    -0.3780 H     1 <1>   0.0800 
 49 H       -6.7440   -10.0500    -0.4330 H     1 <1>   0.0800 
@<TRIPOS>BOND
  1   1   2  2   
  2   2   3  am  
  3   2   4  1   
  4   3   5  1   
  5   3  23  1   
  6   4   6  1   
  7   4  24  1   
  8   4  25  1   
  9   5   7  1   
 10   5   8  1   
 11   5   9  1   
 12   6  10  1   
 13   6  11  1   
 14   7  26  1   
 15   7  27  1   
 16   7  28  1   
 17   8  29  1   
 18   8  30  1   
 19   8  31  1   
 20   9  32  1   
 21   9  33  1   
 22   9  34  1   
 23  10  12  1   
 24  10  35  1   
 25  10  36  1   
 26  11  13  1   
 27  11  37  1   
 28  11  38  1   
 29  12  14  1   
 30  12  39  1   
 31  12  40  1   
 32  13  14  1   
 33  13  41  1   
 34  13  42  1   
 35  14  15  1   
 36  15  16  2   
 37  15  17  1   
 38  16  18  1   
 39  17  19  2   
 40  18  19  1   
 41  19  20  1   
 42  20  21  1   
 43  20  43  1   
 44  20  44  1   
 45  21  22  1   
 46  21  45  1   
 47  21  46  1   
 48  22  47  1   
 49  22  48  1   
 50  22  49  1   
@<TRIPOS>SUBSTRUCTURE
  1 ****  12 GROUP 4 **** **** 0

# MOE 2024.06 (io_trps.svl 2023.06)
