@<TRIPOS>MOLECULE
NONAME
31 31 1 0 0 
SMALL
USER_CHARGES


@<TRIPOS>ATOM
  1 O       -0.2470    -0.8760    -0.6470 O.2   1 <1>  -0.5700 
  2 C       -1.3640    -1.2710    -0.9170 C.2   1 <1>   0.7800 
  3 O       -2.4540    -0.6230    -0.5010 O.3   1 <1>  -0.4300 
  4 N       -1.5700    -2.4110    -1.6290 N.am  1 <1>  -0.5100 
  5 C       -2.5060     0.5460     0.2870 C.3   1 <1>   0.2800 
  6 C       -0.5800    -3.5230    -1.7970 C.3   1 <1>   0.2250 
  7 C       -2.6500    -3.4140    -1.3590 C.3   1 <1>   0.2250 
  8 C       -1.8770     0.2840     1.6600 C.3   1 <1>  -0.2400 
  9 C       -1.8420     1.7140    -0.4510 C.3   1 <1>  -0.2400 
 10 C       -3.9960     0.8420     0.4630 C.3   1 <1>  -0.2400 
 11 C       -1.5360    -4.4190    -0.9780 C.3   1 <1>   0.0000 
 12 C       -1.1990    -4.4540     0.5200 C.3   1 <1>   0.0860 
 13 N       -2.2930    -5.0720     1.2610 N.2   1 <1>  -0.5640 
 14 N       -2.0510    -6.0970     1.9380 N.1   1 <1>   0.6880 
 15 N       -1.7930    -7.1080     2.5960 N.1   1 <1>  -0.3700 
 16 H        0.3610    -3.3250    -1.3150 H     1 <1>   0.0000 
 17 H       -0.4950    -3.8120    -2.8300 H     1 <1>   0.0000 
 18 H       -3.1750    -3.6710    -2.2620 H     1 <1>   0.0000 
 19 H       -3.2900    -3.1280    -0.5430 H     1 <1>   0.0000 
 20 H       -0.8150     0.1420     1.5800 H     1 <1>   0.0800 
 21 H       -2.3180    -0.5840     2.1150 H     1 <1>   0.0800 
 22 H       -2.0420     1.1280     2.3050 H     1 <1>   0.0800 
 23 H       -0.7800     1.5720    -0.5300 H     1 <1>   0.0800 
 24 H       -2.0070     2.6290     0.0890 H     1 <1>   0.0800 
 25 H       -2.2590     1.8200    -1.4360 H     1 <1>   0.0800 
 26 H       -4.4840     0.0210     0.9570 H     1 <1>   0.0800 
 27 H       -4.4600     1.0010    -0.4940 H     1 <1>   0.0800 
 28 H       -4.1340     1.7260     1.0580 H     1 <1>   0.0800 
 29 H       -1.6610    -5.3970    -1.4090 H     1 <1>   0.0000 
 30 H       -1.0550    -3.4530     0.8920 H     1 <1>   0.0800 
 31 H       -0.2830    -5.0010     0.6680 H     1 <1>   0.0800 
@<TRIPOS>BOND
  1   1   2  2   
  2   2   3  1   
  3   2   4  am  
  4   3   5  1   
  5   4   6  1   
  6   4   7  1   
  7   5   8  1   
  8   5   9  1   
  9   5  10  1   
 10   6  11  1   
 11   6  16  1   
 12   6  17  1   
 13   7  11  1   
 14   7  18  1   
 15   7  19  1   
 16   8  20  1   
 17   8  21  1   
 18   8  22  1   
 19   9  23  1   
 20   9  24  1   
 21   9  25  1   
 22  10  26  1   
 23  10  27  1   
 24  10  28  1   
 25  11  12  1   
 26  11  29  1   
 27  12  13  1   
 28  12  30  1   
 29  12  31  1   
 30  13  14  2   
 31  14  15  3   
@<TRIPOS>SUBSTRUCTURE
  1 ****   2 GROUP 4 **** **** 0

# MOE 2024.06 (io_trps.svl 2023.06)
