@<TRIPOS>MOLECULE
NONAME
40 43 1 0 0 
SMALL
USER_CHARGES


@<TRIPOS>ATOM
  1 S        0.1790    -0.4970     0.1500 S.3   1 <1>  -0.0800 
  2 C       -0.6610     1.0620     0.2930 C.ar  1 <1>   0.0400 
  3 C       -1.3370    -1.3430    -0.1460 C.2   1 <1>  -0.1100 
  4 C       -0.1570     2.3300     0.5520 C.ar  1 <1>   0.4100 
  5 C       -2.0110     0.8770     0.1320 C.ar  1 <1>   0.2560 
  6 C       -2.3780    -0.4900    -0.1240 C.2   1 <1>  -0.1810 
  7 N       -0.9990     3.3420     0.6730 N.ar  1 <1>  -0.6200 
  8 N        1.1930     2.6050     0.7000 N.pl3 1 <1>  -0.8380 
  9 N       -2.8550     1.9010     0.2260 N.ar  1 <1>  -0.5660 
 10 C       -3.8310    -0.8740    -0.3410 C.3   1 <1>  -0.0590 
 11 C       -2.2860     3.0600     0.4910 C.ar  1 <1>   0.4700 
 12 C        1.6480     3.6070     1.7200 C.3   1 <1>   0.2090 
 13 C        2.1860     2.1290    -0.3140 C.3   1 <1>   0.2090 
 14 C        2.2170     4.9370     1.1580 C.3   1 <1>   0.2200 
 15 C        2.8750     3.2400    -1.1270 C.3   1 <1>  -0.0190 
 16 N        1.7310     5.2750    -0.2180 N.am  1 <1>  -0.6600 
 17 C        3.7570     4.9670     1.2170 C.3   1 <1>   0.1200 
 18 C        2.0160     4.4790    -1.2950 C.2   1 <1>   0.5690 
 19 C        4.2860     3.5970    -0.6370 C.3   1 <1>   0.1200 
 20 C        0.7080     6.3510    -0.2970 C.3   1 <1>   0.0600 
 21 O        4.3400     3.7890     0.7410 O.3   1 <1>  -0.5600 
 22 O        1.6380     4.7470    -2.4130 O.2   1 <1>  -0.5700 
 23 H       -1.2790    -2.4050    -0.3060 H     1 <1>   0.1500 
 24 H       -4.2250    -0.3430    -1.1890 H     1 <1>   0.0800 
 25 H       -4.4100    -0.6140     0.5280 H     1 <1>   0.0800 
 26 H       -3.9230    -1.9300    -0.5180 H     1 <1>   0.0800 
 27 H       -2.9550     3.9000     0.5730 H     1 <1>   0.1500 
 28 H        0.8180     3.8510     2.3600 H     1 <1>   0.0800 
 29 H        2.3830     3.1420     2.3520 H     1 <1>   0.0800 
 30 H        2.9260     1.5220     0.1780 H     1 <1>   0.0800 
 31 H        1.6730     1.5010    -1.0200 H     1 <1>   0.0800 
 32 H        1.8870     5.7180     1.8190 H     1 <1>   0.0800 
 33 H        3.0170     2.8410    -2.1140 H     1 <1>   0.0800 
 34 H        4.0630     5.0640     2.2430 H     1 <1>   0.0800 
 35 H        4.1470     5.8080     0.6690 H     1 <1>   0.0800 
 36 H        4.6560     4.4790    -1.1320 H     1 <1>   0.0800 
 37 H        4.9530     2.7820    -0.8590 H     1 <1>   0.0800 
 38 H        1.1150     7.2730     0.0770 H     1 <1>   0.0800 
 39 H       -0.1510     6.0720     0.2900 H     1 <1>   0.0800 
 40 H        0.3900     6.5020    -1.3140 H     1 <1>   0.0800 
@<TRIPOS>BOND
  1   1   2  1   
  2   1   3  1   
  3   2   4  ar  
  4   2   5  ar  
  5   3   6  2   
  6   3  23  1   
  7   4   7  ar  
  8   4   8  1   
  9   5   6  1   
 10   5   9  ar  
 11   6  10  1   
 12   7  11  ar  
 13   8  12  1   
 14   8  13  1   
 15   9  11  ar  
 16  10  24  1   
 17  10  25  1   
 18  10  26  1   
 19  11  27  1   
 20  12  14  1   
 21  12  28  1   
 22  12  29  1   
 23  13  15  1   
 24  13  30  1   
 25  13  31  1   
 26  14  16  1   
 27  14  17  1   
 28  14  32  1   
 29  15  18  1   
 30  15  19  1   
 31  15  33  1   
 32  16  18  am  
 33  16  20  1   
 34  17  21  1   
 35  17  34  1   
 36  17  35  1   
 37  18  22  2   
 38  19  21  1   
 39  19  36  1   
 40  19  37  1   
 41  20  38  1   
 42  20  39  1   
 43  20  40  1   
@<TRIPOS>SUBSTRUCTURE
  1 ****   8 GROUP 4 **** **** 0

# MOE 2024.06 (io_trps.svl 2023.06)
