@<TRIPOS>MOLECULE
NONAME
48 51 1 0 0 
SMALL
USER_CHARGES


@<TRIPOS>ATOM
  1 O        5.0850    -1.2410    -0.8070 O.2   1 <1>  -0.5700 
  2 C        3.8790    -1.4010    -0.8680 C.2   1 <1>   0.5440 
  3 N        3.1780    -0.4970    -1.6350 N.am  1 <1>  -0.6600 
  4 C        3.2230    -2.4320    -0.0830 C.ar  1 <1>   0.0860 
  5 C        3.7960     0.1130    -2.8640 C.3   1 <1>   0.1400 
  6 C        2.0480     0.2710    -1.0500 C.3   1 <1>   0.1400 
  7 C        3.7270    -2.8180     1.1590 C.ar  1 <1>  -0.1500 
  8 C        2.0710    -3.0800    -0.5320 C.ar  1 <1>  -0.1500 
  9 C        4.8390     1.2120    -2.5480 C.3   1 <1>   0.3430 
 10 C        2.5770     1.3370    -0.0790 C.3   1 <1>  -0.1600 
 11 C        3.1090    -3.7910     1.9210 C.ar  1 <1>  -0.1500 
 12 C        1.4490    -4.0550     0.2250 C.ar  1 <1>  -0.1500 
 13 N        4.8220     1.5800    -1.1020 N.4   1 <1>  -0.9590 
 14 C        3.6000     2.3130    -0.6730 C.3   1 <1>   0.3430 
 15 C        1.9590    -4.4250     1.4650 C.ar  1 <1>  -0.0230 
 16 C        6.0910     2.1490    -0.6020 C.3   1 <1>   0.5240 
 17 N        1.3260    -5.4280     2.2440 N.pl3 1 <1>   0.3260 
 18 C        6.1030     1.9340     0.8940 C.2   1 <1>  -0.1810 
 19 C        1.8730    -6.4600     2.9020 C.2   1 <1>   0.0360 
 20 C        0.0260    -5.5970     2.5210 C.2   1 <1>   0.0370 
 21 C        6.3420     0.7830     1.5590 C.2   1 <1>  -0.0100 
 22 C        5.8440     2.8950     1.8840 C.2   1 <1>  -0.1500 
 23 N        0.9960    -7.1770     3.5130 N.2   1 <1>  -0.3380 
 24 N       -0.1920    -6.6220     3.2680 N.2   1 <1>  -0.3380 
 25 O        6.2370     0.9680     2.8580 O.3   1 <1>  -0.2800 
 26 C        5.9420     2.2360     3.0590 C.2   1 <1>  -0.0100 
 27 H        3.0240     0.5220    -3.4920 H     1 <1>   0.0800 
 28 H        4.2800    -0.6640    -3.4320 H     1 <1>   0.0800 
 29 H        1.3890    -0.3970    -0.5210 H     1 <1>   0.0800 
 30 H        1.4760     0.7330    -1.8370 H     1 <1>   0.0800 
 31 H        4.6200    -2.3450     1.5320 H     1 <1>   0.1500 
 32 H        1.6630    -2.8180    -1.4930 H     1 <1>   0.1500 
 33 H        4.6650     2.0770    -3.1650 H     1 <1>   0.0800 
 34 H        5.8100     0.8180    -2.8000 H     1 <1>   0.0800 
 35 H        3.0010     0.8610     0.7880 H     1 <1>   0.0800 
 36 H        1.7370     1.9110     0.2690 H     1 <1>   0.0800 
 37 H        3.5280    -4.0560     2.8780 H     1 <1>   0.1500 
 38 H        0.5640    -4.5370    -0.1580 H     1 <1>   0.1500 
 39 H        4.7710     0.6470    -0.6450 H     1 <1>   0.4500 
 40 H        3.8580     3.0370     0.0830 H     1 <1>   0.0800 
 41 H        3.1690     2.8400    -1.5090 H     1 <1>   0.0800 
 42 H        6.1670     3.1970    -0.8410 H     1 <1>   0.0800 
 43 H        6.9260     1.6240    -1.0370 H     1 <1>   0.0800 
 44 H        2.9300    -6.6490     2.9010 H     1 <1>   0.1500 
 45 H       -0.7330    -4.9330     2.1520 H     1 <1>   0.1500 
 46 H        6.5860    -0.2040     1.1990 H     1 <1>   0.1500 
 47 H        5.6220     3.9370     1.7310 H     1 <1>   0.1500 
 48 H        5.8230     2.5840     4.0710 H     1 <1>   0.1500 
@<TRIPOS>BOND
  1   1   2  2   
  2   2   3  am  
  3   2   4  1   
  4   3   5  1   
  5   3   6  1   
  6   4   7  ar  
  7   4   8  ar  
  8   5   9  1   
  9   5  27  1   
 10   5  28  1   
 11   6  10  1   
 12   6  29  1   
 13   6  30  1   
 14   7  11  ar  
 15   7  31  1   
 16   8  12  ar  
 17   8  32  1   
 18   9  13  1   
 19   9  33  1   
 20   9  34  1   
 21  10  14  1   
 22  10  35  1   
 23  10  36  1   
 24  11  15  ar  
 25  11  37  1   
 26  12  15  ar  
 27  12  38  1   
 28  13  14  1   
 29  13  16  1   
 30  13  39  1   
 31  14  40  1   
 32  14  41  1   
 33  15  17  1   
 34  16  18  1   
 35  16  42  1   
 36  16  43  1   
 37  17  19  1   
 38  17  20  1   
 39  18  21  2   
 40  18  22  1   
 41  19  23  2   
 42  19  44  1   
 43  20  24  2   
 44  20  45  1   
 45  21  25  1   
 46  21  46  1   
 47  22  26  2   
 48  22  47  1   
 49  23  24  1   
 50  25  26  1   
 51  26  48  1   
@<TRIPOS>SUBSTRUCTURE
  1 ****   4 GROUP 4 **** **** 0

# MOE 2024.06 (io_trps.svl 2023.06)
