@<TRIPOS>MOLECULE
NONAME
52 55 1 0 0 
SMALL
USER_CHARGES


@<TRIPOS>ATOM
  1 O       -2.8160    -0.0360     1.1050 O.2   1 <1>  -0.5700 
  2 C       -2.5330     0.7030     0.1860 C.2   1 <1>   0.9370 
  3 N       -2.1440     2.0220     0.4930 N.pl3 1 <1>  -0.5760 
  4 C       -2.5910     0.2800    -1.1680 C.2   1 <1>   0.0290 
  5 C       -1.7860     2.8710    -0.5050 C.cat 1 <1>   0.7390 
  6 C       -2.1020     2.4660     1.7960 C.2   1 <1>   0.1910 
  7 C       -2.9720    -1.0590    -1.4680 C.2   1 <1>   0.6160 
  8 C       -2.2080     1.1560    -2.1290 C.2   1 <1>   0.1910 
  9 N       -1.8220     2.4250    -1.7850 N.pl3 1 <1>  -0.6450 
 10 C       -1.3890     4.1800    -0.2050 C.2   1 <1>  -0.1800 
 11 C       -1.7170     3.7410     2.1050 C.2   1 <1>  -0.1500 
 12 O       -2.1890    -1.7200    -2.1160 O.2   1 <1>  -0.5700 
 13 N       -4.1760    -1.6340    -1.1060 N.am  1 <1>  -0.6600 
 14 C       -1.3510     4.6270     1.0890 C.2   1 <1>  -0.1500 
 15 C       -4.3890    -3.1100    -1.2420 C.3   1 <1>   0.1400 
 16 C       -5.3800    -0.8840    -0.6400 C.3   1 <1>   0.1400 
 17 C       -4.9090    -3.7180     0.0840 C.3   1 <1>   0.4230 
 18 C       -5.8570    -1.4740     0.6920 C.3   1 <1>  -0.1600 
 19 N       -5.0330    -5.2370     0.0550 N.4   1 <1>  -0.9590 
 20 C       -6.1820    -2.9920     0.6110 C.3   1 <1>   0.0000 
 21 C       -5.9040    -5.8020     1.1380 C.3   1 <1>   0.3430 
 22 C       -5.4220    -5.8310    -1.2670 C.3   1 <1>   0.2630 
 23 C       -6.5120    -3.5030     2.0440 C.3   1 <1>  -0.1600 
 24 C       -7.3830    -3.2460    -0.3440 C.3   1 <1>   0.1200 
 25 C       -5.9200    -4.8890     2.3620 C.3   1 <1>  -0.1600 
 26 O       -8.4450    -2.4050    -0.0610 O.3   1 <1>  -0.6800 
 27 H       -2.3800     1.7880     2.5920 H     1 <1>   0.1500 
 28 H       -2.1920     0.8770    -3.1750 H     1 <1>   0.1500 
 29 H       -1.5230     3.0790    -2.5200 H     1 <1>   0.4500 
 30 H       -1.1110     4.8410    -1.0050 H     1 <1>   0.1500 
 31 H       -1.6900     4.0760     3.1300 H     1 <1>   0.1500 
 32 H       -1.0480     5.6330     1.3380 H     1 <1>   0.1500 
 33 H       -5.0850    -3.2740    -2.0440 H     1 <1>   0.0800 
 34 H       -3.4630    -3.5960    -1.4970 H     1 <1>   0.0800 
 35 H       -5.1630     0.1610    -0.5120 H     1 <1>   0.0800 
 36 H       -6.1610    -0.9630    -1.3790 H     1 <1>   0.0800 
 37 H       -4.1440    -3.4950     0.8090 H     1 <1>   0.0800 
 38 H       -5.0890    -1.3040     1.4260 H     1 <1>   0.0800 
 39 H       -6.7200    -0.9220     1.0240 H     1 <1>   0.0800 
 40 H       -4.0810    -5.5780     0.2590 H     1 <1>   0.4500 
 41 H       -6.9140    -5.9060     0.7770 H     1 <1>   0.0800 
 42 H       -5.5510    -6.7830     1.4180 H     1 <1>   0.0800 
 43 H       -6.3970    -5.4840    -1.5660 H     1 <1>   0.0800 
 44 H       -5.4480    -6.9080    -1.1990 H     1 <1>   0.0800 
 45 H       -4.7090    -5.5610    -2.0290 H     1 <1>   0.0800 
 46 H       -6.1400    -2.8180     2.7890 H     1 <1>   0.0800 
 47 H       -7.5790    -3.5390     2.1840 H     1 <1>   0.0800 
 48 H       -7.7430    -4.2570    -0.2700 H     1 <1>   0.0800 
 49 H       -7.1180    -3.0570    -1.3690 H     1 <1>   0.0800 
 50 H       -6.5040    -5.3500     3.1410 H     1 <1>   0.0800 
 51 H       -4.9170    -4.7880     2.7410 H     1 <1>   0.0800 
 52 H       -8.8540    -2.6000     0.8060 H     1 <1>   0.4000 
@<TRIPOS>BOND
  1   1   2  2   
  2   2   3  1   
  3   2   4  1   
  4   3   5  ar  
  5   3   6  1   
  6   4   7  1   
  7   4   8  2   
  8   5   9  ar  
  9   5  10  1   
 10   6  11  2   
 11   6  27  1   
 12   7  12  2   
 13   7  13  am  
 14   8   9  1   
 15   8  28  1   
 16   9  29  1   
 17  10  14  2   
 18  10  30  1   
 19  11  14  1   
 20  11  31  1   
 21  13  15  1   
 22  13  16  1   
 23  14  32  1   
 24  15  17  1   
 25  15  33  1   
 26  15  34  1   
 27  16  18  1   
 28  16  35  1   
 29  16  36  1   
 30  17  19  1   
 31  17  20  1   
 32  17  37  1   
 33  18  20  1   
 34  18  38  1   
 35  18  39  1   
 36  19  21  1   
 37  19  22  1   
 38  19  40  1   
 39  20  23  1   
 40  20  24  1   
 41  21  25  1   
 42  21  41  1   
 43  21  42  1   
 44  22  43  1   
 45  22  44  1   
 46  22  45  1   
 47  23  25  1   
 48  23  46  1   
 49  23  47  1   
 50  24  26  1   
 51  24  48  1   
 52  24  49  1   
 53  25  50  1   
 54  25  51  1   
 55  26  52  1   
@<TRIPOS>SUBSTRUCTURE
  1 ****  13 GROUP 4 **** **** 0

# MOE 2024.06 (io_trps.svl 2023.06)
