@<TRIPOS>MOLECULE
NONAME
50 53 1 0 0 
SMALL
USER_CHARGES


@<TRIPOS>ATOM
  1 O       -0.6690    -0.6230     0.5360 O.3   1 <1>  -0.5600 
  2 C       -0.0160    -0.0320    -0.5500 C.3   1 <1>   0.1200 
  3 C       -1.7710     0.1440     0.9290 C.3   1 <1>   0.1200 
  4 C       -0.4070     1.4420    -0.5340 C.3   1 <1>   0.2890 
  5 C       -1.8300     1.3550    -0.0050 C.3   1 <1>  -0.0800 
  6 N        0.4630     2.1790     0.4080 N.pl3 1 <1>  -0.8690 
  7 C       -2.3720     2.6340     0.6640 C.3   1 <1>  -0.0170 
  8 C        0.9930     3.4050     0.2120 C.ar  1 <1>   0.7200 
  9 C       -3.8430     2.4760     1.0360 C.ar  1 <1>  -0.1440 
 10 N        0.5150     4.1380    -0.7870 N.ar  1 <1>  -0.6200 
 11 N        1.9410     3.7330     1.0730 N.ar  1 <1>  -0.6200 
 12 C       -4.8810     2.5840     0.0810 C.ar  1 <1>   0.0000 
 13 C       -4.1970     2.2130     2.3260 C.ar  1 <1>  -0.1500 
 14 C        1.0570     5.3250    -0.9220 C.ar  1 <1>   0.1600 
 15 C        2.4630     4.9250     0.9090 C.ar  1 <1>   0.1600 
 16 C       -6.2100     2.3930     0.5310 C.ar  1 <1>   0.3100 
 17 C       -4.6810     2.8740    -1.2890 C.ar  1 <1>  -0.1500 
 18 C       -5.5440     2.0480     2.6680 C.ar  1 <1>   0.1600 
 19 C        2.0540     5.7810    -0.0890 C.ar  1 <1>  -0.1430 
 20 N       -6.5250     2.1260     1.8250 N.ar  1 <1>  -0.6200 
 21 C       -7.2600     2.4820    -0.3960 C.ar  1 <1>  -0.1500 
 22 C       -5.7270     2.9560    -2.1670 C.ar  1 <1>  -0.1500 
 23 C        2.6700     7.1610    -0.2610 C.3   1 <1>  -0.0170 
 24 C       -7.0340     2.7560    -1.7180 C.ar  1 <1>  -0.1500 
 25 C        1.8910     8.2020     0.5510 C.3   1 <1>  -0.1600 
 26 C        2.4940     9.6020     0.3940 C.3   1 <1>  -0.2400 
 27 H        1.0450    -0.1790    -0.4600 H     1 <1>   0.0800 
 28 H       -0.3780    -0.5070    -1.4440 H     1 <1>   0.0800 
 29 H       -2.6610    -0.4570     0.8660 H     1 <1>   0.0800 
 30 H       -1.6040     0.4450     1.9480 H     1 <1>   0.0800 
 31 H       -0.3600     1.8740    -1.5190 H     1 <1>   0.0800 
 32 H       -2.4700     1.0940    -0.8280 H     1 <1>   0.0800 
 33 H        0.8920     1.6360     1.1570 H     1 <1>   0.4000 
 34 H       -2.2460     3.4770     0.0080 H     1 <1>   0.0800 
 35 H       -1.8020     2.8500     1.5500 H     1 <1>   0.0800 
 36 H       -3.4610     2.1240     3.1050 H     1 <1>   0.1500 
 37 H        0.6950     5.9520    -1.7180 H     1 <1>   0.1500 
 38 H        3.2380     5.2290     1.5930 H     1 <1>   0.1500 
 39 H       -3.6840     3.0360    -1.6540 H     1 <1>   0.1500 
 40 H       -5.7790     1.8430     3.6980 H     1 <1>   0.1500 
 41 H       -8.2570     2.3270    -0.0280 H     1 <1>   0.1500 
 42 H       -5.5590     3.1760    -3.2070 H     1 <1>   0.1500 
 43 H        3.6960     7.1410     0.0630 H     1 <1>   0.0800 
 44 H        2.6620     7.4320    -1.3020 H     1 <1>   0.0800 
 45 H       -7.8490     2.8220    -2.4170 H     1 <1>   0.1500 
 46 H        0.8650     8.2180     0.2250 H     1 <1>   0.0800 
 47 H        1.9010     7.9260     1.5920 H     1 <1>   0.0800 
 48 H        2.4710     9.9100    -0.6360 H     1 <1>   0.0800 
 49 H        3.5130     9.6160     0.7390 H     1 <1>   0.0800 
 50 H        1.9290    10.3110     0.9740 H     1 <1>   0.0800 
@<TRIPOS>BOND
  1   1   2  1   
  2   1   3  1   
  3   2   4  1   
  4   2  27  1   
  5   2  28  1   
  6   3   5  1   
  7   3  29  1   
  8   3  30  1   
  9   4   5  1   
 10   4   6  1   
 11   4  31  1   
 12   5   7  1   
 13   5  32  1   
 14   6   8  1   
 15   6  33  1   
 16   7   9  1   
 17   7  34  1   
 18   7  35  1   
 19   8  10  ar  
 20   8  11  ar  
 21   9  12  ar  
 22   9  13  ar  
 23  10  14  ar  
 24  11  15  ar  
 25  12  16  ar  
 26  12  17  ar  
 27  13  18  ar  
 28  13  36  1   
 29  14  19  ar  
 30  14  37  1   
 31  15  19  ar  
 32  15  38  1   
 33  16  20  ar  
 34  16  21  ar  
 35  17  22  ar  
 36  17  39  1   
 37  18  20  ar  
 38  18  40  1   
 39  19  23  1   
 40  21  24  ar  
 41  21  41  1   
 42  22  24  ar  
 43  22  42  1   
 44  23  25  1   
 45  23  43  1   
 46  23  44  1   
 47  24  45  1   
 48  25  26  1   
 49  25  46  1   
 50  25  47  1   
 51  26  48  1   
 52  26  49  1   
 53  26  50  1   
@<TRIPOS>SUBSTRUCTURE
  1 ****   7 GROUP 4 **** **** 0

# MOE 2024.06 (io_trps.svl 2023.06)
