@<TRIPOS>MOLECULE
NONAME
41 43 1 0 0 
SMALL
USER_CHARGES


@<TRIPOS>ATOM
  1 S        0.0090    -0.1130     1.4350 S.3   1 <1>  -0.0800 
  2 C        1.1130    -0.9720     0.3790 C.2   1 <1>  -0.0450 
  3 C        0.7040     1.4020     0.9280 C.2   1 <1>   0.1980 
  4 C        1.8840    -0.0360    -0.2250 C.2   1 <1>   0.0460 
  5 C        1.0800    -2.4130     0.3220 C.2   1 <1>   0.7150 
  6 N        1.6430     1.2860     0.0810 N.2   1 <1>  -0.5650 
  7 C        0.1390     2.6680     1.5270 C.3   1 <1>  -0.0600 
  8 C        3.0010    -0.2880    -1.2170 C.3   1 <1>  -0.0590 
  9 O        2.1240    -3.0360     0.2510 O.2   1 <1>  -0.5700 
 10 N       -0.0990    -3.1270     0.3190 N.am  1 <1>  -0.6600 
 11 C       -1.4110    -2.5860    -0.1190 C.3   1 <1>   0.1400 
 12 C       -0.1160    -4.6100     0.2950 C.3   1 <1>   0.1400 
 13 C       -2.1730    -3.7960    -0.6580 C.3   1 <1>   0.2000 
 14 C       -1.5760    -5.0020     0.0630 C.3   1 <1>  -0.0800 
 15 O       -3.5300    -3.7040    -0.3940 O.3   1 <1>  -0.6800 
 16 C       -1.7460    -6.3130    -0.7210 C.3   1 <1>  -0.0170 
 17 C       -1.1240    -7.4810     0.0280 C.ar  1 <1>  -0.1440 
 18 C       -1.7990    -8.1350     1.0380 C.ar  1 <1>  -0.1500 
 19 C        0.1450    -7.9460    -0.2580 C.ar  1 <1>  -0.1500 
 20 C       -1.1910    -9.1900     1.6970 C.ar  1 <1>   0.1600 
 21 C        0.6620    -9.0090     0.4640 C.ar  1 <1>   0.1600 
 22 N        0.0250    -9.6420     1.4350 N.ar  1 <1>  -0.6200 
 23 H        0.6590     3.5200     1.1270 H     1 <1>   0.0800 
 24 H        0.2630     2.6520     2.5940 H     1 <1>   0.0800 
 25 H       -0.9050     2.7510     1.2890 H     1 <1>   0.0800 
 26 H        3.1040    -1.3350    -1.4350 H     1 <1>   0.0800 
 27 H        3.9280     0.0720    -0.8100 H     1 <1>   0.0800 
 28 H        2.7970     0.2380    -2.1310 H     1 <1>   0.0800 
 29 H       -1.9200    -2.1670     0.7300 H     1 <1>   0.0800 
 30 H       -1.2830    -1.8400    -0.8850 H     1 <1>   0.0800 
 31 H        0.5080    -4.9540    -0.5140 H     1 <1>   0.0800 
 32 H        0.2580    -5.0110     1.2230 H     1 <1>   0.0800 
 33 H       -2.0370    -3.8670    -1.7240 H     1 <1>   0.0800 
 34 H       -2.0340    -5.1040     1.0310 H     1 <1>   0.0800 
 35 H       -3.6920    -3.6670     0.5680 H     1 <1>   0.4000 
 36 H       -1.2930    -6.2220    -1.6930 H     1 <1>   0.0800 
 37 H       -2.7950    -6.5050    -0.8710 H     1 <1>   0.0800 
 38 H       -2.7930    -7.8360     1.3180 H     1 <1>   0.1500 
 39 H        0.7370    -7.4940    -1.0320 H     1 <1>   0.1500 
 40 H       -1.7330    -9.6890     2.4820 H     1 <1>   0.1500 
 41 H        1.6530    -9.3580     0.2280 H     1 <1>   0.1500 
@<TRIPOS>BOND
  1   1   2  1   
  2   1   3  1   
  3   2   4  2   
  4   2   5  1   
  5   3   6  2   
  6   3   7  1   
  7   4   6  1   
  8   4   8  1   
  9   5   9  2   
 10   5  10  am  
 11   7  23  1   
 12   7  24  1   
 13   7  25  1   
 14   8  26  1   
 15   8  27  1   
 16   8  28  1   
 17  10  11  1   
 18  10  12  1   
 19  11  13  1   
 20  11  29  1   
 21  11  30  1   
 22  12  14  1   
 23  12  31  1   
 24  12  32  1   
 25  13  14  1   
 26  13  15  1   
 27  13  33  1   
 28  14  16  1   
 29  14  34  1   
 30  15  35  1   
 31  16  17  1   
 32  16  36  1   
 33  16  37  1   
 34  17  18  ar  
 35  17  19  ar  
 36  18  20  ar  
 37  18  38  1   
 38  19  21  ar  
 39  19  39  1   
 40  20  22  ar  
 41  20  40  1   
 42  21  22  ar  
 43  21  41  1   
@<TRIPOS>SUBSTRUCTURE
  1 ****  10 GROUP 4 **** **** 0

# MOE 2024.06 (io_trps.svl 2023.06)
