@<TRIPOS>MOLECULE
NONAME
38 38 1 0 0 
SMALL
USER_CHARGES


@<TRIPOS>ATOM
  1 O        4.2960    -0.3190    -2.0550 O.co2 1 <1>  -0.9000 
  2 C        3.1020    -0.3750    -1.7050 C.2   1 <1>   0.9060 
  3 O        2.2120    -0.5770    -2.5270 O.co2 1 <1>  -0.9000 
  4 C        2.7370     0.0100    -0.2460 C.3   1 <1>   0.1830 
  5 N        3.0460     1.4370     0.1920 N.pl3 1 <1>  -0.8690 
  6 C        3.3770    -0.9280     0.7930 C.3   1 <1>  -0.1600 
  7 C        3.8400     2.3910    -0.3180 C.ar  1 <1>   0.7710 
  8 C        2.9410    -2.3900     0.6120 C.3   1 <1>  -0.1600 
  9 N        3.7840     3.5630     0.2890 N.ar  1 <1>  -0.6200 
 10 N        4.6450     2.1700    -1.3690 N.ar  1 <1>  -0.1790 
 11 C        3.5460    -3.2830     1.6980 C.3   1 <1>  -0.2400 
 12 C        4.5300     4.5490    -0.1810 C.ar  1 <1>   0.4100 
 13 C        5.4280     3.1370    -1.8820 C.ar  1 <1>   0.2110 
 14 N        4.4480     5.7590     0.4450 N.pl3 1 <1>  -0.8380 
 15 C        5.3820     4.3530    -1.2890 C.ar  1 <1>  -0.1500 
 16 C        4.8210     7.0550    -0.1820 C.3   1 <1>   0.2090 
 17 C        3.7910     5.9090     1.7810 C.3   1 <1>   0.1290 
 18 C        6.2190     7.4550     0.2780 C.3   1 <1>  -0.2400 
 19 H        1.6710    -0.1140    -0.1840 H     1 <1>   0.0800 
 20 H        2.4930     1.7440     0.9930 H     1 <1>   0.4000 
 21 H        3.0960    -0.6030     1.7790 H     1 <1>   0.0800 
 22 H        4.4480    -0.8670     0.7050 H     1 <1>   0.0800 
 23 H        3.2580    -2.7500    -0.3540 H     1 <1>   0.0800 
 24 H        1.8670    -2.4580     0.6520 H     1 <1>   0.0800 
 25 H        4.6320     1.2110    -1.7600 H     1 <1>   0.4570 
 26 H        4.6200    -3.2480     1.6570 H     1 <1>   0.0800 
 27 H        3.2320    -4.3020     1.5510 H     1 <1>   0.0800 
 28 H        3.2230    -2.9640     2.6740 H     1 <1>   0.0800 
 29 H        6.0500     2.9030    -2.7310 H     1 <1>   0.1500 
 30 H        5.9890     5.1610    -1.6430 H     1 <1>   0.1500 
 31 H        4.1100     7.8130     0.1050 H     1 <1>   0.0800 
 32 H        4.7880     6.9760    -1.2550 H     1 <1>   0.0800 
 33 H        3.8930     5.0050     2.3580 H     1 <1>   0.0800 
 34 H        2.7440     6.1190     1.6480 H     1 <1>   0.0800 
 35 H        4.2450     6.7110     2.3360 H     1 <1>   0.0800 
 36 H        6.2370     7.5940     1.3430 H     1 <1>   0.0800 
 37 H        6.5030     8.3800    -0.1890 H     1 <1>   0.0800 
 38 H        6.9360     6.7010     0.0090 H     1 <1>   0.0800 
@<TRIPOS>BOND
  1   1   2  ar  
  2   2   3  ar  
  3   2   4  1   
  4   4   5  1   
  5   4   6  1   
  6   4  19  1   
  7   5   7  1   
  8   5  20  1   
  9   6   8  1   
 10   6  21  1   
 11   6  22  1   
 12   7   9  ar  
 13   7  10  ar  
 14   8  11  1   
 15   8  23  1   
 16   8  24  1   
 17   9  12  ar  
 18  10  13  ar  
 19  10  25  1   
 20  11  26  1   
 21  11  27  1   
 22  11  28  1   
 23  12  14  1   
 24  12  15  ar  
 25  13  15  ar  
 26  13  29  1   
 27  14  16  1   
 28  14  17  1   
 29  15  30  1   
 30  16  18  1   
 31  16  31  1   
 32  16  32  1   
 33  17  33  1   
 34  17  34  1   
 35  17  35  1   
 36  18  36  1   
 37  18  37  1   
 38  18  38  1   
@<TRIPOS>SUBSTRUCTURE
  1 ****   7 GROUP 4 **** **** 0

# MOE 2024.06 (io_trps.svl 2023.06)
