@<TRIPOS>MOLECULE
NONAME
59 62 1 0 0 
SMALL
USER_CHARGES


@<TRIPOS>ATOM
  1 O        1.0330    -2.2040    -1.0050 O.3   1 <1>  -0.5600 
  2 C       -0.0250    -2.6490    -0.1850 C.3   1 <1>   0.2800 
  3 C        1.2470    -0.8200    -1.1000 C.3   1 <1>   0.1200 
  4 C       -1.3420    -1.9450    -0.5790 C.3   1 <1>  -0.1600 
  5 C        0.3760    -2.4930     1.2960 C.3   1 <1>  -0.1600 
  6 C       -0.1540    -4.1590    -0.4600 C.3   1 <1>  -0.1600 
  7 C        0.0000    -0.1300    -1.6530 C.3   1 <1>  -0.1600 
  8 C       -1.2190    -0.4330    -0.7860 C.3   1 <1>   0.2800 
  9 C        1.6830    -3.2140     1.6470 C.3   1 <1>   0.3430 
 10 C        0.9460    -5.0130     0.1810 C.3   1 <1>   0.3430 
 11 O       -1.0350     0.1590     0.4400 O.3   1 <1>  -0.6800 
 12 C       -2.4980     0.1650    -1.3670 C.3   1 <1>  -0.2400 
 13 N        2.1050    -4.1450     0.5470 N.4   1 <1>  -0.9590 
 14 C        3.4100    -4.8470     0.7520 C.3   1 <1>   0.4230 
 15 C        4.5070    -3.8340     1.1170 C.3   1 <1>  -0.1600 
 16 C        3.8040    -5.6050    -0.5260 C.3   1 <1>  -0.1600 
 17 C        5.8890    -4.4800     1.1880 C.3   1 <1>   0.3430 
 18 C        5.2020    -6.2180    -0.4350 C.3   1 <1>   0.3430 
 19 N        6.1910    -5.1630    -0.1000 N.4   1 <1>  -0.9590 
 20 C        7.5930    -5.6900    -0.1060 C.3   1 <1>   0.5230 
 21 C        8.5300    -4.5680    -0.5120 C.2   1 <1>  -0.0400 
 22 O        8.5380    -3.4470     0.1870 O.3   1 <1>  -0.2800 
 23 C        9.4150    -4.4930    -1.5300 C.2   1 <1>  -0.1500 
 24 C        9.4260    -2.6410    -0.3600 C.2   1 <1>  -0.0100 
 25 C       10.0040    -3.2260    -1.4290 C.2   1 <1>  -0.1500 
 26 H        2.0780    -0.6610    -1.7650 H     1 <1>   0.0800 
 27 H        1.5030    -0.4300    -0.1300 H     1 <1>   0.0800 
 28 H       -2.1070    -2.1480     0.1490 H     1 <1>   0.0800 
 29 H       -1.6780    -2.3700    -1.5070 H     1 <1>   0.0800 
 30 H       -0.4110    -2.8940     1.9100 H     1 <1>   0.0800 
 31 H        0.4650    -1.4610     1.5770 H     1 <1>   0.0800 
 32 H       -0.1660    -4.3250    -1.5230 H     1 <1>   0.0800 
 33 H       -1.0980    -4.5130    -0.0850 H     1 <1>   0.0800 
 34 H       -0.1700    -0.4840    -2.6540 H     1 <1>   0.0800 
 35 H        0.1620     0.9320    -1.7090 H     1 <1>   0.0800 
 36 H        1.5610    -3.7540     2.5720 H     1 <1>   0.0800 
 37 H        2.4440    -2.4640     1.7930 H     1 <1>   0.0800 
 38 H        1.2350    -5.7780    -0.5190 H     1 <1>   0.0800 
 39 H        0.5620    -5.4930     1.0670 H     1 <1>   0.0800 
 40 H       -1.1850     1.1200     0.3590 H     1 <1>   0.4000 
 41 H       -2.7060    -0.2710    -2.3270 H     1 <1>   0.0800 
 42 H       -2.3980     1.2280    -1.5000 H     1 <1>   0.0800 
 43 H       -3.3340    -0.0350    -0.7200 H     1 <1>   0.0800 
 44 H        2.1820    -3.5060    -0.2730 H     1 <1>   0.4500 
 45 H        3.3070    -5.5540     1.5620 H     1 <1>   0.0800 
 46 H        4.3120    -3.4090     2.0840 H     1 <1>   0.0800 
 47 H        4.5360    -3.0350     0.3960 H     1 <1>   0.0800 
 48 H        3.7700    -4.9440    -1.3760 H     1 <1>   0.0800 
 49 H        3.1200    -6.4140    -0.7050 H     1 <1>   0.0800 
 50 H        5.9210    -5.1930     1.9970 H     1 <1>   0.0800 
 51 H        6.6270    -3.7180     1.3880 H     1 <1>   0.0800 
 52 H        5.4560    -6.6740    -1.3800 H     1 <1>   0.0800 
 53 H        5.2160    -6.9860     0.3230 H     1 <1>   0.0800 
 54 H        6.2010    -4.4430    -0.8400 H     1 <1>   0.4500 
 55 H        7.6890    -6.4910    -0.8190 H     1 <1>   0.0800 
 56 H        7.8650    -6.0620     0.8690 H     1 <1>   0.0800 
 57 H        9.6630    -5.2190    -2.2870 H     1 <1>   0.1500 
 58 H        9.5900    -1.6670     0.0720 H     1 <1>   0.1500 
 59 H       10.7630    -2.8310    -2.0840 H     1 <1>   0.1500 
@<TRIPOS>BOND
  1   1   2  1   
  2   1   3  1   
  3   2   4  1   
  4   2   5  1   
  5   2   6  1   
  6   3   7  1   
  7   3  26  1   
  8   3  27  1   
  9   4   8  1   
 10   4  28  1   
 11   4  29  1   
 12   5   9  1   
 13   5  30  1   
 14   5  31  1   
 15   6  10  1   
 16   6  32  1   
 17   6  33  1   
 18   7   8  1   
 19   7  34  1   
 20   7  35  1   
 21   8  11  1   
 22   8  12  1   
 23   9  13  1   
 24   9  36  1   
 25   9  37  1   
 26  10  13  1   
 27  10  38  1   
 28  10  39  1   
 29  11  40  1   
 30  12  41  1   
 31  12  42  1   
 32  12  43  1   
 33  13  14  1   
 34  13  44  1   
 35  14  15  1   
 36  14  16  1   
 37  14  45  1   
 38  15  17  1   
 39  15  46  1   
 40  15  47  1   
 41  16  18  1   
 42  16  48  1   
 43  16  49  1   
 44  17  19  1   
 45  17  50  1   
 46  17  51  1   
 47  18  19  1   
 48  18  52  1   
 49  18  53  1   
 50  19  20  1   
 51  19  54  1   
 52  20  21  1   
 53  20  55  1   
 54  20  56  1   
 55  21  22  1   
 56  21  23  2   
 57  22  24  1   
 58  23  25  1   
 59  23  57  1   
 60  24  25  2   
 61  24  58  1   
 62  25  59  1   
@<TRIPOS>SUBSTRUCTURE
  1 ****  13 GROUP 4 **** **** 0

# MOE 2024.06 (io_trps.svl 2023.06)
