@<TRIPOS>MOLECULE
NONAME
50 52 1 0 0 
SMALL
USER_CHARGES


@<TRIPOS>ATOM
  1 O        0.6090     0.3560     0.5340 O.2   1 <1>  -0.5700 
  2 C        1.6060    -0.3430     0.5640 C.2   1 <1>   0.7160 
  3 N        2.7330     0.1680     1.1970 N.am  1 <1>  -0.6600 
  4 C        1.5900    -1.6380    -0.1030 C.2   1 <1>   0.2030 
  5 C        3.9140    -0.6580     1.5950 C.3   1 <1>   0.1400 
  6 C        2.8660     1.6180     1.4880 C.3   1 <1>   0.1400 
  7 N        2.6150    -2.3050    -0.5550 N.2   1 <1>  -0.4100 
  8 C        0.4450    -2.3640    -0.3940 C.2   1 <1>  -0.1500 
  9 C        5.0510    -0.5990     0.5530 C.3   1 <1>   0.3430 
 10 C        3.4800     2.3410     0.2830 C.3   1 <1>  -0.1600 
 11 O        2.2220    -3.4230    -1.1130 O.3   1 <1>  -0.0190 
 12 C        0.9110    -3.4510    -1.0140 C.2   1 <1>  -0.0400 
 13 N        5.4470     0.7980     0.1610 N.4   1 <1>  -0.9590 
 14 C        4.3750     1.4850    -0.6210 C.3   1 <1>   0.3430 
 15 C        0.1630    -4.6380    -1.5860 C.3   1 <1>  -0.0600 
 16 C        6.7110     0.8020    -0.6020 C.3   1 <1>   0.5230 
 17 C        7.2870     2.1860    -0.4320 C.2   1 <1>  -0.3320 
 18 N        8.1070     2.5560     0.5960 N.pl3 1 <1>   0.0480 
 19 C        7.0970     3.2540    -1.2480 C.2   1 <1>  -0.1500 
 20 C        8.4050     3.8600     0.4150 C.2   1 <1>  -0.3020 
 21 C        8.6440     1.7160     1.6870 C.3   1 <1>   0.0160 
 22 C        7.8000     4.3490    -0.7160 C.2   1 <1>  -0.0860 
 23 C        7.8220     5.6650    -1.2990 C.2   1 <1>   0.5950 
 24 O        7.1580     5.9660    -2.2580 O.2   1 <1>  -0.5700 
 25 C        8.7040     6.7280    -0.6840 C.3   1 <1>  -0.1790 
 26 H        3.6130    -1.6830     1.7340 H     1 <1>   0.0800 
 27 H        4.2830    -0.3190     2.5470 H     1 <1>   0.0800 
 28 H        3.4880     1.7560     2.3560 H     1 <1>   0.0800 
 29 H        1.9030     2.0470     1.7190 H     1 <1>   0.0800 
 30 H       -0.5630    -2.0730    -0.1570 H     1 <1>   0.1500 
 31 H        4.7420    -1.1430    -0.3260 H     1 <1>   0.0800 
 32 H        5.9040    -1.1150     0.9620 H     1 <1>   0.0800 
 33 H        4.0230     3.2060     0.6190 H     1 <1>   0.0800 
 34 H        2.6710     2.7080    -0.3230 H     1 <1>   0.0800 
 35 H        5.6260     1.3760     0.9880 H     1 <1>   0.4500 
 36 H        4.8110     2.1280    -1.3680 H     1 <1>   0.0800 
 37 H        3.7710     0.7510    -1.1320 H     1 <1>   0.0800 
 38 H       -0.8940    -4.5200    -1.4330 H     1 <1>   0.0800 
 39 H        0.4870    -5.5410    -1.1020 H     1 <1>   0.0800 
 40 H        0.3560    -4.7180    -2.6400 H     1 <1>   0.0800 
 41 H        6.5240     0.5930    -1.6440 H     1 <1>   0.0800 
 42 H        7.4010     0.0690    -0.2170 H     1 <1>   0.0800 
 43 H        6.5240     3.3220    -2.1600 H     1 <1>   0.1500 
 44 H        9.0450     4.4020     1.0910 H     1 <1>   0.1500 
 45 H        7.8370     1.3270     2.2790 H     1 <1>   0.0800 
 46 H        9.2850     2.3110     2.3140 H     1 <1>   0.0800 
 47 H        9.2180     0.9090     1.2700 H     1 <1>   0.0800 
 48 H        9.7150     6.3720    -0.6230 H     1 <1>   0.0800 
 49 H        8.3470     6.9690     0.3000 H     1 <1>   0.0800 
 50 H        8.6830     7.6160    -1.2900 H     1 <1>   0.0800 
@<TRIPOS>BOND
  1   1   2  2   
  2   2   3  am  
  3   2   4  1   
  4   3   5  1   
  5   3   6  1   
  6   4   7  2   
  7   4   8  1   
  8   5   9  1   
  9   5  26  1   
 10   5  27  1   
 11   6  10  1   
 12   6  28  1   
 13   6  29  1   
 14   7  11  1   
 15   8  12  2   
 16   8  30  1   
 17   9  13  1   
 18   9  31  1   
 19   9  32  1   
 20  10  14  1   
 21  10  33  1   
 22  10  34  1   
 23  11  12  1   
 24  12  15  1   
 25  13  14  1   
 26  13  16  1   
 27  13  35  1   
 28  14  36  1   
 29  14  37  1   
 30  15  38  1   
 31  15  39  1   
 32  15  40  1   
 33  16  17  1   
 34  16  41  1   
 35  16  42  1   
 36  17  18  1   
 37  17  19  2   
 38  18  20  1   
 39  18  21  1   
 40  19  22  1   
 41  19  43  1   
 42  20  22  2   
 43  20  44  1   
 44  21  45  1   
 45  21  46  1   
 46  21  47  1   
 47  22  23  1   
 48  23  24  2   
 49  23  25  1   
 50  25  48  1   
 51  25  49  1   
 52  25  50  1   
@<TRIPOS>SUBSTRUCTURE
  1 ****  14 GROUP 4 **** **** 0

# MOE 2024.06 (io_trps.svl 2023.06)
