@<TRIPOS>MOLECULE
NONAME
60 63 1 0 0 
SMALL
USER_CHARGES


@<TRIPOS>ATOM
  1 O       -0.2820     0.5780     2.2000 O.2   1 <1>  -0.5700 
  2 C       -0.8270     0.6120     1.1210 C.2   1 <1>   0.5690 
  3 N       -1.6250    -0.4120     0.7260 N.am  1 <1>  -0.7300 
  4 C       -0.5670     1.8010     0.1770 C.3   1 <1>   0.0610 
  5 C       -2.0580    -1.5230     1.5850 C.3   1 <1>   0.2840 
  6 C       -0.5390     3.1420     0.9640 C.3   1 <1>   0.2200 
  7 C       -1.7240     2.0840    -0.8360 C.3   1 <1>  -0.1600 
  8 C        0.7760     1.4900    -0.5530 C.3   1 <1>  -0.1600 
  9 C       -3.4920    -1.8480     1.2170 C.ar  1 <1>  -0.1440 
 10 N       -0.9130     4.0940    -0.0770 N.am  1 <1>  -0.6600 
 11 C       -1.7800     3.3090     1.8640 C.3   1 <1>  -0.1600 
 12 C       -2.1730     3.5120    -0.4950 C.3   1 <1>   0.2200 
 13 C        1.3860     2.5800    -1.4510 C.3   1 <1>  -0.2400 
 14 C       -3.7850    -2.9200     0.3880 C.ar  1 <1>  -0.1500 
 15 C       -4.5260    -1.0630     1.6980 C.ar  1 <1>  -0.1500 
 16 C       -0.4030     5.3470    -0.2740 C.2   1 <1>   0.5690 
 17 C       -2.9200     3.4990     0.8430 C.3   1 <1>  -0.1600 
 18 C       -5.0940    -3.2140     0.0400 C.ar  1 <1>  -0.1430 
 19 C       -5.8340    -1.3490     1.3540 C.ar  1 <1>  -0.1500 
 20 O        0.5890     5.7160     0.3120 O.2   1 <1>  -0.5700 
 21 C       -1.0380     6.3110    -1.2810 C.3   1 <1>   0.1810 
 22 C       -6.1280    -2.4210     0.5270 C.ar  1 <1>  -0.1430 
 23 C       -5.3550    -4.3960    -0.8870 C.3   1 <1>  -0.0170 
 24 O       -2.4140     6.5150    -1.0590 O.3   1 <1>  -0.5600 
 25 C       -7.5880    -2.7060     0.1930 C.3   1 <1>  -0.0170 
 26 C       -6.8190    -4.8490    -0.8760 C.3   1 <1>  -0.1600 
 27 C       -2.9860     7.4640    -1.8980 C.3   1 <1>   0.0400 
 28 C       -7.7510    -3.6420    -1.0110 C.3   1 <1>  -0.1600 
 29 H       -2.0880    -0.3900    -0.1830 H     1 <1>   0.3700 
 30 H       -1.4200    -2.3740     1.4210 H     1 <1>   0.0800 
 31 H       -1.9930    -1.2400     2.6230 H     1 <1>   0.0800 
 32 H        0.3970     3.3640     1.4500 H     1 <1>   0.0800 
 33 H       -2.5610     1.4170    -0.7530 H     1 <1>   0.0800 
 34 H       -1.3800     2.0520    -1.8530 H     1 <1>   0.0800 
 35 H        1.5120     1.2470     0.1960 H     1 <1>   0.0800 
 36 H        0.6380     0.6030    -1.1470 H     1 <1>   0.0800 
 37 H       -1.9530     2.4840     2.5300 H     1 <1>   0.0800 
 38 H       -1.6610     4.1990     2.4570 H     1 <1>   0.0800 
 39 H       -2.6760     4.0330    -1.2920 H     1 <1>   0.0800 
 40 H        1.6780     3.4320    -0.8620 H     1 <1>   0.0800 
 41 H        0.6970     2.9010    -2.2090 H     1 <1>   0.0800 
 42 H        2.2680     2.1990    -1.9360 H     1 <1>   0.0800 
 43 H       -2.9870    -3.5320     0.0070 H     1 <1>   0.1500 
 44 H       -4.3140    -0.2250     2.3400 H     1 <1>   0.1500 
 45 H       -3.4090     4.4460     0.9960 H     1 <1>   0.0800 
 46 H       -3.6500     2.7110     0.8890 H     1 <1>   0.0800 
 47 H       -6.6280    -0.7330     1.7390 H     1 <1>   0.1500 
 48 H       -0.9070     5.9170    -2.2710 H     1 <1>   0.0800 
 49 H       -0.5390     7.2610    -1.2070 H     1 <1>   0.0800 
 50 H       -5.0860    -4.1040    -1.8870 H     1 <1>   0.0800 
 51 H       -4.7280    -5.2240    -0.6050 H     1 <1>   0.0800 
 52 H       -8.0450    -3.1610     1.0550 H     1 <1>   0.0800 
 53 H       -8.1030    -1.7830    -0.0050 H     1 <1>   0.0800 
 54 H       -6.9890    -5.5380    -1.6850 H     1 <1>   0.0800 
 55 H       -7.0270    -5.3600     0.0480 H     1 <1>   0.0800 
 56 H       -4.0320     7.5380    -1.6560 H     1 <1>   0.0800 
 57 H       -2.8720     7.1510    -2.9220 H     1 <1>   0.0800 
 58 H       -2.5100     8.4160    -1.7360 H     1 <1>   0.0800 
 59 H       -8.7730    -3.9700    -1.0750 H     1 <1>   0.0800 
 60 H       -7.5140    -3.1050    -1.9140 H     1 <1>   0.0800 
@<TRIPOS>BOND
  1   1   2  2   
  2   2   3  am  
  3   2   4  1   
  4   3   5  1   
  5   3  29  1   
  6   4   6  1   
  7   4   7  1   
  8   4   8  1   
  9   5   9  1   
 10   5  30  1   
 11   5  31  1   
 12   6  10  1   
 13   6  11  1   
 14   6  32  1   
 15   7  12  1   
 16   7  33  1   
 17   7  34  1   
 18   8  13  1   
 19   8  35  1   
 20   8  36  1   
 21   9  14  ar  
 22   9  15  ar  
 23  10  12  1   
 24  10  16  am  
 25  11  17  1   
 26  11  37  1   
 27  11  38  1   
 28  12  17  1   
 29  12  39  1   
 30  13  40  1   
 31  13  41  1   
 32  13  42  1   
 33  14  18  ar  
 34  14  43  1   
 35  15  19  ar  
 36  15  44  1   
 37  16  20  2   
 38  16  21  1   
 39  17  45  1   
 40  17  46  1   
 41  18  22  ar  
 42  18  23  1   
 43  19  22  ar  
 44  19  47  1   
 45  21  24  1   
 46  21  48  1   
 47  21  49  1   
 48  22  25  1   
 49  23  26  1   
 50  23  50  1   
 51  23  51  1   
 52  24  27  1   
 53  25  28  1   
 54  25  52  1   
 55  25  53  1   
 56  26  28  1   
 57  26  54  1   
 58  26  55  1   
 59  27  56  1   
 60  27  57  1   
 61  27  58  1   
 62  28  59  1   
 63  28  60  1   
@<TRIPOS>SUBSTRUCTURE
  1 ****   7 GROUP 4 **** **** 0

# MOE 2024.06 (io_trps.svl 2023.06)
