@<TRIPOS>MOLECULE
NONAME
58 62 1 0 0 
SMALL
USER_CHARGES


@<TRIPOS>ATOM
  1 S       -0.2580     0.9280     1.2800 S.o2  1 <1>   1.4470 
  2 O       -0.8160    -0.1710     2.0410 O.2   1 <1>  -0.6500 
  3 O       -0.0890     2.2030     1.9440 O.2   1 <1>  -0.6500 
  4 N       -1.3360     1.1980    -0.0060 N.am  1 <1>  -0.8490 
  5 C        1.2770     0.4070     0.4440 C.ar  1 <1>  -0.0090 
  6 C       -1.7550    -0.0540    -0.6720 C.3   1 <1>   0.1960 
  7 C       -2.5730     1.8460     0.4260 C.3   1 <1>   0.1960 
  8 C        2.0850     1.2740    -0.2970 C.ar  1 <1>  -0.1440 
  9 C        1.6570    -0.9290     0.5130 C.ar  1 <1>  -0.1500 
 10 C       -3.1770    -0.3570    -0.1850 C.3   1 <1>   0.2800 
 11 C       -3.5330     0.7180     0.8290 C.3   1 <1>  -0.0800 
 12 C        3.2240     0.7980    -0.9290 C.ar  1 <1>  -0.1500 
 13 C        1.7520     2.7540    -0.4410 C.3   1 <1>  -0.0960 
 14 C        2.7920    -1.4220    -0.1200 C.ar  1 <1>  -0.0230 
 15 O       -4.1410    -0.1220    -1.1510 O.3   1 <1>  -0.5600 
 16 C       -3.5630    -1.7480     0.3080 C.3   1 <1>  -0.1600 
 17 C       -5.0630     0.8500     0.6300 C.3   1 <1>  -0.0800 
 18 C        3.5750    -0.5340    -0.8450 C.ar  1 <1>  -0.1500 
 19 N        3.1290    -2.8040    -0.0300 N.pl3 1 <1>   0.5930 
 20 C       -5.2840    -0.2640    -0.4070 C.3   1 <1>   0.2000 
 21 C       -5.0890    -1.6630     0.1980 C.3   1 <1>  -0.1600 
 22 C       -5.4870     2.2220     0.0840 C.3   1 <1>   0.3430 
 23 N        2.2000    -3.7940     0.0070 N.2   1 <1>  -0.7070 
 24 C        4.3720    -3.3440     0.0270 C.2   1 <1>  -0.3020 
 25 N       -6.9200     2.5550     0.3780 N.4   1 <1>  -0.9590 
 26 C        2.8690    -4.9010     0.0810 C.2   1 <1>   0.1390 
 27 C        4.2400    -4.6850     0.0970 C.2   1 <1>  -0.1500 
 28 C       -7.8960     1.7260    -0.3970 C.3   1 <1>   0.2630 
 29 C       -7.1680     4.0060     0.1060 C.3   1 <1>   0.2630 
 30 H       -1.7620     0.0840    -1.7390 H     1 <1>   0.0800 
 31 H       -1.0920    -0.8680    -0.4340 H     1 <1>   0.0800 
 32 H       -2.4080     2.5450     1.2290 H     1 <1>   0.0800 
 33 H       -2.9560     2.3840    -0.4240 H     1 <1>   0.0800 
 34 H        1.0490    -1.6190     1.0760 H     1 <1>   0.1500 
 35 H       -3.3000     0.3920     1.8290 H     1 <1>   0.0800 
 36 H        3.8470     1.4670    -1.4970 H     1 <1>   0.1500 
 37 H        2.4090     3.2340    -1.1440 H     1 <1>   0.0800 
 38 H        1.8560     3.2510     0.5070 H     1 <1>   0.0800 
 39 H        0.7440     2.8820    -0.7930 H     1 <1>   0.0800 
 40 H       -3.1660    -2.5000    -0.3520 H     1 <1>   0.0800 
 41 H       -3.2180    -1.9310     1.3110 H     1 <1>   0.0800 
 42 H       -5.5750     0.6370     1.5520 H     1 <1>   0.0800 
 43 H        4.4580    -0.8800    -1.3540 H     1 <1>   0.1500 
 44 H       -6.1550    -0.1760    -1.0320 H     1 <1>   0.0800 
 45 H       -5.5770    -1.7660     1.1510 H     1 <1>   0.0800 
 46 H       -5.4620    -2.4150    -0.4770 H     1 <1>   0.0800 
 47 H       -5.3000     2.2600    -0.9780 H     1 <1>   0.0800 
 48 H       -4.8690     2.9710     0.5520 H     1 <1>   0.0800 
 49 H        5.2610    -2.7450     0.0190 H     1 <1>   0.1500 
 50 H       -7.0840     2.3940     1.3840 H     1 <1>   0.4500 
 51 H        2.4050    -5.8730     0.1250 H     1 <1>   0.1500 
 52 H        5.0020    -5.4430     0.1550 H     1 <1>   0.1500 
 53 H       -7.7090     1.8160    -1.4550 H     1 <1>   0.0800 
 54 H       -8.9050     2.0500    -0.1970 H     1 <1>   0.0800 
 55 H       -7.8150     0.6880    -0.1170 H     1 <1>   0.0800 
 56 H       -7.0040     4.2260    -0.9360 H     1 <1>   0.0800 
 57 H       -6.5040     4.6170     0.6960 H     1 <1>   0.0800 
 58 H       -8.1840     4.2660     0.3570 H     1 <1>   0.0800 
@<TRIPOS>BOND
  1   1   2  2   
  2   1   3  2   
  3   1   4  am  
  4   1   5  1   
  5   4   6  1   
  6   4   7  1   
  7   5   8  ar  
  8   5   9  ar  
  9   6  10  1   
 10   6  30  1   
 11   6  31  1   
 12   7  11  1   
 13   7  32  1   
 14   7  33  1   
 15   8  12  ar  
 16   8  13  1   
 17   9  14  ar  
 18   9  34  1   
 19  10  11  1   
 20  10  15  1   
 21  10  16  1   
 22  11  17  1   
 23  11  35  1   
 24  12  18  ar  
 25  12  36  1   
 26  13  37  1   
 27  13  38  1   
 28  13  39  1   
 29  14  18  ar  
 30  14  19  1   
 31  15  20  1   
 32  16  21  1   
 33  16  40  1   
 34  16  41  1   
 35  17  20  1   
 36  17  22  1   
 37  17  42  1   
 38  18  43  1   
 39  19  23  1   
 40  19  24  1   
 41  20  21  1   
 42  20  44  1   
 43  21  45  1   
 44  21  46  1   
 45  22  25  1   
 46  22  47  1   
 47  22  48  1   
 48  23  26  2   
 49  24  27  2   
 50  24  49  1   
 51  25  28  1   
 52  25  29  1   
 53  25  50  1   
 54  26  27  1   
 55  26  51  1   
 56  27  52  1   
 57  28  53  1   
 58  28  54  1   
 59  28  55  1   
 60  29  56  1   
 61  29  57  1   
 62  29  58  1   
@<TRIPOS>SUBSTRUCTURE
  1 ****   6 GROUP 4 **** **** 0

# MOE 2024.06 (io_trps.svl 2023.06)
