@<TRIPOS>MOLECULE
NONAME
50 52 1 0 0 
SMALL
USER_CHARGES


@<TRIPOS>ATOM
  1 S       -0.1980    -0.3630     1.0860 S.3   1 <1>  -0.0800 
  2 C       -1.2330    -1.1320    -0.0750 C.2   1 <1>   0.4420 
  3 C       -0.4530     1.1150     0.2250 C.2   1 <1>   0.1980 
  4 N       -1.6600    -0.3030    -0.9590 N.2   1 <1>  -0.3380 
  5 N       -1.4460    -2.4830     0.0840 N.am  1 <1>  -0.4940 
  6 N       -1.2130     0.9750    -0.7810 N.2   1 <1>  -0.3380 
  7 C        0.2160     2.3770     0.7240 C.3   1 <1>   0.0200 
  8 C       -2.3040    -3.3190    -0.5840 C.2   1 <1>   0.7150 
  9 C       -0.1580     3.5360    -0.2090 C.3   1 <1>   0.3430 
 10 O       -3.1400    -2.8560    -1.3340 O.2   1 <1>  -0.5700 
 11 C       -2.1890    -4.7410    -0.3520 C.2   1 <1>   0.0550 
 12 N        0.5070     4.8300     0.1630 N.4   1 <1>  -0.9590 
 13 O       -3.2050    -5.5610    -0.5990 O.3   1 <1>  -0.2800 
 14 C       -1.1500    -5.4870     0.1230 C.2   1 <1>  -0.1500 
 15 C       -0.0110     5.3920     1.4530 C.3   1 <1>   0.2630 
 16 C        0.3140     5.8240    -0.9390 C.3   1 <1>   0.2630 
 17 C       -2.8560    -6.7900    -0.2950 C.2   1 <1>  -0.0400 
 18 C       -1.5840    -6.8130     0.1570 C.2   1 <1>  -0.1500 
 19 C       -3.8560    -7.9140    -0.4920 C.3   1 <1>   0.2500 
 20 S       -5.0370    -7.9090     0.9300 S.3   1 <1>  -0.3320 
 21 C       -6.1860    -9.2680     0.6470 C.ar  1 <1>   0.1020 
 22 C       -6.1270   -10.0700    -0.4820 C.ar  1 <1>  -0.1500 
 23 C       -7.1470    -9.4860     1.6170 C.ar  1 <1>  -0.1500 
 24 C       -7.0420   -11.0990    -0.6310 C.ar  1 <1>  -0.1500 
 25 C       -8.0580   -10.5160     1.4610 C.ar  1 <1>  -0.1500 
 26 C       -8.0100   -11.3260     0.3360 C.ar  1 <1>  -0.1440 
 27 C       -9.0080   -12.4570     0.1670 C.3   1 <1>  -0.0970 
 28 H       -0.9220    -2.9270     0.8300 H     1 <1>   0.3700 
 29 H        1.2800     2.2270     0.7220 H     1 <1>   0.0800 
 30 H       -0.1220     2.5680     1.7250 H     1 <1>   0.0800 
 31 H       -1.2290     3.6600    -0.2040 H     1 <1>   0.0800 
 32 H        0.1290     3.2620    -1.2120 H     1 <1>   0.0800 
 33 H        1.5220     4.6640     0.2570 H     1 <1>   0.4500 
 34 H       -0.1680    -5.1620     0.4170 H     1 <1>   0.1500 
 35 H       -1.0730     5.5630     1.3880 H     1 <1>   0.0800 
 36 H        0.4750     6.3300     1.6730 H     1 <1>   0.0800 
 37 H        0.1810     4.7130     2.2670 H     1 <1>   0.0800 
 38 H       -0.7360     6.0280    -1.0810 H     1 <1>   0.0800 
 39 H        0.7170     5.4420    -1.8640 H     1 <1>   0.0800 
 40 H        0.8160     6.7490    -0.7040 H     1 <1>   0.0800 
 41 H       -1.0040    -7.6580     0.4850 H     1 <1>   0.1500 
 42 H       -3.3680    -8.8710    -0.4930 H     1 <1>   0.0800 
 43 H       -4.4240    -7.7720    -1.3930 H     1 <1>   0.0800 
 44 H       -5.3920    -9.9140    -1.2450 H     1 <1>   0.1500 
 45 H       -7.1790    -8.8530     2.4860 H     1 <1>   0.1500 
 46 H       -6.9980   -11.7250    -1.5050 H     1 <1>   0.1500 
 47 H       -8.8030   -10.6840     2.2180 H     1 <1>   0.1500 
 48 H       -9.1980   -12.6400    -0.8750 H     1 <1>   0.0800 
 49 H       -9.9410   -12.2090     0.6420 H     1 <1>   0.0800 
 50 H       -8.6190   -13.3550     0.6130 H     1 <1>   0.0800 
@<TRIPOS>BOND
  1   1   2  1   
  2   1   3  1   
  3   2   4  2   
  4   2   5  1   
  5   3   6  2   
  6   3   7  1   
  7   4   6  1   
  8   5   8  am  
  9   5  28  1   
 10   7   9  1   
 11   7  29  1   
 12   7  30  1   
 13   8  10  2   
 14   8  11  1   
 15   9  12  1   
 16   9  31  1   
 17   9  32  1   
 18  11  13  1   
 19  11  14  2   
 20  12  15  1   
 21  12  16  1   
 22  12  33  1   
 23  13  17  1   
 24  14  18  1   
 25  14  34  1   
 26  15  35  1   
 27  15  36  1   
 28  15  37  1   
 29  16  38  1   
 30  16  39  1   
 31  16  40  1   
 32  17  18  2   
 33  17  19  1   
 34  18  41  1   
 35  19  20  1   
 36  19  42  1   
 37  19  43  1   
 38  20  21  1   
 39  21  22  ar  
 40  21  23  ar  
 41  22  24  ar  
 42  22  44  1   
 43  23  25  ar  
 44  23  45  1   
 45  24  26  ar  
 46  24  46  1   
 47  25  26  ar  
 48  25  47  1   
 49  26  27  1   
 50  27  48  1   
 51  27  49  1   
 52  27  50  1   
@<TRIPOS>SUBSTRUCTURE
  1 ****   8 GROUP 4 **** **** 0

# MOE 2024.06 (io_trps.svl 2023.06)
