@<TRIPOS>MOLECULE
NONAME
50 53 1 0 0 
SMALL
USER_CHARGES


@<TRIPOS>ATOM
  1 O       -0.9910    -0.6550     1.5070 O.2   1 <1>  -0.5700 
  2 C       -1.6410     0.3190     1.1940 C.2   1 <1>   0.5690 
  3 N       -2.7730     0.1920     0.4150 N.am  1 <1>  -0.6600 
  4 C       -1.1550     1.6610     1.7390 C.3   1 <1>   0.0820 
  5 C       -3.6200     1.3580     0.0050 C.3   1 <1>   0.2200 
  6 C       -3.1700    -1.1620    -0.0790 C.3   1 <1>   0.0600 
  7 C       -0.7840     2.6990     0.6790 C.2   1 <1>  -0.1810 
  8 C       -5.1260     1.1590     0.1970 C.3   1 <1>  -0.1600 
  9 C       -3.4530     1.7020    -1.4700 C.3   1 <1>  -0.1600 
 10 C       -1.1930     4.0520     0.7420 C.ar  1 <1>   0.0000 
 11 C       -0.0580     2.5420    -0.4570 C.2   1 <1>  -0.3320 
 12 C       -5.8130     2.0070    -0.8920 C.3   1 <1>  -0.0800 
 13 C       -4.7010     2.5130    -1.8230 C.3   1 <1>  -0.0800 
 14 C       -0.7160     4.6620    -0.4140 C.ar  1 <1>  -0.1520 
 15 C       -1.9180     4.8150     1.6650 C.ar  1 <1>  -0.1500 
 16 N       -0.0150     3.7300    -1.1310 N.pl3 1 <1>   0.0330 
 17 C        0.6340     1.3060    -1.0060 C.3   1 <1>  -0.0600 
 18 C       -6.5090     3.2650    -0.3530 C.3   1 <1>  -0.1600 
 19 C       -4.5460     4.0230    -1.5470 C.3   1 <1>  -0.1600 
 20 C       -0.9760     6.0080    -0.6810 C.ar  1 <1>  -0.1500 
 21 C       -2.1720     6.1420     1.4050 C.ar  1 <1>  -0.1500 
 22 C       -5.4610     4.3690    -0.3750 C.3   1 <1>   0.2000 
 23 C       -1.7050     6.7380     0.2280 C.ar  1 <1>  -0.1500 
 24 O       -4.7400     4.3030     0.7980 O.3   1 <1>  -0.6800 
 25 H       -1.9250     2.0470     2.3780 H     1 <1>   0.0800 
 26 H       -0.2910     1.4910     2.3530 H     1 <1>   0.0800 
 27 H       -3.3490     2.2270     0.5720 H     1 <1>   0.0800 
 28 H       -3.6900    -1.0950    -1.0170 H     1 <1>   0.0800 
 29 H       -3.8110    -1.6320     0.6460 H     1 <1>   0.0800 
 30 H       -2.2990    -1.7790    -0.2200 H     1 <1>   0.0800 
 31 H       -5.4110     0.1350     0.0570 H     1 <1>   0.0800 
 32 H       -5.4130     1.4660     1.1870 H     1 <1>   0.0800 
 33 H       -2.5470     2.2510    -1.6490 H     1 <1>   0.0800 
 34 H       -3.4430     0.8090    -2.0650 H     1 <1>   0.0800 
 35 H       -6.5170     1.3950    -1.4300 H     1 <1>   0.0800 
 36 H       -4.9630     2.3610    -2.8570 H     1 <1>   0.0800 
 37 H       -2.2730     4.3550     2.5690 H     1 <1>   0.1500 
 38 H        0.4670     3.9060    -2.0170 H     1 <1>   0.2700 
 39 H        0.6570     0.5210    -0.2740 H     1 <1>   0.0800 
 40 H        1.6490     1.5380    -1.2740 H     1 <1>   0.0800 
 41 H        0.1130     0.9470    -1.8760 H     1 <1>   0.0800 
 42 H       -6.9420     3.1320     0.6230 H     1 <1>   0.0800 
 43 H       -7.2930     3.5380    -1.0360 H     1 <1>   0.0800 
 44 H       -4.8980     4.5570    -2.4120 H     1 <1>   0.0800 
 45 H       -3.5280     4.3210    -1.3670 H     1 <1>   0.0800 
 46 H       -0.6050     6.4580    -1.5850 H     1 <1>   0.1500 
 47 H       -2.7310     6.7350     2.1080 H     1 <1>   0.1500 
 48 H       -5.8880     5.3550    -0.4550 H     1 <1>   0.0800 
 49 H       -1.9170     7.7770     0.0470 H     1 <1>   0.1500 
 50 H       -3.8710     4.7430     0.6790 H     1 <1>   0.4000 
@<TRIPOS>BOND
  1   1   2  2   
  2   2   3  am  
  3   2   4  1   
  4   3   5  1   
  5   3   6  1   
  6   4   7  1   
  7   4  25  1   
  8   4  26  1   
  9   5   8  1   
 10   5   9  1   
 11   5  27  1   
 12   6  28  1   
 13   6  29  1   
 14   6  30  1   
 15   7  10  1   
 16   7  11  2   
 17   8  12  1   
 18   8  31  1   
 19   8  32  1   
 20   9  13  1   
 21   9  33  1   
 22   9  34  1   
 23  10  14  ar  
 24  10  15  ar  
 25  11  16  1   
 26  11  17  1   
 27  12  13  1   
 28  12  18  1   
 29  12  35  1   
 30  13  19  1   
 31  13  36  1   
 32  14  16  1   
 33  14  20  ar  
 34  15  21  ar  
 35  15  37  1   
 36  16  38  1   
 37  17  39  1   
 38  17  40  1   
 39  17  41  1   
 40  18  22  1   
 41  18  42  1   
 42  18  43  1   
 43  19  22  1   
 44  19  44  1   
 45  19  45  1   
 46  20  23  ar  
 47  20  46  1   
 48  21  23  ar  
 49  21  47  1   
 50  22  24  1   
 51  22  48  1   
 52  23  49  1   
 53  24  50  1   
@<TRIPOS>SUBSTRUCTURE
  1 ****   5 GROUP 4 **** **** 0

# MOE 2024.06 (io_trps.svl 2023.06)
