@<TRIPOS>MOLECULE
NONAME
56 60 1 0 0 
SMALL
USER_CHARGES


@<TRIPOS>ATOM
  1 O        1.9100     0.8920    -2.1670 O.3   1 <1>  -0.6800 
  2 C        1.4380     2.1310    -1.7410 C.3   1 <1>   0.3000 
  3 C        2.5550     2.9710    -1.1380 C.2   1 <1>   0.0070 
  4 N        2.6760     4.2330    -1.3720 N.2   1 <1>  -0.3380 
  5 N        3.5110     2.5330    -0.3070 N.pl3 1 <1>   0.0480 
  6 N        3.7390     4.6580    -0.6960 N.2   1 <1>  -0.3380 
  7 C        4.2280     3.6420    -0.0690 C.2   1 <1>   0.0070 
  8 C        3.7180     1.1540     0.1910 C.3   1 <1>   0.0160 
  9 C        5.4760     3.7110     0.8110 C.3   1 <1>   0.1000 
 10 C        5.6810     5.1270     1.3820 C.3   1 <1>  -0.1600 
 11 C        6.7080     3.2670     0.0050 C.3   1 <1>  -0.1600 
 12 C        6.9970     5.2330     2.1440 C.3   1 <1>   0.2090 
 13 C        8.0160     3.4530     0.7800 C.3   1 <1>   0.2090 
 14 N        8.1140     4.8830     1.2130 N.pl3 1 <1>  -0.8380 
 15 C        9.0380     5.7480     0.7370 C.ar  1 <1>   0.4610 
 16 N        8.7800     7.0560     0.7600 N.ar  1 <1>  -0.1790 
 17 C       10.2850     5.3610     0.1790 C.ar  1 <1>  -0.1500 
 18 C        9.6200     8.0390     0.2740 C.ar  1 <1>   0.3610 
 19 C       11.1710     6.2650    -0.3230 C.ar  1 <1>  -0.1430 
 20 C       10.8550     7.6590    -0.2910 C.ar  1 <1>   0.0000 
 21 C        9.2490     9.3880     0.3360 C.ar  1 <1>  -0.1500 
 22 C       12.4980     5.7970    -0.9080 C.3   1 <1>  -0.0970 
 23 C       11.6960     8.6720    -0.7840 C.ar  1 <1>  -0.1500 
 24 C       10.0980    10.3450    -0.1560 C.ar  1 <1>  -0.1430 
 25 C       11.3100     9.9860    -0.7100 C.ar  1 <1>  -0.1430 
 26 C        9.9060    11.8430    -0.1960 C.3   1 <1>  -0.0170 
 27 C       12.0690    11.2020    -1.1850 C.3   1 <1>  -0.0170 
 28 C       11.0130    12.3190    -1.1500 C.3   1 <1>  -0.1600 
 29 H        1.2520     0.4680    -2.7520 H     1 <1>   0.4000 
 30 H        0.6620     1.9680    -1.0140 H     1 <1>   0.0800 
 31 H        1.0250     2.6440    -2.5930 H     1 <1>   0.0800 
 32 H        2.7650     0.7100     0.4140 H     1 <1>   0.0800 
 33 H        4.3180     1.1590     1.0800 H     1 <1>   0.0800 
 34 H        4.2040     0.5760    -0.5730 H     1 <1>   0.0800 
 35 H        5.3500     3.0440     1.6450 H     1 <1>   0.0800 
 36 H        4.8610     5.3650     2.0360 H     1 <1>   0.0800 
 37 H        5.6820     5.8490     0.5840 H     1 <1>   0.0800 
 38 H        6.7600     3.8390    -0.9050 H     1 <1>   0.0800 
 39 H        6.6050     2.2330    -0.2730 H     1 <1>   0.0800 
 40 H        6.9940     4.5430     2.9730 H     1 <1>   0.0800 
 41 H        7.1140     6.2210     2.5530 H     1 <1>   0.0800 
 42 H        8.8310     3.1680     0.1410 H     1 <1>   0.0800 
 43 H        8.0320     2.8110     1.6460 H     1 <1>   0.0800 
 44 H        7.8650     7.3300     1.0940 H     1 <1>   0.4570 
 45 H       10.5330     4.3180     0.1750 H     1 <1>   0.1500 
 46 H        8.3070     9.6820     0.7630 H     1 <1>   0.1500 
 47 H       12.5920     4.7270    -0.8570 H     1 <1>   0.0800 
 48 H       13.3190     6.2300    -0.3630 H     1 <1>   0.0800 
 49 H       12.5730     6.0890    -1.9410 H     1 <1>   0.0800 
 50 H       12.6470     8.4280    -1.2230 H     1 <1>   0.1500 
 51 H       10.0580    12.2530     0.7880 H     1 <1>   0.0800 
 52 H        8.9300    12.1160    -0.5580 H     1 <1>   0.0800 
 53 H       12.4670    11.0650    -2.1750 H     1 <1>   0.0800 
 54 H       12.8680    11.4180    -0.4970 H     1 <1>   0.0800 
 55 H       11.4340    13.2600    -0.8410 H     1 <1>   0.0800 
 56 H       10.5960    12.4310    -2.1370 H     1 <1>   0.0800 
@<TRIPOS>BOND
  1   1   2  1   
  2   1  29  1   
  3   2   3  1   
  4   2  30  1   
  5   2  31  1   
  6   3   4  2   
  7   3   5  1   
  8   4   6  1   
  9   5   7  1   
 10   5   8  1   
 11   6   7  2   
 12   7   9  1   
 13   8  32  1   
 14   8  33  1   
 15   8  34  1   
 16   9  10  1   
 17   9  11  1   
 18   9  35  1   
 19  10  12  1   
 20  10  36  1   
 21  10  37  1   
 22  11  13  1   
 23  11  38  1   
 24  11  39  1   
 25  12  14  1   
 26  12  40  1   
 27  12  41  1   
 28  13  14  1   
 29  13  42  1   
 30  13  43  1   
 31  14  15  1   
 32  15  16  ar  
 33  15  17  ar  
 34  16  18  ar  
 35  16  44  1   
 36  17  19  ar  
 37  17  45  1   
 38  18  20  ar  
 39  18  21  ar  
 40  19  20  ar  
 41  19  22  1   
 42  20  23  ar  
 43  21  24  ar  
 44  21  46  1   
 45  22  47  1   
 46  22  48  1   
 47  22  49  1   
 48  23  25  ar  
 49  23  50  1   
 50  24  25  ar  
 51  24  26  1   
 52  25  27  1   
 53  26  28  1   
 54  26  51  1   
 55  26  52  1   
 56  27  28  1   
 57  27  53  1   
 58  27  54  1   
 59  28  55  1   
 60  28  56  1   
@<TRIPOS>SUBSTRUCTURE
  1 ****  15 GROUP 4 **** **** 0

# MOE 2024.06 (io_trps.svl 2023.06)
