@<TRIPOS>MOLECULE
NONAME
49 51 1 0 0 
SMALL
USER_CHARGES


@<TRIPOS>ATOM
  1 O        2.6560     2.9850    -1.1240 O.3   1 <1>  -0.0190 
  2 N        3.5370     2.0330    -1.0970 N.2   1 <1>  -0.4100 
  3 C        1.4380     2.5290    -0.9950 C.2   1 <1>  -0.0400 
  4 C        2.8750     0.9380    -0.9710 C.2   1 <1>   0.1080 
  5 C        1.5070     1.1930    -0.9000 C.2   1 <1>  -0.1500 
  6 C        0.2800     3.5070    -0.9830 C.3   1 <1>   0.0200 
  7 C        3.5050    -0.4360    -0.9100 C.3   1 <1>  -0.0590 
  8 C        0.1150     4.2450     0.3690 C.3   1 <1>  -0.0800 
  9 C       -0.4390     5.6530     0.1430 C.3   1 <1>   0.2000 
 10 C        1.4350     4.5290     1.0890 C.3   1 <1>   0.3430 
 11 O       -1.0890     6.0670     1.2990 O.3   1 <1>  -0.6800 
 12 C        0.8050     6.5270    -0.0990 C.3   1 <1>   0.3430 
 13 N        1.9670     5.7350     0.4160 N.4   1 <1>  -0.9590 
 14 C        2.9320     6.5330     1.2060 C.3   1 <1>   0.4860 
 15 C        3.5690     7.5310     0.2650 C.ar  1 <1>  -0.1430 
 16 C        4.3780     7.0790    -0.7690 C.ar  1 <1>   0.0830 
 17 C        3.3390     8.8880     0.4350 C.ar  1 <1>   0.0830 
 18 O        4.5220     5.7330    -0.8980 O.3   1 <1>  -0.3630 
 19 C        4.9810     7.9960    -1.6240 C.ar  1 <1>  -0.1500 
 20 O        2.5080     9.2540     1.4470 O.3   1 <1>  -0.3630 
 21 C        3.9450     9.8000    -0.4250 C.ar  1 <1>  -0.1500 
 22 C        5.3970     5.1650    -1.8520 C.3   1 <1>   0.0400 
 23 C        4.7630     9.3510    -1.4460 C.ar  1 <1>  -0.1500 
 24 C        2.3110    10.6150     1.7760 C.3   1 <1>   0.0400 
 25 H        0.7270     0.4610    -0.7930 H     1 <1>   0.1500 
 26 H        0.4410     4.2030    -1.7880 H     1 <1>   0.0800 
 27 H       -0.6310     2.9760    -1.2040 H     1 <1>   0.0800 
 28 H        3.2510    -0.9160     0.0180 H     1 <1>   0.0800 
 29 H        4.5750    -0.3550    -0.9780 H     1 <1>   0.0800 
 30 H        3.1500    -1.0370    -1.7270 H     1 <1>   0.0800 
 31 H       -0.5320     3.6590     1.0000 H     1 <1>   0.0800 
 32 H       -1.1470     5.7130    -0.6670 H     1 <1>   0.0800 
 33 H        2.1260     3.7020     1.0390 H     1 <1>   0.0800 
 34 H        1.2340     4.7500     2.1250 H     1 <1>   0.0800 
 35 H       -0.5000     6.1220     2.0760 H     1 <1>   0.4000 
 36 H        0.7080     7.4720     0.4110 H     1 <1>   0.0800 
 37 H        0.9350     6.7070    -1.1530 H     1 <1>   0.0800 
 38 H        2.5350     5.4180    -0.3930 H     1 <1>   0.4500 
 39 H        2.4350     7.0360     2.0190 H     1 <1>   0.0800 
 40 H        3.7000     5.8930     1.6080 H     1 <1>   0.0800 
 41 H        5.6180     7.6790    -2.4290 H     1 <1>   0.1500 
 42 H        3.7940    10.8590    -0.3200 H     1 <1>   0.1500 
 43 H        5.3740     4.0960    -1.7360 H     1 <1>   0.0800 
 44 H        6.3950     5.5270    -1.6730 H     1 <1>   0.0800 
 45 H        5.0640     5.4300    -2.8390 H     1 <1>   0.0800 
 46 H        5.2330    10.0600    -2.1080 H     1 <1>   0.1500 
 47 H        1.6630    10.6640     2.6330 H     1 <1>   0.0800 
 48 H        1.8510    11.1170     0.9430 H     1 <1>   0.0800 
 49 H        3.2620    11.0600     2.0150 H     1 <1>   0.0800 
@<TRIPOS>BOND
  1   1   2  1   
  2   1   3  1   
  3   2   4  2   
  4   3   5  2   
  5   3   6  1   
  6   4   5  1   
  7   4   7  1   
  8   5  25  1   
  9   6   8  1   
 10   6  26  1   
 11   6  27  1   
 12   7  28  1   
 13   7  29  1   
 14   7  30  1   
 15   8   9  1   
 16   8  10  1   
 17   8  31  1   
 18   9  11  1   
 19   9  12  1   
 20   9  32  1   
 21  10  13  1   
 22  10  33  1   
 23  10  34  1   
 24  11  35  1   
 25  12  13  1   
 26  12  36  1   
 27  12  37  1   
 28  13  14  1   
 29  13  38  1   
 30  14  15  1   
 31  14  39  1   
 32  14  40  1   
 33  15  16  ar  
 34  15  17  ar  
 35  16  18  1   
 36  16  19  ar  
 37  17  20  1   
 38  17  21  ar  
 39  18  22  1   
 40  19  23  ar  
 41  19  41  1   
 42  20  24  1   
 43  21  23  ar  
 44  21  42  1   
 45  22  43  1   
 46  22  44  1   
 47  22  45  1   
 48  23  46  1   
 49  24  47  1   
 50  24  48  1   
 51  24  49  1   
@<TRIPOS>SUBSTRUCTURE
  1 ****  13 GROUP 4 **** **** 0

# MOE 2024.06 (io_trps.svl 2023.06)
