@<TRIPOS>MOLECULE
NONAME
36 37 1 0 0 
SMALL
USER_CHARGES


@<TRIPOS>ATOM
  1 CL      -0.1810    -0.0420     1.0590 Cl    1 <1>  -0.1230 
  2 C        1.4890    -0.3110     0.5870 C.2   1 <1>   0.1230 
  3 C        2.4740     0.6550     0.3640 C.2   1 <1>   0.2030 
  4 C        2.0510    -1.5110     0.3720 C.2   1 <1>  -0.3020 
  5 N        3.6070     0.0500     0.0220 N.2   1 <1>  -0.7070 
  6 C        2.3300     2.0920     0.4750 C.2   1 <1>   0.7160 
  7 N        3.3310    -1.2660     0.0330 N.pl3 1 <1>   0.3140 
  8 O        1.2890     2.6350     0.7870 O.2   1 <1>  -0.5700 
  9 N        3.4490     2.8340     0.2050 N.am  1 <1>  -0.4940 
 10 C        4.3420    -2.2790    -0.2960 C.3   1 <1>   0.0160 
 11 C        3.6570     4.1920     0.2160 C.2   1 <1>   0.4420 
 12 S        5.2510     4.7400    -0.1960 S.3   1 <1>  -0.0800 
 13 N        2.8670     5.1690     0.4820 N.2   1 <1>  -0.3380 
 14 C        4.6770     6.3530     0.0420 C.2   1 <1>   0.1980 
 15 N        3.4550     6.3970     0.3810 N.2   1 <1>  -0.3380 
 16 C        5.6330     7.5050    -0.1640 C.3   1 <1>   0.0200 
 17 C        4.8790     8.8190     0.0730 C.3   1 <1>   0.3430 
 18 N        5.7240    10.0360    -0.1690 N.4   1 <1>  -0.9590 
 19 C        6.8060    10.1990     0.8550 C.3   1 <1>   0.2630 
 20 C        4.8520    11.2520    -0.1850 C.3   1 <1>   0.2630 
 21 H        1.6240    -2.4930     0.4410 H     1 <1>   0.1500 
 22 H        4.2390     2.2380    -0.0420 H     1 <1>   0.3700 
 23 H        4.4780    -2.9300     0.5480 H     1 <1>   0.0800 
 24 H        5.2710    -1.7920    -0.5270 H     1 <1>   0.0800 
 25 H        4.0120    -2.8460    -1.1460 H     1 <1>   0.0800 
 26 H        6.0070     7.4670    -1.1710 H     1 <1>   0.0800 
 27 H        6.4470     7.4000     0.5290 H     1 <1>   0.0800 
 28 H        4.5010     8.8300     1.0830 H     1 <1>   0.0800 
 29 H        4.0270     8.8380    -0.5880 H     1 <1>   0.0800 
 30 H        6.1600     9.9540    -1.1020 H     1 <1>   0.4500 
 31 H        6.3790    10.2730     1.8430 H     1 <1>   0.0800 
 32 H        7.3750    11.0940     0.6590 H     1 <1>   0.0800 
 33 H        7.4790     9.3580     0.8330 H     1 <1>   0.0800 
 34 H        4.3670    11.3800     0.7700 H     1 <1>   0.0800 
 35 H        4.0920    11.1590    -0.9450 H     1 <1>   0.0800 
 36 H        5.4380    12.1330    -0.3940 H     1 <1>   0.0800 
@<TRIPOS>BOND
  1   1   2  1   
  2   2   3  1   
  3   2   4  2   
  4   3   5  2   
  5   3   6  1   
  6   4   7  1   
  7   4  21  1   
  8   5   7  1   
  9   6   8  2   
 10   6   9  am  
 11   7  10  1   
 12   9  11  1   
 13   9  22  1   
 14  10  23  1   
 15  10  24  1   
 16  10  25  1   
 17  11  12  1   
 18  11  13  2   
 19  12  14  1   
 20  13  15  1   
 21  14  15  2   
 22  14  16  1   
 23  16  17  1   
 24  16  26  1   
 25  16  27  1   
 26  17  18  1   
 27  17  28  1   
 28  17  29  1   
 29  18  19  1   
 30  18  20  1   
 31  18  30  1   
 32  19  31  1   
 33  19  32  1   
 34  19  33  1   
 35  20  34  1   
 36  20  35  1   
 37  20  36  1   
@<TRIPOS>SUBSTRUCTURE
  1 ****  11 GROUP 4 **** **** 0

# MOE 2024.06 (io_trps.svl 2023.06)
