@<TRIPOS>MOLECULE
NONAME
40 42 1 0 0 
SMALL
USER_CHARGES


@<TRIPOS>ATOM
  1 O       -0.5600     0.3550     1.2740 O.2   1 <1>  -0.5700 
  2 C       -1.5350     0.9690     0.8790 C.2   1 <1>   0.7150 
  3 N       -2.6890     0.2660     0.6190 N.am  1 <1>  -0.6600 
  4 C       -1.4620     2.3930     0.6670 C.2   1 <1>  -0.2370 
  5 C       -3.7480     0.7280    -0.3160 C.3   1 <1>   0.1400 
  6 C       -2.7870    -1.2040     0.8140 C.3   1 <1>   0.1400 
  7 N       -0.3700     3.0300     0.1300 N.pl3 1 <1>   0.0480 
  8 C       -2.3990     3.3580     0.9480 C.2   1 <1>  -0.1500 
  9 C       -4.7340    -0.4360    -0.3900 C.3   1 <1>   0.2000 
 10 C       -3.8540    -1.6720    -0.1820 C.3   1 <1>  -0.0800 
 11 C       -0.6410     4.3560     0.0670 C.2   1 <1>  -0.3020 
 12 C        0.8980     2.4090    -0.3000 C.3   1 <1>   0.0160 
 13 C       -1.8830     4.5910     0.5630 C.2   1 <1>  -0.1500 
 14 O       -5.6210    -0.3150     0.6690 O.3   1 <1>  -0.6800 
 15 C       -4.6090    -2.9400     0.2610 C.3   1 <1>   0.0200 
 16 C       -3.7220    -4.1740     0.3180 C.2   1 <1>  -0.0400 
 17 O       -4.2180    -5.2770     0.8110 O.3   1 <1>  -0.0190 
 18 C       -2.4540    -4.4250    -0.0470 C.2   1 <1>  -0.1500 
 19 N       -3.3520    -6.2490     0.7990 N.2   1 <1>  -0.4100 
 20 C       -2.2790    -5.7640     0.2880 C.2   1 <1>   0.1080 
 21 C       -1.0040    -6.5510     0.0830 C.3   1 <1>  -0.0590 
 22 H       -4.2320     1.6250     0.0260 H     1 <1>   0.0800 
 23 H       -3.3090     0.9040    -1.2830 H     1 <1>   0.0800 
 24 H       -1.8410    -1.6840     0.6330 H     1 <1>   0.0800 
 25 H       -3.0930    -1.4000     1.8280 H     1 <1>   0.0800 
 26 H       -3.3650     3.2140     1.3980 H     1 <1>   0.1500 
 27 H       -5.2970    -0.4580    -1.3080 H     1 <1>   0.0800 
 28 H       -3.3620    -1.8780    -1.1160 H     1 <1>   0.0800 
 29 H        0.0600     5.0730    -0.3210 H     1 <1>   0.1500 
 30 H        1.5070     3.1370    -0.8040 H     1 <1>   0.0800 
 31 H        0.6880     1.5920    -0.9650 H     1 <1>   0.0800 
 32 H        1.4190     2.0400     0.5640 H     1 <1>   0.0800 
 33 H       -2.3870     5.5380     0.6560 H     1 <1>   0.1500 
 34 H       -5.1160    -0.1180     1.4840 H     1 <1>   0.4000 
 35 H       -5.4140    -3.1340    -0.4250 H     1 <1>   0.0800 
 36 H       -5.0420    -2.7900     1.2340 H     1 <1>   0.0800 
 37 H       -1.7150    -3.7860    -0.4920 H     1 <1>   0.1500 
 38 H       -0.1990    -6.0900     0.6240 H     1 <1>   0.0800 
 39 H       -0.7590    -6.5820    -0.9630 H     1 <1>   0.0800 
 40 H       -1.1320    -7.5570     0.4400 H     1 <1>   0.0800 
@<TRIPOS>BOND
  1   1   2  2   
  2   2   3  am  
  3   2   4  1   
  4   3   5  1   
  5   3   6  1   
  6   4   7  1   
  7   4   8  2   
  8   5   9  1   
  9   5  22  1   
 10   5  23  1   
 11   6  10  1   
 12   6  24  1   
 13   6  25  1   
 14   7  11  1   
 15   7  12  1   
 16   8  13  1   
 17   8  26  1   
 18   9  10  1   
 19   9  14  1   
 20   9  27  1   
 21  10  15  1   
 22  10  28  1   
 23  11  13  2   
 24  11  29  1   
 25  12  30  1   
 26  12  31  1   
 27  12  32  1   
 28  13  33  1   
 29  14  34  1   
 30  15  16  1   
 31  15  35  1   
 32  15  36  1   
 33  16  17  1   
 34  16  18  2   
 35  17  19  1   
 36  18  20  1   
 37  18  37  1   
 38  19  20  2   
 39  20  21  1   
 40  21  38  1   
 41  21  39  1   
 42  21  40  1   
@<TRIPOS>SUBSTRUCTURE
  1 ****   6 GROUP 4 **** **** 0

# MOE 2024.06 (io_trps.svl 2023.06)
