@<TRIPOS>MOLECULE
NONAME
37 38 1 0 0 
SMALL
USER_CHARGES


@<TRIPOS>ATOM
  1 O       -1.6780    -0.5090     1.7880 O.2   1 <1>  -0.5700 
  2 C       -1.4250     0.1360     0.7940 C.2   1 <1>   0.7800 
  3 O       -1.4610     1.4620     0.8850 O.3   1 <1>  -0.4300 
  4 N       -1.1450    -0.4770    -0.3840 N.am  1 <1>  -0.7300 
  5 C       -1.1830     2.4550    -0.0780 C.3   1 <1>   0.2800 
  6 C       -0.8620    -1.9290    -0.5540 C.3   1 <1>   0.1400 
  7 C       -1.3690     3.7820     0.6580 C.3   1 <1>  -0.2400 
  8 C       -2.1910     2.3750    -1.2320 C.3   1 <1>  -0.2400 
  9 C        0.2710     2.3450    -0.5540 C.3   1 <1>  -0.2400 
 10 C       -2.1200    -2.8150    -0.4380 C.3   1 <1>   0.2580 
 11 O       -2.1950    -3.8360    -1.3970 O.3   1 <1>  -0.5380 
 12 C       -3.5610    -2.2200    -0.3460 C.3   1 <1>   0.0000 
 13 C       -2.4840    -3.4930     0.9180 C.3   1 <1>   0.0000 
 14 C       -3.3660    -4.5130    -1.0880 C.3   1 <1>   0.1200 
 15 C       -3.7900    -3.6790     0.1110 C.3   1 <1>   0.4720 
 16 N       -5.0180    -3.9550     0.8860 N.4   1 <1>  -0.8220 
 17 H       -0.8900     0.1270    -1.1640 H     1 <1>   0.3700 
 18 H       -0.1460    -2.2330     0.1910 H     1 <1>   0.0800 
 19 H       -0.4210    -2.0790    -1.5240 H     1 <1>   0.0800 
 20 H       -2.3770     3.8680     1.0250 H     1 <1>   0.0800 
 21 H       -1.1770     4.6100     0.0000 H     1 <1>   0.0800 
 22 H       -0.6900     3.8450     1.4900 H     1 <1>   0.0800 
 23 H       -3.1950     2.3850    -0.8460 H     1 <1>   0.0800 
 24 H       -2.0510     1.4990    -1.8340 H     1 <1>   0.0800 
 25 H       -2.0730     3.2290    -1.8750 H     1 <1>   0.0800 
 26 H        0.9360     2.3290     0.2920 H     1 <1>   0.0800 
 27 H        0.5200     3.2000    -1.1570 H     1 <1>   0.0800 
 28 H        0.4400     1.4710    -1.1510 H     1 <1>   0.0800 
 29 H       -3.9800    -1.9650    -1.3050 H     1 <1>   0.0000 
 30 H       -3.7270    -1.4710     0.4110 H     1 <1>   0.0000 
 31 H       -2.5630    -2.8490     1.7770 H     1 <1>   0.0000 
 32 H       -1.9280    -4.3950     1.1080 H     1 <1>   0.0000 
 33 H       -3.1230    -5.5330    -0.8420 H     1 <1>   0.0800 
 34 H       -4.0400    -4.4430    -1.9240 H     1 <1>   0.0800 
 35 H       -5.0890    -3.2760     1.6540 H     1 <1>   0.4500 
 36 H       -4.9910    -4.8950     1.2940 H     1 <1>   0.4500 
 37 H       -5.8520    -3.8620     0.2980 H     1 <1>   0.4500 
@<TRIPOS>BOND
  1   1   2  2   
  2   2   3  1   
  3   2   4  am  
  4   3   5  1   
  5   4   6  1   
  6   4  17  1   
  7   5   7  1   
  8   5   8  1   
  9   5   9  1   
 10   6  10  1   
 11   6  18  1   
 12   6  19  1   
 13   7  20  1   
 14   7  21  1   
 15   7  22  1   
 16   8  23  1   
 17   8  24  1   
 18   8  25  1   
 19   9  26  1   
 20   9  27  1   
 21   9  28  1   
 22  10  11  1   
 23  10  12  1   
 24  10  13  1   
 25  11  14  1   
 26  12  15  1   
 27  12  29  1   
 28  12  30  1   
 29  13  15  1   
 30  13  31  1   
 31  13  32  1   
 32  14  15  1   
 33  14  33  1   
 34  14  34  1   
 35  15  16  1   
 36  16  35  1   
 37  16  36  1   
 38  16  37  1   
@<TRIPOS>SUBSTRUCTURE
  1 ****   4 GROUP 4 **** **** 0

# MOE 2024.06 (io_trps.svl 2023.06)
