@<TRIPOS>MOLECULE
NONAME
48 49 1 0 0 
SMALL
USER_CHARGES


@<TRIPOS>ATOM
  1 O        2.2880     0.9670    -1.2910 O.2   1 <1>  -0.5700 
  2 C        1.4580     1.0890    -0.4300 C.2   1 <1>   0.5690 
  3 N        0.8280     0.0090     0.0630 N.am  1 <1>  -0.8000 
  4 C        1.1300     2.4850     0.0940 C.3   1 <1>  -0.0190 
  5 C        0.5670     3.3670    -1.0380 C.3   1 <1>  -0.1600 
  6 C        2.3820     3.1370     0.7120 C.3   1 <1>  -0.1600 
  7 C        0.3890     4.8200    -0.6070 C.3   1 <1>   0.3430 
  8 C        2.1520     4.5970     1.0900 C.3   1 <1>   0.3430 
  9 N        1.6910     5.3520    -0.1130 N.4   1 <1>  -0.9590 
 10 C        1.5720     6.8180     0.1480 C.3   1 <1>   0.3430 
 11 C        2.9400     7.4920     0.2800 C.3   1 <1>  -0.0990 
 12 C        2.7410     8.9710     0.5270 C.2   1 <1>   0.5690 
 13 O        1.6590     9.3300     0.9220 O.2   1 <1>  -0.5700 
 14 N        3.7830     9.8130     0.2950 N.am  1 <1>  -0.4930 
 15 C        3.8280    11.2230     0.4390 C.2   1 <1>   0.0630 
 16 C        4.8890    12.0190     0.1750 C.2   1 <1>  -0.3320 
 17 C        2.8290    12.0960     0.8710 C.2   1 <1>   0.1390 
 18 N        4.4950    13.2910     0.4470 N.pl3 1 <1>   0.3140 
 19 C        6.2790    11.6520    -0.3280 C.3   1 <1>  -0.0600 
 20 N        3.2220    13.3320     0.8790 N.2   1 <1>  -0.7070 
 21 C        5.2880    14.5340     0.3230 C.3   1 <1>   0.0960 
 22 C        5.1810    15.1240    -1.0890 C.3   1 <1>  -0.2400 
 23 H        1.0710    -0.9120    -0.3100 H     1 <1>   0.3700 
 24 H        0.1140     0.0170     0.7900 H     1 <1>   0.3700 
 25 H        0.3800     2.3930     0.8600 H     1 <1>   0.0800 
 26 H       -0.3840     2.9740    -1.3540 H     1 <1>   0.0800 
 27 H        1.2220     3.3320    -1.8920 H     1 <1>   0.0800 
 28 H        3.2050     3.0810     0.0200 H     1 <1>   0.0800 
 29 H        2.6710     2.5860     1.5910 H     1 <1>   0.0800 
 30 H       -0.3540     4.8820     0.1720 H     1 <1>   0.0800 
 31 H        0.0460     5.4020    -1.4490 H     1 <1>   0.0800 
 32 H        3.0720     5.0140     1.4640 H     1 <1>   0.0800 
 33 H        1.4090     4.6600     1.8690 H     1 <1>   0.0800 
 34 H        2.3780     5.1990    -0.8640 H     1 <1>   0.4500 
 35 H        1.0000     6.9880     1.0480 H     1 <1>   0.0800 
 36 H        1.0410     7.2900    -0.6640 H     1 <1>   0.0800 
 37 H        3.5030     7.3600    -0.6250 H     1 <1>   0.0800 
 38 H        3.4860     7.0900     1.1120 H     1 <1>   0.0800 
 39 H        4.6650     9.4160    -0.0180 H     1 <1>   0.3700 
 40 H        1.8400    11.7910     1.1680 H     1 <1>   0.1500 
 41 H        6.3660    10.5920    -0.4820 H     1 <1>   0.0800 
 42 H        7.0220    11.9510     0.3900 H     1 <1>   0.0800 
 43 H        6.4770    12.1460    -1.2620 H     1 <1>   0.0800 
 44 H        6.3120    14.3190     0.5650 H     1 <1>   0.0800 
 45 H        4.9110    15.2400     1.0410 H     1 <1>   0.0800 
 46 H        5.5610    14.4320    -1.8190 H     1 <1>   0.0800 
 47 H        5.7490    16.0340    -1.1480 H     1 <1>   0.0800 
 48 H        4.1520    15.3470    -1.3140 H     1 <1>   0.0800 
@<TRIPOS>BOND
  1   1   2  2   
  2   2   3  am  
  3   2   4  1   
  4   3  23  1   
  5   3  24  1   
  6   4   5  1   
  7   4   6  1   
  8   4  25  1   
  9   5   7  1   
 10   5  26  1   
 11   5  27  1   
 12   6   8  1   
 13   6  28  1   
 14   6  29  1   
 15   7   9  1   
 16   7  30  1   
 17   7  31  1   
 18   8   9  1   
 19   8  32  1   
 20   8  33  1   
 21   9  10  1   
 22   9  34  1   
 23  10  11  1   
 24  10  35  1   
 25  10  36  1   
 26  11  12  1   
 27  11  37  1   
 28  11  38  1   
 29  12  13  2   
 30  12  14  am  
 31  14  15  1   
 32  14  39  1   
 33  15  16  2   
 34  15  17  1   
 35  16  18  1   
 36  16  19  1   
 37  17  20  2   
 38  17  40  1   
 39  18  20  1   
 40  18  21  1   
 41  19  41  1   
 42  19  42  1   
 43  19  43  1   
 44  21  22  1   
 45  21  44  1   
 46  21  45  1   
 47  22  46  1   
 48  22  47  1   
 49  22  48  1   
@<TRIPOS>SUBSTRUCTURE
  1 ****  11 GROUP 4 **** **** 0

# MOE 2024.06 (io_trps.svl 2023.06)
