@<TRIPOS>MOLECULE
NONAME
47 48 1 0 0 
SMALL
USER_CHARGES


@<TRIPOS>ATOM
  1 O       -2.1410    -0.8300     0.8760 O.2   1 <1>  -0.5700 
  2 C       -1.3570     0.0720     0.6290 C.2   1 <1>   0.7800 
  3 O       -0.0480    -0.1890     0.5910 O.3   1 <1>  -0.4300 
  4 N       -1.7590     1.3520     0.3740 N.am  1 <1>  -0.6600 
  5 C        0.4540    -1.4880     0.8300 C.3   1 <1>   0.0400 
  6 C       -3.2370     1.6490     0.3460 C.3   1 <1>   0.2810 
  7 C       -0.7970     2.3180    -0.2360 C.3   1 <1>   0.1400 
  8 C       -3.9110     1.0620    -0.9180 C.2   1 <1>   0.5690 
  9 C       -3.5830     3.1430     0.5550 C.3   1 <1>  -0.1600 
 10 C       -1.3930     3.7090    -0.4710 C.3   1 <1>  -0.1600 
 11 O       -3.4430     1.3330    -2.0030 O.2   1 <1>  -0.5700 
 12 N       -4.9940     0.2220    -0.8190 N.am  1 <1>  -0.6600 
 13 C       -2.3750     4.0810     0.6370 C.3   1 <1>  -0.1600 
 14 C       -5.1720    -0.8330    -1.8560 C.3   1 <1>   0.3200 
 15 C       -5.9050     0.1640     0.3730 C.3   1 <1>   0.1400 
 16 C       -5.0950    -2.1900    -1.1890 C.2   1 <1>  -0.3320 
 17 C       -7.3830     0.1350    -0.0300 C.3   1 <1>   0.1200 
 18 N       -4.0920    -2.5450    -0.3630 N.pl3 1 <1>   0.0330 
 19 C       -5.9300    -3.2510    -1.2450 C.2   1 <1>   0.0770 
 20 O       -8.1650     0.1450     1.1150 O.3   1 <1>  -0.6800 
 21 C       -4.3900    -3.7970     0.0400 C.2   1 <1>   0.0060 
 22 N       -5.4860    -4.2570    -0.4690 N.2   1 <1>  -0.5650 
 23 C       -3.5130    -4.5660     1.0020 C.3   1 <1>  -0.0600 
 24 H        1.5260    -1.4560     0.7550 H     1 <1>   0.0800 
 25 H        0.0510    -2.1580     0.0910 H     1 <1>   0.0800 
 26 H        0.1610    -1.7980     1.8180 H     1 <1>   0.0800 
 27 H       -3.6460     1.1300     1.1920 H     1 <1>   0.0800 
 28 H       -0.4390     1.9200    -1.1710 H     1 <1>   0.0800 
 29 H        0.0460     2.4130     0.4280 H     1 <1>   0.0800 
 30 H       -4.1730     3.2460     1.4480 H     1 <1>   0.0800 
 31 H       -4.2070     3.4660    -0.2610 H     1 <1>   0.0800 
 32 H       -1.8950     3.7210    -1.4240 H     1 <1>   0.0800 
 33 H       -0.5950     4.4290    -0.5180 H     1 <1>   0.0800 
 34 H       -1.8940     3.9810     1.5960 H     1 <1>   0.0800 
 35 H       -2.6960     5.1020     0.5240 H     1 <1>   0.0800 
 36 H       -4.3970    -0.7690    -2.6020 H     1 <1>   0.0800 
 37 H       -6.1170    -0.7050    -2.3530 H     1 <1>   0.0800 
 38 H       -5.7580     1.0350     0.9850 H     1 <1>   0.0800 
 39 H       -5.6730    -0.7100     0.9560 H     1 <1>   0.0800 
 40 H       -7.6260    -0.7540    -0.5870 H     1 <1>   0.0800 
 41 H       -7.6320     1.0100    -0.6050 H     1 <1>   0.0800 
 42 H       -3.2950    -1.9650    -0.0580 H     1 <1>   0.2700 
 43 H       -6.8440    -3.3490    -1.8080 H     1 <1>   0.1500 
 44 H       -8.1190    -0.7180     1.5730 H     1 <1>   0.4000 
 45 H       -3.3990    -4.0140     1.9170 H     1 <1>   0.0800 
 46 H       -2.5470    -4.7320     0.5640 H     1 <1>   0.0800 
 47 H       -3.9620    -5.5180     1.2230 H     1 <1>   0.0800 
@<TRIPOS>BOND
  1   1   2  2   
  2   2   3  1   
  3   2   4  am  
  4   3   5  1   
  5   4   6  1   
  6   4   7  1   
  7   5  24  1   
  8   5  25  1   
  9   5  26  1   
 10   6   8  1   
 11   6   9  1   
 12   6  27  1   
 13   7  10  1   
 14   7  28  1   
 15   7  29  1   
 16   8  11  2   
 17   8  12  am  
 18   9  13  1   
 19   9  30  1   
 20   9  31  1   
 21  10  13  1   
 22  10  32  1   
 23  10  33  1   
 24  12  14  1   
 25  12  15  1   
 26  13  34  1   
 27  13  35  1   
 28  14  16  1   
 29  14  36  1   
 30  14  37  1   
 31  15  17  1   
 32  15  38  1   
 33  15  39  1   
 34  16  18  1   
 35  16  19  2   
 36  17  20  1   
 37  17  40  1   
 38  17  41  1   
 39  18  21  1   
 40  18  42  1   
 41  19  22  1   
 42  19  43  1   
 43  20  44  1   
 44  21  22  2   
 45  21  23  1   
 46  23  45  1   
 47  23  46  1   
 48  23  47  1   
@<TRIPOS>SUBSTRUCTURE
  1 ****   8 GROUP 4 **** **** 0

# MOE 2024.06 (io_trps.svl 2023.06)
