@<TRIPOS>MOLECULE
NONAME
55 56 1 0 0 
SMALL
USER_CHARGES


@<TRIPOS>ATOM
  1 S       -0.0120    -0.2710     1.0770 S.o2  1 <1>   1.4550 
  2 O        0.5330    -1.5480     1.4900 O.2   1 <1>  -0.6500 
  3 O       -0.8180     0.4460     2.0400 O.2   1 <1>  -0.6500 
  4 N       -0.9190    -0.5540    -0.3360 N.am  1 <1>  -0.8490 
  5 C        1.3670     0.7170     0.5290 C.2   1 <1>  -0.0030 
  6 C       -2.2200     0.1480    -0.3660 C.3   1 <1>   0.1960 
  7 C       -1.1350    -1.9760    -0.6640 C.3   1 <1>   0.1960 
  8 C        1.0880     2.0320     0.0680 C.2   1 <1>   0.6160 
  9 C        2.6430     0.2650     0.5280 C.2   1 <1>  -0.0410 
 10 C       -3.3060    -0.5570     0.4910 C.3   1 <1>   0.2000 
 11 C       -2.2150    -2.6280     0.2340 C.3   1 <1>   0.2000 
 12 O       -0.0430     2.4780     0.0080 O.2   1 <1>  -0.5700 
 13 N        2.1410     2.8390    -0.3420 N.am  1 <1>  -0.4200 
 14 N        3.6810     1.0660     0.0870 N.am  1 <1>  -0.4690 
 15 O       -3.4060    -1.9060     0.1190 O.3   1 <1>  -0.5600 
 16 C       -4.7120     0.0780     0.3810 C.3   1 <1>  -0.0800 
 17 C       -2.5360    -4.0750    -0.1600 C.3   1 <1>  -0.1600 
 18 C        3.4380     2.3560    -0.3630 C.2   1 <1>   0.6900 
 19 C        1.8690     4.2330    -0.8070 C.3   1 <1>   0.0600 
 20 C        5.0740     0.5450     0.0900 C.3   1 <1>   0.0600 
 21 C       -5.3040     0.0380    -1.0380 C.3   1 <1>  -0.2400 
 22 C       -4.7260     1.5220     0.9070 C.3   1 <1>  -0.2400 
 23 C       -1.3560    -5.0340     0.0680 C.3   1 <1>  -0.1600 
 24 O        4.3540     3.0450    -0.7710 O.2   1 <1>  -0.5700 
 25 C       -1.7580    -6.4810    -0.2420 C.3   1 <1>  -0.1600 
 26 C       -0.5840    -7.4390    -0.0200 C.3   1 <1>  -0.2400 
 27 H       -2.1020     1.1620    -0.0300 H     1 <1>   0.0800 
 28 H       -2.5590     0.1920    -1.3860 H     1 <1>   0.0800 
 29 H       -1.4600    -2.0510    -1.6880 H     1 <1>   0.0800 
 30 H       -0.2080    -2.5160    -0.5890 H     1 <1>   0.0800 
 31 H        2.8920    -0.7290     0.8700 H     1 <1>   0.1500 
 32 H       -3.0170    -0.5320     1.5270 H     1 <1>   0.0800 
 33 H       -1.9060    -2.6040     1.2650 H     1 <1>   0.0800 
 34 H       -5.3570    -0.4990     1.0230 H     1 <1>   0.0800 
 35 H       -3.3680    -4.4040     0.4370 H     1 <1>   0.0800 
 36 H       -2.8320    -4.1040    -1.1940 H     1 <1>   0.0800 
 37 H        1.0580     4.6630    -0.2460 H     1 <1>   0.0800 
 38 H        1.6070     4.2170    -1.8500 H     1 <1>   0.0800 
 39 H        2.7370     4.8560    -0.6720 H     1 <1>   0.0800 
 40 H        5.1060    -0.4600     0.4700 H     1 <1>   0.0800 
 41 H        5.6920     1.1750     0.7070 H     1 <1>   0.0800 
 42 H        5.4640     0.5550    -0.9140 H     1 <1>   0.0800 
 43 H       -4.7460     0.6610    -1.7130 H     1 <1>   0.0800 
 44 H       -6.3220     0.3840    -1.0220 H     1 <1>   0.0800 
 45 H       -5.3000    -0.9700    -1.4150 H     1 <1>   0.0800 
 46 H       -4.1580     2.1750     0.2690 H     1 <1>   0.0800 
 47 H       -4.3090     1.5630     1.8980 H     1 <1>   0.0800 
 48 H       -5.7360     1.8890     0.9510 H     1 <1>   0.0800 
 49 H       -0.5290    -4.7600    -0.5630 H     1 <1>   0.0800 
 50 H       -1.0330    -4.9670     1.0930 H     1 <1>   0.0800 
 51 H       -2.5770    -6.7730     0.3930 H     1 <1>   0.0800 
 52 H       -2.0860    -6.5550    -1.2650 H     1 <1>   0.0800 
 53 H       -0.2530    -7.3970     1.0040 H     1 <1>   0.0800 
 54 H        0.2400    -7.1800    -0.6610 H     1 <1>   0.0800 
 55 H       -0.8850    -8.4470    -0.2400 H     1 <1>   0.0800 
@<TRIPOS>BOND
  1   1   2  2   
  2   1   3  2   
  3   1   4  am  
  4   1   5  1   
  5   4   6  1   
  6   4   7  1   
  7   5   8  1   
  8   5   9  2   
  9   6  10  1   
 10   6  27  1   
 11   6  28  1   
 12   7  11  1   
 13   7  29  1   
 14   7  30  1   
 15   8  12  2   
 16   8  13  am  
 17   9  14  1   
 18   9  31  1   
 19  10  15  1   
 20  10  16  1   
 21  10  32  1   
 22  11  15  1   
 23  11  17  1   
 24  11  33  1   
 25  13  18  am  
 26  13  19  1   
 27  14  18  am  
 28  14  20  1   
 29  16  21  1   
 30  16  22  1   
 31  16  34  1   
 32  17  23  1   
 33  17  35  1   
 34  17  36  1   
 35  18  24  2   
 36  19  37  1   
 37  19  38  1   
 38  19  39  1   
 39  20  40  1   
 40  20  41  1   
 41  20  42  1   
 42  21  43  1   
 43  21  44  1   
 44  21  45  1   
 45  22  46  1   
 46  22  47  1   
 47  22  48  1   
 48  23  25  1   
 49  23  49  1   
 50  23  50  1   
 51  25  26  1   
 52  25  51  1   
 53  25  52  1   
 54  26  53  1   
 55  26  54  1   
 56  26  55  1   
@<TRIPOS>SUBSTRUCTURE
  1 ****   4 GROUP 4 **** **** 0

# MOE 2024.06 (io_trps.svl 2023.06)
