@<TRIPOS>MOLECULE
NONAME
46 48 1 0 0 
SMALL
USER_CHARGES


@<TRIPOS>ATOM
  1 O       -4.1540     3.2240    -0.7230 O.2   1 <1>  -0.5700 
  2 C       -2.9990     2.9190    -0.5520 C.2   1 <1>   0.5690 
  3 N       -2.5340     1.6830    -0.8620 N.am  1 <1>  -0.7300 
  4 C       -2.0430     3.9490     0.0270 C.3   1 <1>   0.0440 
  5 C       -3.3340     0.5630    -1.4000 C.3   1 <1>   0.2200 
  6 C       -0.7120     3.3380     0.4590 C.ar  1 <1>  -0.1440 
  7 C       -3.3850    -0.5490    -0.3670 C.3   1 <1>  -0.0800 
  8 C       -2.5800    -0.1030    -2.5500 C.3   1 <1>   0.1200 
  9 C        0.3690     3.3190    -0.4100 C.ar  1 <1>  -0.1500 
 10 C       -0.5830     2.7720     1.7180 C.ar  1 <1>  -0.1500 
 11 C       -2.0630    -1.2730    -0.6290 C.3   1 <1>   0.1200 
 12 C       -4.6050    -1.4650    -0.5830 C.3   1 <1>  -0.0170 
 13 O       -1.7730    -1.0960    -1.9850 O.3   1 <1>  -0.5600 
 14 C        1.5650     2.7370    -0.0300 C.ar  1 <1>  -0.1500 
 15 C        0.6120     2.1900     2.1000 C.ar  1 <1>  -0.1500 
 16 C       -4.6650    -2.5700     0.4600 C.ar  1 <1>  -0.1440 
 17 C        1.6920     2.1650     1.2330 C.ar  1 <1>   0.0820 
 18 C       -4.3110    -3.8720     0.1700 C.ar  1 <1>  -0.1500 
 19 C       -5.0800    -2.3260     1.7540 C.ar  1 <1>  -0.1500 
 20 O        2.8240     1.5710     1.6840 O.3   1 <1>  -0.3620 
 21 C       -4.3810    -4.8380     1.1600 C.ar  1 <1>   0.1600 
 22 C       -5.1150    -3.3640     2.6700 C.ar  1 <1>   0.1600 
 23 C        3.9800     1.4890     0.8800 C.3   1 <1>   0.0400 
 24 N       -4.7730    -4.6150     2.4040 N.ar  1 <1>  -0.6200 
 25 H       -1.5490     1.4690    -0.6740 H     1 <1>   0.3700 
 26 H       -1.8770     4.7090    -0.7140 H     1 <1>   0.0800 
 27 H       -2.5170     4.4170     0.8690 H     1 <1>   0.0800 
 28 H       -4.3080     0.9110    -1.7010 H     1 <1>   0.0800 
 29 H       -3.4190    -0.1530     0.6330 H     1 <1>   0.0800 
 30 H       -1.9670     0.5910    -3.0970 H     1 <1>   0.0800 
 31 H       -3.2660    -0.5880    -3.2210 H     1 <1>   0.0800 
 32 H        0.2830     3.7550    -1.3910 H     1 <1>   0.1500 
 33 H       -1.4110     2.7770     2.4050 H     1 <1>   0.1500 
 34 H       -2.0990    -2.3250    -0.4090 H     1 <1>   0.0800 
 35 H       -1.2650    -0.8190    -0.0660 H     1 <1>   0.0800 
 36 H       -4.5750    -1.9010    -1.5670 H     1 <1>   0.0800 
 37 H       -5.5060    -0.8800    -0.5160 H     1 <1>   0.0800 
 38 H        2.3830     2.7370    -0.7250 H     1 <1>   0.1500 
 39 H        0.7170     1.7490     3.0750 H     1 <1>   0.1500 
 40 H       -3.9790    -4.1450    -0.8150 H     1 <1>   0.1500 
 41 H       -5.3760    -1.3380     2.0580 H     1 <1>   0.1500 
 42 H       -4.1000    -5.8480     0.9150 H     1 <1>   0.1500 
 43 H       -5.4410    -3.1550     3.6740 H     1 <1>   0.1500 
 44 H        4.7430     0.9820     1.4420 H     1 <1>   0.0800 
 45 H        4.3070     2.4840     0.6360 H     1 <1>   0.0800 
 46 H        3.7480     0.9290    -0.0090 H     1 <1>   0.0800 
@<TRIPOS>BOND
  1   1   2  2   
  2   2   3  am  
  3   2   4  1   
  4   3   5  1   
  5   3  25  1   
  6   4   6  1   
  7   4  26  1   
  8   4  27  1   
  9   5   7  1   
 10   5   8  1   
 11   5  28  1   
 12   6   9  ar  
 13   6  10  ar  
 14   7  11  1   
 15   7  12  1   
 16   7  29  1   
 17   8  13  1   
 18   8  30  1   
 19   8  31  1   
 20   9  14  ar  
 21   9  32  1   
 22  10  15  ar  
 23  10  33  1   
 24  11  13  1   
 25  11  34  1   
 26  11  35  1   
 27  12  16  1   
 28  12  36  1   
 29  12  37  1   
 30  14  17  ar  
 31  14  38  1   
 32  15  17  ar  
 33  15  39  1   
 34  16  18  ar  
 35  16  19  ar  
 36  17  20  1   
 37  18  21  ar  
 38  18  40  1   
 39  19  22  ar  
 40  19  41  1   
 41  20  23  1   
 42  21  24  ar  
 43  21  42  1   
 44  22  24  ar  
 45  22  43  1   
 46  23  44  1   
 47  23  45  1   
 48  23  46  1   
@<TRIPOS>SUBSTRUCTURE
  1 ****   7 GROUP 4 **** **** 0

# MOE 2024.06 (io_trps.svl 2023.06)
