@<TRIPOS>MOLECULE
NONAME
48 50 1 0 0 
SMALL
USER_CHARGES


@<TRIPOS>ATOM
  1 O       -3.4570     1.2430     1.4200 O.2   1 <1>  -0.5700 
  2 C       -2.5340     1.8150     0.8820 C.2   1 <1>   0.6900 
  3 N       -2.4960     2.1900    -0.4310 N.am  1 <1>  -0.4200 
  4 N       -1.3940     2.1330     1.5240 N.am  1 <1>  -0.7300 
  5 C       -1.2720     2.7210    -0.7090 C.2   1 <1>   0.5690 
  6 C       -3.4410     1.7140    -1.4750 C.3   1 <1>   0.2010 
  7 C       -0.4180     2.6810     0.5740 C.3   1 <1>   0.3610 
  8 O       -0.9150     3.1570    -1.7780 O.2   1 <1>  -0.5700 
  9 C       -3.4610     0.1880    -1.5540 C.2   1 <1>   0.5690 
 10 C        0.7630     1.7140     0.4730 C.3   1 <1>  -0.2400 
 11 C        0.0160     4.0660     1.0580 C.3   1 <1>  -0.2400 
 12 O       -2.5060    -0.3470    -2.0690 O.2   1 <1>  -0.5700 
 13 N       -4.5010    -0.5520    -1.0470 N.am  1 <1>  -0.6600 
 14 C       -5.7080    -0.0550    -0.3390 C.3   1 <1>   0.1400 
 15 C       -4.3460    -1.9910    -0.7410 C.3   1 <1>   0.1400 
 16 C       -5.9050    -0.9990     0.8520 C.3   1 <1>   0.2000 
 17 C       -4.8960    -2.1410     0.6780 C.3   1 <1>  -0.0800 
 18 O       -5.6370    -0.3240     2.0300 O.3   1 <1>  -0.6800 
 19 C       -5.5070    -3.5240     0.9520 C.3   1 <1>   0.0210 
 20 C       -4.5390    -4.6400     0.6060 C.2   1 <1>   0.1080 
 21 N       -3.3930    -4.7870     1.1930 N.2   1 <1>  -0.7070 
 22 C       -4.7560    -5.6060    -0.3710 C.2   1 <1>  -0.1500 
 23 N       -2.8410    -5.8620     0.6010 N.pl3 1 <1>   0.3000 
 24 C       -3.6480    -6.3760    -0.3520 C.2   1 <1>  -0.3320 
 25 C       -3.3030    -7.5880    -1.1970 C.3   1 <1>  -0.0600 
 26 H       -1.1190     1.6670     2.3870 H     1 <1>   0.3700 
 27 H       -4.4180     2.1060    -1.2760 H     1 <1>   0.0800 
 28 H       -3.1270     2.0900    -2.4330 H     1 <1>   0.0800 
 29 H        1.4570     2.0690    -0.2680 H     1 <1>   0.0800 
 30 H        0.4240     0.7380     0.1710 H     1 <1>   0.0800 
 31 H        1.2770     1.6390     1.4140 H     1 <1>   0.0800 
 32 H        0.6860     4.5060     0.3410 H     1 <1>   0.0800 
 33 H        0.5230     3.9960     2.0040 H     1 <1>   0.0800 
 34 H       -0.8390     4.7110     1.1600 H     1 <1>   0.0800 
 35 H       -5.6080     0.9620    -0.0070 H     1 <1>   0.0800 
 36 H       -6.5520    -0.1340    -1.0020 H     1 <1>   0.0800 
 37 H       -4.9240    -2.5640    -1.4450 H     1 <1>   0.0800 
 38 H       -3.3160    -2.3050    -0.7880 H     1 <1>   0.0800 
 39 H       -6.9220    -1.3480     0.8970 H     1 <1>   0.0800 
 40 H       -4.0660    -1.9990     1.3500 H     1 <1>   0.0800 
 41 H       -4.7760     0.1640     1.9390 H     1 <1>   0.4000 
 42 H       -6.4070    -3.6500     0.3790 H     1 <1>   0.0800 
 43 H       -5.7600    -3.6000     1.9950 H     1 <1>   0.0800 
 44 H       -5.6270    -5.6970    -0.9940 H     1 <1>   0.1500 
 45 H       -1.9150    -6.2150     0.8680 H     1 <1>   0.2700 
 46 H       -4.1040    -7.8000    -1.8830 H     1 <1>   0.0800 
 47 H       -3.1510    -8.4480    -0.5700 H     1 <1>   0.0800 
 48 H       -2.4070    -7.4030    -1.7640 H     1 <1>   0.0800 
@<TRIPOS>BOND
  1   1   2  2   
  2   2   3  am  
  3   2   4  am  
  4   3   5  am  
  5   3   6  1   
  6   4   7  1   
  7   4  26  1   
  8   5   7  1   
  9   5   8  2   
 10   6   9  1   
 11   6  27  1   
 12   6  28  1   
 13   7  10  1   
 14   7  11  1   
 15   9  12  2   
 16   9  13  am  
 17  10  29  1   
 18  10  30  1   
 19  10  31  1   
 20  11  32  1   
 21  11  33  1   
 22  11  34  1   
 23  13  14  1   
 24  13  15  1   
 25  14  16  1   
 26  14  35  1   
 27  14  36  1   
 28  15  17  1   
 29  15  37  1   
 30  15  38  1   
 31  16  17  1   
 32  16  18  1   
 33  16  39  1   
 34  17  19  1   
 35  17  40  1   
 36  18  41  1   
 37  19  20  1   
 38  19  42  1   
 39  19  43  1   
 40  20  21  2   
 41  20  22  1   
 42  21  23  1   
 43  22  24  2   
 44  22  44  1   
 45  23  24  1   
 46  23  45  1   
 47  24  25  1   
 48  25  46  1   
 49  25  47  1   
 50  25  48  1   
@<TRIPOS>SUBSTRUCTURE
  1 ****  13 GROUP 4 **** **** 0

# MOE 2024.06 (io_trps.svl 2023.06)
