@<TRIPOS>MOLECULE
NONAME
47 49 1 0 0 
SMALL
USER_CHARGES


@<TRIPOS>ATOM
  1 S       -0.0870    -0.0400     0.3730 S.3   1 <1>  -0.0800 
  2 C       -1.1270     1.3760     0.3120 C.2   1 <1>  -0.1400 
  3 C       -1.0290    -0.8400    -0.8720 C.2   1 <1>  -0.1100 
  4 C       -2.1030     1.2060    -0.6000 C.2   1 <1>  -0.1500 
  5 C       -0.7830     2.5180     1.2430 C.3   1 <1>   0.5230 
  6 C       -2.0460    -0.0560    -1.2740 C.2   1 <1>  -0.1500 
  7 N        0.5880     2.9870     0.9210 N.4   1 <1>  -0.9590 
  8 C        1.1030     3.9830     1.9260 C.3   1 <1>   0.3430 
  9 C        0.6790     3.5320    -0.4850 C.3   1 <1>   0.3430 
 10 C        2.5270     4.4710     1.5910 C.3   1 <1>   0.2090 
 11 C        2.0980     4.0220    -0.8350 C.3   1 <1>   0.2090 
 12 N        2.6130     4.9770     0.1890 N.pl3 1 <1>  -0.8380 
 13 C        3.7960     5.5950    -0.1380 C.ar  1 <1>   0.4100 
 14 N        4.8690     4.8340    -0.0930 N.ar  1 <1>  -0.6200 
 15 C        3.8640     6.9340    -0.4960 C.ar  1 <1>  -0.1430 
 16 C        6.0040     5.4250    -0.4080 C.ar  1 <1>   0.4770 
 17 C        5.1070     7.4270    -0.7990 C.ar  1 <1>   0.1600 
 18 C        2.6370     7.8360    -0.5570 C.3   1 <1>  -0.0170 
 19 N        6.1930     6.6810    -0.7600 N.ar  1 <1>  -0.6200 
 20 C        7.2460     4.5670    -0.3620 C.3   1 <1>  -0.0970 
 21 C        2.3260     8.4260     0.8240 C.3   1 <1>  -0.1600 
 22 C        1.0910     9.3320     0.7830 C.3   1 <1>  -0.2400 
 23 H       -0.7210    -1.8260    -1.1740 H     1 <1>   0.1500 
 24 H       -2.8820     1.9100    -0.8440 H     1 <1>   0.1500 
 25 H       -0.8270     2.1680     2.2620 H     1 <1>   0.0800 
 26 H       -1.4930     3.3190     1.1210 H     1 <1>   0.0800 
 27 H       -2.7730    -0.3180    -2.0250 H     1 <1>   0.1500 
 28 H        1.1920     2.1540     0.9520 H     1 <1>   0.4500 
 29 H        1.1090     3.5440     2.9110 H     1 <1>   0.0800 
 30 H        0.4540     4.8420     1.9490 H     1 <1>   0.0800 
 31 H        0.0020     4.3610    -0.5960 H     1 <1>   0.0800 
 32 H        0.3900     2.7720    -1.1930 H     1 <1>   0.0800 
 33 H        3.2290     3.6650     1.7250 H     1 <1>   0.0800 
 34 H        2.8050     5.2610     2.2680 H     1 <1>   0.0800 
 35 H        2.0820     4.5090    -1.7960 H     1 <1>   0.0800 
 36 H        2.7670     3.1810    -0.9090 H     1 <1>   0.0800 
 37 H        5.2280     8.4590    -1.0810 H     1 <1>   0.1500 
 38 H        1.7910     7.2750    -0.9140 H     1 <1>   0.0800 
 39 H        2.8110     8.6350    -1.2560 H     1 <1>   0.0800 
 40 H        6.9970     3.5490    -0.1270 H     1 <1>   0.0800 
 41 H        7.9130     4.9480     0.3880 H     1 <1>   0.0800 
 42 H        7.7360     4.5970    -1.3170 H     1 <1>   0.0800 
 43 H        3.1730     8.9940     1.1680 H     1 <1>   0.0800 
 44 H        2.1580     7.6270     1.5250 H     1 <1>   0.0800 
 45 H        1.2500    10.1550     0.1070 H     1 <1>   0.0800 
 46 H        0.8970     9.7330     1.7630 H     1 <1>   0.0800 
 47 H        0.2250     8.7820     0.4610 H     1 <1>   0.0800 
@<TRIPOS>BOND
  1   1   2  1   
  2   1   3  1   
  3   2   4  2   
  4   2   5  1   
  5   3   6  2   
  6   3  23  1   
  7   4   6  1   
  8   4  24  1   
  9   5   7  1   
 10   5  25  1   
 11   5  26  1   
 12   6  27  1   
 13   7   8  1   
 14   7   9  1   
 15   7  28  1   
 16   8  10  1   
 17   8  29  1   
 18   8  30  1   
 19   9  11  1   
 20   9  31  1   
 21   9  32  1   
 22  10  12  1   
 23  10  33  1   
 24  10  34  1   
 25  11  12  1   
 26  11  35  1   
 27  11  36  1   
 28  12  13  1   
 29  13  14  ar  
 30  13  15  ar  
 31  14  16  ar  
 32  15  17  ar  
 33  15  18  1   
 34  16  19  ar  
 35  16  20  1   
 36  17  19  ar  
 37  17  37  1   
 38  18  21  1   
 39  18  38  1   
 40  18  39  1   
 41  20  40  1   
 42  20  41  1   
 43  20  42  1   
 44  21  22  1   
 45  21  43  1   
 46  21  44  1   
 47  22  45  1   
 48  22  46  1   
 49  22  47  1   
@<TRIPOS>SUBSTRUCTURE
  1 ****  12 GROUP 4 **** **** 0

# MOE 2024.06 (io_trps.svl 2023.06)
