@<TRIPOS>MOLECULE
NONAME
37 38 1 0 0 
SMALL
USER_CHARGES


@<TRIPOS>ATOM
  1 S       -0.7750    -0.6220    -2.3500 S.3   1 <1>  -0.0800 
  2 C       -1.6780    -1.2280    -0.9860 C.2   1 <1>  -0.1400 
  3 C       -1.2040     1.0050    -1.8980 C.2   1 <1>   0.2280 
  4 C       -2.2040    -0.1690    -0.3310 C.2   1 <1>   0.0460 
  5 C       -1.6480    -2.7500    -0.8770 C.3   1 <1>   0.0200 
  6 N       -1.9290     1.0820    -0.8580 N.2   1 <1>  -0.5650 
  7 C       -3.0660    -0.1140     0.9160 C.3   1 <1>  -0.0590 
  8 C       -2.4910    -3.3370     0.2580 C.3   1 <1>   0.1100 
  9 N       -2.4950    -4.8100     0.2120 N.3   1 <1>  -0.8100 
 10 C       -3.7170    -5.3560     0.8690 C.3   1 <1>   0.2900 
 11 C       -1.2610    -5.3830     0.7790 C.3   1 <1>   0.0300 
 12 C       -3.9290    -6.8590     0.6960 C.2   1 <1>   0.2980 
 13 O       -3.2490    -7.6820     1.4570 O.3   1 <1>  -0.0190 
 14 N       -4.7460    -7.4120    -0.1100 N.2   1 <1>  -0.5650 
 15 N       -3.6590    -8.8590     1.0970 N.2   1 <1>  -0.4100 
 16 C       -4.5390    -8.6900     0.1880 C.2   1 <1>   0.3350 
 17 C       -5.2780    -9.8150    -0.5290 C.3   1 <1>   0.3010 
 18 O       -6.5690    -9.9880    -0.0090 O.3   1 <1>  -0.5600 
 19 C       -7.3110   -10.9780    -0.6430 C.3   1 <1>   0.0400 
 20 H       -0.8330     1.8020    -2.5160 H     1 <1>   0.1500 
 21 H       -0.6240    -3.0490    -0.7570 H     1 <1>   0.0800 
 22 H       -2.0070    -3.1600    -1.8050 H     1 <1>   0.0800 
 23 H       -3.2440    -1.0770     1.3430 H     1 <1>   0.0800 
 24 H       -4.0120     0.3340     0.6730 H     1 <1>   0.0800 
 25 H       -2.5810     0.4990     1.6540 H     1 <1>   0.0800 
 26 H       -3.4970    -2.9750     0.1290 H     1 <1>   0.0800 
 27 H       -2.1200    -2.9990     1.2110 H     1 <1>   0.0800 
 28 H       -4.5790    -4.8720     0.4440 H     1 <1>   0.0800 
 29 H       -3.6970    -5.1280     1.9200 H     1 <1>   0.0800 
 30 H       -0.3930    -4.9530     0.3100 H     1 <1>   0.0800 
 31 H       -1.2270    -6.4430     0.5990 H     1 <1>   0.0800 
 32 H       -1.2100    -5.2030     1.8390 H     1 <1>   0.0800 
 33 H       -4.7360   -10.7350    -0.4040 H     1 <1>   0.0800 
 34 H       -5.3550    -9.5780    -1.5750 H     1 <1>   0.0800 
 35 H       -8.2750   -11.0280    -0.1680 H     1 <1>   0.0800 
 36 H       -6.8070   -11.9230    -0.5390 H     1 <1>   0.0800 
 37 H       -7.4330   -10.7220    -1.6820 H     1 <1>   0.0800 
@<TRIPOS>BOND
  1   1   2  1   
  2   1   3  1   
  3   2   4  2   
  4   2   5  1   
  5   3   6  2   
  6   3  20  1   
  7   4   6  1   
  8   4   7  1   
  9   5   8  1   
 10   5  21  1   
 11   5  22  1   
 12   7  23  1   
 13   7  24  1   
 14   7  25  1   
 15   8   9  1   
 16   8  26  1   
 17   8  27  1   
 18   9  10  1   
 19   9  11  1   
 20  10  12  1   
 21  10  28  1   
 22  10  29  1   
 23  11  30  1   
 24  11  31  1   
 25  11  32  1   
 26  12  13  1   
 27  12  14  2   
 28  13  15  1   
 29  14  16  1   
 30  15  16  2   
 31  16  17  1   
 32  17  18  1   
 33  17  33  1   
 34  17  34  1   
 35  18  19  1   
 36  19  35  1   
 37  19  36  1   
 38  19  37  1   
@<TRIPOS>SUBSTRUCTURE
  1 ****   9 GROUP 4 **** **** 0

# MOE 2024.06 (io_trps.svl 2023.06)
