@<TRIPOS>MOLECULE
NONAME
49 50 1 0 0 
SMALL
USER_CHARGES


@<TRIPOS>ATOM
  1 S        0.8190     1.6450    -0.9660 S.o2  1 <1>   1.3330 
  2 O        0.5700     2.0720    -2.3240 O.2   1 <1>  -0.6500 
  3 O        0.0690     0.5260    -0.4380 O.2   1 <1>  -0.6500 
  4 N        0.5740     2.9680     0.0670 N.am  1 <1>  -0.8490 
  5 C        2.5640     1.2660    -0.7720 C.3   1 <1>  -0.0550 
  6 C       -0.8320     3.1470     0.4250 C.3   1 <1>   0.1160 
  7 C        1.0970     4.2420    -0.4630 C.3   1 <1>   0.1160 
  8 C        2.9760     0.9240     0.6740 C.3   1 <1>  -0.0800 
  9 C        4.4830     0.8150     0.8550 C.3   1 <1>   0.2200 
 10 C        2.4900    -0.4250     1.1860 C.3   1 <1>   0.1200 
 11 N        5.0120     2.1360     1.2480 N.am  1 <1>  -0.7300 
 12 C        4.6490    -0.2470     1.9420 C.3   1 <1>   0.1200 
 13 O        3.3760    -0.7600     2.2070 O.3   1 <1>  -0.5600 
 14 C        5.4090     3.0190     0.2810 C.2   1 <1>   0.5440 
 15 O        6.1580     2.5970    -0.5860 O.2   1 <1>  -0.5700 
 16 C        4.8230     4.3280     0.2270 C.ar  1 <1>   0.0860 
 17 C        4.2250     4.9210     1.3440 C.ar  1 <1>  -0.1500 
 18 C        4.7340     5.0330    -0.9770 C.ar  1 <1>  -0.1500 
 19 C        3.4650     6.0600     1.2570 C.ar  1 <1>   0.0820 
 20 C        3.9840     6.1750    -1.1100 C.ar  1 <1>   0.0820 
 21 O        2.9530     6.4910     2.4570 O.3   1 <1>  -0.3630 
 22 C        3.2410     6.6800    -0.0040 C.ar  1 <1>  -0.1710 
 23 O        4.0070     6.7250    -2.3680 O.3   1 <1>  -0.3620 
 24 C        2.5630     7.8400     2.5850 C.3   1 <1>   0.0400 
 25 O        2.3670     7.5830    -0.1480 O.3   1 <1>  -0.8290 
 26 C        3.6540     8.0800    -2.5290 C.3   1 <1>   0.0400 
 27 H        2.8200     0.4480    -1.4160 H     1 <1>   0.0800 
 28 H        3.1310     2.1160    -1.0990 H     1 <1>   0.0800 
 29 H       -0.9370     3.9780     1.1020 H     1 <1>   0.0800 
 30 H       -1.2040     2.2620     0.9140 H     1 <1>   0.0800 
 31 H       -1.4210     3.3320    -0.4580 H     1 <1>   0.0800 
 32 H        1.0070     5.0260     0.2720 H     1 <1>   0.0800 
 33 H        0.5620     4.5410    -1.3490 H     1 <1>   0.0800 
 34 H        2.1360     4.1470    -0.7140 H     1 <1>   0.0800 
 35 H        2.5850     1.6730     1.3420 H     1 <1>   0.0800 
 36 H        4.9630     0.4710    -0.0460 H     1 <1>   0.0800 
 37 H        2.5510    -1.1860     0.4270 H     1 <1>   0.0800 
 38 H        1.4910    -0.3810     1.5860 H     1 <1>   0.0800 
 39 H        4.4870     2.5410     2.0240 H     1 <1>   0.3700 
 40 H        5.0450     0.1650     2.8540 H     1 <1>   0.0800 
 41 H        5.2710    -1.0530     1.5970 H     1 <1>   0.0800 
 42 H        4.3430     4.4780     2.3120 H     1 <1>   0.1500 
 43 H        5.2520     4.6550    -1.8390 H     1 <1>   0.1500 
 44 H        2.4860     8.0750     3.6290 H     1 <1>   0.0800 
 45 H        1.6100     7.9650     2.1040 H     1 <1>   0.0800 
 46 H        3.3000     8.4620     2.1080 H     1 <1>   0.0800 
 47 H        4.0050     8.4130    -3.4860 H     1 <1>   0.0800 
 48 H        4.1070     8.6530    -1.7380 H     1 <1>   0.0800 
 49 H        2.5830     8.1610    -2.4750 H     1 <1>   0.0800 
@<TRIPOS>BOND
  1   1   2  2   
  2   1   3  2   
  3   1   4  am  
  4   1   5  1   
  5   4   6  1   
  6   4   7  1   
  7   5   8  1   
  8   5  27  1   
  9   5  28  1   
 10   6  29  1   
 11   6  30  1   
 12   6  31  1   
 13   7  32  1   
 14   7  33  1   
 15   7  34  1   
 16   8   9  1   
 17   8  10  1   
 18   8  35  1   
 19   9  11  1   
 20   9  12  1   
 21   9  36  1   
 22  10  13  1   
 23  10  37  1   
 24  10  38  1   
 25  11  14  am  
 26  11  39  1   
 27  12  13  1   
 28  12  40  1   
 29  12  41  1   
 30  14  15  2   
 31  14  16  1   
 32  16  17  ar  
 33  16  18  ar  
 34  17  19  ar  
 35  17  42  1   
 36  18  20  ar  
 37  18  43  1   
 38  19  21  1   
 39  19  22  ar  
 40  20  22  ar  
 41  20  23  1   
 42  21  24  1   
 43  22  25  1   
 44  23  26  1   
 45  24  44  1   
 46  24  45  1   
 47  24  46  1   
 48  26  47  1   
 49  26  48  1   
 50  26  49  1   
@<TRIPOS>SUBSTRUCTURE
  1 ****  16 GROUP 4 **** **** 0

# MOE 2024.06 (io_trps.svl 2023.06)
