@<TRIPOS>MOLECULE
NONAME
48 51 1 0 0 
SMALL
USER_CHARGES


@<TRIPOS>ATOM
  1 O        0.5300    -0.2170     1.0760 O.2   1 <1>  -0.5700 
  2 C        1.2550    -1.0660     0.6090 C.2   1 <1>   0.9370 
  3 N        2.4400    -0.7270    -0.0950 N.pl3 1 <1>  -0.5760 
  4 C        0.8900    -2.4220     0.7720 C.2   1 <1>  -0.1360 
  5 C        3.1740    -1.7610    -0.6050 C.cat 1 <1>   0.7390 
  6 C        2.9030     0.5710    -0.3010 C.2   1 <1>   0.2030 
  7 C        1.6390    -3.4090     0.2540 C.2   1 <1>   0.2030 
  8 N        2.7750    -3.0430    -0.4280 N.pl3 1 <1>  -0.6450 
  9 C        4.3540    -1.5200    -1.3200 C.2   1 <1>  -0.1800 
 10 C        4.0580     0.8000    -1.0020 C.2   1 <1>  -0.1500 
 11 C        2.1760     1.8070     0.2270 C.3   1 <1>  -0.1020 
 12 C        1.3160    -4.9010     0.3850 C.3   1 <1>   0.2480 
 13 C        4.8080    -0.2510    -1.5270 C.2   1 <1>  -0.1500 
 14 N       -0.1030    -5.1390     0.7160 N.3   1 <1>  -0.8100 
 15 C       -1.0180    -4.8980    -0.4310 C.3   1 <1>   0.1100 
 16 C       -0.3120    -6.5370     1.1460 C.3   1 <1>   0.1100 
 17 C       -1.9320    -6.1210    -0.5380 C.3   1 <1>   0.2000 
 18 C       -1.0740    -7.2470     0.0220 C.3   1 <1>  -0.0800 
 19 O       -3.0150    -5.9360     0.3020 O.3   1 <1>  -0.6800 
 20 C       -0.1600    -7.8320    -1.0800 C.3   1 <1>  -0.0170 
 21 C        0.9400    -8.7310    -0.5370 C.ar  1 <1>   0.1670 
 22 N        2.1320    -8.1750    -0.3640 N.ar  1 <1>  -0.6200 
 23 C        0.6610   -10.0670    -0.2550 C.ar  1 <1>   0.1600 
 24 C        3.0150    -9.0470     0.1010 C.ar  1 <1>   0.1600 
 25 N        1.5420   -10.9330     0.2160 N.ar  1 <1>  -0.6200 
 26 C        2.7300   -10.3780     0.3820 C.ar  1 <1>   0.1600 
 27 H       -0.0090    -2.6090     1.3290 H     1 <1>   0.1500 
 28 H        3.3680    -3.7770    -0.8270 H     1 <1>   0.4500 
 29 H        4.9100    -2.3520    -1.7120 H     1 <1>   0.1500 
 30 H        4.4210     1.8010    -1.1650 H     1 <1>   0.1500 
 31 H        2.1000     1.7690     1.2990 H     1 <1>   0.0800 
 32 H        1.1900     1.8730    -0.1970 H     1 <1>   0.0800 
 33 H        2.6990     2.7100    -0.0280 H     1 <1>   0.0800 
 34 H        1.9360    -5.3070     1.1670 H     1 <1>   0.0800 
 35 H        1.5640    -5.4170    -0.5270 H     1 <1>   0.0800 
 36 H        5.7140    -0.0460    -2.0760 H     1 <1>   0.1500 
 37 H       -1.5940    -3.9990    -0.2880 H     1 <1>   0.0800 
 38 H       -0.4590    -4.8060    -1.3460 H     1 <1>   0.0800 
 39 H        0.6050    -7.0340     1.4150 H     1 <1>   0.0800 
 40 H       -0.9330    -6.5240     2.0260 H     1 <1>   0.0800 
 41 H       -2.3020    -6.3000    -1.5340 H     1 <1>   0.0800 
 42 H       -1.6820    -8.0410     0.4210 H     1 <1>   0.0800 
 43 H       -2.6910    -5.6130     1.1670 H     1 <1>   0.4000 
 44 H        0.3000    -7.0460    -1.6500 H     1 <1>   0.0800 
 45 H       -0.7640    -8.3980    -1.7670 H     1 <1>   0.0800 
 46 H       -0.3350   -10.4370    -0.4240 H     1 <1>   0.1500 
 47 H        4.0180    -8.6960     0.2700 H     1 <1>   0.1500 
 48 H        3.5170   -11.0080     0.7580 H     1 <1>   0.1500 
@<TRIPOS>BOND
  1   1   2  2   
  2   2   3  1   
  3   2   4  1   
  4   3   5  ar  
  5   3   6  1   
  6   4   7  2   
  7   4  27  1   
  8   5   8  ar  
  9   5   9  1   
 10   6  10  2   
 11   6  11  1   
 12   7   8  1   
 13   7  12  1   
 14   8  28  1   
 15   9  13  2   
 16   9  29  1   
 17  10  13  1   
 18  10  30  1   
 19  11  31  1   
 20  11  32  1   
 21  11  33  1   
 22  12  14  1   
 23  12  34  1   
 24  12  35  1   
 25  13  36  1   
 26  14  15  1   
 27  14  16  1   
 28  15  17  1   
 29  15  37  1   
 30  15  38  1   
 31  16  18  1   
 32  16  39  1   
 33  16  40  1   
 34  17  18  1   
 35  17  19  1   
 36  17  41  1   
 37  18  20  1   
 38  18  42  1   
 39  19  43  1   
 40  20  21  1   
 41  20  44  1   
 42  20  45  1   
 43  21  22  ar  
 44  21  23  ar  
 45  22  24  ar  
 46  23  25  ar  
 47  23  46  1   
 48  24  26  ar  
 49  24  47  1   
 50  25  26  ar  
 51  26  48  1   
@<TRIPOS>SUBSTRUCTURE
  1 ****  12 GROUP 4 **** **** 0

# MOE 2024.06 (io_trps.svl 2023.06)
