@<TRIPOS>MOLECULE
NONAME
47 49 1 0 0 
SMALL
USER_CHARGES


@<TRIPOS>ATOM
  1 O       -0.2920     1.6660     1.9940 O.2   1 <1>  -0.5700 
  2 C       -0.1090     2.5330     1.1590 C.2   1 <1>   0.5440 
  3 N       -1.1860     3.2490     0.6790 N.am  1 <1>  -0.6600 
  4 C        1.2380     2.7990     0.6940 C.ar  1 <1>   0.0860 
  5 C       -2.5780     3.0090     1.1620 C.3   1 <1>   0.1400 
  6 C       -1.1060     4.2320    -0.4350 C.3   1 <1>   0.1400 
  7 C        1.8560     2.0280    -0.2990 C.ar  1 <1>  -0.1440 
  8 C        1.9470     3.8680     1.2380 C.ar  1 <1>  -0.1500 
  9 C       -3.4540     2.4460     0.0280 C.3   1 <1>   0.0000 
 10 C       -1.9530     3.7460    -1.6160 C.3   1 <1>  -0.1600 
 11 C        3.1370     2.3380    -0.7330 C.ar  1 <1>  -0.1500 
 12 C        1.1280     0.8390    -0.9110 C.3   1 <1>  -0.0970 
 13 C        3.2230     4.1690     0.7990 C.ar  1 <1>   0.0820 
 14 C       -4.8880     2.2060     0.5340 C.3   1 <1>   0.2000 
 15 C       -3.3960     3.4070    -1.1930 C.3   1 <1>  -0.1600 
 16 C       -3.0360     1.0200    -0.3740 C.3   1 <1>  -0.1600 
 17 C        3.8210     3.4090    -0.1880 C.ar  1 <1>  -0.1500 
 18 O        3.8960     5.2000     1.3290 O.3   1 <1>  -0.5320 
 19 O       -5.6410     3.3830     0.5440 O.3   1 <1>  -0.5600 
 20 C       -5.4860     1.1620    -0.4120 C.3   1 <1>  -0.1600 
 21 C       -4.2940     0.3630    -0.9560 C.3   1 <1>  -0.1600 
 22 C       -6.8350     3.3110     1.2560 C.3   1 <1>   0.0400 
 23 H       -2.5770     2.3310     1.9980 H     1 <1>   0.0800 
 24 H       -2.9930     3.9420     1.5010 H     1 <1>   0.0800 
 25 H       -1.4810     5.1790    -0.0870 H     1 <1>   0.0800 
 26 H       -0.0900     4.3750    -0.7580 H     1 <1>   0.0800 
 27 H        1.4820     4.4560     2.0070 H     1 <1>   0.1500 
 28 H       -1.9760     4.5130    -2.3690 H     1 <1>   0.0800 
 29 H       -1.4810     2.8860    -2.0540 H     1 <1>   0.0800 
 30 H        3.6120     1.7480    -1.4970 H     1 <1>   0.1500 
 31 H        1.7610     0.3050    -1.5950 H     1 <1>   0.0800 
 32 H        0.2570     1.1750    -1.4420 H     1 <1>   0.0800 
 33 H        0.8190     0.1590    -0.1360 H     1 <1>   0.0800 
 34 H       -4.8460     1.8080     1.5340 H     1 <1>   0.0800 
 35 H       -3.9290     2.9900    -2.0280 H     1 <1>   0.0800 
 36 H       -3.8830     4.3310    -0.9340 H     1 <1>   0.0800 
 37 H       -2.2170     0.9970    -1.0670 H     1 <1>   0.0800 
 38 H       -2.7370     0.4760     0.5070 H     1 <1>   0.0800 
 39 H        4.8140     3.6550    -0.5190 H     1 <1>   0.1500 
 40 H        3.4190     5.6420     2.0530 H     1 <1>   0.4500 
 41 H       -6.1730     0.5210     0.1120 H     1 <1>   0.0800 
 42 H       -5.9920     1.6510    -1.2260 H     1 <1>   0.0800 
 43 H       -4.3490    -0.6730    -0.6680 H     1 <1>   0.0800 
 44 H       -4.2780     0.4240    -2.0310 H     1 <1>   0.0800 
 45 H       -7.3070     4.2760     1.2140 H     1 <1>   0.0800 
 46 H       -6.6250     3.0550     2.2800 H     1 <1>   0.0800 
 47 H       -7.4790     2.5760     0.8050 H     1 <1>   0.0800 
@<TRIPOS>BOND
  1   1   2  2   
  2   2   3  am  
  3   2   4  1   
  4   3   5  1   
  5   3   6  1   
  6   4   7  ar  
  7   4   8  ar  
  8   5   9  1   
  9   5  23  1   
 10   5  24  1   
 11   6  10  1   
 12   6  25  1   
 13   6  26  1   
 14   7  11  ar  
 15   7  12  1   
 16   8  13  ar  
 17   8  27  1   
 18   9  14  1   
 19   9  15  1   
 20   9  16  1   
 21  10  15  1   
 22  10  28  1   
 23  10  29  1   
 24  11  17  ar  
 25  11  30  1   
 26  12  31  1   
 27  12  32  1   
 28  12  33  1   
 29  13  17  ar  
 30  13  18  1   
 31  14  19  1   
 32  14  20  1   
 33  14  34  1   
 34  15  35  1   
 35  15  36  1   
 36  16  21  1   
 37  16  37  1   
 38  16  38  1   
 39  17  39  1   
 40  18  40  1   
 41  19  22  1   
 42  20  21  1   
 43  20  41  1   
 44  20  42  1   
 45  21  43  1   
 46  21  44  1   
 47  22  45  1   
 48  22  46  1   
 49  22  47  1   
@<TRIPOS>SUBSTRUCTURE
  1 ****   3 GROUP 4 **** **** 0

# MOE 2024.06 (io_trps.svl 2023.06)
