@<TRIPOS>MOLECULE
NONAME
49 51 1 0 0 
SMALL
USER_CHARGES


@<TRIPOS>ATOM
  1 O       -3.1020     0.3100     1.5950 O.co2 1 <1>  -0.9000 
  2 C       -3.2040     0.1900     0.3680 C.2   1 <1>   0.9060 
  3 O       -2.5940     0.8900    -0.4410 O.co2 1 <1>  -0.9000 
  4 C       -4.0750    -0.9530    -0.1620 C.3   1 <1>   0.2370 
  5 N       -3.5140    -2.3690    -0.0680 N.4   1 <1>  -0.9590 
  6 C       -2.8510    -2.6280     1.2640 C.3   1 <1>   0.4230 
  7 C       -2.6670    -2.7240    -1.2440 C.3   1 <1>   0.3430 
  8 C       -1.3330    -2.2760     1.3660 C.3   1 <1>   0.1200 
  9 C       -3.1240    -4.1050     1.6600 C.3   1 <1>   0.1400 
 10 C       -1.9090    -4.0680    -1.0750 C.3   1 <1>  -0.0800 
 11 O       -0.5240    -2.6490     0.2770 O.3   1 <1>  -0.5600 
 12 N       -3.6730    -4.9550     0.5320 N.am  1 <1>  -0.6600 
 13 C       -0.6380    -3.9370    -0.2140 C.3   1 <1>   0.1200 
 14 C       -2.7690    -5.2660    -0.6170 C.3   1 <1>   0.1400 
 15 C       -5.0270    -5.1000     0.4110 C.2   1 <1>   0.5690 
 16 O       -5.7570    -4.2170     0.7880 O.2   1 <1>  -0.5700 
 17 C       -5.6240    -6.3230    -0.2630 C.3   1 <1>  -0.0990 
 18 C       -6.8130    -6.8940     0.5210 C.3   1 <1>  -0.0170 
 19 C       -7.3340    -8.1510    -0.1580 C.ar  1 <1>  -0.1440 
 20 C       -8.3140    -8.0600    -1.1360 C.ar  1 <1>  -0.1500 
 21 C       -6.8320    -9.3970     0.1930 C.ar  1 <1>  -0.1500 
 22 C       -8.7860    -9.2020    -1.7590 C.ar  1 <1>  -0.1500 
 23 C       -7.3020   -10.5420    -0.4280 C.ar  1 <1>  -0.1500 
 24 C       -8.2800   -10.4390    -1.4040 C.ar  1 <1>   0.0820 
 25 O       -8.7460   -11.5390    -2.0130 O.3   1 <1>  -0.5330 
 26 H       -4.3110    -0.7220    -1.1840 H     1 <1>   0.0800 
 27 H       -4.9880    -0.9070     0.4030 H     1 <1>   0.0800 
 28 H       -4.3220    -3.0160    -0.0470 H     1 <1>   0.4500 
 29 H       -3.3450    -2.0230     2.0080 H     1 <1>   0.0800 
 30 H       -3.2930    -2.7760    -2.1180 H     1 <1>   0.0800 
 31 H       -1.9470    -1.9350    -1.4080 H     1 <1>   0.0800 
 32 H       -0.9140    -2.7170     2.2530 H     1 <1>   0.0800 
 33 H       -1.2190    -1.2120     1.4740 H     1 <1>   0.0800 
 34 H       -3.8410    -4.0940     2.4630 H     1 <1>   0.0800 
 35 H       -2.2380    -4.5630     2.0600 H     1 <1>   0.0800 
 36 H       -1.5490    -4.3250    -2.0550 H     1 <1>   0.0800 
 37 H        0.2320    -4.1110    -0.8250 H     1 <1>   0.0800 
 38 H       -0.6060    -4.6310     0.6080 H     1 <1>   0.0800 
 39 H       -2.1340    -6.0950    -0.3500 H     1 <1>   0.0800 
 40 H       -3.3640    -5.5830    -1.4570 H     1 <1>   0.0800 
 41 H       -5.9490    -6.0500    -1.2500 H     1 <1>   0.0800 
 42 H       -4.8760    -7.0880    -0.3520 H     1 <1>   0.0800 
 43 H       -7.6000    -6.1620     0.5800 H     1 <1>   0.0800 
 44 H       -6.5090    -7.1250     1.5280 H     1 <1>   0.0800 
 45 H       -8.7150    -7.1020    -1.4170 H     1 <1>   0.1500 
 46 H       -6.0740    -9.4800     0.9520 H     1 <1>   0.1500 
 47 H       -9.5460    -9.1410    -2.5180 H     1 <1>   0.1500 
 48 H       -6.9080   -11.5010    -0.1490 H     1 <1>   0.1500 
 49 H       -8.3360   -12.3580    -1.6870 H     1 <1>   0.4500 
@<TRIPOS>BOND
  1   1   2  ar  
  2   2   3  ar  
  3   2   4  1   
  4   4   5  1   
  5   4  26  1   
  6   4  27  1   
  7   5   6  1   
  8   5   7  1   
  9   5  28  1   
 10   6   8  1   
 11   6   9  1   
 12   6  29  1   
 13   7  10  1   
 14   7  30  1   
 15   7  31  1   
 16   8  11  1   
 17   8  32  1   
 18   8  33  1   
 19   9  12  1   
 20   9  34  1   
 21   9  35  1   
 22  10  13  1   
 23  10  14  1   
 24  10  36  1   
 25  11  13  1   
 26  12  14  1   
 27  12  15  am  
 28  13  37  1   
 29  13  38  1   
 30  14  39  1   
 31  14  40  1   
 32  15  16  2   
 33  15  17  1   
 34  17  18  1   
 35  17  41  1   
 36  17  42  1   
 37  18  19  1   
 38  18  43  1   
 39  18  44  1   
 40  19  20  ar  
 41  19  21  ar  
 42  20  22  ar  
 43  20  45  1   
 44  21  23  ar  
 45  21  46  1   
 46  22  24  ar  
 47  22  47  1   
 48  23  24  ar  
 49  23  48  1   
 50  24  25  1   
 51  25  49  1   
@<TRIPOS>SUBSTRUCTURE
  1 ****  15 GROUP 4 **** **** 0

# MOE 2024.06 (io_trps.svl 2023.06)
