@<TRIPOS>MOLECULE
NONAME
47 49 1 0 0 
SMALL
USER_CHARGES


@<TRIPOS>ATOM
  1 O        5.2530    -3.2040    -1.0220 O.2   1 <1>  -0.5700 
  2 C        4.0910    -3.0840    -0.7130 C.2   1 <1>   0.5690 
  3 N        3.6320    -1.9340    -0.1630 N.am  1 <1>  -0.7300 
  4 C        3.1290    -4.2530    -0.9540 C.3   1 <1>   0.1250 
  5 C        4.4380    -0.7010     0.0190 C.3   1 <1>   0.3210 
  6 C        1.6650    -3.7880    -0.9370 C.ar  1 <1>  -0.1440 
  7 C        3.4040    -5.4130     0.0200 C.3   1 <1>  -0.2400 
  8 C        3.5620     0.5330     0.2290 C.2   1 <1>   0.3350 
  9 C        0.8460    -3.8950     0.1600 C.ar  1 <1>  -0.1500 
 10 C        1.1550    -3.1940    -2.1020 C.ar  1 <1>  -0.1500 
 11 N        2.2870     0.5380     0.2900 N.2   1 <1>  -0.4100 
 12 N        4.0980     1.7390     0.3760 N.2   1 <1>  -0.5650 
 13 C       -0.4830    -3.4290     0.1460 C.ar  1 <1>   0.0000 
 14 C       -0.1300    -2.7290    -2.1440 C.ar  1 <1>  -0.1500 
 15 O        1.9140     1.7690     0.4680 O.3   1 <1>  -0.0190 
 16 C        3.0390     2.4390     0.5090 C.2   1 <1>   0.2980 
 17 C       -0.9820    -2.8300    -1.0280 C.ar  1 <1>   0.0000 
 18 C       -1.3350    -3.5320     1.2650 C.ar  1 <1>  -0.1500 
 19 C        2.9870     3.9430     0.7330 C.3   1 <1>   0.3000 
 20 C       -2.3060    -2.3530    -1.0370 C.ar  1 <1>  -0.1500 
 21 C       -2.6190    -3.0630     1.2310 C.ar  1 <1>  -0.1500 
 22 O        2.2610     4.5740    -0.2850 O.3   1 <1>  -0.5600 
 23 C       -3.1170    -2.4590     0.0600 C.ar  1 <1>   0.0830 
 24 C        2.1880     5.9580    -0.1620 C.3   1 <1>   0.0400 
 25 O       -4.3760    -1.9680    -0.0410 O.3   1 <1>  -0.3630 
 26 C       -5.2620    -1.9650     1.0550 C.3   1 <1>   0.0400 
 27 H        2.6230    -1.8080    -0.0140 H     1 <1>   0.3700 
 28 H        3.3380    -4.6240    -1.9420 H     1 <1>   0.0800 
 29 H        5.0810    -0.8240     0.8720 H     1 <1>   0.0800 
 30 H        5.0550    -0.5490    -0.8490 H     1 <1>   0.0800 
 31 H        3.3410    -5.0780     1.0390 H     1 <1>   0.0800 
 32 H        4.3960    -5.7950    -0.1450 H     1 <1>   0.0800 
 33 H        2.6990    -6.2090    -0.1390 H     1 <1>   0.0800 
 34 H        1.1960    -4.3340     1.0750 H     1 <1>   0.1500 
 35 H        1.7870    -3.0990    -2.9680 H     1 <1>   0.1500 
 36 H       -0.5140    -2.2710    -3.0380 H     1 <1>   0.1500 
 37 H       -0.9510    -3.9920     2.1570 H     1 <1>   0.1500 
 38 H        3.9860     4.3400     0.7370 H     1 <1>   0.0800 
 39 H        2.5090     4.1490     1.6740 H     1 <1>   0.0800 
 40 H       -2.6850    -1.8930    -1.9300 H     1 <1>   0.1500 
 41 H       -3.2400    -3.1590     2.1010 H     1 <1>   0.1500 
 42 H        1.6110     6.3360    -0.9880 H     1 <1>   0.0800 
 43 H        3.1810     6.3730    -0.1950 H     1 <1>   0.0800 
 44 H        1.6990     6.2100     0.7640 H     1 <1>   0.0800 
 45 H       -6.1800    -1.5010     0.7420 H     1 <1>   0.0800 
 46 H       -4.8220    -1.4000     1.8580 H     1 <1>   0.0800 
 47 H       -5.4500    -2.9810     1.3540 H     1 <1>   0.0800 
@<TRIPOS>BOND
  1   1   2  2   
  2   2   3  am  
  3   2   4  1   
  4   3   5  1   
  5   3  27  1   
  6   4   6  1   
  7   4   7  1   
  8   4  28  1   
  9   5   8  1   
 10   5  29  1   
 11   5  30  1   
 12   6   9  ar  
 13   6  10  ar  
 14   7  31  1   
 15   7  32  1   
 16   7  33  1   
 17   8  11  2   
 18   8  12  1   
 19   9  13  ar  
 20   9  34  1   
 21  10  14  ar  
 22  10  35  1   
 23  11  15  1   
 24  12  16  2   
 25  13  17  ar  
 26  13  18  ar  
 27  14  17  ar  
 28  14  36  1   
 29  15  16  1   
 30  16  19  1   
 31  17  20  ar  
 32  18  21  ar  
 33  18  37  1   
 34  19  22  1   
 35  19  38  1   
 36  19  39  1   
 37  20  23  ar  
 38  20  40  1   
 39  21  23  ar  
 40  21  41  1   
 41  22  24  1   
 42  23  25  1   
 43  24  42  1   
 44  24  43  1   
 45  24  44  1   
 46  25  26  1   
 47  26  45  1   
 48  26  46  1   
 49  26  47  1   
@<TRIPOS>SUBSTRUCTURE
  1 ****  11 GROUP 4 **** **** 0

# MOE 2024.06 (io_trps.svl 2023.06)
