@<TRIPOS>MOLECULE
NONAME
41 43 1 0 0 
SMALL
USER_CHARGES


@<TRIPOS>ATOM
  1 O        1.1540    -0.1640     1.5540 O.2   1 <1>  -0.5700 
  2 C        1.6170    -0.6460     0.5370 C.2   1 <1>   0.5440 
  3 N        2.2660     0.1580    -0.3650 N.am  1 <1>  -0.4930 
  4 C        1.4710    -2.0620     0.2620 C.ar  1 <1>   0.0860 
  5 C        2.5660     1.5410    -0.2860 C.2   1 <1>   0.0630 
  6 C        0.3300    -2.7540     0.6730 C.ar  1 <1>  -0.1500 
  7 C        2.4520    -2.7860    -0.4210 C.ar  1 <1>  -0.1500 
  8 C        2.3250     2.4480     0.7470 C.2   1 <1>   0.1390 
  9 C        3.1770     2.2730    -1.2410 C.2   1 <1>  -0.3020 
 10 C        0.1550    -4.1000     0.4060 C.ar  1 <1>  -0.1430 
 11 C        2.2900    -4.1310    -0.6940 C.ar  1 <1>  -0.1500 
 12 N        2.7520     3.6450     0.4650 N.2   1 <1>  -0.7070 
 13 N        3.2780     3.5360    -0.7720 N.pl3 1 <1>   0.3140 
 14 C        1.1460    -4.7930    -0.2840 C.ar  1 <1>   0.0830 
 15 C       -1.1070    -4.8130     0.8630 C.3   1 <1>  -0.0170 
 16 C        3.8820     4.6870    -1.4580 C.3   1 <1>   0.1570 
 17 O        1.0300    -6.1060    -0.5800 O.3   1 <1>  -0.3630 
 18 C       -1.2950    -6.1140     0.0780 C.3   1 <1>  -0.1600 
 19 C        5.2820     4.9250    -0.9380 C.2   1 <1>   0.5690 
 20 C        0.0250    -6.8880     0.0340 C.3   1 <1>   0.1200 
 21 O        6.1590     5.1440    -1.7380 O.2   1 <1>  -0.5700 
 22 N        5.5130     4.8990     0.4030 N.am  1 <1>  -0.7300 
 23 C        6.8200     5.1140     1.0700 C.3   1 <1>   0.0600 
 24 H        2.5340    -0.2860    -1.2410 H     1 <1>   0.3700 
 25 H       -0.4300    -2.2140     1.2120 H     1 <1>   0.1500 
 26 H        3.3580    -2.3010    -0.7350 H     1 <1>   0.1500 
 27 H        1.8410     2.1910     1.6750 H     1 <1>   0.1500 
 28 H        3.5410     1.9740    -2.2050 H     1 <1>   0.1500 
 29 H        3.0470    -4.6820    -1.2220 H     1 <1>   0.1500 
 30 H       -1.9650    -4.1790     0.7240 H     1 <1>   0.0800 
 31 H       -1.0160    -5.0340     1.9120 H     1 <1>   0.0800 
 32 H        3.2810     5.5560    -1.2720 H     1 <1>   0.0800 
 33 H        3.9140     4.4950    -2.5120 H     1 <1>   0.0800 
 34 H       -1.6050    -5.8950    -0.9290 H     1 <1>   0.0800 
 35 H       -2.0570    -6.7140     0.5420 H     1 <1>   0.0800 
 36 H        0.3600    -7.1310     1.0270 H     1 <1>   0.0800 
 37 H       -0.0790    -7.7940    -0.5370 H     1 <1>   0.0800 
 38 H        4.7270     4.6160     1.0100 H     1 <1>   0.3700 
 39 H        7.5720     5.3740     0.3440 H     1 <1>   0.0800 
 40 H        7.1210     4.2130     1.5760 H     1 <1>   0.0800 
 41 H        6.7360     5.9130     1.7860 H     1 <1>   0.0800 
@<TRIPOS>BOND
  1   1   2  2   
  2   2   3  am  
  3   2   4  1   
  4   3   5  1   
  5   3  24  1   
  6   4   6  ar  
  7   4   7  ar  
  8   5   8  1   
  9   5   9  2   
 10   6  10  ar  
 11   6  25  1   
 12   7  11  ar  
 13   7  26  1   
 14   8  12  2   
 15   8  27  1   
 16   9  13  1   
 17   9  28  1   
 18  10  14  ar  
 19  10  15  1   
 20  11  14  ar  
 21  11  29  1   
 22  12  13  1   
 23  13  16  1   
 24  14  17  1   
 25  15  18  1   
 26  15  30  1   
 27  15  31  1   
 28  16  19  1   
 29  16  32  1   
 30  16  33  1   
 31  17  20  1   
 32  18  20  1   
 33  18  34  1   
 34  18  35  1   
 35  19  21  2   
 36  19  22  am  
 37  20  36  1   
 38  20  37  1   
 39  22  23  1   
 40  22  38  1   
 41  23  39  1   
 42  23  40  1   
 43  23  41  1   
@<TRIPOS>SUBSTRUCTURE
  1 ****   3 GROUP 4 **** **** 0

# MOE 2024.06 (io_trps.svl 2023.06)
