@<TRIPOS>MOLECULE
NONAME
45 48 1 0 0 
SMALL
USER_CHARGES


@<TRIPOS>ATOM
  1 O        0.3900    -0.1120    -1.1550 O.3   1 <1>  -0.0190 
  2 N        0.9420     1.0580    -1.0790 N.2   1 <1>  -0.4100 
  3 C        1.1680    -0.8840    -0.4400 C.2   1 <1>   0.2980 
  4 C        1.9950     0.9480    -0.3470 C.2   1 <1>   0.5150 
  5 N        2.1760    -0.3080     0.0750 N.2   1 <1>  -0.5650 
  6 C        0.8330    -2.3700    -0.3160 C.3   1 <1>   0.2900 
  7 C        2.8890     2.0380    -0.0160 C.2   1 <1>   0.1410 
  8 N       -0.4490    -2.6470     0.3780 N.3   1 <1>  -0.8100 
  9 O        3.9760     1.8430     0.7270 O.3   1 <1>  -0.2800 
 10 C        2.8260     3.3550    -0.3510 C.2   1 <1>  -0.1500 
 11 C       -1.6490    -2.2530    -0.3950 C.3   1 <1>   0.1100 
 12 C       -0.6120    -4.0630     0.7320 C.3   1 <1>   0.1100 
 13 C        4.6000     2.9940     0.8710 C.2   1 <1>  -0.0100 
 14 C        3.9380     3.9750     0.2250 C.2   1 <1>  -0.1500 
 15 C       -2.5850    -3.4700    -0.4640 C.3   1 <1>   0.2000 
 16 C       -1.6280    -4.6380    -0.2530 C.3   1 <1>  -0.0800 
 17 O       -3.5100    -3.4440     0.5870 O.3   1 <1>  -0.5600 
 18 C       -2.2930    -5.9360     0.2410 C.3   1 <1>   0.0200 
 19 C       -4.6340    -2.6510     0.3710 C.3   1 <1>   0.0400 
 20 C       -1.3350    -7.1150     0.2850 C.2   1 <1>  -0.0400 
 21 O       -1.7400    -8.2320     0.8290 O.3   1 <1>  -0.0190 
 22 C       -0.0740    -7.3020    -0.1380 C.2   1 <1>  -0.1500 
 23 N       -0.8190    -9.1520     0.7950 N.2   1 <1>  -0.4100 
 24 C        0.1960    -8.6200     0.2190 C.2   1 <1>   0.1080 
 25 C        1.5020    -9.3390    -0.0340 C.3   1 <1>  -0.0590 
 26 H        1.6310    -2.8270     0.2430 H     1 <1>   0.0800 
 27 H        0.8210    -2.8120    -1.2960 H     1 <1>   0.0800 
 28 H        2.0730     3.8420    -0.9450 H     1 <1>   0.1500 
 29 H       -2.1280    -1.4090     0.0700 H     1 <1>   0.0800 
 30 H       -1.3720    -1.9830    -1.3990 H     1 <1>   0.0800 
 31 H        0.3210    -4.6000     0.7210 H     1 <1>   0.0800 
 32 H       -1.0200    -4.1100     1.7290 H     1 <1>   0.0800 
 33 H        5.5080     3.0240     1.4480 H     1 <1>   0.1500 
 34 H        4.1860     5.0200     0.1510 H     1 <1>   0.1500 
 35 H       -3.1120    -3.5410    -1.3990 H     1 <1>   0.0800 
 36 H       -1.1280    -4.8320    -1.1850 H     1 <1>   0.0800 
 37 H       -3.1120    -6.1870    -0.4080 H     1 <1>   0.0800 
 38 H       -2.6960    -5.7850     1.2280 H     1 <1>   0.0800 
 39 H       -5.2630    -2.7230     1.2420 H     1 <1>   0.0800 
 40 H       -5.1680    -3.0150    -0.4900 H     1 <1>   0.0800 
 41 H       -4.3350    -1.6280     0.2290 H     1 <1>   0.0800 
 42 H        0.6000    -6.6320    -0.6360 H     1 <1>   0.1500 
 43 H        2.3220    -8.7510     0.3350 H     1 <1>   0.0800 
 44 H        1.6280    -9.5050    -1.0880 H     1 <1>   0.0800 
 45 H        1.5010   -10.2880     0.4700 H     1 <1>   0.0800 
@<TRIPOS>BOND
  1   1   2  1   
  2   1   3  1   
  3   2   4  2   
  4   3   5  2   
  5   3   6  1   
  6   4   5  1   
  7   4   7  1   
  8   6   8  1   
  9   6  26  1   
 10   6  27  1   
 11   7   9  1   
 12   7  10  2   
 13   8  11  1   
 14   8  12  1   
 15   9  13  1   
 16  10  14  1   
 17  10  28  1   
 18  11  15  1   
 19  11  29  1   
 20  11  30  1   
 21  12  16  1   
 22  12  31  1   
 23  12  32  1   
 24  13  14  2   
 25  13  33  1   
 26  14  34  1   
 27  15  16  1   
 28  15  17  1   
 29  15  35  1   
 30  16  18  1   
 31  16  36  1   
 32  17  19  1   
 33  18  20  1   
 34  18  37  1   
 35  18  38  1   
 36  19  39  1   
 37  19  40  1   
 38  19  41  1   
 39  20  21  1   
 40  20  22  2   
 41  21  23  1   
 42  22  24  1   
 43  22  42  1   
 44  23  24  2   
 45  24  25  1   
 46  25  43  1   
 47  25  44  1   
 48  25  45  1   
@<TRIPOS>SUBSTRUCTURE
  1 ****   6 GROUP 4 **** **** 0

# MOE 2024.06 (io_trps.svl 2023.06)
