@<TRIPOS>MOLECULE
NONAME
36 37 1 0 0 
SMALL
USER_CHARGES


@<TRIPOS>ATOM
  1 S       -0.3880     1.4840    -1.9470 S.3   1 <1>  -0.0800 
  2 C        1.2260     2.1430    -1.7600 C.2   1 <1>  -0.1100 
  3 C       -0.5670     1.3150    -0.2110 C.2   1 <1>  -0.1100 
  4 C        1.5630     2.2250    -0.4570 C.2   1 <1>  -0.1810 
  5 C        0.5380     1.7430     0.4250 C.2   1 <1>  -0.1500 
  6 C        2.8800     2.7580     0.0690 C.3   1 <1>   0.5240 
  7 N        2.7750     4.2390     0.1820 N.4   1 <1>  -0.9590 
  8 C        4.1210     4.8570     0.3470 C.3   1 <1>   0.3430 
  9 C        1.8130     4.6430     1.2590 C.3   1 <1>   0.2630 
 10 C        4.0560     6.3580     0.0630 C.3   1 <1>  -0.1600 
 11 C        5.4490     6.9980     0.1120 C.3   1 <1>  -0.0170 
 12 C        5.3360     8.4870    -0.1680 C.ar  1 <1>  -0.1430 
 13 C        5.1420     9.3920     0.8670 C.ar  1 <1>   0.1600 
 14 C        5.4140     8.9670    -1.4600 C.ar  1 <1>  -0.1500 
 15 N        5.0130    10.6990     0.7190 N.ar  1 <1>  -0.6200 
 16 C        5.2880    10.3290    -1.6320 C.ar  1 <1>  -0.1500 
 17 C        5.0900    11.1380    -0.5270 C.ar  1 <1>   0.1600 
 18 H        1.7450     2.3970    -2.6690 H     1 <1>   0.1500 
 19 H       -1.4930     0.9010     0.1490 H     1 <1>   0.1500 
 20 H        0.6640     1.7240     1.4950 H     1 <1>   0.1500 
 21 H        3.6600     2.4990    -0.6280 H     1 <1>   0.0800 
 22 H        3.1110     2.3130     1.0230 H     1 <1>   0.0800 
 23 H        2.3790     4.5510    -0.7170 H     1 <1>   0.4500 
 24 H        4.8130     4.4060    -0.3470 H     1 <1>   0.0800 
 25 H        4.4880     4.6880     1.3470 H     1 <1>   0.0800 
 26 H        2.1610     4.3080     2.2220 H     1 <1>   0.0800 
 27 H        0.8410     4.2140     1.0730 H     1 <1>   0.0800 
 28 H        1.7030     5.7150     1.2850 H     1 <1>   0.0800 
 29 H        3.4340     6.8500     0.7900 H     1 <1>   0.0800 
 30 H        3.6380     6.5260    -0.9150 H     1 <1>   0.0800 
 31 H        6.0960     6.5470    -0.6210 H     1 <1>   0.0800 
 32 H        5.8960     6.8510     1.0810 H     1 <1>   0.0800 
 33 H        5.0880     9.0250     1.8780 H     1 <1>   0.1500 
 34 H        5.5680     8.3180    -2.3050 H     1 <1>   0.1500 
 35 H        5.3420    10.7650    -2.6130 H     1 <1>   0.1500 
 36 H        4.9920    12.2000    -0.6740 H     1 <1>   0.1500 
@<TRIPOS>BOND
  1   1   2  1   
  2   1   3  1   
  3   2   4  2   
  4   2  18  1   
  5   3   5  2   
  6   3  19  1   
  7   4   5  1   
  8   4   6  1   
  9   5  20  1   
 10   6   7  1   
 11   6  21  1   
 12   6  22  1   
 13   7   8  1   
 14   7   9  1   
 15   7  23  1   
 16   8  10  1   
 17   8  24  1   
 18   8  25  1   
 19   9  26  1   
 20   9  27  1   
 21   9  28  1   
 22  10  11  1   
 23  10  29  1   
 24  10  30  1   
 25  11  12  1   
 26  11  31  1   
 27  11  32  1   
 28  12  13  ar  
 29  12  14  ar  
 30  13  15  ar  
 31  13  33  1   
 32  14  16  ar  
 33  14  34  1   
 34  15  17  ar  
 35  16  17  ar  
 36  16  35  1   
 37  17  36  1   
@<TRIPOS>SUBSTRUCTURE
  1 ****  10 GROUP 4 **** **** 0

# MOE 2024.06 (io_trps.svl 2023.06)
