@<TRIPOS>MOLECULE
NONAME
49 53 1 0 0 
SMALL
USER_CHARGES


@<TRIPOS>ATOM
  1 O       -2.7080     0.8050    -1.6180 O.2   1 <1>  -0.5700 
  2 C       -2.1630     0.7980    -0.5260 C.2   1 <1>   0.7160 
  3 N       -1.9570    -0.4030     0.0860 N.am  1 <1>  -0.7300 
  4 C       -1.7520     2.0210     0.1460 C.2   1 <1>   0.2030 
  5 C       -2.4190    -1.7150    -0.4110 C.3   1 <1>   0.2200 
  6 N       -1.2120     2.0880     1.3520 N.2   1 <1>  -0.7070 
  7 C       -1.8780     3.3050    -0.3990 C.2   1 <1>  -0.1500 
  8 C       -3.8220    -1.9750     0.1070 C.3   1 <1>  -0.0800 
  9 C       -1.6150    -2.8460     0.2320 C.3   1 <1>   0.1200 
 10 N       -0.9970     3.3950     1.5670 N.pl3 1 <1>   0.3000 
 11 C       -1.3900     4.1530     0.5260 C.2   1 <1>  -0.2370 
 12 C       -3.5360    -2.5780     1.4810 C.3   1 <1>   0.1200 
 13 C       -4.5900    -2.9460    -0.8100 C.3   1 <1>  -0.0160 
 14 O       -2.3210    -3.2570     1.3690 O.3   1 <1>  -0.5600 
 15 C       -1.2640     5.6620     0.5000 C.3   1 <1>  -0.0150 
 16 C       -6.0340    -3.1210    -0.3510 C.ar  1 <1>  -0.1430 
 17 C       -1.0310     6.3740    -0.7930 C.3   1 <1>  -0.2000 
 18 C        0.0660     6.2840     0.2270 C.3   1 <1>  -0.2000 
 19 C       -7.0230    -2.1340    -0.5740 C.ar  1 <1>   0.0000 
 20 C       -6.4120    -4.2580     0.3010 C.ar  1 <1>  -0.1500 
 21 C       -8.3290    -2.3920    -0.0910 C.ar  1 <1>   0.3100 
 22 C       -6.7970    -0.9100    -1.2470 C.ar  1 <1>  -0.1500 
 23 C       -7.7340    -4.4160     0.7340 C.ar  1 <1>   0.1600 
 24 N       -8.6660    -3.5340     0.5600 N.ar  1 <1>  -0.6200 
 25 C       -9.3310    -1.4300    -0.2910 C.ar  1 <1>  -0.1500 
 26 C       -7.7970     0.0070    -1.4260 C.ar  1 <1>  -0.1500 
 27 C       -9.0810    -0.2530    -0.9430 C.ar  1 <1>  -0.1500 
 28 H       -1.5810    -0.3650     1.0380 H     1 <1>   0.3700 
 29 H       -2.3550    -1.7380    -1.4860 H     1 <1>   0.0800 
 30 H       -2.2890     3.5260    -1.3680 H     1 <1>   0.1500 
 31 H       -4.3790    -1.0600     0.2030 H     1 <1>   0.0800 
 32 H       -0.6250    -2.5370     0.5170 H     1 <1>   0.0800 
 33 H       -1.5560    -3.6900    -0.4300 H     1 <1>   0.0800 
 34 H       -0.5740     3.7550     2.4320 H     1 <1>   0.2700 
 35 H       -4.2960    -3.2610     1.8150 H     1 <1>   0.0800 
 36 H       -3.4060    -1.8000     2.2140 H     1 <1>   0.0800 
 37 H       -4.0960    -3.9030    -0.8200 H     1 <1>   0.0800 
 38 H       -4.5850    -2.5820    -1.8220 H     1 <1>   0.0800 
 39 H       -1.9080     6.1480     1.2140 H     1 <1>   0.1000 
 40 H       -0.9390     5.7980    -1.6970 H     1 <1>   0.1000 
 41 H       -1.5170     7.3210    -0.9530 H     1 <1>   0.1000 
 42 H        0.3450     7.1730     0.7650 H     1 <1>   0.1000 
 43 H        0.9070     5.6460     0.0140 H     1 <1>   0.1000 
 44 H       -5.7150    -5.0510     0.5010 H     1 <1>   0.1500 
 45 H       -5.8180    -0.6860    -1.6310 H     1 <1>   0.1500 
 46 H       -7.9890    -5.3280     1.2460 H     1 <1>   0.1500 
 47 H      -10.3110    -1.6520     0.0880 H     1 <1>   0.1500 
 48 H       -7.6070     0.9350    -1.9390 H     1 <1>   0.1500 
 49 H       -9.8590     0.4760    -1.0900 H     1 <1>   0.1500 
@<TRIPOS>BOND
  1   1   2  2   
  2   2   3  am  
  3   2   4  1   
  4   3   5  1   
  5   3  28  1   
  6   4   6  2   
  7   4   7  1   
  8   5   8  1   
  9   5   9  1   
 10   5  29  1   
 11   6  10  1   
 12   7  11  2   
 13   7  30  1   
 14   8  12  1   
 15   8  13  1   
 16   8  31  1   
 17   9  14  1   
 18   9  32  1   
 19   9  33  1   
 20  10  11  1   
 21  10  34  1   
 22  11  15  1   
 23  12  14  1   
 24  12  35  1   
 25  12  36  1   
 26  13  16  1   
 27  13  37  1   
 28  13  38  1   
 29  15  17  1   
 30  15  18  1   
 31  15  39  1   
 32  16  19  ar  
 33  16  20  ar  
 34  17  18  1   
 35  17  40  1   
 36  17  41  1   
 37  18  42  1   
 38  18  43  1   
 39  19  21  ar  
 40  19  22  ar  
 41  20  23  ar  
 42  20  44  1   
 43  21  24  ar  
 44  21  25  ar  
 45  22  26  ar  
 46  22  45  1   
 47  23  24  ar  
 48  23  46  1   
 49  25  27  ar  
 50  25  47  1   
 51  26  27  ar  
 52  26  48  1   
 53  27  49  1   
@<TRIPOS>SUBSTRUCTURE
  1 ****   8 GROUP 4 **** **** 0

# MOE 2024.06 (io_trps.svl 2023.06)
