@<TRIPOS>MOLECULE
NONAME
46 48 1 0 0 
SMALL
USER_CHARGES


@<TRIPOS>ATOM
  1 CL      -2.7050     1.7430    -1.8900 Cl    1 <1>  -0.1770 
  2 C       -1.1220     2.0950    -1.2370 C.ar  1 <1>   0.1770 
  3 C       -0.9720     2.4960     0.0850 C.ar  1 <1>  -0.1440 
  4 C       -0.0400     1.9620    -2.0910 C.ar  1 <1>  -0.1500 
  5 C        0.3220     2.7610     0.5200 C.ar  1 <1>   0.1770 
  6 C       -2.1820     2.6220     1.0160 C.3   1 <1>   0.0450 
  7 C        1.2370     2.2300    -1.6310 C.ar  1 <1>  -0.1500 
  8 CL       0.6390     3.2820     2.1600 Cl    1 <1>  -0.1770 
  9 C        1.4160     2.6320    -0.3190 C.ar  1 <1>  -0.1500 
 10 C       -2.6270     1.2660     1.5650 C.2   1 <1>   0.5690 
 11 O       -1.7750     0.6300     2.1420 O.2   1 <1>  -0.5700 
 12 N       -3.9170     0.7810     1.4620 N.am  1 <1>  -0.6600 
 13 C       -5.0090     1.4220     0.6650 C.3   1 <1>   0.2200 
 14 C       -4.2640    -0.4830     2.1890 C.3   1 <1>   0.0600 
 15 C       -5.8770     0.4570    -0.1420 C.3   1 <1>  -0.1600 
 16 C       -5.9990     2.1750     1.5450 C.3   1 <1>  -0.1600 
 17 C       -7.1430     1.2660    -0.4510 C.3   1 <1>  -0.0800 
 18 C       -7.2550     2.3220     0.6740 C.3   1 <1>  -0.0800 
 19 C       -8.3880     0.3770    -0.6450 C.3   1 <1>   0.1400 
 20 C       -8.5630     2.2270     1.4790 C.3   1 <1>  -0.0990 
 21 N       -9.6260     1.1810    -0.4860 N.am  1 <1>  -0.6600 
 22 C       -9.7450     2.0740     0.5440 C.2   1 <1>   0.5690 
 23 C      -10.7260     0.9190    -1.4520 C.3   1 <1>   0.0600 
 24 O      -10.7360     2.7340     0.7410 O.2   1 <1>  -0.5700 
 25 H       -0.2000     1.6470    -3.1070 H     1 <1>   0.1500 
 26 H       -2.9640     3.1430     0.5080 H     1 <1>   0.0800 
 27 H       -1.9400     3.2330     1.8630 H     1 <1>   0.0800 
 28 H        2.0840     2.1270    -2.2880 H     1 <1>   0.1500 
 29 H        2.4000     2.8440     0.0590 H     1 <1>   0.1500 
 30 H       -4.6040     2.1160    -0.0450 H     1 <1>   0.0800 
 31 H       -5.2610    -0.4330     2.5870 H     1 <1>   0.0800 
 32 H       -3.5890    -0.6510     3.0110 H     1 <1>   0.0800 
 33 H       -4.1900    -1.3180     1.5140 H     1 <1>   0.0800 
 34 H       -5.3780     0.1410    -1.0410 H     1 <1>   0.0800 
 35 H       -6.1470    -0.4030     0.4410 H     1 <1>   0.0800 
 36 H       -6.2230     1.5960     2.4230 H     1 <1>   0.0800 
 37 H       -5.6120     3.1330     1.8410 H     1 <1>   0.0800 
 38 H       -6.9780     1.7950    -1.3750 H     1 <1>   0.0800 
 39 H       -7.2320     3.2920     0.2030 H     1 <1>   0.0800 
 40 H       -8.4040    -0.4080     0.0910 H     1 <1>   0.0800 
 41 H       -8.3610    -0.0760    -1.6220 H     1 <1>   0.0800 
 42 H       -8.6930     3.1080     2.0800 H     1 <1>   0.0800 
 43 H       -8.5480     1.3730     2.1290 H     1 <1>   0.0800 
 44 H      -10.3950     1.1460    -2.4500 H     1 <1>   0.0800 
 45 H      -11.5810     1.5330    -1.2260 H     1 <1>   0.0800 
 46 H      -11.0200    -0.1140    -1.3990 H     1 <1>   0.0800 
@<TRIPOS>BOND
  1   1   2  1   
  2   2   3  ar  
  3   2   4  ar  
  4   3   5  ar  
  5   3   6  1   
  6   4   7  ar  
  7   4  25  1   
  8   5   8  1   
  9   5   9  ar  
 10   6  10  1   
 11   6  26  1   
 12   6  27  1   
 13   7   9  ar  
 14   7  28  1   
 15   9  29  1   
 16  10  11  2   
 17  10  12  am  
 18  12  13  1   
 19  12  14  1   
 20  13  15  1   
 21  13  16  1   
 22  13  30  1   
 23  14  31  1   
 24  14  32  1   
 25  14  33  1   
 26  15  17  1   
 27  15  34  1   
 28  15  35  1   
 29  16  18  1   
 30  16  36  1   
 31  16  37  1   
 32  17  18  1   
 33  17  19  1   
 34  17  38  1   
 35  18  20  1   
 36  18  39  1   
 37  19  21  1   
 38  19  40  1   
 39  19  41  1   
 40  20  22  1   
 41  20  42  1   
 42  20  43  1   
 43  21  22  am  
 44  21  23  1   
 45  22  24  2   
 46  23  44  1   
 47  23  45  1   
 48  23  46  1   
@<TRIPOS>SUBSTRUCTURE
  1 ****  13 GROUP 4 **** **** 0

# MOE 2024.06 (io_trps.svl 2023.06)
