@<TRIPOS>MOLECULE
NONAME
49 52 1 0 0 
SMALL
USER_CHARGES


@<TRIPOS>ATOM
  1 O        1.7530    -0.4780     2.1680 O.2   1 <1>  -0.5700 
  2 C        2.0370    -0.8500     1.0440 C.2   1 <1>   0.5440 
  3 N        2.5910     0.0650     0.1610 N.am  1 <1>  -0.6600 
  4 C        1.8050    -2.2310     0.6710 C.ar  1 <1>   0.0860 
  5 C        2.8790     1.4560     0.6380 C.3   1 <1>   0.1400 
  6 C        3.1810    -0.3650    -1.1470 C.3   1 <1>   0.1400 
  7 C        0.6160    -2.6510     0.0600 C.ar  1 <1>  -0.1440 
  8 C        2.8050    -3.1760     0.8970 C.ar  1 <1>  -0.1500 
  9 C        4.3660     1.6920     1.0150 C.3   1 <1>   0.4230 
 10 C        4.6790    -0.0270    -1.3160 C.3   1 <1>  -0.0800 
 11 C        0.4520    -3.9740    -0.3200 C.ar  1 <1>  -0.1500 
 12 C       -0.5140    -1.6600    -0.1860 C.3   1 <1>  -0.0960 
 13 C        2.6450    -4.4910     0.5090 C.ar  1 <1>   0.0830 
 14 N        5.2120     2.1550    -0.1460 N.4   1 <1>  -0.9590 
 15 C        5.0530     0.4970     1.7290 C.3   1 <1>   0.1200 
 16 C        5.6400    -0.7090    -0.3170 C.3   1 <1>   0.1200 
 17 C        4.9010     1.4820    -1.4420 C.3   1 <1>   0.3430 
 18 C        1.4570    -4.8970    -0.0960 C.ar  1 <1>   0.0830 
 19 O        3.6620    -5.3660     0.7200 O.3   1 <1>  -0.3620 
 20 C        5.1650     3.6420    -0.3020 C.3   1 <1>   0.2630 
 21 O        5.1610    -0.6950     0.9900 O.3   1 <1>  -0.5600 
 22 O        1.2630    -6.1850    -0.4650 O.3   1 <1>  -0.3630 
 23 C        3.5900    -6.6110     0.0480 C.3   1 <1>   0.1200 
 24 C        2.1520    -7.1480     0.0680 C.3   1 <1>   0.1200 
 25 H        2.5630     2.1620    -0.1070 H     1 <1>   0.0800 
 26 H        2.2870     1.6640     1.5110 H     1 <1>   0.0800 
 27 H        3.0680    -1.4270    -1.2760 H     1 <1>   0.0800 
 28 H        2.6150     0.1000    -1.9370 H     1 <1>   0.0800 
 29 H        3.7190    -2.8770     1.3760 H     1 <1>   0.1500 
 30 H        4.3590     2.4930     1.7360 H     1 <1>   0.0800 
 31 H        4.9410    -0.4200    -2.2820 H     1 <1>   0.0800 
 32 H       -0.4570    -4.3080    -0.7870 H     1 <1>   0.1500 
 33 H       -1.3740    -2.1490    -0.6080 H     1 <1>   0.0800 
 34 H       -0.1930    -0.8900    -0.8650 H     1 <1>   0.0800 
 35 H       -0.8090    -1.2030     0.7420 H     1 <1>   0.0800 
 36 H        6.1740     1.8870     0.1010 H     1 <1>   0.4500 
 37 H        4.4820     0.2510     2.6090 H     1 <1>   0.0800 
 38 H        6.0400     0.7740     2.0520 H     1 <1>   0.0800 
 39 H        6.6250    -0.2750    -0.3350 H     1 <1>   0.0800 
 40 H        5.7350    -1.7490    -0.5840 H     1 <1>   0.0800 
 41 H        4.0200     1.9230    -1.8800 H     1 <1>   0.0800 
 42 H        5.7190     1.6530    -2.1230 H     1 <1>   0.0800 
 43 H        4.1670     3.9630    -0.5540 H     1 <1>   0.0800 
 44 H        5.8350     3.9590    -1.0850 H     1 <1>   0.0800 
 45 H        5.4610     4.1260     0.6150 H     1 <1>   0.0800 
 46 H        3.9190    -6.4640    -0.9650 H     1 <1>   0.0800 
 47 H        4.2590    -7.2920     0.5420 H     1 <1>   0.0800 
 48 H        1.8470    -7.3610     1.0780 H     1 <1>   0.0800 
 49 H        2.0680    -8.0410    -0.5240 H     1 <1>   0.0800 
@<TRIPOS>BOND
  1   1   2  2   
  2   2   3  am  
  3   2   4  1   
  4   3   5  1   
  5   3   6  1   
  6   4   7  ar  
  7   4   8  ar  
  8   5   9  1   
  9   5  25  1   
 10   5  26  1   
 11   6  10  1   
 12   6  27  1   
 13   6  28  1   
 14   7  11  ar  
 15   7  12  1   
 16   8  13  ar  
 17   8  29  1   
 18   9  14  1   
 19   9  15  1   
 20   9  30  1   
 21  10  16  1   
 22  10  17  1   
 23  10  31  1   
 24  11  18  ar  
 25  11  32  1   
 26  12  33  1   
 27  12  34  1   
 28  12  35  1   
 29  13  18  ar  
 30  13  19  1   
 31  14  17  1   
 32  14  20  1   
 33  14  36  1   
 34  15  21  1   
 35  15  37  1   
 36  15  38  1   
 37  16  21  1   
 38  16  39  1   
 39  16  40  1   
 40  17  41  1   
 41  17  42  1   
 42  18  22  1   
 43  19  23  1   
 44  20  43  1   
 45  20  44  1   
 46  20  45  1   
 47  22  24  1   
 48  23  24  1   
 49  23  46  1   
 50  23  47  1   
 51  24  48  1   
 52  24  49  1   
@<TRIPOS>SUBSTRUCTURE
  1 ****   4 GROUP 4 **** **** 0

# MOE 2024.06 (io_trps.svl 2023.06)
