@<TRIPOS>MOLECULE
NONAME
52 55 1 0 0 
SMALL
USER_CHARGES


@<TRIPOS>ATOM
  1 O        0.3730     0.7450     2.1380 O.3   1 <1>  -0.3630 
  2 C        1.3790     1.2610     1.3870 C.ar  1 <1>   0.0830 
  3 C       -0.5860     1.5710     2.7650 C.3   1 <1>   0.0400 
  4 C        2.1570     0.3900     0.6640 C.ar  1 <1>  -0.1440 
  5 C        1.6320     2.6430     1.3210 C.ar  1 <1>  -0.1500 
  6 C        3.2350     0.8490    -0.1320 C.ar  1 <1>   0.0000 
  7 C        1.8190    -1.0860     0.7090 C.3   1 <1>   0.4870 
  8 C        2.6430     3.1130     0.5340 C.ar  1 <1>  -0.1500 
  9 C        3.4600     2.2420    -0.2130 C.ar  1 <1>   0.0000 
 10 C        4.1070     0.0010    -0.8580 C.ar  1 <1>  -0.1500 
 11 N        1.1970    -1.4610    -0.5910 N.4   1 <1>  -0.9590 
 12 C        4.4960     2.7290    -1.0330 C.ar  1 <1>  -0.1500 
 13 C        5.1090     0.5010    -1.6430 C.ar  1 <1>  -0.1500 
 14 C       -0.1710    -0.8650    -0.6940 C.3   1 <1>   0.4230 
 15 C        1.2890    -2.9330    -0.8360 C.3   1 <1>   0.2630 
 16 C        5.3020     1.8810    -1.7380 C.ar  1 <1>  -0.1500 
 17 C       -1.2460    -1.5700     0.1260 C.3   1 <1>  -0.1600 
 18 C       -0.7040    -0.8890    -2.1220 C.3   1 <1>  -0.1600 
 19 C       -2.5670    -1.1420    -0.5260 C.3   1 <1>  -0.0800 
 20 C       -2.2360    -0.8090    -1.9930 C.3   1 <1>  -0.0800 
 21 C       -3.1610     0.1390     0.0880 C.3   1 <1>  -0.1600 
 22 C       -2.7960     0.6000    -2.2460 C.3   1 <1>  -0.1600 
 23 C       -2.8810     1.2780    -0.8860 C.3   1 <1>   0.2000 
 24 O       -1.6480     1.8250    -0.5870 O.3   1 <1>  -0.6800 
 25 H       -1.3190     0.9410     3.2340 H     1 <1>   0.0800 
 26 H       -1.0590     2.1870     2.0200 H     1 <1>   0.0800 
 27 H       -0.0970     2.1750     3.5090 H     1 <1>   0.0800 
 28 H        1.0360     3.3390     1.8810 H     1 <1>   0.1500 
 29 H        1.1430    -1.2960     1.5210 H     1 <1>   0.0800 
 30 H        2.7240    -1.6480     0.8710 H     1 <1>   0.0800 
 31 H        2.8360     4.1700     0.4760 H     1 <1>   0.1500 
 32 H        4.0030    -1.0650    -0.7940 H     1 <1>   0.1500 
 33 H        1.7530    -0.9600    -1.2980 H     1 <1>   0.4500 
 34 H        4.6460     3.7920    -1.0960 H     1 <1>   0.1500 
 35 H        5.7670    -0.1510    -2.1930 H     1 <1>   0.1500 
 36 H       -0.1370     0.1640    -0.3760 H     1 <1>   0.0800 
 37 H        0.7600    -3.4750    -0.0690 H     1 <1>   0.0800 
 38 H        2.3190    -3.2490    -0.8300 H     1 <1>   0.0800 
 39 H        0.8610    -3.1840    -1.7920 H     1 <1>   0.0800 
 40 H        6.0940     2.2600    -2.3630 H     1 <1>   0.1500 
 41 H       -1.1700    -2.6370     0.0380 H     1 <1>   0.0800 
 42 H       -1.2020    -1.2930     1.1640 H     1 <1>   0.0800 
 43 H       -0.3050    -0.0710    -2.6930 H     1 <1>   0.0800 
 44 H       -0.4600    -1.8130    -2.6110 H     1 <1>   0.0800 
 45 H       -3.2890    -1.9400    -0.4600 H     1 <1>   0.0800 
 46 H       -2.6960    -1.5120    -2.6670 H     1 <1>   0.0800 
 47 H       -2.8000     0.3580     1.0770 H     1 <1>   0.0800 
 48 H       -4.2290     0.0160     0.1480 H     1 <1>   0.0800 
 49 H       -3.7990     0.4970    -2.6230 H     1 <1>   0.0800 
 50 H       -2.2330     1.1710    -2.9630 H     1 <1>   0.0800 
 51 H       -3.6250     2.0570    -0.8420 H     1 <1>   0.0800 
 52 H       -1.4850     2.6030    -1.1570 H     1 <1>   0.4000 
@<TRIPOS>BOND
  1   1   2  1   
  2   1   3  1   
  3   2   4  ar  
  4   2   5  ar  
  5   3  25  1   
  6   3  26  1   
  7   3  27  1   
  8   4   6  ar  
  9   4   7  1   
 10   5   8  ar  
 11   5  28  1   
 12   6   9  ar  
 13   6  10  ar  
 14   7  11  1   
 15   7  29  1   
 16   7  30  1   
 17   8   9  ar  
 18   8  31  1   
 19   9  12  ar  
 20  10  13  ar  
 21  10  32  1   
 22  11  14  1   
 23  11  15  1   
 24  11  33  1   
 25  12  16  ar  
 26  12  34  1   
 27  13  16  ar  
 28  13  35  1   
 29  14  17  1   
 30  14  18  1   
 31  14  36  1   
 32  15  37  1   
 33  15  38  1   
 34  15  39  1   
 35  16  40  1   
 36  17  19  1   
 37  17  41  1   
 38  17  42  1   
 39  18  20  1   
 40  18  43  1   
 41  18  44  1   
 42  19  20  1   
 43  19  21  1   
 44  19  45  1   
 45  20  22  1   
 46  20  46  1   
 47  21  23  1   
 48  21  47  1   
 49  21  48  1   
 50  22  23  1   
 51  22  49  1   
 52  22  50  1   
 53  23  24  1   
 54  23  51  1   
 55  24  52  1   
@<TRIPOS>SUBSTRUCTURE
  1 ****   4 GROUP 4 **** **** 0

# MOE 2024.06 (io_trps.svl 2023.06)
