@<TRIPOS>MOLECULE
NONAME
45 46 1 0 0 
SMALL
USER_CHARGES


@<TRIPOS>ATOM
  1 O       -1.1310    -0.0040     0.3170 O.2   1 <1>  -0.5700 
  2 C       -1.9910     0.7990     0.0280 C.2   1 <1>   0.5690 
  3 N       -3.2840     0.6100     0.4510 N.am  1 <1>  -0.6600 
  4 C       -1.6130     1.9880    -0.8540 C.3   1 <1>   0.0440 
  5 C       -3.5810    -0.4500     1.4610 C.3   1 <1>   0.3200 
  6 C       -4.4960     1.1570    -0.2300 C.3   1 <1>   0.1400 
  7 C       -0.3210     2.6930    -0.4170 C.ar  1 <1>  -0.1440 
  8 C       -3.7480    -1.7980     0.7800 C.2   1 <1>   0.0060 
  9 C       -5.0780     2.3340     0.5600 C.3   1 <1>   0.1200 
 10 C        0.8980     2.3920    -1.0270 C.ar  1 <1>  -0.1440 
 11 C       -0.3550     3.6520     0.5980 C.ar  1 <1>  -0.1440 
 12 N       -4.8450    -2.4860     0.7390 N.2   1 <1>  -0.5650 
 13 N       -2.7150    -2.3880     0.1440 N.pl3 1 <1>   0.0330 
 14 O       -6.1630     2.8620    -0.1240 O.3   1 <1>  -0.6800 
 15 C        2.0480     3.0600    -0.6380 C.ar  1 <1>  -0.1500 
 16 C        1.0320     1.3350    -2.1160 C.3   1 <1>  -0.0970 
 17 C        0.8090     4.3060     0.9690 C.ar  1 <1>  -0.1500 
 18 C       -1.6350     4.0170     1.3380 C.3   1 <1>  -0.0970 
 19 C       -4.5060    -3.5860     0.0390 C.2   1 <1>   0.0770 
 20 C       -3.2080    -3.5440    -0.3340 C.2   1 <1>  -0.3020 
 21 C        2.0120     4.0180     0.3560 C.ar  1 <1>  -0.1430 
 22 C        3.2800     4.7430     0.7700 C.3   1 <1>  -0.0970 
 23 H       -2.4030     2.7100    -0.8610 H     1 <1>   0.0800 
 24 H       -1.5330     1.6340    -1.8620 H     1 <1>   0.0800 
 25 H       -4.4810    -0.2070     1.9960 H     1 <1>   0.0800 
 26 H       -2.7770    -0.5100     2.1750 H     1 <1>   0.0800 
 27 H       -5.2390     0.3790    -0.3070 H     1 <1>   0.0800 
 28 H       -4.2450     1.4700    -1.2270 H     1 <1>   0.0800 
 29 H       -4.3520     3.1160     0.6890 H     1 <1>   0.0800 
 30 H       -5.4300     2.0030     1.5220 H     1 <1>   0.0800 
 31 H       -1.7740    -1.9780     0.0550 H     1 <1>   0.2700 
 32 H       -5.8890     3.2960    -0.9560 H     1 <1>   0.4000 
 33 H        2.9860     2.8340    -1.1120 H     1 <1>   0.1500 
 34 H        0.5900     0.4100    -1.7910 H     1 <1>   0.0800 
 35 H        2.0640     1.1420    -2.3420 H     1 <1>   0.0800 
 36 H        0.5460     1.6670    -3.0160 H     1 <1>   0.0800 
 37 H        0.7840     5.0500     1.7450 H     1 <1>   0.1500 
 38 H       -2.1040     3.1320     1.7270 H     1 <1>   0.0800 
 39 H       -2.3120     4.5250     0.6760 H     1 <1>   0.0800 
 40 H       -1.4270     4.6690     2.1680 H     1 <1>   0.0800 
 41 H       -5.2250    -4.3620    -0.1640 H     1 <1>   0.1500 
 42 H       -2.6250    -4.2500    -0.8960 H     1 <1>   0.1500 
 43 H        4.1350     4.1040     0.6450 H     1 <1>   0.0800 
 44 H        3.2250     5.0380     1.8020 H     1 <1>   0.0800 
 45 H        3.4090     5.6210     0.1630 H     1 <1>   0.0800 
@<TRIPOS>BOND
  1   1   2  2   
  2   2   3  am  
  3   2   4  1   
  4   3   5  1   
  5   3   6  1   
  6   4   7  1   
  7   4  23  1   
  8   4  24  1   
  9   5   8  1   
 10   5  25  1   
 11   5  26  1   
 12   6   9  1   
 13   6  27  1   
 14   6  28  1   
 15   7  10  ar  
 16   7  11  ar  
 17   8  12  2   
 18   8  13  1   
 19   9  14  1   
 20   9  29  1   
 21   9  30  1   
 22  10  15  ar  
 23  10  16  1   
 24  11  17  ar  
 25  11  18  1   
 26  12  19  1   
 27  13  20  1   
 28  13  31  1   
 29  14  32  1   
 30  15  21  ar  
 31  15  33  1   
 32  16  34  1   
 33  16  35  1   
 34  16  36  1   
 35  17  21  ar  
 36  17  37  1   
 37  18  38  1   
 38  18  39  1   
 39  18  40  1   
 40  19  20  2   
 41  19  41  1   
 42  20  42  1   
 43  21  22  1   
 44  22  43  1   
 45  22  44  1   
 46  22  45  1   
@<TRIPOS>SUBSTRUCTURE
  1 ****   2 GROUP 4 **** **** 0

# MOE 2024.06 (io_trps.svl 2023.06)
