@<TRIPOS>MOLECULE
NONAME
48 51 1 0 0 
SMALL
USER_CHARGES


@<TRIPOS>ATOM
  1 CL      -3.7170    -0.5330     2.5570 Cl    1 <1>  -0.1770 
  2 C       -3.2090     0.8100     1.5540 C.ar  1 <1>   0.1770 
  3 C       -3.4980     0.8140     0.1930 C.ar  1 <1>   0.0830 
  4 C       -2.5350     1.8590     2.1500 C.ar  1 <1>  -0.1500 
  5 O       -4.1650    -0.2440    -0.3330 O.3   1 <1>  -0.3630 
  6 C       -3.0910     1.9030    -0.5740 C.ar  1 <1>  -0.1500 
  7 C       -2.1390     2.9390     1.3790 C.ar  1 <1>  -0.1500 
  8 C       -4.9950    -0.0750    -1.4730 C.3   1 <1>   0.1810 
  9 C       -2.4180     2.9580     0.0210 C.ar  1 <1>  -0.1500 
 10 C       -5.8690    -1.3030    -1.7290 C.2   1 <1>   0.5690 
 11 O       -5.8790    -1.7310    -2.8610 O.2   1 <1>  -0.5700 
 12 N       -6.6410    -1.8830    -0.7460 N.am  1 <1>  -0.6600 
 13 C       -7.3560    -3.1630    -1.0340 C.3   1 <1>   0.1400 
 14 C       -6.7790    -1.3370     0.6380 C.3   1 <1>   0.1400 
 15 C       -8.7650    -2.8890    -1.5730 C.3   1 <1>   0.1400 
 16 C       -8.2080    -1.4020     1.1960 C.3   1 <1>  -0.1600 
 17 N       -9.6920    -2.4260    -0.4930 N.am  1 <1>  -0.6600 
 18 C       -9.3130    -1.1440     0.1640 C.3   1 <1>   0.1400 
 19 C      -10.8040    -3.1200    -0.0760 C.2   1 <1>   0.6300 
 20 O      -11.5430    -2.6840     0.7760 O.2   1 <1>  -0.5700 
 21 C      -11.1420    -4.4760    -0.6850 C.3   1 <1>  -0.1000 
 22 C      -11.6730    -5.5910     0.1930 C.3   1 <1>   0.0000 
 23 C      -10.3120    -5.6650    -0.4490 C.3   1 <1>  -0.2000 
 24 C      -13.0560    -5.5580     0.8020 C.3   1 <1>  -0.2000 
 25 C      -12.1770    -6.6860     1.1030 C.3   1 <1>  -0.2000 
 26 H       -2.3250     1.8290     3.2040 H     1 <1>   0.1500 
 27 H       -3.2810     1.9410    -1.6300 H     1 <1>   0.1500 
 28 H       -1.6140     3.7620     1.8330 H     1 <1>   0.1500 
 29 H       -4.3630     0.0880    -2.3260 H     1 <1>   0.0800 
 30 H       -5.6220     0.7830    -1.3170 H     1 <1>   0.0800 
 31 H       -2.1040     3.7980    -0.5750 H     1 <1>   0.1500 
 32 H       -7.4060    -3.7740    -0.1500 H     1 <1>   0.0800 
 33 H       -6.8040    -3.7150    -1.7760 H     1 <1>   0.0800 
 34 H       -6.4780    -0.3050     0.6460 H     1 <1>   0.0800 
 35 H       -6.1110    -1.8710     1.2930 H     1 <1>   0.0800 
 36 H       -9.1350    -3.7870    -2.0300 H     1 <1>   0.0800 
 37 H       -8.7100    -2.1420    -2.3450 H     1 <1>   0.0800 
 38 H       -8.2850    -0.6570     1.9670 H     1 <1>   0.0800 
 39 H       -8.3760    -2.3510     1.6750 H     1 <1>   0.0800 
 40 H       -8.9900    -0.4300    -0.5740 H     1 <1>   0.0800 
 41 H      -10.1710    -0.7280     0.6650 H     1 <1>   0.0800 
 42 H      -11.6470    -4.3570    -1.6240 H     1 <1>   0.1000 
 43 H       -9.4660    -5.6130     0.2130 H     1 <1>   0.1000 
 44 H      -10.1780    -6.4030    -1.2190 H     1 <1>   0.1000 
 45 H      -13.8870    -5.6690     0.1280 H     1 <1>   0.1000 
 46 H      -13.2390    -4.7970     1.5410 H     1 <1>   0.1000 
 47 H      -11.7110    -6.7710     2.0690 H     1 <1>   0.1000 
 48 H      -12.3650    -7.6480     0.6610 H     1 <1>   0.1000 
@<TRIPOS>BOND
  1   1   2  1   
  2   2   3  ar  
  3   2   4  ar  
  4   3   5  1   
  5   3   6  ar  
  6   4   7  ar  
  7   4  26  1   
  8   5   8  1   
  9   6   9  ar  
 10   6  27  1   
 11   7   9  ar  
 12   7  28  1   
 13   8  10  1   
 14   8  29  1   
 15   8  30  1   
 16   9  31  1   
 17  10  11  2   
 18  10  12  am  
 19  12  13  1   
 20  12  14  1   
 21  13  15  1   
 22  13  32  1   
 23  13  33  1   
 24  14  16  1   
 25  14  34  1   
 26  14  35  1   
 27  15  17  1   
 28  15  36  1   
 29  15  37  1   
 30  16  18  1   
 31  16  38  1   
 32  16  39  1   
 33  17  18  1   
 34  17  19  am  
 35  18  40  1   
 36  18  41  1   
 37  19  20  2   
 38  19  21  1   
 39  21  22  1   
 40  21  23  1   
 41  21  42  1   
 42  22  23  1   
 43  22  24  1   
 44  22  25  1   
 45  23  43  1   
 46  23  44  1   
 47  24  25  1   
 48  24  45  1   
 49  24  46  1   
 50  25  47  1   
 51  25  48  1   
@<TRIPOS>SUBSTRUCTURE
  1 ****  14 GROUP 4 **** **** 0

# MOE 2024.06 (io_trps.svl 2023.06)
