@<TRIPOS>MOLECULE
NONAME
46 48 1 0 0 
SMALL
USER_CHARGES


@<TRIPOS>ATOM
  1 S       -0.5580    -0.3250    -2.8490 S.3   1 <1>  -0.0800 
  2 C       -0.4400    -0.0890    -1.1200 C.2   1 <1>   0.1980 
  3 C        0.0820    -1.9290    -2.6500 C.2   1 <1>  -0.1100 
  4 N        0.0180    -1.0920    -0.4830 N.2   1 <1>  -0.5650 
  5 C       -0.8820     1.2490    -0.5730 C.3   1 <1>  -0.0600 
  6 C        0.3210    -2.1420    -1.3460 C.2   1 <1>   0.0460 
  7 C        0.8910    -3.4240    -0.7510 C.3   1 <1>   0.5240 
  8 N       -0.1870    -4.2830    -0.2020 N.4   1 <1>  -0.9590 
  9 C        0.2960    -5.6130     0.2360 C.3   1 <1>   0.3430 
 10 C       -1.0970    -3.6170     0.7760 C.3   1 <1>   0.3430 
 11 C       -0.8840    -6.5940     0.2780 C.3   1 <1>  -0.1060 
 12 C       -1.8330    -4.6410     1.6500 C.3   1 <1>  -0.1600 
 13 C       -1.2430    -6.9080    -1.1640 C.2   1 <1>   0.9060 
 14 C       -2.1520    -5.9080     0.8550 C.3   1 <1>   0.2000 
 15 C       -0.4210    -7.8560     1.0640 C.3   1 <1>  -0.0170 
 16 O       -1.0560    -6.0210    -2.0130 O.co2 1 <1>  -0.9000 
 17 O       -1.8030    -7.9680    -1.4350 O.co2 1 <1>  -0.9000 
 18 O       -2.8580    -6.7590     1.6800 O.3   1 <1>  -0.6800 
 19 C        1.0080    -8.2750     0.7310 C.ar  1 <1>  -0.1440 
 20 C        1.2940    -8.8840    -0.4810 C.ar  1 <1>  -0.1500 
 21 C        2.0380    -8.0430     1.6320 C.ar  1 <1>  -0.1500 
 22 C        2.5920    -9.2440    -0.7960 C.ar  1 <1>  -0.1500 
 23 C        3.3370    -8.4030     1.3190 C.ar  1 <1>  -0.1500 
 24 C        3.6160    -9.0020     0.1030 C.ar  1 <1>  -0.1500 
 25 H        0.2030    -2.5360    -3.5300 H     1 <1>   0.1500 
 26 H       -0.7530     1.2690     0.4940 H     1 <1>   0.0800 
 27 H       -1.9180     1.4140    -0.8040 H     1 <1>   0.0800 
 28 H       -0.2930     2.0330    -1.0100 H     1 <1>   0.0800 
 29 H        1.5970    -3.1710     0.0210 H     1 <1>   0.0800 
 30 H        1.4080    -3.9660    -1.5260 H     1 <1>   0.0800 
 31 H       -0.7520    -4.5560    -1.0470 H     1 <1>   0.4500 
 32 H        1.0310    -5.9910    -0.4580 H     1 <1>   0.0800 
 33 H        0.7480    -5.5390     1.2100 H     1 <1>   0.0800 
 34 H       -0.5360    -2.9470     1.4070 H     1 <1>   0.0800 
 35 H       -1.8150    -3.0260     0.2300 H     1 <1>   0.0800 
 36 H       -2.7430    -4.1980     2.0140 H     1 <1>   0.0800 
 37 H       -1.2210    -4.8900     2.4990 H     1 <1>   0.0800 
 38 H       -2.8220    -5.6350     0.0530 H     1 <1>   0.0800 
 39 H       -0.4770    -7.6580     2.1200 H     1 <1>   0.0800 
 40 H       -1.0830    -8.6820     0.8680 H     1 <1>   0.0800 
 41 H       -3.1470    -7.5370     1.1520 H     1 <1>   0.4000 
 42 H        0.5020    -9.0840    -1.1880 H     1 <1>   0.1500 
 43 H        1.8350    -7.5870     2.5850 H     1 <1>   0.1500 
 44 H        2.7990    -9.7150    -1.7410 H     1 <1>   0.1500 
 45 H        4.1310    -8.2230     2.0220 H     1 <1>   0.1500 
 46 H        4.6240    -9.2850    -0.1430 H     1 <1>   0.1500 
@<TRIPOS>BOND
  1   1   2  1   
  2   1   3  1   
  3   2   4  2   
  4   2   5  1   
  5   3   6  2   
  6   3  25  1   
  7   4   6  1   
  8   5  26  1   
  9   5  27  1   
 10   5  28  1   
 11   6   7  1   
 12   7   8  1   
 13   7  29  1   
 14   7  30  1   
 15   8   9  1   
 16   8  10  1   
 17   8  31  1   
 18   9  11  1   
 19   9  32  1   
 20   9  33  1   
 21  10  12  1   
 22  10  34  1   
 23  10  35  1   
 24  11  13  1   
 25  11  14  1   
 26  11  15  1   
 27  12  14  1   
 28  12  36  1   
 29  12  37  1   
 30  13  16  ar  
 31  13  17  ar  
 32  14  18  1   
 33  14  38  1   
 34  15  19  1   
 35  15  39  1   
 36  15  40  1   
 37  18  41  1   
 38  19  20  ar  
 39  19  21  ar  
 40  20  22  ar  
 41  20  42  1   
 42  21  23  ar  
 43  21  43  1   
 44  22  24  ar  
 45  22  44  1   
 46  23  24  ar  
 47  23  45  1   
 48  24  46  1   
@<TRIPOS>SUBSTRUCTURE
  1 ****   9 GROUP 4 **** **** 0

# MOE 2024.06 (io_trps.svl 2023.06)
