@<TRIPOS>MOLECULE
NONAME
48 50 1 0 0 
SMALL
USER_CHARGES


@<TRIPOS>ATOM
  1 CL      -0.8940     0.8660    -2.6900 Cl    1 <1>  -0.1770 
  2 C       -2.0380     1.5230    -1.5370 C.ar  1 <1>   0.1770 
  3 C       -1.7530     2.6340    -0.7410 C.ar  1 <1>   0.0830 
  4 C       -3.2710     0.9050    -1.4590 C.ar  1 <1>  -0.1500 
  5 O       -0.5760     3.3080    -0.7340 O.3   1 <1>  -0.3630 
  6 C       -2.7350     3.1140     0.1110 C.ar  1 <1>  -0.1500 
  7 C       -4.2330     1.3980    -0.5930 C.ar  1 <1>  -0.1500 
  8 C        0.6450     2.6050    -0.6770 C.3   1 <1>   0.1200 
  9 C       -3.9840     2.5110     0.2030 C.ar  1 <1>  -0.0090 
 10 C        1.6490     3.4710     0.0780 C.3   1 <1>  -0.2400 
 11 S       -5.2660     3.1580     1.3150 S.o2  1 <1>   1.4470 
 12 O       -4.7980     4.3570     1.9790 O.2   1 <1>  -0.6500 
 13 O       -5.7890     2.0640     2.1030 O.2   1 <1>  -0.6500 
 14 N       -6.4880     3.6340     0.2420 N.am  1 <1>  -0.8490 
 15 C       -7.7610     3.8530     0.9480 C.3   1 <1>   0.1960 
 16 C       -6.1180     4.8320    -0.5180 C.3   1 <1>   0.1960 
 17 C       -8.9200     4.0820    -0.0430 C.3   1 <1>   0.0000 
 18 C       -7.1730     5.1290    -1.5880 C.3   1 <1>  -0.1600 
 19 C      -10.2500     4.2600     0.7160 C.3   1 <1>   0.2000 
 20 C       -8.5740     5.2780    -0.9720 C.3   1 <1>  -0.1600 
 21 C       -9.2240     2.8190    -0.8710 C.3   1 <1>  -0.1600 
 22 O      -10.4480     5.5510     1.1670 O.3   1 <1>  -0.6800 
 23 C      -11.3580     3.8610    -0.2580 C.3   1 <1>  -0.1600 
 24 C      -10.6950     2.9350    -1.2870 C.3   1 <1>  -0.1600 
 25 H       -3.4770     0.0480    -2.0750 H     1 <1>   0.1500 
 26 H       -2.5130     3.9780     0.7150 H     1 <1>   0.1500 
 27 H       -5.1960     0.9170    -0.5330 H     1 <1>   0.1500 
 28 H        0.4900     1.6690    -0.1680 H     1 <1>   0.0800 
 29 H        0.9830     2.4290    -1.6830 H     1 <1>   0.0800 
 30 H        1.3000     3.6540     1.0790 H     1 <1>   0.0800 
 31 H        1.7870     4.4070    -0.4320 H     1 <1>   0.0800 
 32 H        2.5970     2.9660     0.1310 H     1 <1>   0.0800 
 33 H       -7.9920     2.9930     1.5550 H     1 <1>   0.0800 
 34 H       -7.6720     4.7030     1.6060 H     1 <1>   0.0800 
 35 H       -6.0260     5.6760     0.1470 H     1 <1>   0.0800 
 36 H       -5.1670     4.6810    -1.0010 H     1 <1>   0.0800 
 37 H       -6.9090     6.0390    -2.0980 H     1 <1>   0.0800 
 38 H       -7.1620     4.3400    -2.3180 H     1 <1>   0.0800 
 39 H      -10.2760     3.6040     1.5710 H     1 <1>   0.0800 
 40 H       -9.3060     5.3840    -1.7530 H     1 <1>   0.0800 
 41 H       -8.5710     6.1880    -0.3980 H     1 <1>   0.0800 
 42 H       -8.5760     2.6970    -1.7190 H     1 <1>   0.0800 
 43 H       -9.1130     1.9490    -0.2460 H     1 <1>   0.0800 
 44 H      -10.5110     6.1570     0.4060 H     1 <1>   0.4000 
 45 H      -12.1450     3.3500     0.2670 H     1 <1>   0.0800 
 46 H      -11.7640     4.7230    -0.7590 H     1 <1>   0.0800 
 47 H      -11.1660     1.9670    -1.3080 H     1 <1>   0.0800 
 48 H      -10.7650     3.3740    -2.2670 H     1 <1>   0.0800 
@<TRIPOS>BOND
  1   1   2  1   
  2   2   3  ar  
  3   2   4  ar  
  4   3   5  1   
  5   3   6  ar  
  6   4   7  ar  
  7   4  25  1   
  8   5   8  1   
  9   6   9  ar  
 10   6  26  1   
 11   7   9  ar  
 12   7  27  1   
 13   8  10  1   
 14   8  28  1   
 15   8  29  1   
 16   9  11  1   
 17  10  30  1   
 18  10  31  1   
 19  10  32  1   
 20  11  12  2   
 21  11  13  2   
 22  11  14  am  
 23  14  15  1   
 24  14  16  1   
 25  15  17  1   
 26  15  33  1   
 27  15  34  1   
 28  16  18  1   
 29  16  35  1   
 30  16  36  1   
 31  17  19  1   
 32  17  20  1   
 33  17  21  1   
 34  18  20  1   
 35  18  37  1   
 36  18  38  1   
 37  19  22  1   
 38  19  23  1   
 39  19  39  1   
 40  20  40  1   
 41  20  41  1   
 42  21  24  1   
 43  21  42  1   
 44  21  43  1   
 45  22  44  1   
 46  23  24  1   
 47  23  45  1   
 48  23  46  1   
 49  24  47  1   
 50  24  48  1   
@<TRIPOS>SUBSTRUCTURE
  1 ****  14 GROUP 4 **** **** 0

# MOE 2024.06 (io_trps.svl 2023.06)
