@<TRIPOS>MOLECULE
NONAME
45 46 1 0 0 
SMALL
USER_CHARGES


@<TRIPOS>ATOM
  1 O        1.8300     3.6680     1.1520 O.co2 1 <1>  -0.9000 
  2 C        0.6590     3.3430     0.9490 C.2   1 <1>   0.9060 
  3 O       -0.1240     3.0950     1.8740 O.co2 1 <1>  -0.9000 
  4 C        0.1330     3.5270    -0.4510 C.3   1 <1>  -0.1860 
  5 C       -1.3160     3.0870    -0.7620 C.3   1 <1>   0.2000 
  6 C        0.2910     5.0190    -0.7090 C.3   1 <1>   0.3430 
  7 O       -1.7140     2.1110     0.1200 O.3   1 <1>  -0.6800 
  8 C       -2.3360     4.2310    -0.6800 C.3   1 <1>  -0.1600 
  9 N       -0.6340     5.8370     0.1510 N.4   1 <1>  -0.9590 
 10 C       -1.9560     5.1950     0.4380 C.3   1 <1>   0.3430 
 11 C        0.0520     6.1650     1.4460 C.3   1 <1>   0.3430 
 12 C       -0.2400     7.6090     1.8700 C.3   1 <1>   0.1200 
 13 O       -0.3750     8.4420     0.7250 O.3   1 <1>  -0.3630 
 14 C        0.6490     9.2890     0.4430 C.ar  1 <1>   0.0830 
 15 C        1.9210     8.8440     0.0660 C.ar  1 <1>   0.0830 
 16 C        0.3920    10.6460     0.5350 C.ar  1 <1>  -0.1500 
 17 O        2.1480     7.5080    -0.0610 O.3   1 <1>  -0.3630 
 18 C        2.9190     9.7780    -0.1890 C.ar  1 <1>  -0.1500 
 19 C        1.3930    11.5650     0.2780 C.ar  1 <1>  -0.1500 
 20 C        3.4310     6.9700     0.1930 C.3   1 <1>   0.0400 
 21 C        2.6610    11.1360    -0.0800 C.ar  1 <1>  -0.1430 
 22 C        3.7550    12.1500    -0.3630 C.3   1 <1>  -0.0970 
 23 H        0.7980     2.9960    -1.1030 H     1 <1>   0.0800 
 24 H       -1.3660     2.6500    -1.7450 H     1 <1>   0.0800 
 25 H        0.0750     5.2140    -1.7460 H     1 <1>   0.0800 
 26 H        1.3140     5.3070    -0.5260 H     1 <1>   0.0800 
 27 H       -1.2460     2.2870     0.9930 H     1 <1>   0.4000 
 28 H       -2.3660     4.7670    -1.6100 H     1 <1>   0.0800 
 29 H       -3.3200     3.8310    -0.5060 H     1 <1>   0.0800 
 30 H       -0.7560     6.7560    -0.3030 H     1 <1>   0.4500 
 31 H       -1.8870     4.6270     1.3540 H     1 <1>   0.0800 
 32 H       -2.7140     5.9500     0.5610 H     1 <1>   0.0800 
 33 H       -0.2420     5.4740     2.2210 H     1 <1>   0.0800 
 34 H        1.1170     6.0500     1.3300 H     1 <1>   0.0800 
 35 H        0.5440     7.9860     2.5040 H     1 <1>   0.0800 
 36 H       -1.1680     7.6490     2.4100 H     1 <1>   0.0800 
 37 H       -0.5910    10.9820     0.8110 H     1 <1>   0.1500 
 38 H        3.9000     9.4600    -0.4870 H     1 <1>   0.1500 
 39 H        1.1800    12.6180     0.3560 H     1 <1>   0.1500 
 40 H        3.3350     5.9030     0.3040 H     1 <1>   0.0800 
 41 H        3.8170     7.3930     1.1040 H     1 <1>   0.0800 
 42 H        4.0770     7.1930    -0.6370 H     1 <1>   0.0800 
 43 H        3.6150    13.0320     0.2350 H     1 <1>   0.0800 
 44 H        3.7340    12.4280    -1.4010 H     1 <1>   0.0800 
 45 H        4.7210    11.7370    -0.1340 H     1 <1>   0.0800 
@<TRIPOS>BOND
  1   1   2  ar  
  2   2   3  ar  
  3   2   4  1   
  4   4   5  1   
  5   4   6  1   
  6   4  23  1   
  7   5   7  1   
  8   5   8  1   
  9   5  24  1   
 10   6   9  1   
 11   6  25  1   
 12   6  26  1   
 13   7  27  1   
 14   8  10  1   
 15   8  28  1   
 16   8  29  1   
 17   9  10  1   
 18   9  11  1   
 19   9  30  1   
 20  10  31  1   
 21  10  32  1   
 22  11  12  1   
 23  11  33  1   
 24  11  34  1   
 25  12  13  1   
 26  12  35  1   
 27  12  36  1   
 28  13  14  1   
 29  14  15  ar  
 30  14  16  ar  
 31  15  17  1   
 32  15  18  ar  
 33  16  19  ar  
 34  16  37  1   
 35  17  20  1   
 36  18  21  ar  
 37  18  38  1   
 38  19  21  ar  
 39  19  39  1   
 40  20  40  1   
 41  20  41  1   
 42  20  42  1   
 43  21  22  1   
 44  22  43  1   
 45  22  44  1   
 46  22  45  1   
@<TRIPOS>SUBSTRUCTURE
  1 ****  11 GROUP 4 **** **** 0

# MOE 2024.06 (io_trps.svl 2023.06)
