@<TRIPOS>MOLECULE
NONAME
45 47 1 0 0 
SMALL
USER_CHARGES


@<TRIPOS>ATOM
  1 N        2.2680     1.4090    -2.5850 N.1   1 <1>  -0.5570 
  2 C        1.9580     2.3620    -2.0350 C.1   1 <1>   0.5380 
  3 C        1.6280     3.5610    -1.3060 C.2   1 <1>   0.3080 
  4 N        0.5270     4.2580    -1.4400 N.2   1 <1>  -0.7070 
  5 C        2.4550     4.1380    -0.3410 C.2   1 <1>  -0.1500 
  6 N        0.6300     5.2800    -0.5760 N.pl3 1 <1>   0.3140 
  7 C        1.7920     5.2260     0.1050 C.2   1 <1>  -0.3320 
  8 C       -0.4790     6.2500    -0.4190 C.3   1 <1>   0.0960 
  9 C        2.1840     6.2330     1.1630 C.3   1 <1>   0.3890 
 10 C       -0.0370     7.7130    -0.5850 C.3   1 <1>  -0.1600 
 11 N        2.1580     7.5920     0.5660 N.pl3 1 <1>  -0.8380 
 12 C        0.8160     8.2440     0.5700 C.3   1 <1>   0.2090 
 13 C        3.2820     8.2400     0.1590 C.ar  1 <1>   0.4100 
 14 N        3.3300     9.5510     0.3010 N.ar  1 <1>  -0.6200 
 15 C        4.3610     7.5300    -0.4010 C.ar  1 <1>  -0.1500 
 16 C        4.4290    10.1930    -0.0690 C.ar  1 <1>   0.7710 
 17 C        5.4720     8.2010    -0.7890 C.ar  1 <1>   0.2180 
 18 N        5.4750     9.5420    -0.6050 N.ar  1 <1>  -0.1790 
 19 N        4.5070    11.5450     0.0920 N.pl3 1 <1>  -0.8380 
 20 C        6.6890     7.5330    -1.4160 C.3   1 <1>  -0.0170 
 21 C        3.3180    12.3380     0.5510 C.3   1 <1>   0.1290 
 22 C        5.7230    12.4040    -0.0700 C.3   1 <1>   0.1290 
 23 C        7.9430     7.6770    -0.5420 C.3   1 <1>  -0.2400 
 24 H        3.4140     3.7530    -0.0400 H     1 <1>   0.1500 
 25 H       -0.9260     6.1000     0.5460 H     1 <1>   0.0800 
 26 H       -1.2180     6.0200    -1.1660 H     1 <1>   0.0800 
 27 H        3.1690     6.0120     1.5380 H     1 <1>   0.0800 
 28 H        1.5010     6.1820     1.9940 H     1 <1>   0.0800 
 29 H       -0.9250     8.3170    -0.6350 H     1 <1>   0.0800 
 30 H        0.4850     7.8390    -1.5170 H     1 <1>   0.0800 
 31 H        0.3250     8.0710     1.5120 H     1 <1>   0.0800 
 32 H        0.9140     9.3100     0.4560 H     1 <1>   0.0800 
 33 H        4.2720     6.4680    -0.5270 H     1 <1>   0.1500 
 34 H        6.2550    10.1230    -0.8790 H     1 <1>   0.4570 
 35 H        6.8740     7.9560    -2.3890 H     1 <1>   0.0800 
 36 H        6.4870     6.4850    -1.5580 H     1 <1>   0.0800 
 37 H        2.3940    11.8420     0.3030 H     1 <1>   0.0800 
 38 H        3.3070    13.3050     0.0760 H     1 <1>   0.0800 
 39 H        3.3600    12.4740     1.6180 H     1 <1>   0.0800 
 40 H        6.6300    11.8280    -0.0470 H     1 <1>   0.0800 
 41 H        5.7710    13.1190     0.7350 H     1 <1>   0.0800 
 42 H        5.6660    12.9460    -1.0010 H     1 <1>   0.0800 
 43 H        8.2330     8.7060    -0.4310 H     1 <1>   0.0800 
 44 H        8.7640     7.1460    -0.9940 H     1 <1>   0.0800 
 45 H        7.7720     7.2560     0.4340 H     1 <1>   0.0800 
@<TRIPOS>BOND
  1   1   2  3   
  2   2   3  1   
  3   3   4  2   
  4   3   5  1   
  5   4   6  1   
  6   5   7  2   
  7   5  24  1   
  8   6   7  1   
  9   6   8  1   
 10   7   9  1   
 11   8  10  1   
 12   8  25  1   
 13   8  26  1   
 14   9  11  1   
 15   9  27  1   
 16   9  28  1   
 17  10  12  1   
 18  10  29  1   
 19  10  30  1   
 20  11  12  1   
 21  11  13  1   
 22  12  31  1   
 23  12  32  1   
 24  13  14  ar  
 25  13  15  ar  
 26  14  16  ar  
 27  15  17  ar  
 28  15  33  1   
 29  16  18  ar  
 30  16  19  1   
 31  17  18  ar  
 32  17  20  1   
 33  18  34  1   
 34  19  21  1   
 35  19  22  1   
 36  20  23  1   
 37  20  35  1   
 38  20  36  1   
 39  21  37  1   
 40  21  38  1   
 41  21  39  1   
 42  22  40  1   
 43  22  41  1   
 44  22  42  1   
 45  23  43  1   
 46  23  44  1   
 47  23  45  1   
@<TRIPOS>SUBSTRUCTURE
  1 ****  13 GROUP 4 **** **** 0

# MOE 2024.06 (io_trps.svl 2023.06)
