@<TRIPOS>MOLECULE
NONAME
45 47 1 0 0 
SMALL
USER_CHARGES


@<TRIPOS>ATOM
  1 O        3.8980    -1.3160     0.6250 O.2   1 <1>  -0.5700 
  2 C        2.7290    -1.3540     0.3220 C.2   1 <1>   0.5690 
  3 N        1.9430    -0.2320     0.2700 N.am  1 <1>  -0.4940 
  4 C        2.1000    -2.7080    -0.0350 C.3   1 <1>   0.1250 
  5 C        2.1990     1.1140     0.6290 C.2   1 <1>  -0.0880 
  6 C        0.5850    -2.5850    -0.2560 C.ar  1 <1>  -0.1440 
  7 C        2.4460    -3.8030     1.0010 C.3   1 <1>  -0.1600 
  8 N        3.3210     1.8620     0.3990 N.pl3 1 <1>   0.3140 
  9 C        1.3210     1.9220     1.2670 C.2   1 <1>  -0.1500 
 10 C        0.0640    -2.6690    -1.5400 C.ar  1 <1>  -0.1500 
 11 C       -0.2800    -2.3670     0.8090 C.ar  1 <1>  -0.1500 
 12 C        1.8800    -5.1840     0.6330 C.3   1 <1>  -0.2400 
 13 N        3.1580     3.1250     0.8890 N.2   1 <1>  -0.7070 
 14 C        4.5370     1.4500    -0.3760 C.3   1 <1>   0.1760 
 15 C        1.9700     3.1400     1.4020 C.2   1 <1>   0.1390 
 16 C       -1.2970    -2.5350    -1.7560 C.ar  1 <1>  -0.1500 
 17 C       -1.6400    -2.2330     0.5940 C.ar  1 <1>  -0.1500 
 18 C        5.7430     1.2390     0.5430 C.3   1 <1>  -0.1600 
 19 C        5.0130     2.5340    -1.3530 C.3   1 <1>  -0.1600 
 20 C       -2.1500    -2.3160    -0.6890 C.ar  1 <1>  -0.1500 
 21 C        6.4160     2.6070     0.6680 C.3   1 <1>  -0.1600 
 22 C        6.0520     3.3800    -0.6050 C.3   1 <1>  -0.1600 
 23 H        0.9590    -0.4420     0.0690 H     1 <1>   0.3700 
 24 H        2.5540    -3.0040    -0.9640 H     1 <1>   0.0800 
 25 H        2.0840    -3.5150     1.9720 H     1 <1>   0.0800 
 26 H        3.5180    -3.8840     1.0740 H     1 <1>   0.0800 
 27 H        0.3300     1.6960     1.6110 H     1 <1>   0.1500 
 28 H        0.7100    -2.8400    -2.3830 H     1 <1>   0.1500 
 29 H        0.0970    -2.2990     1.8150 H     1 <1>   0.1500 
 30 H        0.8040    -5.1660     0.6160 H     1 <1>   0.0800 
 31 H        2.1930    -5.9130     1.3600 H     1 <1>   0.0800 
 32 H        2.2360    -5.4920    -0.3340 H     1 <1>   0.0800 
 33 H        4.3040     0.5540    -0.9180 H     1 <1>   0.0800 
 34 H        1.5450     4.0080     1.8770 H     1 <1>   0.1500 
 35 H       -1.6920    -2.6020    -2.7540 H     1 <1>   0.1500 
 36 H       -2.3040    -2.0660     1.4250 H     1 <1>   0.1500 
 37 H        6.4230     0.5560     0.0650 H     1 <1>   0.0800 
 38 H        5.4580     0.8300     1.4970 H     1 <1>   0.0800 
 39 H        4.1960     3.1280    -1.7240 H     1 <1>   0.0800 
 40 H        5.4970     2.0540    -2.1850 H     1 <1>   0.0800 
 41 H       -3.2080    -2.2130    -0.8580 H     1 <1>   0.1500 
 42 H        7.4810     2.5150     0.7930 H     1 <1>   0.0800 
 43 H        6.0070     3.1230     1.5210 H     1 <1>   0.0800 
 44 H        5.6260     4.3320    -0.3360 H     1 <1>   0.0800 
 45 H        6.9190     3.5460    -1.2190 H     1 <1>   0.0800 
@<TRIPOS>BOND
  1   1   2  2   
  2   2   3  am  
  3   2   4  1   
  4   3   5  1   
  5   3  23  1   
  6   4   6  1   
  7   4   7  1   
  8   4  24  1   
  9   5   8  1   
 10   5   9  2   
 11   6  10  ar  
 12   6  11  ar  
 13   7  12  1   
 14   7  25  1   
 15   7  26  1   
 16   8  13  1   
 17   8  14  1   
 18   9  15  1   
 19   9  27  1   
 20  10  16  ar  
 21  10  28  1   
 22  11  17  ar  
 23  11  29  1   
 24  12  30  1   
 25  12  31  1   
 26  12  32  1   
 27  13  15  2   
 28  14  18  1   
 29  14  19  1   
 30  14  33  1   
 31  15  34  1   
 32  16  20  ar  
 33  16  35  1   
 34  17  20  ar  
 35  17  36  1   
 36  18  21  1   
 37  18  37  1   
 38  18  38  1   
 39  19  22  1   
 40  19  39  1   
 41  19  40  1   
 42  20  41  1   
 43  21  22  1   
 44  21  42  1   
 45  21  43  1   
 46  22  44  1   
 47  22  45  1   
@<TRIPOS>SUBSTRUCTURE
  1 ****   3 GROUP 4 **** **** 0

# MOE 2024.06 (io_trps.svl 2023.06)
