@<TRIPOS>MOLECULE
NONAME
52 54 1 0 0 
SMALL
USER_CHARGES


@<TRIPOS>ATOM
  1 O        2.0950    -1.6310    -3.5490 O.3   1 <1>  -0.8290 
  2 C        2.6440    -1.8130    -2.4550 C.ar  1 <1>   0.4490 
  3 N        2.2990    -2.9210    -1.7840 N.ar  1 <1>  -0.6200 
  4 N        3.5220    -0.8800    -2.0410 N.ar  1 <1>  -0.6200 
  5 C        2.8390    -3.0960    -0.5910 C.ar  1 <1>   0.3960 
  6 C        4.0650    -1.0750    -0.8770 C.ar  1 <1>   0.1660 
  7 C        2.4820    -4.2550     0.2390 C.2   1 <1>   0.5440 
  8 C        3.7540    -2.1720    -0.1100 C.ar  1 <1>  -0.1500 
  9 C        5.0650    -0.0400    -0.3860 C.3   1 <1>  -0.0170 
 10 O        3.2360    -4.6080     1.1360 O.2   1 <1>  -0.5700 
 11 N        1.2960    -4.9640     0.0940 N.am  1 <1>  -0.6600 
 12 C        4.3860     1.2400     0.1400 C.3   1 <1>  -0.0800 
 13 C        1.1910    -6.4380     0.3830 C.3   1 <1>   0.2200 
 14 C        0.0260    -4.2200    -0.1810 C.3   1 <1>   0.1400 
 15 C        5.4410     2.2930     0.5050 C.3   1 <1>  -0.2400 
 16 C        3.4920     0.9580     1.3550 C.3   1 <1>  -0.2400 
 17 C        2.5050    -7.2330     0.2240 C.3   1 <1>  -0.0170 
 18 C        0.1880    -7.1710    -0.5340 C.3   1 <1>  -0.0170 
 19 C       -0.8740    -4.2150     1.0600 C.3   1 <1>  -0.1600 
 20 C        2.0320    -8.6140    -0.1630 C.ar  1 <1>  -0.1440 
 21 C        0.7280    -8.5790    -0.5880 C.ar  1 <1>  -0.1440 
 22 C       -2.1350    -3.3760     0.8230 C.3   1 <1>  -0.2400 
 23 C        2.7340    -9.8040    -0.1280 C.ar  1 <1>  -0.1500 
 24 C        0.0840    -9.7340    -0.9920 C.ar  1 <1>  -0.1500 
 25 C        2.0980   -10.9690    -0.5300 C.ar  1 <1>  -0.1500 
 26 C        0.7790   -10.9340    -0.9600 C.ar  1 <1>  -0.1500 
 27 H        4.2060    -2.3150     0.8500 H     1 <1>   0.1500 
 28 H        5.7040     0.2120    -1.2130 H     1 <1>   0.0800 
 29 H        5.6810    -0.4690     0.3830 H     1 <1>   0.0800 
 30 H        3.7690     1.6350    -0.6520 H     1 <1>   0.0800 
 31 H        0.8630    -6.5620     1.4010 H     1 <1>   0.0800 
 32 H       -0.4810    -4.6490    -1.0260 H     1 <1>   0.0800 
 33 H        0.2410    -3.1970    -0.4360 H     1 <1>   0.0800 
 34 H        6.0780     1.9340     1.2930 H     1 <1>   0.0800 
 35 H        4.9630     3.1990     0.8310 H     1 <1>   0.0800 
 36 H        6.0470     2.5230    -0.3540 H     1 <1>   0.0800 
 37 H        4.0590     0.5140     2.1530 H     1 <1>   0.0800 
 38 H        2.6930     0.2900     1.0820 H     1 <1>   0.0800 
 39 H        3.0490     1.8710     1.7110 H     1 <1>   0.0800 
 40 H        3.0630    -7.2510     1.1420 H     1 <1>   0.0800 
 41 H        3.1030    -6.8310    -0.5750 H     1 <1>   0.0800 
 42 H        0.2100    -6.7600    -1.5270 H     1 <1>   0.0800 
 43 H       -0.8070    -7.1500    -0.1320 H     1 <1>   0.0800 
 44 H       -0.3250    -3.7980     1.8870 H     1 <1>   0.0800 
 45 H       -1.1660    -5.2170     1.3120 H     1 <1>   0.0800 
 46 H       -1.8690    -2.3590     0.5900 H     1 <1>   0.0800 
 47 H       -2.7500    -3.3760     1.7060 H     1 <1>   0.0800 
 48 H       -2.7060    -3.7790     0.0050 H     1 <1>   0.0800 
 49 H        3.7560    -9.8240     0.2060 H     1 <1>   0.1500 
 50 H       -0.9370    -9.7020    -1.3260 H     1 <1>   0.1500 
 51 H        2.6310   -11.9030    -0.5090 H     1 <1>   0.1500 
 52 H        0.2930   -11.8420    -1.2710 H     1 <1>   0.1500 
@<TRIPOS>BOND
  1   1   2  1   
  2   2   3  ar  
  3   2   4  ar  
  4   3   5  ar  
  5   4   6  ar  
  6   5   7  1   
  7   5   8  ar  
  8   6   8  ar  
  9   6   9  1   
 10   7  10  2   
 11   7  11  am  
 12   8  27  1   
 13   9  12  1   
 14   9  28  1   
 15   9  29  1   
 16  11  13  1   
 17  11  14  1   
 18  12  15  1   
 19  12  16  1   
 20  12  30  1   
 21  13  17  1   
 22  13  18  1   
 23  13  31  1   
 24  14  19  1   
 25  14  32  1   
 26  14  33  1   
 27  15  34  1   
 28  15  35  1   
 29  15  36  1   
 30  16  37  1   
 31  16  38  1   
 32  16  39  1   
 33  17  20  1   
 34  17  40  1   
 35  17  41  1   
 36  18  21  1   
 37  18  42  1   
 38  18  43  1   
 39  19  22  1   
 40  19  44  1   
 41  19  45  1   
 42  20  21  ar  
 43  20  23  ar  
 44  21  24  ar  
 45  22  46  1   
 46  22  47  1   
 47  22  48  1   
 48  23  25  ar  
 49  23  49  1   
 50  24  26  ar  
 51  24  50  1   
 52  25  26  ar  
 53  25  51  1   
 54  26  52  1   
@<TRIPOS>SUBSTRUCTURE
  1 ****   7 GROUP 4 **** **** 0

# MOE 2024.06 (io_trps.svl 2023.06)
