@<TRIPOS>MOLECULE
NONAME
47 50 1 0 0 
SMALL
USER_CHARGES


@<TRIPOS>ATOM
  1 O       -0.5150    -0.3530     1.0400 O.2   1 <1>  -0.5700 
  2 C       -1.2950     0.5270     0.7200 C.2   1 <1>   0.5440 
  3 N       -2.4430     0.1800     0.0270 N.am  1 <1>  -0.6600 
  4 C       -1.0140     1.8890     1.1150 C.ar  1 <1>   0.0860 
  5 C       -3.5840     1.1350    -0.1250 C.3   1 <1>   0.2200 
  6 C       -2.6420    -1.2370    -0.4050 C.3   1 <1>   0.0600 
  7 C       -0.7930     2.8960     0.1540 C.ar  1 <1>   0.0000 
  8 C       -0.9770     2.2660     2.4490 C.ar  1 <1>  -0.1500 
  9 C       -4.8870     0.6490     0.5030 C.3   1 <1>  -0.1600 
 10 C       -3.9580     1.4320    -1.5750 C.3   1 <1>  -0.1600 
 11 C       -0.6010     4.2210     0.5400 C.ar  1 <1>  -0.1520 
 12 C       -0.7160     2.8810    -1.2530 C.2   1 <1>  -0.1500 
 13 C       -0.7680     3.5910     2.8360 C.ar  1 <1>  -0.1500 
 14 C       -5.9630     1.5260    -0.1490 C.3   1 <1>  -0.0800 
 15 C       -5.3710     2.0210    -1.4830 C.3   1 <1>  -0.0800 
 16 N       -0.4380     4.9850    -0.5920 N.pl3 1 <1>   0.0480 
 17 C       -0.5870     4.5740     1.8900 C.ar  1 <1>  -0.1500 
 18 C       -0.5080     4.1530    -1.6700 C.2   1 <1>  -0.3020 
 19 C       -6.2980     2.7820     0.6690 C.3   1 <1>  -0.1600 
 20 C       -5.3770     3.5560    -1.4200 C.3   1 <1>  -0.1600 
 21 C       -0.1970     6.4360    -0.6320 C.3   1 <1>   0.0160 
 22 C       -6.4110     3.8970    -0.3580 C.3   1 <1>   0.2000 
 23 O       -6.1080     5.1080     0.2230 O.3   1 <1>  -0.6800 
 24 H       -3.3460     2.0740     0.3410 H     1 <1>   0.0800 
 25 H       -3.3090    -1.3000    -1.2440 H     1 <1>   0.0800 
 26 H       -3.0470    -1.8070     0.4130 H     1 <1>   0.0800 
 27 H       -1.6980    -1.6700    -0.6900 H     1 <1>   0.0800 
 28 H       -1.1160     1.5130     3.2050 H     1 <1>   0.1500 
 29 H       -5.0760    -0.3750     0.2350 H     1 <1>   0.0800 
 30 H       -4.8700     0.7380     1.5740 H     1 <1>   0.0800 
 31 H       -3.2650     2.1090    -2.0390 H     1 <1>   0.0800 
 32 H       -4.0000     0.5260    -2.1490 H     1 <1>   0.0800 
 33 H       -0.8070     1.9900    -1.8500 H     1 <1>   0.1500 
 34 H       -0.7500     3.8370     3.8840 H     1 <1>   0.1500 
 35 H       -6.8620     0.9590    -0.3280 H     1 <1>   0.0800 
 36 H       -5.9780     1.6880    -2.3080 H     1 <1>   0.0800 
 37 H       -0.4290     5.5980     2.1810 H     1 <1>   0.1500 
 38 H       -0.4000     4.5120    -2.6780 H     1 <1>   0.1500 
 39 H       -5.4990     3.0020     1.3560 H     1 <1>   0.0800 
 40 H       -7.2170     2.6620     1.2140 H     1 <1>   0.0800 
 41 H       -5.6400     3.9860    -2.3700 H     1 <1>   0.0800 
 42 H       -4.4110     3.9200    -1.1160 H     1 <1>   0.0800 
 43 H       -0.1130     6.7600    -1.6530 H     1 <1>   0.0800 
 44 H        0.7150     6.6570    -0.1090 H     1 <1>   0.0800 
 45 H       -1.0170     6.9450    -0.1600 H     1 <1>   0.0800 
 46 H       -7.4020     3.9430    -0.7780 H     1 <1>   0.0800 
 47 H       -5.2080     5.0770     0.5970 H     1 <1>   0.4000 
@<TRIPOS>BOND
  1   1   2  2   
  2   2   3  am  
  3   2   4  1   
  4   3   5  1   
  5   3   6  1   
  6   4   7  ar  
  7   4   8  ar  
  8   5   9  1   
  9   5  10  1   
 10   5  24  1   
 11   6  25  1   
 12   6  26  1   
 13   6  27  1   
 14   7  11  ar  
 15   7  12  1   
 16   8  13  ar  
 17   8  28  1   
 18   9  14  1   
 19   9  29  1   
 20   9  30  1   
 21  10  15  1   
 22  10  31  1   
 23  10  32  1   
 24  11  16  1   
 25  11  17  ar  
 26  12  18  2   
 27  12  33  1   
 28  13  17  ar  
 29  13  34  1   
 30  14  15  1   
 31  14  19  1   
 32  14  35  1   
 33  15  20  1   
 34  15  36  1   
 35  16  18  1   
 36  16  21  1   
 37  17  37  1   
 38  18  38  1   
 39  19  22  1   
 40  19  39  1   
 41  19  40  1   
 42  20  22  1   
 43  20  41  1   
 44  20  42  1   
 45  21  43  1   
 46  21  44  1   
 47  21  45  1   
 48  22  23  1   
 49  22  46  1   
 50  23  47  1   
@<TRIPOS>SUBSTRUCTURE
  1 ****   5 GROUP 4 **** **** 0

# MOE 2024.06 (io_trps.svl 2023.06)
