@<TRIPOS>MOLECULE
NONAME
57 58 1 0 0 
SMALL
USER_CHARGES


@<TRIPOS>ATOM
  1 CL       1.1960    -1.3660    -1.0040 Cl    1 <1>  -0.1770 
  2 C        0.1450    -2.5780    -0.2940 C.ar  1 <1>   0.1770 
  3 C        0.6370    -3.8590    -0.0790 C.ar  1 <1>  -0.1440 
  4 C       -1.1580    -2.2330     0.0400 C.ar  1 <1>  -0.1440 
  5 C       -0.1990    -4.8130     0.4800 C.ar  1 <1>  -0.1500 
  6 C        2.0690    -4.2230    -0.4470 C.3   1 <1>  -0.0960 
  7 C       -1.9780    -3.2000     0.5970 C.ar  1 <1>  -0.1500 
  8 C       -1.6820    -0.8230    -0.1920 C.3   1 <1>  -0.0960 
  9 C       -1.5110    -4.4860     0.8170 C.ar  1 <1>   0.0830 
 10 O       -2.3980    -5.3670     1.3470 O.3   1 <1>  -0.3630 
 11 C       -1.9910    -6.6390     1.8310 C.3   1 <1>   0.2610 
 12 C       -1.7320    -7.6820     0.7210 C.2   1 <1>   0.5690 
 13 C       -3.0680    -7.1160     2.8110 C.3   1 <1>  -0.2400 
 14 O       -0.7720    -8.3970     0.8900 O.2   1 <1>  -0.5700 
 15 N       -2.5430    -7.8560    -0.3840 N.am  1 <1>  -0.6600 
 16 C       -2.4480    -9.1570    -1.1220 C.3   1 <1>   0.3210 
 17 C       -3.2390    -6.7400    -1.1050 C.3   1 <1>   0.1400 
 18 C       -3.2450   -10.2410    -0.3980 C.2   1 <1>   0.0460 
 19 C       -4.6050    -6.3840    -0.4880 C.3   1 <1>   0.3430 
 20 N       -4.5970   -10.2630    -0.4290 N.2   1 <1>  -0.5650 
 21 C       -2.7670   -11.2790     0.3290 C.2   1 <1>  -0.3320 
 22 N       -5.5300    -7.5560    -0.4650 N.4   1 <1>  -0.9590 
 23 C       -4.9050   -11.3140     0.2620 C.2   1 <1>   0.0360 
 24 N       -3.8370   -11.9730     0.7530 N.pl3 1 <1>   0.0330 
 25 C       -1.3450   -11.6910     0.6750 C.3   1 <1>  -0.0600 
 26 C       -6.1430    -7.8440    -1.7950 C.3   1 <1>   0.2630 
 27 C       -6.5720    -7.4300     0.5910 C.3   1 <1>   0.2630 
 28 H        0.1920    -5.8000     0.6410 H     1 <1>   0.1500 
 29 H        2.7570    -3.6030     0.1010 H     1 <1>   0.0800 
 30 H        2.2290    -4.0690    -1.5000 H     1 <1>   0.0800 
 31 H        2.2810    -5.2510    -0.2180 H     1 <1>   0.0800 
 32 H       -2.9880    -2.9590     0.8730 H     1 <1>   0.1500 
 33 H       -1.0960    -0.1180     0.3700 H     1 <1>   0.0800 
 34 H       -2.7080    -0.7330     0.1170 H     1 <1>   0.0800 
 35 H       -1.6170    -0.5710    -1.2350 H     1 <1>   0.0800 
 36 H       -1.0800    -6.4950     2.3870 H     1 <1>   0.0800 
 37 H       -3.9930    -7.3020     2.3010 H     1 <1>   0.0800 
 38 H       -3.2160    -6.3830     3.5840 H     1 <1>   0.0800 
 39 H       -2.7480    -8.0340     3.2720 H     1 <1>   0.0800 
 40 H       -1.4180    -9.4570    -1.2000 H     1 <1>   0.0800 
 41 H       -2.8260    -9.0600    -2.1230 H     1 <1>   0.0800 
 42 H       -3.3750    -6.9950    -2.1400 H     1 <1>   0.0800 
 43 H       -2.6100    -5.8680    -1.0950 H     1 <1>   0.0800 
 44 H       -5.0510    -5.5760    -1.0430 H     1 <1>   0.0800 
 45 H       -4.4400    -6.0360     0.5170 H     1 <1>   0.0800 
 46 H       -4.9490    -8.4000    -0.2330 H     1 <1>   0.4500 
 47 H       -5.9100   -11.6560     0.4430 H     1 <1>   0.1500 
 48 H       -3.8400   -12.8260     1.3220 H     1 <1>   0.2700 
 49 H       -0.6290   -11.0230     0.2320 H     1 <1>   0.0800 
 50 H       -1.1460   -12.6860     0.3160 H     1 <1>   0.0800 
 51 H       -1.2030   -11.6690     1.7410 H     1 <1>   0.0800 
 52 H       -6.7680    -7.0250    -2.1100 H     1 <1>   0.0800 
 53 H       -6.7420    -8.7390    -1.7360 H     1 <1>   0.0800 
 54 H       -5.3750    -8.0050    -2.5330 H     1 <1>   0.0800 
 55 H       -7.2140    -6.5890     0.3880 H     1 <1>   0.0800 
 56 H       -6.1110    -7.2930     1.5550 H     1 <1>   0.0800 
 57 H       -7.1720    -8.3260     0.6250 H     1 <1>   0.0800 
@<TRIPOS>BOND
  1   1   2  1   
  2   2   3  ar  
  3   2   4  ar  
  4   3   5  ar  
  5   3   6  1   
  6   4   7  ar  
  7   4   8  1   
  8   5   9  ar  
  9   5  28  1   
 10   6  29  1   
 11   6  30  1   
 12   6  31  1   
 13   7   9  ar  
 14   7  32  1   
 15   8  33  1   
 16   8  34  1   
 17   8  35  1   
 18   9  10  1   
 19  10  11  1   
 20  11  12  1   
 21  11  13  1   
 22  11  36  1   
 23  12  14  2   
 24  12  15  am  
 25  13  37  1   
 26  13  38  1   
 27  13  39  1   
 28  15  16  1   
 29  15  17  1   
 30  16  18  1   
 31  16  40  1   
 32  16  41  1   
 33  17  19  1   
 34  17  42  1   
 35  17  43  1   
 36  18  20  1   
 37  18  21  2   
 38  19  22  1   
 39  19  44  1   
 40  19  45  1   
 41  20  23  2   
 42  21  24  1   
 43  21  25  1   
 44  22  26  1   
 45  22  27  1   
 46  22  46  1   
 47  23  24  1   
 48  23  47  1   
 49  24  48  1   
 50  25  49  1   
 51  25  50  1   
 52  25  51  1   
 53  26  52  1   
 54  26  53  1   
 55  26  54  1   
 56  27  55  1   
 57  27  56  1   
 58  27  57  1   
@<TRIPOS>SUBSTRUCTURE
  1 ****  15 GROUP 4 **** **** 0

# MOE 2024.06 (io_trps.svl 2023.06)
