@<TRIPOS>MOLECULE
NONAME
39 40 1 0 0 
SMALL
USER_CHARGES


@<TRIPOS>ATOM
  1 O       -0.1220     1.0830     0.8050 O.3   1 <1>  -0.0190 
  2 N       -0.5530     1.5720    -0.3210 N.2   1 <1>  -0.4100 
  3 C        1.1510     1.3150     0.9820 C.2   1 <1>  -0.0400 
  4 C        0.4600     2.1280    -0.8810 C.2   1 <1>   0.1080 
  5 C        1.5980     1.9960    -0.0860 C.2   1 <1>  -0.1810 
  6 C        1.8270     0.8250     2.2450 C.3   1 <1>  -0.0600 
  7 C        0.4000     2.8250    -2.2240 C.3   1 <1>  -0.0590 
  8 C        2.9790     2.5230    -0.4030 C.3   1 <1>   0.3900 
  9 N        2.9540     3.9830    -0.2210 N.pl3 1 <1>  -0.8690 
 10 C        4.0870     4.7520    -0.2050 C.ar  1 <1>   0.4100 
 11 N        5.1980     4.1770    -0.6160 N.ar  1 <1>  -0.6200 
 12 C        4.0630     6.0740     0.2260 C.ar  1 <1>  -0.1440 
 13 C        6.2790     4.9280    -0.5930 C.ar  1 <1>   0.4770 
 14 C        5.2630     6.7420     0.2020 C.ar  1 <1>   0.1600 
 15 C        2.7480     6.7090     0.6900 C.3   1 <1>  -0.0160 
 16 N        6.3850     6.1830    -0.2040 N.ar  1 <1>  -0.6200 
 17 C        7.5570     4.2770    -1.0640 C.3   1 <1>  -0.0970 
 18 C        2.8330     8.1940     1.0730 C.3   1 <1>  -0.1600 
 19 C        1.4660     8.7380     1.5010 C.3   1 <1>  -0.2400 
 20 H        1.3390     1.2480     3.1040 H     1 <1>   0.0800 
 21 H        2.8630     1.1110     2.2590 H     1 <1>   0.0800 
 22 H        1.7590    -0.2470     2.3000 H     1 <1>   0.0800 
 23 H       -0.6170     2.8690    -2.5690 H     1 <1>   0.0800 
 24 H        0.9880     2.2850    -2.9420 H     1 <1>   0.0800 
 25 H        0.7800     3.8260    -2.1360 H     1 <1>   0.0800 
 26 H        3.2510     2.2880    -1.4170 H     1 <1>   0.0800 
 27 H        3.7090     2.0890     0.2590 H     1 <1>   0.0800 
 28 H        2.1490     4.2990     0.3200 H     1 <1>   0.4000 
 29 H        5.3340     7.7670     0.5200 H     1 <1>   0.1500 
 30 H        2.3860     6.1560     1.5390 H     1 <1>   0.0800 
 31 H        2.0260     6.6030    -0.1020 H     1 <1>   0.0800 
 32 H        7.3420     3.3780    -1.6100 H     1 <1>   0.0800 
 33 H        8.1660     4.0380    -0.2130 H     1 <1>   0.0800 
 34 H        8.0930     4.9530    -1.7030 H     1 <1>   0.0800 
 35 H        3.1880     8.7650     0.2320 H     1 <1>   0.0800 
 36 H        3.5270     8.3190     1.8880 H     1 <1>   0.0800 
 37 H        0.7550     8.6490     0.6980 H     1 <1>   0.0800 
 38 H        1.5510     9.7780     1.7640 H     1 <1>   0.0800 
 39 H        1.0950     8.2000     2.3560 H     1 <1>   0.0800 
@<TRIPOS>BOND
  1   1   2  1   
  2   1   3  1   
  3   2   4  2   
  4   3   5  2   
  5   3   6  1   
  6   4   5  1   
  7   4   7  1   
  8   5   8  1   
  9   6  20  1   
 10   6  21  1   
 11   6  22  1   
 12   7  23  1   
 13   7  24  1   
 14   7  25  1   
 15   8   9  1   
 16   8  26  1   
 17   8  27  1   
 18   9  10  1   
 19   9  28  1   
 20  10  11  ar  
 21  10  12  ar  
 22  11  13  ar  
 23  12  14  ar  
 24  12  15  1   
 25  13  16  ar  
 26  13  17  1   
 27  14  16  ar  
 28  14  29  1   
 29  15  18  1   
 30  15  30  1   
 31  15  31  1   
 32  17  32  1   
 33  17  33  1   
 34  17  34  1   
 35  18  19  1   
 36  18  35  1   
 37  18  36  1   
 38  19  37  1   
 39  19  38  1   
 40  19  39  1   
@<TRIPOS>SUBSTRUCTURE
  1 ****   9 GROUP 4 **** **** 0

# MOE 2024.06 (io_trps.svl 2023.06)
