@<TRIPOS>MOLECULE
NONAME
54 55 1 0 0 
SMALL
USER_CHARGES


@<TRIPOS>ATOM
  1 S       -0.6070    -0.1070     1.3340 S.o2  1 <1>   1.5760 
  2 O       -1.3660     1.0510     1.7480 O.2   1 <1>  -0.6500 
  3 O        0.0390    -0.9440     2.3190 O.2   1 <1>  -0.6500 
  4 N       -1.6340    -1.0930     0.4250 N.am  1 <1>  -0.8490 
  5 N        0.5030     0.3630     0.1560 N.am  1 <1>  -0.8490 
  6 C       -2.9380    -1.2340     1.0870 C.3   1 <1>   0.1960 
  7 C       -0.9780    -2.3010    -0.0970 C.3   1 <1>   0.1960 
  8 C        1.7080     0.9220     0.7680 C.3   1 <1>   0.1960 
  9 C       -0.0880     1.3020    -0.8030 C.3   1 <1>   0.1960 
 10 C       -3.8630    -2.3230     0.5190 C.3   1 <1>   0.3430 
 11 C       -1.1090    -3.5260     0.8070 C.3   1 <1>  -0.1600 
 12 C        2.7650     1.2060    -0.3050 C.3   1 <1>  -0.1600 
 13 C        0.9010     1.5930    -1.9360 C.3   1 <1>  -0.1600 
 14 N       -3.6070    -3.6730     1.1100 N.4   1 <1>  -0.9590 
 15 C       -2.3860    -4.3010     0.5150 C.3   1 <1>   0.3430 
 16 C        2.2250     2.1420    -1.3930 C.3   1 <1>  -0.1600 
 17 C       -4.7890    -4.5290     0.7910 C.3   1 <1>   0.3430 
 18 C       -4.7690    -5.8980     1.4850 C.3   1 <1>  -0.1600 
 19 C       -5.4560    -6.9340     0.5810 C.3   1 <1>  -0.1600 
 20 C       -4.5100    -7.5890    -0.4750 C.3   1 <1>  -0.2920 
 21 C       -3.5060    -6.6850    -1.1290 C.2   1 <1>   0.9060 
 22 C       -5.2310    -8.3110    -1.5780 C.2   1 <1>   0.9060 
 23 O       -2.3250    -6.7740    -0.7610 O.co2 1 <1>  -0.9000 
 24 O       -3.8500    -5.6800    -1.7690 O.co2 1 <1>  -0.9000 
 25 O       -4.6880    -9.2900    -2.1020 O.co2 1 <1>  -0.9000 
 26 O       -6.4080    -8.0190    -1.8370 O.co2 1 <1>  -0.9000 
 27 H       -3.4480    -0.2900     0.9930 H     1 <1>   0.0800 
 28 H       -2.7970    -1.4120     2.1400 H     1 <1>   0.0800 
 29 H        0.0690    -2.1020    -0.2570 H     1 <1>   0.0800 
 30 H       -1.3910    -2.5320    -1.0660 H     1 <1>   0.0800 
 31 H        2.1160     0.2190     1.4760 H     1 <1>   0.0800 
 32 H        1.4640     1.8300     1.2960 H     1 <1>   0.0800 
 33 H       -0.3530     2.2200    -0.3040 H     1 <1>   0.0800 
 34 H       -0.9850     0.8760    -1.2220 H     1 <1>   0.0800 
 35 H       -3.7690    -2.3620    -0.5540 H     1 <1>   0.0800 
 36 H       -4.8760    -2.0400     0.7480 H     1 <1>   0.0800 
 37 H       -1.0030    -3.2910     1.8490 H     1 <1>   0.0800 
 38 H       -0.3010    -4.1880     0.5500 H     1 <1>   0.0800 
 39 H        3.0670     0.2720    -0.7470 H     1 <1>   0.0800 
 40 H        3.6320     1.6470     0.1550 H     1 <1>   0.0800 
 41 H        0.4660     2.3030    -2.6160 H     1 <1>   0.0800 
 42 H        1.0800     0.6820    -2.4810 H     1 <1>   0.0800 
 43 H       -3.4870    -3.6330     2.1250 H     1 <1>   0.4500 
 44 H       -2.2640    -5.2960     0.9070 H     1 <1>   0.0800 
 45 H       -2.5040    -4.4000    -0.5520 H     1 <1>   0.0800 
 46 H        2.9420     2.2350    -2.1900 H     1 <1>   0.0800 
 47 H        2.0610     3.1200    -0.9730 H     1 <1>   0.0800 
 48 H       -4.8520    -4.6640    -0.2730 H     1 <1>   0.0800 
 49 H       -5.6940    -4.0240     1.0820 H     1 <1>   0.0800 
 50 H       -5.3190    -5.8210     2.4050 H     1 <1>   0.0800 
 51 H       -3.7790    -6.2460     1.7130 H     1 <1>   0.0800 
 52 H       -6.2870    -6.4690     0.0760 H     1 <1>   0.0800 
 53 H       -5.8650    -7.7280     1.1820 H     1 <1>   0.0800 
 54 H       -3.9390    -8.3390     0.0330 H     1 <1>   0.0800 
@<TRIPOS>BOND
  1   1   2  2   
  2   1   3  2   
  3   1   4  am  
  4   1   5  am  
  5   4   6  1   
  6   4   7  1   
  7   5   8  1   
  8   5   9  1   
  9   6  10  1   
 10   6  27  1   
 11   6  28  1   
 12   7  11  1   
 13   7  29  1   
 14   7  30  1   
 15   8  12  1   
 16   8  31  1   
 17   8  32  1   
 18   9  13  1   
 19   9  33  1   
 20   9  34  1   
 21  10  14  1   
 22  10  35  1   
 23  10  36  1   
 24  11  15  1   
 25  11  37  1   
 26  11  38  1   
 27  12  16  1   
 28  12  39  1   
 29  12  40  1   
 30  13  16  1   
 31  13  41  1   
 32  13  42  1   
 33  14  15  1   
 34  14  17  1   
 35  14  43  1   
 36  15  44  1   
 37  15  45  1   
 38  16  46  1   
 39  16  47  1   
 40  17  18  1   
 41  17  48  1   
 42  17  49  1   
 43  18  19  1   
 44  18  50  1   
 45  18  51  1   
 46  19  20  1   
 47  19  52  1   
 48  19  53  1   
 49  20  21  1   
 50  20  22  1   
 51  20  54  1   
 52  21  23  ar  
 53  21  24  ar  
 54  22  25  ar  
 55  22  26  ar  
@<TRIPOS>SUBSTRUCTURE
  1 ****  15 GROUP 4 **** **** 0

# MOE 2024.06 (io_trps.svl 2023.06)
