@<TRIPOS>MOLECULE
NONAME
44 47 1 0 0 
SMALL
USER_CHARGES


@<TRIPOS>ATOM
  1 O       -2.2430     0.7390    -2.1960 O.2   1 <1>  -0.5700 
  2 C       -2.1720     1.0110    -1.0160 C.2   1 <1>   0.5440 
  3 N       -2.2870    -0.0070    -0.1130 N.am  1 <1>  -0.7300 
  4 C       -1.9660     2.3780    -0.5960 C.ar  1 <1>   0.0860 
  5 C       -2.4610    -1.4370    -0.4600 C.3   1 <1>   0.2200 
  6 C       -1.5090     3.3450    -1.4730 C.ar  1 <1>   0.1600 
  7 C       -2.2060     2.8280     0.6900 C.ar  1 <1>   0.1600 
  8 C       -3.8890    -1.8550    -0.1490 C.3   1 <1>  -0.0800 
  9 C       -1.6730    -2.2880     0.5270 C.3   1 <1>   0.1200 
 10 N       -1.2980     4.5970    -1.1250 N.ar  1 <1>  -0.6200 
 11 N       -2.0060     4.0690     1.0740 N.ar  1 <1>  -0.6200 
 12 C       -3.8180    -2.2120     1.3430 C.3   1 <1>   0.1200 
 13 C       -4.3260    -3.0510    -1.0170 C.3   1 <1>  -0.0170 
 14 O       -2.4640    -2.3430     1.6730 O.3   1 <1>  -0.5600 
 15 C       -1.5550     4.8930     0.1390 C.ar  1 <1>   0.5880 
 16 C       -5.7600    -3.4630    -0.7210 C.ar  1 <1>  -0.1430 
 17 C       -1.3150     6.3360     0.5620 C.3   1 <1>  -0.0680 
 18 C       -6.8340    -2.7220    -1.1700 C.ar  1 <1>  -0.1500 
 19 C       -6.0640    -4.5950     0.0080 C.ar  1 <1>  -0.1500 
 20 C        0.0220     6.9920     0.3630 C.3   1 <1>  -0.2000 
 21 C       -0.4500     6.6680     1.7450 C.3   1 <1>  -0.2000 
 22 C       -8.1230    -3.1340    -0.8740 C.ar  1 <1>   0.1600 
 23 C       -7.3890    -4.9190     0.2500 C.ar  1 <1>   0.1600 
 24 N       -8.4260    -4.2140    -0.1710 N.ar  1 <1>  -0.6200 
 25 H       -2.1870     0.1460     0.8930 H     1 <1>   0.3700 
 26 H       -2.1710    -1.6220    -1.4820 H     1 <1>   0.0800 
 27 H       -1.3110     3.0700    -2.4960 H     1 <1>   0.1500 
 28 H       -2.5800     2.1440     1.4300 H     1 <1>   0.1500 
 29 H       -4.5740    -1.0430    -0.3170 H     1 <1>   0.0800 
 30 H       -0.7120    -1.8680     0.7670 H     1 <1>   0.0800 
 31 H       -1.5520    -3.2920     0.1600 H     1 <1>   0.0800 
 32 H       -4.3200    -3.1330     1.5780 H     1 <1>   0.0800 
 33 H       -4.2260    -1.4210     1.9480 H     1 <1>   0.0800 
 34 H       -3.6700    -3.8880    -0.8570 H     1 <1>   0.0800 
 35 H       -4.2560    -2.7790    -2.0570 H     1 <1>   0.0800 
 36 H       -2.1900     6.9390     0.4040 H     1 <1>   0.1000 
 37 H       -6.6830    -1.8300    -1.7500 H     1 <1>   0.1500 
 38 H       -5.2860    -5.2300     0.3910 H     1 <1>   0.1500 
 39 H        0.8180     6.4090    -0.0680 H     1 <1>   0.1000 
 40 H        0.0430     8.0190     0.0420 H     1 <1>   0.1000 
 41 H       -0.7580     7.4670     2.3950 H     1 <1>   0.1000 
 42 H        0.0190     5.8590     2.2780 H     1 <1>   0.1000 
 43 H       -8.9490    -2.5440    -1.2330 H     1 <1>   0.1500 
 44 H       -7.6070    -5.8050     0.8210 H     1 <1>   0.1500 
@<TRIPOS>BOND
  1   1   2  2   
  2   2   3  am  
  3   2   4  1   
  4   3   5  1   
  5   3  25  1   
  6   4   6  ar  
  7   4   7  ar  
  8   5   8  1   
  9   5   9  1   
 10   5  26  1   
 11   6  10  ar  
 12   6  27  1   
 13   7  11  ar  
 14   7  28  1   
 15   8  12  1   
 16   8  13  1   
 17   8  29  1   
 18   9  14  1   
 19   9  30  1   
 20   9  31  1   
 21  10  15  ar  
 22  11  15  ar  
 23  12  14  1   
 24  12  32  1   
 25  12  33  1   
 26  13  16  1   
 27  13  34  1   
 28  13  35  1   
 29  15  17  1   
 30  16  18  ar  
 31  16  19  ar  
 32  17  20  1   
 33  17  21  1   
 34  17  36  1   
 35  18  22  ar  
 36  18  37  1   
 37  19  23  ar  
 38  19  38  1   
 39  20  21  1   
 40  20  39  1   
 41  20  40  1   
 42  21  41  1   
 43  21  42  1   
 44  22  24  ar  
 45  22  43  1   
 46  23  24  ar  
 47  23  44  1   
@<TRIPOS>SUBSTRUCTURE
  1 ****   3 GROUP 4 **** **** 0

# MOE 2024.06 (io_trps.svl 2023.06)
