@<TRIPOS>MOLECULE
NONAME
40 42 1 0 0 
SMALL
USER_CHARGES


@<TRIPOS>ATOM
  1 CL       1.7550    -0.5410     2.6770 Cl    1 <1>  -0.1770 
  2 C        2.1490     0.5660     1.3870 C.ar  1 <1>   0.1770 
  3 C        2.3730     0.0840     0.1000 C.ar  1 <1>   0.0860 
  4 C        2.2060     1.9150     1.6890 C.ar  1 <1>  -0.1500 
  5 C        2.6450     1.0320    -0.8810 C.ar  1 <1>   0.1770 
  6 C        2.3220    -1.3220    -0.2020 C.2   1 <1>   0.5440 
  7 C        2.4880     2.8330     0.6910 C.ar  1 <1>  -0.1500 
  8 CL       2.9060     0.5310    -2.5330 Cl    1 <1>  -0.1770 
  9 C        2.7060     2.3860    -0.6020 C.ar  1 <1>  -0.1500 
 10 O        3.3470    -1.9700    -0.1140 O.2   1 <1>  -0.5700 
 11 N        1.1520    -1.9460    -0.5900 N.am  1 <1>  -0.6600 
 12 C       -0.1640    -1.2390    -0.5700 C.3   1 <1>   0.2200 
 13 C        1.1800    -3.3730    -1.0380 C.3   1 <1>   0.0600 
 14 C       -1.3160    -2.0440     0.0280 C.3   1 <1>  -0.1600 
 15 C       -0.6460    -0.8620    -1.9660 C.3   1 <1>  -0.1600 
 16 C       -2.5760    -1.3600    -0.5170 C.3   1 <1>  -0.0800 
 17 C       -2.1500    -0.6130    -1.7950 C.3   1 <1>  -0.0800 
 18 C       -3.1570    -0.3010     0.4320 C.3   1 <1>  -0.1600 
 19 C       -2.5010     0.8650    -1.5700 C.3   1 <1>  -0.1600 
 20 C       -3.5590     0.8480    -0.4790 C.3   1 <1>   0.2000 
 21 O       -3.5440     2.0350     0.2180 O.3   1 <1>  -0.6800 
 22 H        2.0310     2.2430     2.6990 H     1 <1>   0.1500 
 23 H        2.5370     3.8860     0.9180 H     1 <1>   0.1500 
 24 H        2.9230     3.0830    -1.3920 H     1 <1>   0.1500 
 25 H       -0.0880    -0.3340     0.0050 H     1 <1>   0.0800 
 26 H        0.4790    -3.5350    -1.8360 H     1 <1>   0.0800 
 27 H        0.9340    -4.0140    -0.2100 H     1 <1>   0.0800 
 28 H        2.1610    -3.6360    -1.3960 H     1 <1>   0.0800 
 29 H       -1.3070    -3.0560    -0.3320 H     1 <1>   0.0800 
 30 H       -1.2790    -2.0510     1.1030 H     1 <1>   0.0800 
 31 H       -0.1260    -0.0040    -2.3520 H     1 <1>   0.0800 
 32 H       -0.5060    -1.6870    -2.6400 H     1 <1>   0.0800 
 33 H       -3.3340    -2.0910    -0.7490 H     1 <1>   0.0800 
 34 H       -2.6960    -0.9900    -2.6450 H     1 <1>   0.0800 
 35 H       -2.4040     0.0300     1.1250 H     1 <1>   0.0800 
 36 H       -4.0030    -0.6830     0.9740 H     1 <1>   0.0800 
 37 H       -2.8780     1.3190    -2.4700 H     1 <1>   0.0800 
 38 H       -1.6360     1.4060    -1.2290 H     1 <1>   0.0800 
 39 H       -4.5430     0.6920    -0.8920 H     1 <1>   0.0800 
 40 H       -2.6670     2.1750     0.6190 H     1 <1>   0.4000 
@<TRIPOS>BOND
  1   1   2  1   
  2   2   3  ar  
  3   2   4  ar  
  4   3   5  ar  
  5   3   6  1   
  6   4   7  ar  
  7   4  22  1   
  8   5   8  1   
  9   5   9  ar  
 10   6  10  2   
 11   6  11  am  
 12   7   9  ar  
 13   7  23  1   
 14   9  24  1   
 15  11  12  1   
 16  11  13  1   
 17  12  14  1   
 18  12  15  1   
 19  12  25  1   
 20  13  26  1   
 21  13  27  1   
 22  13  28  1   
 23  14  16  1   
 24  14  29  1   
 25  14  30  1   
 26  15  17  1   
 27  15  31  1   
 28  15  32  1   
 29  16  17  1   
 30  16  18  1   
 31  16  33  1   
 32  17  19  1   
 33  17  34  1   
 34  18  20  1   
 35  18  35  1   
 36  18  36  1   
 37  19  20  1   
 38  19  37  1   
 39  19  38  1   
 40  20  21  1   
 41  20  39  1   
 42  21  40  1   
@<TRIPOS>SUBSTRUCTURE
  1 ****  12 GROUP 4 **** **** 0

# MOE 2024.06 (io_trps.svl 2023.06)
