@<TRIPOS>MOLECULE
NONAME
59 61 1 0 0 
SMALL
USER_CHARGES


@<TRIPOS>ATOM
  1 CL       0.4620     0.3240     3.1330 Cl    1 <1>  -0.1770 
  2 C        1.4600    -0.6650     2.0990 C.ar  1 <1>   0.1770 
  3 C        2.3880    -0.0620     1.2750 C.ar  1 <1>  -0.1500 
  4 C        1.2910    -2.0340     2.1220 C.ar  1 <1>  -0.1500 
  5 C        3.1800    -0.8460     0.4430 C.ar  1 <1>   0.0830 
  6 C        2.0720    -2.8290     1.2970 C.ar  1 <1>  -0.1440 
  7 O        4.0800    -0.2880    -0.4150 O.3   1 <1>  -0.3620 
  8 C        3.0290    -2.2440     0.4700 C.ar  1 <1>   0.0830 
  9 C        1.8780    -4.3330     1.2920 C.3   1 <1>   0.4870 
 10 C        4.2800     1.1080    -0.4960 C.3   1 <1>   0.0400 
 11 O        3.7610    -3.1040    -0.2980 O.3   1 <1>  -0.3630 
 12 N        1.5200    -4.8000    -0.0820 N.4   1 <1>  -0.9590 
 13 C        5.1490    -2.8970    -0.4720 C.3   1 <1>   0.1200 
 14 C        0.1400    -4.5420    -0.5940 C.3   1 <1>   0.4230 
 15 C        1.8780    -6.2380    -0.2430 C.3   1 <1>   0.2630 
 16 C        5.8030    -4.2520    -0.7490 C.3   1 <1>  -0.1600 
 17 C       -0.9840    -4.6810     0.4300 C.3   1 <1>  -0.1600 
 18 C       -0.0560    -3.1490    -1.1810 C.3   1 <1>  -0.1600 
 19 C        7.3140    -4.1040    -0.9500 C.3   1 <1>  -0.2400 
 20 C       -2.1820    -3.9970    -0.2430 C.3   1 <1>  -0.0800 
 21 C       -1.5800    -2.9750    -1.2380 C.3   1 <1>  -0.0800 
 22 C       -3.1920    -3.4110     0.7660 C.3   1 <1>   0.1400 
 23 C       -2.0380    -1.5270    -0.9870 C.3   1 <1>  -0.0990 
 24 N       -4.0660    -2.4200     0.0940 N.am  1 <1>  -0.6600 
 25 C       -3.5350    -1.4850    -0.7520 C.2   1 <1>   0.5690 
 26 C       -5.5130    -2.4540     0.4390 C.3   1 <1>   0.0600 
 27 O       -4.1930    -0.6420    -1.3120 O.2   1 <1>  -0.5700 
 28 H        2.4630     1.0080     1.3020 H     1 <1>   0.1500 
 29 H        0.5510    -2.4510     2.7830 H     1 <1>   0.1500 
 30 H        1.1250    -4.6250     2.0040 H     1 <1>   0.0800 
 31 H        2.8110    -4.7840     1.5910 H     1 <1>   0.0800 
 32 H        5.0360     1.2950    -1.2380 H     1 <1>   0.0800 
 33 H        4.6120     1.4720     0.4600 H     1 <1>   0.0800 
 34 H        3.3580     1.5790    -0.7920 H     1 <1>   0.0800 
 35 H        2.1650    -4.2480    -0.6790 H     1 <1>   0.4500 
 36 H        5.2940    -2.2310    -1.3060 H     1 <1>   0.0800 
 37 H        5.5520    -2.4540     0.4230 H     1 <1>   0.0800 
 38 H       -0.0640    -5.2370    -1.3920 H     1 <1>   0.0800 
 39 H        1.2560    -6.8540     0.3870 H     1 <1>   0.0800 
 40 H        2.9110    -6.3990     0.0240 H     1 <1>   0.0800 
 41 H        1.7410    -6.5440    -1.2680 H     1 <1>   0.0800 
 42 H        5.6250    -4.9120     0.0810 H     1 <1>   0.0800 
 43 H        5.3730    -4.6800    -1.6380 H     1 <1>   0.0800 
 44 H       -1.1990    -5.7110     0.6550 H     1 <1>   0.0800 
 45 H       -0.7520    -4.1470     1.3320 H     1 <1>   0.0800 
 46 H        0.3600    -2.3930    -0.5460 H     1 <1>   0.0800 
 47 H        0.3800    -3.0680    -2.1610 H     1 <1>   0.0800 
 48 H        7.7750    -3.6900    -0.0700 H     1 <1>   0.0800 
 49 H        7.5230    -3.4590    -1.7860 H     1 <1>   0.0800 
 50 H        7.7570    -5.0660    -1.1450 H     1 <1>   0.0800 
 51 H       -2.7080    -4.7380    -0.8220 H     1 <1>   0.0800 
 52 H       -1.9210    -3.2520    -2.2240 H     1 <1>   0.0800 
 53 H       -2.6790    -2.9100     1.5690 H     1 <1>   0.0800 
 54 H       -3.7880    -4.2030     1.1880 H     1 <1>   0.0800 
 55 H       -1.7920    -0.9070    -1.8300 H     1 <1>   0.0800 
 56 H       -1.5600    -1.1170    -0.1160 H     1 <1>   0.0800 
 57 H       -5.9340    -3.4030     0.1570 H     1 <1>   0.0800 
 58 H       -6.0450    -1.6750    -0.0810 H     1 <1>   0.0800 
 59 H       -5.6400    -2.3070     1.4970 H     1 <1>   0.0800 
@<TRIPOS>BOND
  1   1   2  1   
  2   2   3  ar  
  3   2   4  ar  
  4   3   5  ar  
  5   3  28  1   
  6   4   6  ar  
  7   4  29  1   
  8   5   7  1   
  9   5   8  ar  
 10   6   8  ar  
 11   6   9  1   
 12   7  10  1   
 13   8  11  1   
 14   9  12  1   
 15   9  30  1   
 16   9  31  1   
 17  10  32  1   
 18  10  33  1   
 19  10  34  1   
 20  11  13  1   
 21  12  14  1   
 22  12  15  1   
 23  12  35  1   
 24  13  16  1   
 25  13  36  1   
 26  13  37  1   
 27  14  17  1   
 28  14  18  1   
 29  14  38  1   
 30  15  39  1   
 31  15  40  1   
 32  15  41  1   
 33  16  19  1   
 34  16  42  1   
 35  16  43  1   
 36  17  20  1   
 37  17  44  1   
 38  17  45  1   
 39  18  21  1   
 40  18  46  1   
 41  18  47  1   
 42  19  48  1   
 43  19  49  1   
 44  19  50  1   
 45  20  21  1   
 46  20  22  1   
 47  20  51  1   
 48  21  23  1   
 49  21  52  1   
 50  22  24  1   
 51  22  53  1   
 52  22  54  1   
 53  23  25  1   
 54  23  55  1   
 55  23  56  1   
 56  24  25  am  
 57  24  26  1   
 58  25  27  2   
 59  26  57  1   
 60  26  58  1   
 61  26  59  1   
@<TRIPOS>SUBSTRUCTURE
  1 ****  18 GROUP 4 **** **** 0

# MOE 2024.06 (io_trps.svl 2023.06)
