@<TRIPOS>MOLECULE
NONAME
54 57 1 0 0 
SMALL
USER_CHARGES


@<TRIPOS>ATOM
  1 O       -0.7640     0.1090    -1.3030 O.2   1 <1>  -0.5700 
  2 C       -1.4590     0.7600    -0.5490 C.2   1 <1>   0.5440 
  3 N       -2.4670     0.1260     0.1410 N.am  1 <1>  -0.6600 
  4 C       -1.2230     2.1760    -0.4200 C.ar  1 <1>   0.0860 
  5 C       -2.5290    -1.3680     0.2380 C.3   1 <1>   0.1400 
  6 C       -3.7840     0.7690     0.4440 C.3   1 <1>   0.1400 
  7 C       -0.8910     2.9650    -1.5030 C.ar  1 <1>   0.1600 
  8 C       -1.3090     2.8410     0.7880 C.ar  1 <1>   0.1600 
  9 C       -3.7170    -1.9240    -0.5640 C.3   1 <1>   0.3440 
 10 C       -4.9180     0.1090    -0.3770 C.3   1 <1>   0.2000 
 11 N       -0.7030     4.2650    -1.4170 N.ar  1 <1>  -0.6200 
 12 N       -1.1300     4.1380     0.9130 N.ar  1 <1>  -0.6200 
 13 O       -4.9010    -1.2800    -0.1670 O.3   1 <1>  -0.5600 
 14 C       -3.8530    -3.4280    -0.3470 C.ar  1 <1>  -0.1430 
 15 C       -6.3460     0.6560    -0.0720 C.3   1 <1>   0.0000 
 16 C       -0.8370     4.7850    -0.2060 C.ar  1 <1>   0.5880 
 17 C       -3.1820    -4.3020    -1.1910 C.ar  1 <1>  -0.1500 
 18 C       -4.6200    -3.9470     0.6870 C.ar  1 <1>  -0.1500 
 19 C       -7.3640    -0.0210    -1.0090 C.3   1 <1>  -0.2400 
 20 C       -6.4200     2.1730    -0.3250 C.3   1 <1>  -0.2400 
 21 C       -6.7750     0.3830     1.3820 C.3   1 <1>  -0.2400 
 22 C       -0.6230     6.2880    -0.0880 C.3   1 <1>  -0.0680 
 23 C       -3.2770    -5.6700    -1.0060 C.ar  1 <1>  -0.1500 
 24 C       -4.7160    -5.3150     0.8740 C.ar  1 <1>  -0.1500 
 25 C       -1.6380     7.1740     0.5760 C.3   1 <1>  -0.2000 
 26 C       -1.4360     7.2520    -0.9040 C.3   1 <1>  -0.2000 
 27 C       -4.0430    -6.1780     0.0280 C.ar  1 <1>  -0.1500 
 28 H       -1.6180    -1.8120    -0.1250 H     1 <1>   0.0800 
 29 H       -2.6400    -1.6530     1.2690 H     1 <1>   0.0800 
 30 H       -3.9890     0.6650     1.4950 H     1 <1>   0.0800 
 31 H       -3.7490     1.8170     0.2120 H     1 <1>   0.0800 
 32 H       -0.7810     2.5010    -2.4700 H     1 <1>   0.1500 
 33 H       -1.5360     2.2800     1.6790 H     1 <1>   0.1500 
 34 H       -3.5690    -1.7290    -1.6120 H     1 <1>   0.0800 
 35 H       -4.7180     0.2770    -1.4220 H     1 <1>   0.0800 
 36 H       -2.5810    -3.9210    -1.9990 H     1 <1>   0.1500 
 37 H       -5.1500    -3.2840     1.3490 H     1 <1>   0.1500 
 38 H       -8.3550     0.3610    -0.8400 H     1 <1>   0.0800 
 39 H       -7.3830    -1.0840    -0.8410 H     1 <1>   0.0800 
 40 H       -7.1050     0.1510    -2.0390 H     1 <1>   0.0800 
 41 H       -7.4320     2.5220    -0.2130 H     1 <1>   0.0800 
 42 H       -6.0940     2.4070    -1.3240 H     1 <1>   0.0800 
 43 H       -5.8110     2.7180     0.3730 H     1 <1>   0.0800 
 44 H       -7.7860     0.7120     1.5440 H     1 <1>   0.0800 
 45 H       -6.1430     0.8970     2.0810 H     1 <1>   0.0800 
 46 H       -6.7310    -0.6710     1.5940 H     1 <1>   0.0800 
 47 H        0.4140     6.5230     0.0660 H     1 <1>   0.1000 
 48 H       -2.7540    -6.3400    -1.6660 H     1 <1>   0.1500 
 49 H       -5.3150    -5.7060     1.6780 H     1 <1>   0.1500 
 50 H       -2.5400     6.7250     0.9560 H     1 <1>   0.1000 
 51 H       -1.2860     7.9790     1.1970 H     1 <1>   0.1000 
 52 H       -0.9400     8.1110    -1.3220 H     1 <1>   0.1000 
 53 H       -2.1950     6.8560    -1.5560 H     1 <1>   0.1000 
 54 H       -4.1170    -7.2410     0.1730 H     1 <1>   0.1500 
@<TRIPOS>BOND
  1   1   2  2   
  2   2   3  am  
  3   2   4  1   
  4   3   5  1   
  5   3   6  1   
  6   4   7  ar  
  7   4   8  ar  
  8   5   9  1   
  9   5  28  1   
 10   5  29  1   
 11   6  10  1   
 12   6  30  1   
 13   6  31  1   
 14   7  11  ar  
 15   7  32  1   
 16   8  12  ar  
 17   8  33  1   
 18   9  13  1   
 19   9  14  1   
 20   9  34  1   
 21  10  13  1   
 22  10  15  1   
 23  10  35  1   
 24  11  16  ar  
 25  12  16  ar  
 26  14  17  ar  
 27  14  18  ar  
 28  15  19  1   
 29  15  20  1   
 30  15  21  1   
 31  16  22  1   
 32  17  23  ar  
 33  17  36  1   
 34  18  24  ar  
 35  18  37  1   
 36  19  38  1   
 37  19  39  1   
 38  19  40  1   
 39  20  41  1   
 40  20  42  1   
 41  20  43  1   
 42  21  44  1   
 43  21  45  1   
 44  21  46  1   
 45  22  25  1   
 46  22  26  1   
 47  22  47  1   
 48  23  27  ar  
 49  23  48  1   
 50  24  27  ar  
 51  24  49  1   
 52  25  26  1   
 53  25  50  1   
 54  25  51  1   
 55  26  52  1   
 56  26  53  1   
 57  27  54  1   
@<TRIPOS>SUBSTRUCTURE
  1 ****   3 GROUP 4 **** **** 0

# MOE 2024.06 (io_trps.svl 2023.06)
