@<TRIPOS>MOLECULE
NONAME
51 53 1 0 0 
SMALL
USER_CHARGES


@<TRIPOS>ATOM
  1 O       -3.1980     2.4070     1.2710 O.2   1 <1>  -0.5700 
  2 C       -2.9020     2.1960     0.1090 C.2   1 <1>   0.7030 
  3 N       -3.6790     1.2780    -0.5700 N.am  1 <1>  -0.6600 
  4 C       -1.7630     2.8820    -0.4840 C.2   1 <1>   0.2770 
  5 C       -3.1330     0.3750    -1.6260 C.3   1 <1>   0.3200 
  6 C       -5.0980     1.0190    -0.1340 C.3   1 <1>   0.1400 
  7 N       -0.5380     3.1070     0.1590 N.pl3 1 <1>  -0.6290 
  8 C       -1.6430     3.4390    -1.7220 C.2   1 <1>   0.1820 
  9 C       -3.3860    -1.0550    -1.2020 C.2   1 <1>  -0.3320 
 10 C       -5.1580     0.1820     1.1640 C.3   1 <1>   0.3430 
 11 C        0.2720     3.7590    -0.7020 C.cat 1 <1>   0.7910 
 12 C       -0.1090     2.8440     1.4420 C.2   1 <1>   0.2290 
 13 N       -0.3910     3.9520    -1.8520 N.pl3 1 <1>  -0.7000 
 14 C       -2.6430     3.5760    -2.8580 C.3   1 <1>  -0.0720 
 15 N       -2.6380    -1.7500    -0.3180 N.pl3 1 <1>   0.0330 
 16 C       -4.3830    -1.8810    -1.5890 C.2   1 <1>   0.0770 
 17 N       -6.5210    -0.3810     1.4500 N.4   1 <1>  -0.9590 
 18 C        1.5740     4.1290    -0.3310 C.2   1 <1>  -0.1410 
 19 C        1.1520     3.2010     1.8270 C.2   1 <1>  -0.1500 
 20 C       -3.2650    -2.9390    -0.1940 C.2   1 <1>   0.0360 
 21 N       -4.3290    -3.0440    -0.9210 N.2   1 <1>  -0.5650 
 22 C       -6.6150    -0.7820     2.8870 C.3   1 <1>   0.2630 
 23 C       -6.8160    -1.5680     0.5800 C.3   1 <1>   0.2630 
 24 C        2.0250     3.8510     0.9320 C.2   1 <1>  -0.1380 
 25 C        3.4220     4.2260     1.3980 C.3   1 <1>  -0.1020 
 26 H       -2.0780     0.5310    -1.7730 H     1 <1>   0.0800 
 27 H       -3.6390     0.5700    -2.5570 H     1 <1>   0.0800 
 28 H       -5.6250     0.5170    -0.9260 H     1 <1>   0.0800 
 29 H       -5.5840     1.9640     0.0420 H     1 <1>   0.0800 
 30 H       -4.8520     0.8150     1.9820 H     1 <1>   0.0800 
 31 H       -4.4570    -0.6310     1.0900 H     1 <1>   0.0800 
 32 H       -0.7890     2.3600     2.1270 H     1 <1>   0.1500 
 33 H       -0.0030     4.4470    -2.6590 H     1 <1>   0.4500 
 34 H       -3.6170     3.2310    -2.5640 H     1 <1>   0.0800 
 35 H       -2.3150     3.0100    -3.7120 H     1 <1>   0.0800 
 36 H       -2.7300     4.6090    -3.1450 H     1 <1>   0.0800 
 37 H       -1.7700    -1.4750     0.1530 H     1 <1>   0.2700 
 38 H       -5.1610    -1.6970    -2.3140 H     1 <1>   0.1500 
 39 H       -7.2310     0.3480     1.2790 H     1 <1>   0.4500 
 40 H        2.1900     4.6310    -1.0520 H     1 <1>   0.1500 
 41 H        1.4940     2.9930     2.8270 H     1 <1>   0.1500 
 42 H       -2.8940    -3.7180     0.4530 H     1 <1>   0.1500 
 43 H       -5.8930    -1.5510     3.1100 H     1 <1>   0.0800 
 44 H       -7.6000    -1.1630     3.1050 H     1 <1>   0.0800 
 45 H       -6.4260     0.0650     3.5270 H     1 <1>   0.0800 
 46 H       -6.0800    -2.3420     0.7370 H     1 <1>   0.0800 
 47 H       -6.7980    -1.2920    -0.4610 H     1 <1>   0.0800 
 48 H       -7.7890    -1.9700     0.8100 H     1 <1>   0.0800 
 49 H        3.3640     4.8950     2.2390 H     1 <1>   0.0800 
 50 H        3.9750     4.7140     0.6150 H     1 <1>   0.0800 
 51 H        3.9620     3.3450     1.6960 H     1 <1>   0.0800 
@<TRIPOS>BOND
  1   1   2  2   
  2   2   3  am  
  3   2   4  1   
  4   3   5  1   
  5   3   6  1   
  6   4   7  1   
  7   4   8  2   
  8   5   9  1   
  9   5  26  1   
 10   5  27  1   
 11   6  10  1   
 12   6  28  1   
 13   6  29  1   
 14   7  11  ar  
 15   7  12  1   
 16   8  13  1   
 17   8  14  1   
 18   9  15  1   
 19   9  16  2   
 20  10  17  1   
 21  10  30  1   
 22  10  31  1   
 23  11  13  ar  
 24  11  18  1   
 25  12  19  2   
 26  12  32  1   
 27  13  33  1   
 28  14  34  1   
 29  14  35  1   
 30  14  36  1   
 31  15  20  1   
 32  15  37  1   
 33  16  21  1   
 34  16  38  1   
 35  17  22  1   
 36  17  23  1   
 37  17  39  1   
 38  18  24  2   
 39  18  40  1   
 40  19  24  1   
 41  19  41  1   
 42  20  21  2   
 43  20  42  1   
 44  22  43  1   
 45  22  44  1   
 46  22  45  1   
 47  23  46  1   
 48  23  47  1   
 49  23  48  1   
 50  24  25  1   
 51  25  49  1   
 52  25  50  1   
 53  25  51  1   
@<TRIPOS>SUBSTRUCTURE
  1 ****   2 GROUP 4 **** **** 0

# MOE 2024.06 (io_trps.svl 2023.06)
