@<TRIPOS>MOLECULE
NONAME
46 47 1 0 0 
SMALL
USER_CHARGES


@<TRIPOS>ATOM
  1 O       -1.6000     0.3700     2.1560 O.2   1 <1>  -0.5700 
  2 C       -1.7890     0.8080     1.0440 C.2   1 <1>   0.5690 
  3 N       -2.2500    -0.0060     0.0340 N.am  1 <1>  -0.6600 
  4 C       -1.5000     2.3060     0.8630 C.3   1 <1>  -0.0190 
  5 C       -2.6140    -1.4270     0.3300 C.3   1 <1>   0.2840 
  6 C       -2.4760     0.3830    -1.3900 C.3   1 <1>   0.0600 
  7 C       -2.7310     3.1320     0.4280 C.3   1 <1>  -0.1600 
  8 C       -0.2380     2.5880     0.0100 C.3   1 <1>  -0.1600 
  9 C       -4.0470    -1.7350    -0.1030 C.ar  1 <1>  -0.1440 
 10 C       -2.4550     4.6500     0.4520 C.3   1 <1>   0.2000 
 11 C       -0.2690     3.9610    -0.6880 C.3   1 <1>  -0.1600 
 12 C       -5.1520    -1.2890     0.6200 C.ar  1 <1>  -0.1440 
 13 C       -4.2460    -2.4840    -1.2550 C.ar  1 <1>  -0.1500 
 14 O       -3.2580     5.2520    -0.5350 O.3   1 <1>  -0.5600 
 15 C       -0.9660     5.0040     0.1880 C.3   1 <1>   0.2000 
 16 C       -6.4290    -1.5960     0.1750 C.ar  1 <1>  -0.1500 
 17 C       -4.9990    -0.4670     1.8930 C.3   1 <1>  -0.0970 
 18 C       -5.5220    -2.7870    -1.6910 C.ar  1 <1>  -0.1500 
 19 C       -4.5870     5.4650    -0.1710 C.3   1 <1>   0.0400 
 20 O       -0.8950     6.2200    -0.4600 O.3   1 <1>  -0.6800 
 21 C       -6.6160    -2.3410    -0.9750 C.ar  1 <1>  -0.1500 
 22 H       -1.2650     2.6660     1.8510 H     1 <1>   0.0800 
 23 H       -1.9290    -2.0710    -0.1920 H     1 <1>   0.0800 
 24 H       -2.5080    -1.6470     1.3780 H     1 <1>   0.0800 
 25 H       -2.1210    -0.3970    -2.0410 H     1 <1>   0.0800 
 26 H       -1.9610     1.2880    -1.6460 H     1 <1>   0.0800 
 27 H       -3.5300     0.5230    -1.5620 H     1 <1>   0.0800 
 28 H       -3.5520     2.9110     1.0870 H     1 <1>   0.0800 
 29 H       -3.0210     2.8550    -0.5670 H     1 <1>   0.0800 
 30 H        0.6180     2.5460     0.6630 H     1 <1>   0.0800 
 31 H       -0.0900     1.8240    -0.7310 H     1 <1>   0.0800 
 32 H       -2.7220     5.0580     1.4130 H     1 <1>   0.0800 
 33 H       -0.8060     3.8750    -1.6170 H     1 <1>   0.0800 
 34 H        0.7370     4.2770    -0.9040 H     1 <1>   0.0800 
 35 H       -3.4040    -2.8390    -1.8220 H     1 <1>   0.1500 
 36 H       -0.4350     5.0950     1.1200 H     1 <1>   0.0800 
 37 H       -7.2900    -1.2570     0.7230 H     1 <1>   0.1500 
 38 H       -5.9440    -0.3390     2.3870 H     1 <1>   0.0800 
 39 H       -4.6070     0.5040     1.6550 H     1 <1>   0.0800 
 40 H       -4.3280    -0.9530     2.5790 H     1 <1>   0.0800 
 41 H       -5.6650    -3.3680    -2.5850 H     1 <1>   0.1500 
 42 H       -5.0860     5.9410    -0.9960 H     1 <1>   0.0800 
 43 H       -4.6210     6.1090     0.6910 H     1 <1>   0.0800 
 44 H       -5.0600     4.5220     0.0400 H     1 <1>   0.0800 
 45 H       -1.7450     6.3070    -0.9500 H     1 <1>   0.4000 
 46 H       -7.6120    -2.5730    -1.3100 H     1 <1>   0.1500 
@<TRIPOS>BOND
  1   1   2  2   
  2   2   3  am  
  3   2   4  1   
  4   3   5  1   
  5   3   6  1   
  6   4   7  1   
  7   4   8  1   
  8   4  22  1   
  9   5   9  1   
 10   5  23  1   
 11   5  24  1   
 12   6  25  1   
 13   6  26  1   
 14   6  27  1   
 15   7  10  1   
 16   7  28  1   
 17   7  29  1   
 18   8  11  1   
 19   8  30  1   
 20   8  31  1   
 21   9  12  ar  
 22   9  13  ar  
 23  10  14  1   
 24  10  15  1   
 25  10  32  1   
 26  11  15  1   
 27  11  33  1   
 28  11  34  1   
 29  12  16  ar  
 30  12  17  1   
 31  13  18  ar  
 32  13  35  1   
 33  14  19  1   
 34  15  20  1   
 35  15  36  1   
 36  16  21  ar  
 37  16  37  1   
 38  17  38  1   
 39  17  39  1   
 40  17  40  1   
 41  18  21  ar  
 42  18  41  1   
 43  19  42  1   
 44  19  43  1   
 45  19  44  1   
 46  20  45  1   
 47  21  46  1   
@<TRIPOS>SUBSTRUCTURE
  1 ****   3 GROUP 4 **** **** 0

# MOE 2024.06 (io_trps.svl 2023.06)
