@<TRIPOS>MOLECULE
NONAME
53 55 1 0 0 
SMALL
USER_CHARGES


@<TRIPOS>ATOM
  1 N        0.0290    -0.4030    -0.5670 N.ar  1 <1>  -0.6200 
  2 C        1.0500     0.3890    -0.2410 C.ar  1 <1>   0.7710 
  3 C        0.2330    -1.7050    -0.5710 C.ar  1 <1>   0.4100 
  4 N        2.2510    -0.1160     0.0950 N.ar  1 <1>  -0.1790 
  5 N        0.8760     1.7390    -0.2370 N.pl3 1 <1>  -0.8380 
  6 N       -0.8270    -2.4810    -0.9120 N.pl3 1 <1>  -0.8380 
  7 C        1.4770    -2.2650    -0.2310 C.ar  1 <1>  -0.1500 
  8 C        2.5010    -1.4460     0.1080 C.ar  1 <1>   0.2180 
  9 C        1.8580     2.7730     0.2270 C.3   1 <1>   0.2090 
 10 C       -0.4090     2.3860    -0.6590 C.3   1 <1>   0.2090 
 11 C       -1.7610    -2.0820    -2.0270 C.3   1 <1>   0.2090 
 12 C       -1.2030    -3.7400    -0.2070 C.3   1 <1>   0.2090 
 13 C        3.8930    -1.9380     0.4860 C.3   1 <1>  -0.0170 
 14 C        1.2900     3.4820     1.4600 C.3   1 <1>  -0.1600 
 15 C       -1.0360     3.0850     0.5510 C.3   1 <1>  -0.1600 
 16 C       -2.9840    -1.2840    -1.5200 C.3   1 <1>   0.3430 
 17 C       -2.1950    -3.4280     0.9200 C.3   1 <1>  -0.1600 
 18 C        4.9620    -1.4660    -0.5090 C.3   1 <1>  -0.2400 
 19 C       -0.0780     4.1150     1.1650 C.3   1 <1>  -0.1600 
 20 N       -3.0890    -1.3240    -0.0260 N.4   1 <1>  -0.9590 
 21 C       -3.4550    -2.6750     0.4820 C.3   1 <1>   0.3430 
 22 C       -3.9670    -0.2480     0.5160 C.3   1 <1>   0.2630 
 23 H        2.9710     0.5590     0.3160 H     1 <1>   0.4570 
 24 H        1.5970    -3.3320    -0.2650 H     1 <1>   0.1500 
 25 H        2.0120     3.4940    -0.5600 H     1 <1>   0.0800 
 26 H        2.8150     2.3500     0.4710 H     1 <1>   0.0800 
 27 H       -1.1060     1.6760    -1.0670 H     1 <1>   0.0800 
 28 H       -0.2040     3.1130    -1.4280 H     1 <1>   0.0800 
 29 H       -2.1000    -2.9600    -2.5490 H     1 <1>   0.0800 
 30 H       -1.2290    -1.4810    -2.7450 H     1 <1>   0.0800 
 31 H       -0.3330    -4.2140     0.2130 H     1 <1>   0.0800 
 32 H       -1.6400    -4.4340    -0.9060 H     1 <1>   0.0800 
 33 H        3.8980    -3.0150     0.5100 H     1 <1>   0.0800 
 34 H        4.1440    -1.5970     1.4760 H     1 <1>   0.0800 
 35 H        1.9740     4.2510     1.7760 H     1 <1>   0.0800 
 36 H        1.1960     2.7770     2.2670 H     1 <1>   0.0800 
 37 H       -1.2980     2.3470     1.2880 H     1 <1>   0.0800 
 38 H       -1.9410     3.5810     0.2460 H     1 <1>   0.0800 
 39 H       -3.8840    -1.6590    -1.9760 H     1 <1>   0.0800 
 40 H       -2.8590    -0.2610    -1.8360 H     1 <1>   0.0800 
 41 H       -1.6950    -2.8760     1.6950 H     1 <1>   0.0800 
 42 H       -2.5010    -4.3620     1.3550 H     1 <1>   0.0800 
 43 H        4.7270    -1.8020    -1.5040 H     1 <1>   0.0800 
 44 H        5.9190    -1.8790    -0.2360 H     1 <1>   0.0800 
 45 H        5.0540    -0.3940    -0.5160 H     1 <1>   0.0800 
 46 H        0.0510     4.9350     0.4780 H     1 <1>   0.0800 
 47 H       -0.5000     4.5130     2.0730 H     1 <1>   0.0800 
 48 H       -2.1020    -1.1740     0.2640 H     1 <1>   0.4500 
 49 H       -4.1080    -2.5760     1.3340 H     1 <1>   0.0800 
 50 H       -3.9790    -3.2320    -0.2770 H     1 <1>   0.0800 
 51 H       -4.9840    -0.3910     0.1860 H     1 <1>   0.0800 
 52 H       -3.6260     0.7180     0.1780 H     1 <1>   0.0800 
 53 H       -3.9490    -0.2590     1.5940 H     1 <1>   0.0800 
@<TRIPOS>BOND
  1   1   2  ar  
  2   1   3  ar  
  3   2   4  ar  
  4   2   5  1   
  5   3   6  1   
  6   3   7  ar  
  7   4   8  ar  
  8   4  23  1   
  9   5   9  1   
 10   5  10  1   
 11   6  11  1   
 12   6  12  1   
 13   7   8  ar  
 14   7  24  1   
 15   8  13  1   
 16   9  14  1   
 17   9  25  1   
 18   9  26  1   
 19  10  15  1   
 20  10  27  1   
 21  10  28  1   
 22  11  16  1   
 23  11  29  1   
 24  11  30  1   
 25  12  17  1   
 26  12  31  1   
 27  12  32  1   
 28  13  18  1   
 29  13  33  1   
 30  13  34  1   
 31  14  19  1   
 32  14  35  1   
 33  14  36  1   
 34  15  19  1   
 35  15  37  1   
 36  15  38  1   
 37  16  20  1   
 38  16  39  1   
 39  16  40  1   
 40  17  21  1   
 41  17  41  1   
 42  17  42  1   
 43  18  43  1   
 44  18  44  1   
 45  18  45  1   
 46  19  46  1   
 47  19  47  1   
 48  20  21  1   
 49  20  22  1   
 50  20  48  1   
 51  21  49  1   
 52  21  50  1   
 53  22  51  1   
 54  22  52  1   
 55  22  53  1   
@<TRIPOS>SUBSTRUCTURE
  1 ****   1 GROUP 4 **** **** 0

# MOE 2024.06 (io_trps.svl 2023.06)
