@<TRIPOS>MOLECULE
NONAME
49 51 1 0 0 
SMALL
USER_CHARGES


@<TRIPOS>ATOM
  1 F       -0.7660    -0.8030     0.8790 F     1 <1>  -0.1900 
  2 C       -0.9410    -2.0860     0.7350 C.ar  1 <1>   0.1900 
  3 C       -1.7160    -2.7650     1.6540 C.ar  1 <1>  -0.1500 
  4 C       -0.3470    -2.7270    -0.3350 C.ar  1 <1>  -0.1500 
  5 C       -1.8930    -4.1280     1.4920 C.ar  1 <1>  -0.1500 
  6 C       -0.5360    -4.0900    -0.4810 C.ar  1 <1>  -0.1500 
  7 C       -1.3060    -4.8250     0.4300 C.ar  1 <1>   0.0860 
  8 C       -1.5000    -6.2590     0.2910 C.2   1 <1>   0.5440 
  9 O       -2.4970    -6.7980     0.7320 O.2   1 <1>  -0.5700 
 10 N       -0.5650    -7.0410    -0.3310 N.am  1 <1>  -0.7300 
 11 C       -0.6610    -8.5150    -0.4560 C.3   1 <1>   0.1400 
 12 C       -1.4900    -8.8740    -1.6860 C.3   1 <1>  -0.0990 
 13 C       -1.9250   -10.3190    -1.5910 C.2   1 <1>   0.5690 
 14 O       -1.2400   -11.1520    -2.1330 O.2   1 <1>  -0.5700 
 15 N       -3.0480   -10.6570    -0.8880 N.am  1 <1>  -0.6600 
 16 C       -3.9650    -9.7250    -0.1750 C.3   1 <1>   0.1400 
 17 C       -3.4580   -12.0630    -0.6730 C.3   1 <1>   0.1400 
 18 C       -5.0810   -10.6190     0.3650 C.3   1 <1>   0.2000 
 19 C       -4.4640   -12.0100     0.4780 C.3   1 <1>  -0.0800 
 20 O       -5.5350   -10.1940     1.6030 O.3   1 <1>  -0.6800 
 21 C       -5.5060   -13.1370     0.4400 C.3   1 <1>   0.0200 
 22 C       -4.8370   -14.4980     0.4680 C.2   1 <1>  -0.0400 
 23 O       -4.1090   -14.8470     1.4950 O.3   1 <1>  -0.0190 
 24 C       -4.8210   -15.5090    -0.4130 C.2   1 <1>  -0.1500 
 25 N       -3.6020   -16.0360     1.3460 N.2   1 <1>  -0.4100 
 26 C       -4.0150   -16.4600     0.2060 C.2   1 <1>   0.1080 
 27 C       -3.6640   -17.8110    -0.3760 C.3   1 <1>  -0.0590 
 28 H       -2.1690    -2.2360     2.4740 H     1 <1>   0.1500 
 29 H        0.2460    -2.1630    -1.0340 H     1 <1>   0.1500 
 30 H       -2.4970    -4.6720     2.1990 H     1 <1>   0.1500 
 31 H       -0.0850    -4.5890    -1.3210 H     1 <1>   0.1500 
 32 H        0.3120    -6.6250    -0.6450 H     1 <1>   0.3700 
 33 H        0.3230    -8.9460    -0.5320 H     1 <1>   0.0800 
 34 H       -1.1290    -8.9100     0.4300 H     1 <1>   0.0800 
 35 H       -0.8990    -8.7430    -2.5730 H     1 <1>   0.0800 
 36 H       -2.3550    -8.2430    -1.7570 H     1 <1>   0.0800 
 37 H       -3.4350    -9.2460     0.6300 H     1 <1>   0.0800 
 38 H       -4.3620    -8.9870    -0.8490 H     1 <1>   0.0800 
 39 H       -3.9170   -12.4330    -1.5730 H     1 <1>   0.0800 
 40 H       -2.6090   -12.6800    -0.4270 H     1 <1>   0.0800 
 41 H       -5.9130   -10.6150    -0.3190 H     1 <1>   0.0800 
 42 H       -3.9010   -12.0770     1.3940 H     1 <1>   0.0800 
 43 H       -4.7890   -10.1080     2.2290 H     1 <1>   0.4000 
 44 H       -6.1050   -13.0550    -0.4490 H     1 <1>   0.0800 
 45 H       -6.1600   -13.0500     1.2910 H     1 <1>   0.0800 
 46 H       -5.2970   -15.6010    -1.3720 H     1 <1>   0.1500 
 47 H       -4.5610   -18.3700    -0.5700 H     1 <1>   0.0800 
 48 H       -3.0530   -18.3610     0.3160 H     1 <1>   0.0800 
 49 H       -3.1190   -17.6820    -1.2930 H     1 <1>   0.0800 
@<TRIPOS>BOND
  1   1   2  1   
  2   2   3  ar  
  3   2   4  ar  
  4   3   5  ar  
  5   3  28  1   
  6   4   6  ar  
  7   4  29  1   
  8   5   7  ar  
  9   5  30  1   
 10   6   7  ar  
 11   6  31  1   
 12   7   8  1   
 13   8   9  2   
 14   8  10  am  
 15  10  11  1   
 16  10  32  1   
 17  11  12  1   
 18  11  33  1   
 19  11  34  1   
 20  12  13  1   
 21  12  35  1   
 22  12  36  1   
 23  13  14  2   
 24  13  15  am  
 25  15  16  1   
 26  15  17  1   
 27  16  18  1   
 28  16  37  1   
 29  16  38  1   
 30  17  19  1   
 31  17  39  1   
 32  17  40  1   
 33  18  19  1   
 34  18  20  1   
 35  18  41  1   
 36  19  21  1   
 37  19  42  1   
 38  20  43  1   
 39  21  22  1   
 40  21  44  1   
 41  21  45  1   
 42  22  23  1   
 43  22  24  2   
 44  23  25  1   
 45  24  26  1   
 46  24  46  1   
 47  25  26  2   
 48  26  27  1   
 49  27  47  1   
 50  27  48  1   
 51  27  49  1   
@<TRIPOS>SUBSTRUCTURE
  1 ****  16 GROUP 4 **** **** 0

# MOE 2024.06 (io_trps.svl 2023.06)
