@<TRIPOS>MOLECULE
NONAME
43 45 1 0 0 
SMALL
USER_CHARGES


@<TRIPOS>ATOM
  1 CL       1.9820    -2.9420     1.5770 Cl    1 <1>  -0.1230 
  2 C        0.7660    -4.1390     1.1930 C.2   1 <1>   0.4120 
  3 N        0.6280    -5.2470     1.8240 N.2   1 <1>  -0.4100 
  4 C       -0.1580    -3.9900     0.1670 C.2   1 <1>  -0.1500 
  5 O       -0.3730    -5.8430     1.2360 O.3   1 <1>  -0.0190 
  6 C       -0.8640    -5.1280     0.2510 C.2   1 <1>  -0.0400 
  7 C       -2.0350    -5.6530    -0.5590 C.3   1 <1>   0.0200 
  8 C       -3.2850    -5.8040     0.3160 C.3   1 <1>  -0.0990 
  9 C       -4.4500    -6.3650    -0.4840 C.2   1 <1>   0.5690 
 10 O       -4.9870    -5.5920    -1.2420 O.2   1 <1>  -0.5700 
 11 N       -4.8900    -7.6610    -0.3690 N.am  1 <1>  -0.6600 
 12 C       -4.2500    -8.6880     0.5340 C.3   1 <1>   0.3640 
 13 C       -6.1420    -8.0430    -1.0950 C.3   1 <1>   0.1400 
 14 C       -2.8290    -8.9710     0.0380 C.ar  1 <1>  -0.1430 
 15 C       -5.0040   -10.0480     0.6910 C.3   1 <1>   0.2000 
 16 C       -6.4040    -9.5490    -1.1120 C.3   1 <1>   0.1200 
 17 C       -1.7610    -8.9210     0.9230 C.ar  1 <1>  -0.1500 
 18 C       -2.5820    -9.2750    -1.2950 C.ar  1 <1>  -0.1500 
 19 O       -6.3100   -10.0400     0.1840 O.3   1 <1>  -0.5600 
 20 C       -5.1110   -10.4850     2.1600 C.3   1 <1>   0.1200 
 21 C       -0.4710    -9.1620     0.4850 C.ar  1 <1>  -0.1500 
 22 C       -1.2930    -9.5210    -1.7340 C.ar  1 <1>  -0.1500 
 23 O       -3.8570   -10.5430     2.7600 O.3   1 <1>  -0.6800 
 24 C       -0.2360    -9.4630    -0.8450 C.ar  1 <1>  -0.1500 
 25 H       -0.2430    -3.1530    -0.4990 H     1 <1>   0.1500 
 26 H       -2.2450    -4.9740    -1.3670 H     1 <1>   0.0800 
 27 H       -1.7630    -6.6000    -0.9870 H     1 <1>   0.0800 
 28 H       -3.5720    -4.8340     0.6790 H     1 <1>   0.0800 
 29 H       -3.0670    -6.4060     1.1740 H     1 <1>   0.0800 
 30 H       -4.1850    -8.2520     1.5150 H     1 <1>   0.0800 
 31 H       -6.9750    -7.5520    -0.6220 H     1 <1>   0.0800 
 32 H       -6.0890    -7.6860    -2.1090 H     1 <1>   0.0800 
 33 H       -4.4730   -10.8130     0.1530 H     1 <1>   0.0800 
 34 H       -5.7010   -10.0640    -1.7430 H     1 <1>   0.0800 
 35 H       -7.4000    -9.7450    -1.4690 H     1 <1>   0.0800 
 36 H       -1.9230    -8.6910     1.9630 H     1 <1>   0.1500 
 37 H       -3.3940    -9.3140    -2.0010 H     1 <1>   0.1500 
 38 H       -5.5630   -11.4600     2.2300 H     1 <1>   0.0800 
 39 H       -5.7040    -9.7760     2.7120 H     1 <1>   0.0800 
 40 H        0.3500    -9.1090     1.1790 H     1 <1>   0.1500 
 41 H       -1.1120    -9.7550    -2.7690 H     1 <1>   0.1500 
 42 H       -3.3160   -11.2640     2.3760 H     1 <1>   0.4000 
 43 H        0.7680    -9.6490    -1.1840 H     1 <1>   0.1500 
@<TRIPOS>BOND
  1   1   2  1   
  2   2   3  2   
  3   2   4  1   
  4   3   5  1   
  5   4   6  2   
  6   4  25  1   
  7   5   6  1   
  8   6   7  1   
  9   7   8  1   
 10   7  26  1   
 11   7  27  1   
 12   8   9  1   
 13   8  28  1   
 14   8  29  1   
 15   9  10  2   
 16   9  11  am  
 17  11  12  1   
 18  11  13  1   
 19  12  14  1   
 20  12  15  1   
 21  12  30  1   
 22  13  16  1   
 23  13  31  1   
 24  13  32  1   
 25  14  17  ar  
 26  14  18  ar  
 27  15  19  1   
 28  15  20  1   
 29  15  33  1   
 30  16  19  1   
 31  16  34  1   
 32  16  35  1   
 33  17  21  ar  
 34  17  36  1   
 35  18  22  ar  
 36  18  37  1   
 37  20  23  1   
 38  20  38  1   
 39  20  39  1   
 40  21  24  ar  
 41  21  40  1   
 42  22  24  ar  
 43  22  41  1   
 44  23  42  1   
 45  24  43  1   
@<TRIPOS>SUBSTRUCTURE
  1 ****  14 GROUP 4 **** **** 0

# MOE 2024.06 (io_trps.svl 2023.06)
