@<TRIPOS>MOLECULE
NONAME
39 40 1 0 0 
SMALL
USER_CHARGES


@<TRIPOS>ATOM
  1 S        0.0870    -0.4720    -0.2710 S.3   1 <1>  -0.0800 
  2 C       -1.4390    -1.0210     0.3450 C.2   1 <1>   0.4420 
  3 C       -0.4540     1.1420     0.0360 C.2   1 <1>   0.1980 
  4 N       -2.1900    -0.0440     0.7070 N.2   1 <1>  -0.3380 
  5 N       -1.6480    -2.3840     0.3660 N.am  1 <1>  -0.4940 
  6 N       -1.6230     1.1850     0.5290 N.2   1 <1>  -0.3380 
  7 C        0.4650     2.2970    -0.2940 C.3   1 <1>   0.0200 
  8 C       -2.7390    -3.0780     0.8040 C.2   1 <1>   0.5690 
  9 C       -0.2530     3.6100     0.0430 C.3   1 <1>   0.3430 
 10 O       -3.7250    -2.5640     1.2620 O.2   1 <1>  -0.5700 
 11 C       -2.7110    -4.5840     0.7010 C.3   1 <1>  -0.0990 
 12 N        0.5510     4.8290    -0.3080 N.4   1 <1>  -0.9590 
 13 C       -3.8850    -5.0730    -0.1550 C.3   1 <1>   0.0960 
 14 C        1.7580     4.9920     0.5660 C.3   1 <1>   0.2630 
 15 C       -0.3170     6.0440    -0.2080 C.3   1 <1>   0.2630 
 16 N       -3.8030    -6.5300    -0.3520 N.pl3 1 <1>   0.3140 
 17 N       -2.8040    -7.0910    -1.0590 N.2   1 <1>  -0.7070 
 18 C       -4.6520    -7.4630     0.1200 C.2   1 <1>  -0.3020 
 19 C       -3.0450    -8.3660    -1.0210 C.2   1 <1>   0.1390 
 20 C       -4.1920    -8.6620    -0.2940 C.2   1 <1>  -0.1500 
 21 H       -0.8810    -2.9430     0.0020 H     1 <1>   0.3700 
 22 H        0.7030     2.2610    -1.3410 H     1 <1>   0.0800 
 23 H        1.3630     2.1940     0.2860 H     1 <1>   0.0800 
 24 H       -0.4950     3.6200     1.0940 H     1 <1>   0.0800 
 25 H       -1.1850     3.6290    -0.5000 H     1 <1>   0.0800 
 26 H       -2.7910    -4.9960     1.6900 H     1 <1>   0.0800 
 27 H       -1.7840    -4.9070     0.2640 H     1 <1>   0.0800 
 28 H        0.8600     4.7480    -1.2900 H     1 <1>   0.4500 
 29 H       -3.8610    -4.6050    -1.1220 H     1 <1>   0.0800 
 30 H       -4.8200    -4.8330     0.3200 H     1 <1>   0.0800 
 31 H        1.4650     5.0660     1.6010 H     1 <1>   0.0800 
 32 H        2.2960     5.8880     0.2970 H     1 <1>   0.0800 
 33 H        2.4240     4.1510     0.4550 H     1 <1>   0.0800 
 34 H       -0.6720     6.1710     0.8020 H     1 <1>   0.0800 
 35 H       -1.1700     5.9510    -0.8620 H     1 <1>   0.0800 
 36 H        0.2360     6.9250    -0.4920 H     1 <1>   0.0800 
 37 H       -5.5180    -7.2290     0.7120 H     1 <1>   0.1500 
 38 H       -2.4220    -9.1030    -1.5010 H     1 <1>   0.1500 
 39 H       -4.5980    -9.6430    -0.1200 H     1 <1>   0.1500 
@<TRIPOS>BOND
  1   1   2  1   
  2   1   3  1   
  3   2   4  2   
  4   2   5  1   
  5   3   6  2   
  6   3   7  1   
  7   4   6  1   
  8   5   8  am  
  9   5  21  1   
 10   7   9  1   
 11   7  22  1   
 12   7  23  1   
 13   8  10  2   
 14   8  11  1   
 15   9  12  1   
 16   9  24  1   
 17   9  25  1   
 18  11  13  1   
 19  11  26  1   
 20  11  27  1   
 21  12  14  1   
 22  12  15  1   
 23  12  28  1   
 24  13  16  1   
 25  13  29  1   
 26  13  30  1   
 27  14  31  1   
 28  14  32  1   
 29  14  33  1   
 30  15  34  1   
 31  15  35  1   
 32  15  36  1   
 33  16  17  1   
 34  16  18  1   
 35  17  19  2   
 36  18  20  2   
 37  18  37  1   
 38  19  20  1   
 39  19  38  1   
 40  20  39  1   
@<TRIPOS>SUBSTRUCTURE
  1 ****   2 GROUP 4 **** **** 0

# MOE 2024.06 (io_trps.svl 2023.06)
