@<TRIPOS>MOLECULE
NONAME
55 57 1 0 0 
SMALL
USER_CHARGES


@<TRIPOS>ATOM
  1 CL       4.9180     0.5040     2.4390 Cl    1 <1>  -0.1770 
  2 C        3.9810     1.5800     1.4340 C.ar  1 <1>   0.1770 
  3 C        4.1390     2.9460     1.5760 C.ar  1 <1>  -0.1500 
  4 C        3.0980     1.0490     0.5130 C.ar  1 <1>  -0.1500 
  5 C        3.3980     3.8060     0.7800 C.ar  1 <1>  -0.1440 
  6 C        2.3570     1.9070    -0.2820 C.ar  1 <1>  -0.1500 
  7 C        2.5090     3.2780    -0.1470 C.ar  1 <1>  -0.1500 
  8 C        3.5570     5.3120     0.9130 C.3   1 <1>  -0.0160 
  9 C        4.5300     5.8370    -0.1420 C.3   1 <1>   0.1400 
 10 N        4.7000     7.2970     0.0160 N.am  1 <1>  -0.7300 
 11 C        4.1090     8.2580    -0.7380 C.2   1 <1>   0.5690 
 12 O        3.3390     7.9950    -1.6310 O.2   1 <1>  -0.5700 
 13 C        4.4320     9.7240    -0.4250 C.3   1 <1>   0.1710 
 14 N        5.7090     9.9360     0.3290 N.3   1 <1>  -0.8100 
 15 C        5.7110    11.2820     0.9450 C.3   1 <1>   0.1100 
 16 C        6.8690     9.7140    -0.5520 C.3   1 <1>   0.1100 
 17 C        6.9200    11.5650     1.8530 C.3   1 <1>   0.2090 
 18 C        8.1180     9.4130     0.2790 C.3   1 <1>  -0.1600 
 19 N        8.1620    11.8310     1.0590 N.pl3 1 <1>  -0.8380 
 20 C        8.9600    10.6420     0.6470 C.3   1 <1>   0.2090 
 21 C        8.7070    13.0710     1.0050 C.ar  1 <1>   0.1000 
 22 C        8.8160    13.8100    -0.1880 C.ar  1 <1>  -0.1430 
 23 C        9.1990    13.6590     2.1760 C.ar  1 <1>  -0.1500 
 24 C        9.4010    15.0530    -0.1670 C.ar  1 <1>   0.2110 
 25 C        8.2720    13.2460    -1.4970 C.3   1 <1>  -0.0970 
 26 C        9.7730    14.9010     2.1550 C.ar  1 <1>   0.2110 
 27 N        9.8720    15.5850     0.9890 N.ar  1 <1>  -0.1790 
 28 H        4.8350     3.3200     2.3040 H     1 <1>   0.1500 
 29 H        2.9940    -0.0170     0.4230 H     1 <1>   0.1500 
 30 H        1.6650     1.5100    -1.0040 H     1 <1>   0.1500 
 31 H        1.9290     3.9370    -0.7720 H     1 <1>   0.1500 
 32 H        3.9220     5.5540     1.8950 H     1 <1>   0.0800 
 33 H        2.6010     5.7870     0.7800 H     1 <1>   0.0800 
 34 H        4.1450     5.6220    -1.1250 H     1 <1>   0.0800 
 35 H        5.4860     5.3520    -0.0400 H     1 <1>   0.0800 
 36 H        5.3610     7.6350     0.7250 H     1 <1>   0.3700 
 37 H        3.6090    10.0980     0.1570 H     1 <1>   0.0800 
 38 H        4.4560    10.2760    -1.3480 H     1 <1>   0.0800 
 39 H        4.8300    11.3710     1.5560 H     1 <1>   0.0800 
 40 H        5.6580    12.0400     0.1830 H     1 <1>   0.0800 
 41 H        7.0270    10.5600    -1.1990 H     1 <1>   0.0800 
 42 H        6.6800     8.8560    -1.1760 H     1 <1>   0.0800 
 43 H        7.0720    10.7420     2.5300 H     1 <1>   0.0800 
 44 H        6.6940    12.4350     2.4430 H     1 <1>   0.0800 
 45 H        8.7510     8.7590    -0.2930 H     1 <1>   0.0800 
 46 H        7.8430     8.8740     1.1670 H     1 <1>   0.0800 
 47 H        9.5660    10.9120    -0.2000 H     1 <1>   0.0800 
 48 H        9.6290    10.3770     1.4480 H     1 <1>   0.0800 
 49 H        9.1210    13.1030     3.0940 H     1 <1>   0.1500 
 50 H        9.4950    15.6340    -1.0710 H     1 <1>   0.1500 
 51 H        7.2460    12.9520    -1.3690 H     1 <1>   0.0800 
 52 H        8.8380    12.3830    -1.7950 H     1 <1>   0.0800 
 53 H        8.3160    13.9700    -2.2910 H     1 <1>   0.0800 
 54 H       10.1550    15.3510     3.0580 H     1 <1>   0.1500 
 55 H       10.3050    16.5150     0.9800 H     1 <1>   0.4570 
@<TRIPOS>BOND
  1   1   2  1   
  2   2   3  ar  
  3   2   4  ar  
  4   3   5  ar  
  5   3  28  1   
  6   4   6  ar  
  7   4  29  1   
  8   5   7  ar  
  9   5   8  1   
 10   6   7  ar  
 11   6  30  1   
 12   7  31  1   
 13   8   9  1   
 14   8  32  1   
 15   8  33  1   
 16   9  10  1   
 17   9  34  1   
 18   9  35  1   
 19  10  11  am  
 20  10  36  1   
 21  11  12  2   
 22  11  13  1   
 23  13  14  1   
 24  13  37  1   
 25  13  38  1   
 26  14  15  1   
 27  14  16  1   
 28  15  17  1   
 29  15  39  1   
 30  15  40  1   
 31  16  18  1   
 32  16  41  1   
 33  16  42  1   
 34  17  19  1   
 35  17  43  1   
 36  17  44  1   
 37  18  20  1   
 38  18  45  1   
 39  18  46  1   
 40  19  20  1   
 41  19  21  1   
 42  20  47  1   
 43  20  48  1   
 44  21  22  ar  
 45  21  23  ar  
 46  22  24  ar  
 47  22  25  1   
 48  23  26  ar  
 49  23  49  1   
 50  24  27  ar  
 51  24  50  1   
 52  25  51  1   
 53  25  52  1   
 54  25  53  1   
 55  26  27  ar  
 56  26  54  1   
 57  27  55  1   
@<TRIPOS>SUBSTRUCTURE
  1 ****  14 GROUP 4 **** **** 0

# MOE 2024.06 (io_trps.svl 2023.06)
