@<TRIPOS>MOLECULE
NONAME
46 49 1 0 0 
SMALL
USER_CHARGES


@<TRIPOS>ATOM
  1 F        1.2330    -1.4640     1.4360 F     1 <1>  -0.3400 
  2 C        0.3220    -1.7840     0.5210 C.3   1 <1>   1.1640 
  3 F        0.6990    -1.1580    -0.5930 F     1 <1>  -0.3400 
  4 F       -0.8090    -1.1930     0.8960 F     1 <1>  -0.3400 
  5 C        0.1660    -3.3240     0.3330 C.ar  1 <1>   0.1660 
  6 N       -0.2160    -4.0670     1.3800 N.ar  1 <1>  -0.6200 
  7 C        0.4260    -3.8980    -0.9100 C.ar  1 <1>  -0.1500 
  8 C       -0.3340    -5.3700     1.1820 C.ar  1 <1>   0.1600 
  9 C        0.2870    -5.2570    -1.0960 C.ar  1 <1>  -0.1500 
 10 C       -0.1180    -6.0330    -0.0210 C.ar  1 <1>   0.0860 
 11 C       -0.3090    -7.4630    -0.1330 C.2   1 <1>   0.5440 
 12 O        0.4830    -8.1230    -0.7760 O.2   1 <1>  -0.5700 
 13 N       -1.3800    -8.0990     0.4530 N.am  1 <1>  -0.6600 
 14 C       -1.4300    -9.5920     0.5870 C.3   1 <1>   0.1400 
 15 C       -2.7300    -7.4700     0.5950 C.3   1 <1>   0.1400 
 16 C       -2.5320   -10.1940    -0.3040 C.3   1 <1>   0.3440 
 17 C       -3.7640    -8.1860    -0.2970 C.3   1 <1>   0.2950 
 18 O       -3.7590    -9.5600    -0.0450 O.3   1 <1>  -0.5600 
 19 C       -2.6620   -11.6930    -0.0520 C.ar  1 <1>  -0.1440 
 20 C       -5.1820    -7.6740    -0.0320 C.3   1 <1>  -0.1950 
 21 C       -1.8900   -12.5780    -0.7920 C.ar  1 <1>  -0.1500 
 22 C       -3.5260   -12.1970     0.9110 C.ar  1 <1>  -0.1500 
 23 C       -6.2590    -7.8100    -1.0620 C.3   1 <1>  -0.2000 
 24 C       -5.7060    -6.4540    -0.7250 C.3   1 <1>  -0.2000 
 25 C       -1.9770   -13.9420    -0.5720 C.ar  1 <1>  -0.1500 
 26 C       -3.6150   -13.5610     1.1320 C.ar  1 <1>  -0.1500 
 27 C       -2.8400   -14.4340     0.3910 C.ar  1 <1>  -0.1500 
 28 H        0.7400    -3.2940    -1.7440 H     1 <1>   0.1500 
 29 H       -0.6230    -5.9620     2.0340 H     1 <1>   0.1500 
 30 H        0.4890    -5.7180    -2.0490 H     1 <1>   0.1500 
 31 H       -0.4840   -10.0310     0.3230 H     1 <1>   0.0800 
 32 H       -1.6310    -9.8500     1.6120 H     1 <1>   0.0800 
 33 H       -3.0450    -7.5330     1.6220 H     1 <1>   0.0800 
 34 H       -2.7010    -6.4320     0.3180 H     1 <1>   0.0800 
 35 H       -2.2860   -10.0310    -1.3400 H     1 <1>   0.0800 
 36 H       -3.5160    -8.0360    -1.3340 H     1 <1>   0.0800 
 37 H       -5.4740    -7.8160     0.9940 H     1 <1>   0.1000 
 38 H       -1.2120   -12.2100    -1.5430 H     1 <1>   0.1500 
 39 H       -4.1360   -11.5260     1.4910 H     1 <1>   0.1500 
 40 H       -6.0120    -8.2590    -2.0090 H     1 <1>   0.1000 
 41 H       -7.2500    -8.0700    -0.7310 H     1 <1>   0.1000 
 42 H       -6.3280    -5.7700    -0.1730 H     1 <1>   0.1000 
 43 H       -5.1030    -5.9560    -1.4650 H     1 <1>   0.1000 
 44 H       -1.3750   -14.6200    -1.1500 H     1 <1>   0.1500 
 45 H       -4.2890   -13.9400     1.8800 H     1 <1>   0.1500 
 46 H       -2.9100   -15.4940     0.5620 H     1 <1>   0.1500 
@<TRIPOS>BOND
  1   1   2  1   
  2   2   3  1   
  3   2   4  1   
  4   2   5  1   
  5   5   6  ar  
  6   5   7  ar  
  7   6   8  ar  
  8   7   9  ar  
  9   7  28  1   
 10   8  10  ar  
 11   8  29  1   
 12   9  10  ar  
 13   9  30  1   
 14  10  11  1   
 15  11  12  2   
 16  11  13  am  
 17  13  14  1   
 18  13  15  1   
 19  14  16  1   
 20  14  31  1   
 21  14  32  1   
 22  15  17  1   
 23  15  33  1   
 24  15  34  1   
 25  16  18  1   
 26  16  19  1   
 27  16  35  1   
 28  17  18  1   
 29  17  20  1   
 30  17  36  1   
 31  19  21  ar  
 32  19  22  ar  
 33  20  23  1   
 34  20  24  1   
 35  20  37  1   
 36  21  25  ar  
 37  21  38  1   
 38  22  26  ar  
 39  22  39  1   
 40  23  24  1   
 41  23  40  1   
 42  23  41  1   
 43  24  42  1   
 44  24  43  1   
 45  25  27  ar  
 46  25  44  1   
 47  26  27  ar  
 48  26  45  1   
 49  27  46  1   
@<TRIPOS>SUBSTRUCTURE
  1 ****  13 GROUP 4 **** **** 0

# MOE 2024.06 (io_trps.svl 2023.06)
