@<TRIPOS>MOLECULE
NONAME
34 35 1 0 0 
SMALL
USER_CHARGES


@<TRIPOS>ATOM
  1 O        0.8460    -0.6720    -2.9390 O.2   1 <1>  -0.5700 
  2 C        0.6610    -0.9830    -1.7890 C.2   1 <1>   0.5690 
  3 N        1.1250    -0.2570    -0.7240 N.am  1 <1>  -0.4940 
  4 C       -0.1180    -2.2640    -1.5350 C.3   1 <1>   0.1570 
  5 C        1.8920     0.9100    -0.6880 C.2   1 <1>   0.2040 
  6 N       -0.1350    -2.5950    -0.0950 N.pl3 1 <1>   0.0480 
  7 O        2.1860     1.5990    -1.7640 O.3   1 <1>  -0.0190 
  8 C        2.4510     1.5350     0.3660 C.2   1 <1>  -0.1810 
  9 C        0.8820    -3.0680     0.6680 C.2   1 <1>   0.0060 
 10 C       -1.1050    -2.2810     0.7830 C.2   1 <1>  -0.3020 
 11 N        2.9100     2.6520    -1.4820 N.2   1 <1>  -0.4100 
 12 C        3.0840     2.6360    -0.2090 C.2   1 <1>   0.1080 
 13 C        2.4210     1.1540     1.8380 C.3   1 <1>  -0.0590 
 14 N        0.6230    -3.0620     1.9320 N.2   1 <1>  -0.5650 
 15 C        2.2110    -3.5410     0.1080 C.3   1 <1>  -0.0600 
 16 C       -0.6300    -2.5800     2.0100 C.2   1 <1>   0.0770 
 17 C        3.8820     3.6940     0.5340 C.3   1 <1>   0.0210 
 18 C        5.3400     3.2620     0.7180 C.3   1 <1>  -0.2400 
 19 H        0.9200    -0.6530     0.1970 H     1 <1>   0.3700 
 20 H        0.3370    -3.0700    -2.0790 H     1 <1>   0.0800 
 21 H       -1.1250    -2.1390    -1.8820 H     1 <1>   0.0800 
 22 H       -2.0590    -1.8710     0.5020 H     1 <1>   0.1500 
 23 H        1.8880     0.2310     1.9840 H     1 <1>   0.0800 
 24 H        1.9340     1.9250     2.4070 H     1 <1>   0.0800 
 25 H        3.4230     1.0280     2.2060 H     1 <1>   0.0800 
 26 H        2.0540    -4.3410    -0.5930 H     1 <1>   0.0800 
 27 H        2.8310    -3.9080     0.9070 H     1 <1>   0.0800 
 28 H        2.7260    -2.7340    -0.3800 H     1 <1>   0.0800 
 29 H       -1.1280    -2.4700     2.9600 H     1 <1>   0.1500 
 30 H        3.4300     3.8800     1.4910 H     1 <1>   0.0800 
 31 H        3.8500     4.6100    -0.0290 H     1 <1>   0.0800 
 32 H        5.3950     2.3540     1.2910 H     1 <1>   0.0800 
 33 H        5.8930     4.0300     1.2290 H     1 <1>   0.0800 
 34 H        5.7940     3.0900    -0.2420 H     1 <1>   0.0800 
@<TRIPOS>BOND
  1   1   2  2   
  2   2   3  am  
  3   2   4  1   
  4   3   5  1   
  5   3  19  1   
  6   4   6  1   
  7   4  20  1   
  8   4  21  1   
  9   5   7  1   
 10   5   8  2   
 11   6   9  1   
 12   6  10  1   
 13   7  11  1   
 14   8  12  1   
 15   8  13  1   
 16   9  14  2   
 17   9  15  1   
 18  10  16  2   
 19  10  22  1   
 20  11  12  2   
 21  12  17  1   
 22  13  23  1   
 23  13  24  1   
 24  13  25  1   
 25  14  16  1   
 26  15  26  1   
 27  15  27  1   
 28  15  28  1   
 29  16  29  1   
 30  17  18  1   
 31  17  30  1   
 32  17  31  1   
 33  18  32  1   
 34  18  33  1   
 35  18  34  1   
@<TRIPOS>SUBSTRUCTURE
  1 ****   3 GROUP 4 **** **** 0

# MOE 2024.06 (io_trps.svl 2023.06)
