@<TRIPOS>MOLECULE
NONAME
54 56 1 0 0 
SMALL
USER_CHARGES


@<TRIPOS>ATOM
  1 O        0.3630    -0.0120     0.0780 O.2   1 <1>  -0.5700 
  2 C        1.3910    -0.6480     0.0770 C.2   1 <1>   0.5690 
  3 N        2.5750    -0.0900    -0.2890 N.am  1 <1>  -0.5100 
  4 C        1.3650    -2.1070     0.5040 C.3   1 <1>  -0.0990 
  5 C        3.9710    -0.3990     0.1560 C.3   1 <1>   0.2250 
  6 C        2.9150     1.3620    -0.3960 C.3   1 <1>   0.2250 
  7 C        0.0040    -2.7880     0.2490 C.3   1 <1>  -0.0990 
  8 C        4.0880     1.0880     0.5680 C.3   1 <1>   0.0850 
  9 C       -0.0360    -4.2660     0.6290 C.2   1 <1>   0.4230 
 10 N        5.3350     1.7510     0.1360 N.pl3 1 <1>   0.4850 
 11 O        0.9670    -4.7520     1.0920 O.2   1 <1>  -0.5700 
 12 C       -1.2510    -5.0310     0.4250 C.ar  1 <1>   0.0860 
 13 N        6.4270     1.0650    -0.2640 N.2   1 <1>  -0.7070 
 14 C        5.5730     3.0870     0.1230 C.2   1 <1>  -0.3320 
 15 C       -2.4340    -4.4780    -0.0820 C.ar  1 <1>  -0.1500 
 16 C       -1.2850    -6.3910     0.7400 C.ar  1 <1>  -0.1500 
 17 C        7.3160     1.9680    -0.5300 C.2   1 <1>   0.1080 
 18 C        6.8420     3.2540    -0.3070 C.2   1 <1>  -0.1500 
 19 C        4.5800     4.1640     0.5320 C.3   1 <1>  -0.0600 
 20 C       -3.5800    -5.2310    -0.2690 C.ar  1 <1>  -0.1430 
 21 C       -2.4190    -7.1580     0.5610 C.ar  1 <1>  -0.1500 
 22 C        8.7010     1.6200    -1.0220 C.3   1 <1>  -0.0590 
 23 C       -3.5800    -6.5850     0.0530 C.ar  1 <1>   0.0830 
 24 C       -4.8380    -4.5760    -0.8250 C.3   1 <1>  -0.0970 
 25 O       -4.7220    -7.2840    -0.1450 O.3   1 <1>  -0.3630 
 26 C       -4.8270    -8.6570     0.1480 C.3   1 <1>   0.1200 
 27 C       -6.2440    -9.1060    -0.1970 C.3   1 <1>  -0.2400 
 28 H        1.5990    -2.1570     1.5510 H     1 <1>   0.0800 
 29 H        2.1280    -2.6390    -0.0350 H     1 <1>   0.0800 
 30 H        4.5720    -0.6990    -0.6840 H     1 <1>   0.0000 
 31 H        3.9870    -1.0820     0.9870 H     1 <1>   0.0000 
 32 H        2.1470     1.9910     0.0190 H     1 <1>   0.0000 
 33 H        3.2110     1.6150    -1.3990 H     1 <1>   0.0000 
 34 H       -0.2360    -2.6950    -0.7950 H     1 <1>   0.0800 
 35 H       -0.7500    -2.2720     0.8170 H     1 <1>   0.0800 
 36 H        3.8520     1.2740     1.6010 H     1 <1>   0.0000 
 37 H       -2.4670    -3.4360    -0.3400 H     1 <1>   0.1500 
 38 H       -0.3960    -6.8550     1.1350 H     1 <1>   0.1500 
 39 H        7.3930     4.1660    -0.4510 H     1 <1>   0.1500 
 40 H        4.2340     3.9940     1.5360 H     1 <1>   0.0800 
 41 H        3.7360     4.1710    -0.1350 H     1 <1>   0.0800 
 42 H        5.0490     5.1310     0.4940 H     1 <1>   0.0800 
 43 H       -2.3800    -8.1990     0.8220 H     1 <1>   0.1500 
 44 H        8.6270     1.0790    -1.9470 H     1 <1>   0.0800 
 45 H        9.1940     1.0000    -0.2950 H     1 <1>   0.0800 
 46 H        9.2810     2.5100    -1.1780 H     1 <1>   0.0800 
 47 H       -4.6840    -3.5310    -1.0220 H     1 <1>   0.0800 
 48 H       -5.6420    -4.6780    -0.1180 H     1 <1>   0.0800 
 49 H       -5.1240    -5.0610    -1.7410 H     1 <1>   0.0800 
 50 H       -4.6290    -8.7970     1.1970 H     1 <1>   0.0800 
 51 H       -4.1040    -9.1880    -0.4450 H     1 <1>   0.0800 
 52 H       -6.9580    -8.5560     0.3890 H     1 <1>   0.0800 
 53 H       -6.3570   -10.1530     0.0160 H     1 <1>   0.0800 
 54 H       -6.4370    -8.9450    -1.2430 H     1 <1>   0.0800 
@<TRIPOS>BOND
  1   1   2  2   
  2   2   3  am  
  3   2   4  1   
  4   3   5  1   
  5   3   6  1   
  6   4   7  1   
  7   4  28  1   
  8   4  29  1   
  9   5   8  1   
 10   5  30  1   
 11   5  31  1   
 12   6   8  1   
 13   6  32  1   
 14   6  33  1   
 15   7   9  1   
 16   7  34  1   
 17   7  35  1   
 18   8  10  1   
 19   8  36  1   
 20   9  11  2   
 21   9  12  1   
 22  10  13  1   
 23  10  14  1   
 24  12  15  ar  
 25  12  16  ar  
 26  13  17  2   
 27  14  18  2   
 28  14  19  1   
 29  15  20  ar  
 30  15  37  1   
 31  16  21  ar  
 32  16  38  1   
 33  17  18  1   
 34  17  22  1   
 35  18  39  1   
 36  19  40  1   
 37  19  41  1   
 38  19  42  1   
 39  20  23  ar  
 40  20  24  1   
 41  21  23  ar  
 42  21  43  1   
 43  22  44  1   
 44  22  45  1   
 45  22  46  1   
 46  23  25  1   
 47  24  47  1   
 48  24  48  1   
 49  24  49  1   
 50  25  26  1   
 51  26  27  1   
 52  26  50  1   
 53  26  51  1   
 54  27  52  1   
 55  27  53  1   
 56  27  54  1   
@<TRIPOS>SUBSTRUCTURE
  1 ****   4 GROUP 4 **** **** 0

# MOE 2024.06 (io_trps.svl 2023.06)
