@<TRIPOS>MOLECULE
NONAME
52 55 1 0 0 
SMALL
USER_CHARGES


@<TRIPOS>ATOM
  1 S        2.5120     1.9410    -1.9000 S.3   1 <1>  -0.2820 
  2 C        2.4900     2.2480    -0.1860 C.2   1 <1>   0.6510 
  3 C        2.2270     0.2290    -1.5940 C.2   1 <1>   0.5300 
  4 N        2.6630     3.4270     0.3270 N.2   1 <1>  -0.6210 
  5 N        2.2800     1.0620     0.4620 N.am  1 <1>  -0.0580 
  6 N        2.1350    -0.0650    -0.3630 N.2   1 <1>  -0.5120 
  7 C        2.1320    -0.6610    -2.8240 C.3   1 <1>  -0.0990 
  8 C        2.6130     3.4880     1.6950 C.2   1 <1>   0.0330 
  9 C        2.2460     1.1020     1.8480 C.2   1 <1>   0.6160 
 10 C        1.8890    -2.1430    -2.4940 C.3   1 <1>  -0.2400 
 11 C        2.4170     2.3750     2.4520 C.2   1 <1>  -0.1360 
 12 C        2.7960     4.8790     2.3040 C.3   1 <1>   0.4810 
 13 O        2.0890     0.1030     2.5320 O.2   1 <1>  -0.5700 
 14 N        3.8630     5.5860     1.5420 N.4   1 <1>  -0.9590 
 15 C        5.2260     5.0890     1.8800 C.3   1 <1>   0.3430 
 16 C        3.7370     7.0660     1.6160 C.3   1 <1>   0.3430 
 17 C        6.2460     5.7070     0.9260 C.3   1 <1>  -0.1600 
 18 C        4.7330     7.7060     0.6540 C.3   1 <1>  -0.1600 
 19 C        6.1770     7.2430     0.9260 C.3   1 <1>   0.1000 
 20 C        7.1640     7.8130    -0.0870 C.2   1 <1>   0.2980 
 21 O        8.4370     7.7930     0.2140 O.3   1 <1>  -0.0190 
 22 N        6.8760     8.3080    -1.2230 N.2   1 <1>  -0.5650 
 23 N        9.0110     8.3220    -0.8210 N.2   1 <1>  -0.4100 
 24 C        8.0930     8.6200    -1.6550 C.2   1 <1>   0.3350 
 25 C        8.2950     9.2750    -3.0230 C.3   1 <1>   0.1010 
 26 C        9.6810     8.9800    -3.6190 C.3   1 <1>  -0.2400 
 27 C        8.0740    10.7910    -2.9340 C.3   1 <1>  -0.2400 
 28 H        3.0470    -0.5700    -3.3810 H     1 <1>   0.0800 
 29 H        1.3300    -0.3020    -3.4430 H     1 <1>   0.0800 
 30 H        2.6910    -2.5300    -1.8890 H     1 <1>   0.0800 
 31 H        1.8310    -2.7210    -3.3990 H     1 <1>   0.0800 
 32 H        0.9660    -2.2600    -1.9530 H     1 <1>   0.0800 
 33 H        2.3740     2.3880     3.5260 H     1 <1>   0.1500 
 34 H        3.0460     4.8130     3.3500 H     1 <1>   0.0800 
 35 H        1.8660     5.4150     2.2030 H     1 <1>   0.0800 
 36 H        3.6750     5.2890     0.5660 H     1 <1>   0.4500 
 37 H        5.2600     4.0150     1.7900 H     1 <1>   0.0800 
 38 H        5.4720     5.3550     2.8960 H     1 <1>   0.0800 
 39 H        3.9360     7.4030     2.6210 H     1 <1>   0.0800 
 40 H        2.7380     7.3680     1.3460 H     1 <1>   0.0800 
 41 H        6.0730     5.3350    -0.0700 H     1 <1>   0.0800 
 42 H        7.2330     5.3930     1.2180 H     1 <1>   0.0800 
 43 H        4.6810     8.7770     0.7480 H     1 <1>   0.0800 
 44 H        4.4510     7.4620    -0.3560 H     1 <1>   0.0800 
 45 H        6.4710     7.6050     1.8970 H     1 <1>   0.0800 
 46 H        7.5560     8.8640    -3.6890 H     1 <1>   0.0800 
 47 H       10.4550     9.3960    -2.9960 H     1 <1>   0.0800 
 48 H        9.7650     9.4030    -4.6040 H     1 <1>   0.0800 
 49 H        9.8330     7.9170    -3.6870 H     1 <1>   0.0800 
 50 H        8.7920    11.2330    -2.2650 H     1 <1>   0.0800 
 51 H        7.0870    10.9970    -2.5600 H     1 <1>   0.0800 
 52 H        8.1750    11.2450    -3.9030 H     1 <1>   0.0800 
@<TRIPOS>BOND
  1   1   2  1   
  2   1   3  1   
  3   2   4  2   
  4   2   5  1   
  5   3   6  2   
  6   3   7  1   
  7   4   8  1   
  8   5   6  1   
  9   5   9  am  
 10   7  10  1   
 11   7  28  1   
 12   7  29  1   
 13   8  11  2   
 14   8  12  1   
 15   9  11  1   
 16   9  13  2   
 17  10  30  1   
 18  10  31  1   
 19  10  32  1   
 20  11  33  1   
 21  12  14  1   
 22  12  34  1   
 23  12  35  1   
 24  14  15  1   
 25  14  16  1   
 26  14  36  1   
 27  15  17  1   
 28  15  37  1   
 29  15  38  1   
 30  16  18  1   
 31  16  39  1   
 32  16  40  1   
 33  17  19  1   
 34  17  41  1   
 35  17  42  1   
 36  18  19  1   
 37  18  43  1   
 38  18  44  1   
 39  19  20  1   
 40  19  45  1   
 41  20  21  1   
 42  20  22  2   
 43  21  23  1   
 44  22  24  1   
 45  23  24  2   
 46  24  25  1   
 47  25  26  1   
 48  25  27  1   
 49  25  46  1   
 50  26  47  1   
 51  26  48  1   
 52  26  49  1   
 53  27  50  1   
 54  27  51  1   
 55  27  52  1   
@<TRIPOS>SUBSTRUCTURE
  1 ****  14 GROUP 4 **** **** 0

# MOE 2024.06 (io_trps.svl 2023.06)
