@<TRIPOS>MOLECULE
NONAME
46 50 1 0 0 
SMALL
USER_CHARGES


@<TRIPOS>ATOM
  1 O        0.1930     1.2860     1.1190 O.2   1 <1>  -0.5700 
  2 C       -0.2760     2.0800     0.3250 C.2   1 <1>   0.5440 
  3 N       -1.5620     1.8810    -0.1360 N.am  1 <1>  -0.6600 
  4 C        0.5250     3.2160    -0.0870 C.ar  1 <1>   0.0860 
  5 C       -2.4350     2.9780    -0.6650 C.3   1 <1>   0.1400 
  6 C       -2.2740     0.5860     0.0620 C.3   1 <1>   0.1400 
  7 C        0.6410     3.5900    -1.4180 C.ar  1 <1>  -0.1500 
  8 C        1.2250     3.9740     0.8780 C.ar  1 <1>  -0.1500 
  9 C       -3.6410     3.2200     0.2640 C.3   1 <1>   0.1440 
 10 C       -3.4750     0.7840     0.9940 C.3   1 <1>  -0.1600 
 11 C        1.4110     4.6940    -1.7740 C.ar  1 <1>   0.2270 
 12 C        1.9910     5.0630     0.5370 C.ar  1 <1>  -0.1500 
 13 C       -4.5120     4.2980    -0.3560 C.ar  1 <1>   0.1670 
 14 C       -4.4080     1.8990     0.4870 C.3   1 <1>  -0.1600 
 15 C       -3.2080     3.8730     1.6050 C.3   1 <1>  -0.1600 
 16 N        1.6570     5.2460    -2.9880 N.2   1 <1>  -0.2270 
 17 C        2.0710     5.4140    -0.8140 C.ar  1 <1>  -0.1520 
 18 N       -5.2810     4.1440    -1.4110 N.ar  1 <1>  -0.6200 
 19 C       -4.3920     5.4830     0.3050 C.ar  1 <1>  -0.1430 
 20 C       -3.4280     5.3890     1.4610 C.3   1 <1>  -0.0170 
 21 N        2.4290     6.2540    -2.8250 N.2   1 <1>  -0.4180 
 22 N        2.6980     6.3780    -1.5170 N.pl3 1 <1>   0.3000 
 23 C       -5.9440     5.2340    -1.7690 C.ar  1 <1>   0.4770 
 24 C       -5.1250     6.5490    -0.1530 C.ar  1 <1>   0.1600 
 25 N       -5.9140     6.4330    -1.2010 N.ar  1 <1>  -0.6200 
 26 C       -6.8470     5.1050    -2.9720 C.3   1 <1>  -0.0970 
 27 H       -2.7920     2.6970    -1.6410 H     1 <1>   0.0800 
 28 H       -1.8870     3.8960    -0.7670 H     1 <1>   0.0800 
 29 H       -1.6100    -0.1540     0.4770 H     1 <1>   0.0800 
 30 H       -2.6110     0.2260    -0.8950 H     1 <1>   0.0800 
 31 H        0.1450     3.0350    -2.1930 H     1 <1>   0.1500 
 32 H        1.1470     3.6670     1.9080 H     1 <1>   0.1500 
 33 H       -3.1120     1.0200     1.9790 H     1 <1>   0.0800 
 34 H       -4.0220    -0.1390     1.0630 H     1 <1>   0.0800 
 35 H        2.5210     5.6310     1.2830 H     1 <1>   0.1500 
 36 H       -4.8420     1.5870    -0.4480 H     1 <1>   0.0800 
 37 H       -5.2170     2.0510     1.1800 H     1 <1>   0.0800 
 38 H       -2.1920     3.6420     1.8710 H     1 <1>   0.0800 
 39 H       -3.8470     3.5210     2.3960 H     1 <1>   0.0800 
 40 H       -2.5070     5.8840     1.2050 H     1 <1>   0.0800 
 41 H       -3.8380     5.8170     2.3590 H     1 <1>   0.0800 
 42 H        3.3070     7.1110    -1.1420 H     1 <1>   0.2700 
 43 H       -5.0660     7.5060     0.3370 H     1 <1>   0.1500 
 44 H       -6.8190     4.1040    -3.3610 H     1 <1>   0.0800 
 45 H       -6.5250     5.7880    -3.7350 H     1 <1>   0.0800 
 46 H       -7.8550     5.3430    -2.6880 H     1 <1>   0.0800 
@<TRIPOS>BOND
  1   1   2  2   
  2   2   3  am  
  3   2   4  1   
  4   3   5  1   
  5   3   6  1   
  6   4   7  ar  
  7   4   8  ar  
  8   5   9  1   
  9   5  27  1   
 10   5  28  1   
 11   6  10  1   
 12   6  29  1   
 13   6  30  1   
 14   7  11  ar  
 15   7  31  1   
 16   8  12  ar  
 17   8  32  1   
 18   9  13  1   
 19   9  14  1   
 20   9  15  1   
 21  10  14  1   
 22  10  33  1   
 23  10  34  1   
 24  11  16  1   
 25  11  17  ar  
 26  12  17  ar  
 27  12  35  1   
 28  13  18  ar  
 29  13  19  ar  
 30  14  36  1   
 31  14  37  1   
 32  15  20  1   
 33  15  38  1   
 34  15  39  1   
 35  16  21  2   
 36  17  22  1   
 37  18  23  ar  
 38  19  20  1   
 39  19  24  ar  
 40  20  40  1   
 41  20  41  1   
 42  21  22  1   
 43  22  42  1   
 44  23  25  ar  
 45  23  26  1   
 46  24  25  ar  
 47  24  43  1   
 48  26  44  1   
 49  26  45  1   
 50  26  46  1   
@<TRIPOS>SUBSTRUCTURE
  1 ****   5 GROUP 4 **** **** 0

# MOE 2024.06 (io_trps.svl 2023.06)
