@<TRIPOS>MOLECULE
NONAME
47 50 1 0 0 
SMALL
USER_CHARGES


@<TRIPOS>ATOM
  1 F       -0.8650     1.5850     1.1210 F     1 <1>  -0.1900 
  2 C        0.0770     2.2950     0.5540 C.ar  1 <1>   0.1900 
  3 C        0.0530     3.6600     0.6870 C.ar  1 <1>  -0.1500 
  4 C        1.0650     1.6140    -0.1630 C.ar  1 <1>  -0.1500 
  5 C        1.0730     4.3990     0.0730 C.ar  1 <1>   0.0000 
  6 C        2.0680     2.3370    -0.7670 C.ar  1 <1>  -0.1500 
  7 C        2.0640     3.7320    -0.6400 C.ar  1 <1>  -0.1520 
  8 C        1.3710     5.7730    -0.0140 C.2   1 <1>  -0.1810 
  9 N        2.9280     4.6680    -1.1320 N.pl3 1 <1>   0.0330 
 10 C        2.5270     5.9220    -0.7350 C.2   1 <1>  -0.2370 
 11 C        0.4670     6.8270     0.6040 C.3   1 <1>  -0.0590 
 12 C        3.3160     7.0670    -1.1070 C.2   1 <1>   0.7150 
 13 O        4.2430     6.9590    -1.8900 O.2   1 <1>  -0.5700 
 14 N        3.1660     8.2830    -0.5020 N.am  1 <1>  -0.6600 
 15 C        3.6400     8.3800     0.9200 C.3   1 <1>   0.2200 
 16 C        3.1440     9.5130    -1.3530 C.3   1 <1>   0.1400 
 17 C        3.0220     9.5620     1.6840 C.3   1 <1>   0.1200 
 18 C        5.1900     8.4310     0.9820 C.3   1 <1>   0.3430 
 19 C        4.0960    10.6370    -0.8990 C.3   1 <1>  -0.0800 
 20 O        3.7800    10.7200     1.4950 O.3   1 <1>  -0.5600 
 21 N        5.8220     8.8180    -0.3300 N.4   1 <1>  -0.9590 
 22 C        3.5470    11.4070     0.3120 C.3   1 <1>   0.1200 
 23 C        5.5790    10.2440    -0.7210 C.3   1 <1>   0.3430 
 24 C        7.2740     8.4850    -0.3580 C.3   1 <1>   0.2630 
 25 H       -0.7210     4.1530     1.2440 H     1 <1>   0.1500 
 26 H        1.0220     0.5420    -0.2290 H     1 <1>   0.1500 
 27 H        2.8450     1.8460    -1.3280 H     1 <1>   0.1500 
 28 H        3.7320     4.4770    -1.7410 H     1 <1>   0.2700 
 29 H       -0.5600     6.5940     0.3850 H     1 <1>   0.0800 
 30 H        0.6740     7.8010     0.2050 H     1 <1>   0.0800 
 31 H        0.5960     6.8430     1.6710 H     1 <1>   0.0800 
 32 H        3.3200     7.4900     1.4350 H     1 <1>   0.0800 
 33 H        3.3890     9.2450    -2.3680 H     1 <1>   0.0800 
 34 H        2.1350     9.8910    -1.3720 H     1 <1>   0.0800 
 35 H        3.0490     9.3520     2.7390 H     1 <1>   0.0800 
 36 H        1.9970     9.7350     1.4020 H     1 <1>   0.0800 
 37 H        5.5360     7.4500     1.2600 H     1 <1>   0.0800 
 38 H        5.4970     9.1120     1.7580 H     1 <1>   0.0800 
 39 H        4.0820    11.3590    -1.6960 H     1 <1>   0.0800 
 40 H        5.3360     8.2310    -1.0440 H     1 <1>   0.4500 
 41 H        2.4910    11.6040     0.2200 H     1 <1>   0.0800 
 42 H        4.0530    12.3550     0.4010 H     1 <1>   0.0800 
 43 H        6.0250    10.8980     0.0110 H     1 <1>   0.0800 
 44 H        6.0790    10.4220    -1.6590 H     1 <1>   0.0800 
 45 H        7.8050     9.0650     0.3790 H     1 <1>   0.0800 
 46 H        7.6860     8.6980    -1.3310 H     1 <1>   0.0800 
 47 H        7.4190     7.4380    -0.1480 H     1 <1>   0.0800 
@<TRIPOS>BOND
  1   1   2  1   
  2   2   3  ar  
  3   2   4  ar  
  4   3   5  ar  
  5   3  25  1   
  6   4   6  ar  
  7   4  26  1   
  8   5   7  ar  
  9   5   8  1   
 10   6   7  ar  
 11   6  27  1   
 12   7   9  1   
 13   8  10  2   
 14   8  11  1   
 15   9  10  1   
 16   9  28  1   
 17  10  12  1   
 18  11  29  1   
 19  11  30  1   
 20  11  31  1   
 21  12  13  2   
 22  12  14  am  
 23  14  15  1   
 24  14  16  1   
 25  15  17  1   
 26  15  18  1   
 27  15  32  1   
 28  16  19  1   
 29  16  33  1   
 30  16  34  1   
 31  17  20  1   
 32  17  35  1   
 33  17  36  1   
 34  18  21  1   
 35  18  37  1   
 36  18  38  1   
 37  19  22  1   
 38  19  23  1   
 39  19  39  1   
 40  20  22  1   
 41  21  23  1   
 42  21  24  1   
 43  21  40  1   
 44  22  41  1   
 45  22  42  1   
 46  23  43  1   
 47  23  44  1   
 48  24  45  1   
 49  24  46  1   
 50  24  47  1   
@<TRIPOS>SUBSTRUCTURE
  1 ****  10 GROUP 4 **** **** 0

# MOE 2024.06 (io_trps.svl 2023.06)
