@<TRIPOS>MOLECULE
NONAME
43 45 1 0 0 
SMALL
USER_CHARGES


@<TRIPOS>ATOM
  1 O        1.7910    -2.3290     2.5880 O.2   1 <1>  -0.5700 
  2 C        1.4410    -2.8260     1.5290 C.2   1 <1>   0.5440 
  3 N        0.6260    -2.0500     0.7190 N.am  1 <1>  -0.6600 
  4 C        1.8660    -4.1980     1.2210 C.ar  1 <1>   0.3960 
  5 C        0.0900    -2.4170    -0.6150 C.3   1 <1>   0.1400 
  6 C        0.0670    -0.7530     1.1610 C.3   1 <1>   0.1400 
  7 N        1.8140    -4.6820    -0.0320 N.ar  1 <1>  -0.6200 
  8 C        2.3040    -5.0050     2.2800 C.ar  1 <1>   0.1600 
  9 C       -0.8010    -1.2510    -1.0310 C.3   1 <1>  -0.1600 
 10 C       -1.1500    -0.5380     0.2720 C.3   1 <1>  -0.1600 
 11 C        2.1560    -5.9450    -0.1350 C.ar  1 <1>   0.4100 
 12 N        2.6750    -6.2770     2.1880 N.ar  1 <1>  -0.6200 
 13 N        2.0030    -6.4510    -1.3930 N.pl3 1 <1>  -0.8690 
 14 C        2.5930    -6.7160     0.9500 C.ar  1 <1>   0.1600 
 15 C        0.7380    -7.2080    -1.6740 C.3   1 <1>   0.2700 
 16 C       -0.4750    -6.3060    -1.9640 C.2   1 <1>   0.5690 
 17 O       -0.5780    -5.8530    -3.0820 O.2   1 <1>  -0.5700 
 18 N       -1.4130    -6.0270    -1.0010 N.am  1 <1>  -0.6600 
 19 C       -1.3260    -6.3430     0.4420 C.3   1 <1>   0.1400 
 20 C       -2.5750    -5.1510    -1.2760 C.3   1 <1>   0.1400 
 21 C       -2.1720    -5.2700     1.1140 C.3   1 <1>  -0.1600 
 22 C       -3.2390    -4.9220     0.0790 C.3   1 <1>  -0.1600 
 23 H       -0.4840    -3.3220    -0.5320 H     1 <1>   0.0800 
 24 H        0.8900    -2.5620    -1.3220 H     1 <1>   0.0800 
 25 H        0.8010     0.0170     0.9950 H     1 <1>   0.0800 
 26 H       -0.2010    -0.7780     2.2040 H     1 <1>   0.0800 
 27 H        2.3430    -4.5700     3.2650 H     1 <1>   0.1500 
 28 H       -1.6720    -1.5860    -1.5640 H     1 <1>   0.0800 
 29 H       -0.2350    -0.5930    -1.6670 H     1 <1>   0.0800 
 30 H       -1.3590     0.5070     0.1260 H     1 <1>   0.0800 
 31 H       -2.0030    -1.0070     0.7300 H     1 <1>   0.0800 
 32 H        2.0620    -5.6820    -2.0720 H     1 <1>   0.4000 
 33 H        2.8740    -7.7340     0.7550 H     1 <1>   0.1500 
 34 H        0.5130    -7.8590    -0.8500 H     1 <1>   0.0800 
 35 H        0.8990    -7.8270    -2.5380 H     1 <1>   0.0800 
 36 H       -0.3140    -6.3180     0.8020 H     1 <1>   0.0800 
 37 H       -1.7530    -7.3160     0.6170 H     1 <1>   0.0800 
 38 H       -3.2470    -5.6250    -1.9700 H     1 <1>   0.0800 
 39 H       -2.2290    -4.2220    -1.6960 H     1 <1>   0.0800 
 40 H       -1.5570    -4.4090     1.3120 H     1 <1>   0.0800 
 41 H       -2.5960    -5.6160     2.0400 H     1 <1>   0.0800 
 42 H       -4.0740    -5.5930     0.1750 H     1 <1>   0.0800 
 43 H       -3.5920    -3.9110     0.1820 H     1 <1>   0.0800 
@<TRIPOS>BOND
  1   1   2  2   
  2   2   3  am  
  3   2   4  1   
  4   3   5  1   
  5   3   6  1   
  6   4   7  ar  
  7   4   8  ar  
  8   5   9  1   
  9   5  23  1   
 10   5  24  1   
 11   6  10  1   
 12   6  25  1   
 13   6  26  1   
 14   7  11  ar  
 15   8  12  ar  
 16   8  27  1   
 17   9  10  1   
 18   9  28  1   
 19   9  29  1   
 20  10  30  1   
 21  10  31  1   
 22  11  13  1   
 23  11  14  ar  
 24  12  14  ar  
 25  13  15  1   
 26  13  32  1   
 27  14  33  1   
 28  15  16  1   
 29  15  34  1   
 30  15  35  1   
 31  16  17  2   
 32  16  18  am  
 33  18  19  1   
 34  18  20  1   
 35  19  21  1   
 36  19  36  1   
 37  19  37  1   
 38  20  22  1   
 39  20  38  1   
 40  20  39  1   
 41  21  22  1   
 42  21  40  1   
 43  21  41  1   
 44  22  42  1   
 45  22  43  1   
@<TRIPOS>SUBSTRUCTURE
  1 ****   7 GROUP 4 **** **** 0

# MOE 2024.06 (io_trps.svl 2023.06)
