@<TRIPOS>MOLECULE
NONAME
43 45 1 0 0 
SMALL
USER_CHARGES


@<TRIPOS>ATOM
  1 O       -0.0350     1.3270     1.4920 O.2   1 <1>  -0.5700 
  2 C        0.0510     2.4130     0.9420 C.2   1 <1>   0.5440 
  3 N       -1.0890     3.1810     0.7980 N.am  1 <1>  -0.6600 
  4 C        1.3340     2.8600     0.4490 C.ar  1 <1>   0.0860 
  5 C       -2.3890     2.7790     1.4150 C.3   1 <1>   0.1400 
  6 C       -1.2180     4.2740    -0.2040 C.3   1 <1>   0.1400 
  7 C        2.0470     2.1090    -0.5010 C.ar  1 <1>   0.1000 
  8 C        1.8910     4.0540     0.9080 C.ar  1 <1>  -0.1500 
  9 C       -3.3680     2.2720     0.3380 C.3   1 <1>   0.0000 
 10 C       -2.1730     3.8380    -1.3210 C.3   1 <1>  -0.1600 
 11 N        1.5630     0.8980    -0.9680 N.pl3 1 <1>  -0.9000 
 12 C        3.2640     2.5780    -0.9840 C.ar  1 <1>  -0.1500 
 13 C        3.1040     4.5000     0.4230 C.ar  1 <1>   0.0830 
 14 C       -4.7050     1.8580     0.9830 C.3   1 <1>   0.2000 
 15 C       -3.5270     3.3570    -0.7670 C.3   1 <1>  -0.1600 
 16 C       -2.9130     0.9330    -0.2710 C.3   1 <1>  -0.1600 
 17 C        3.7940     3.7680    -0.5280 C.ar  1 <1>  -0.1500 
 18 O        3.6360     5.6530     0.8690 O.3   1 <1>  -0.5330 
 19 O       -5.5610     2.9240     1.1890 O.3   1 <1>  -0.6800 
 20 C       -5.3430     0.8390     0.0400 C.3   1 <1>  -0.1600 
 21 C       -4.1880     0.2510    -0.7810 C.3   1 <1>  -0.1600 
 22 H       -2.2320     2.0190     2.1600 H     1 <1>   0.0800 
 23 H       -2.8160     3.6340     1.9110 H     1 <1>   0.0800 
 24 H       -1.6060     5.1510     0.2850 H     1 <1>   0.0800 
 25 H       -0.2650     4.5240    -0.6340 H     1 <1>   0.0800 
 26 H        1.3570     4.6210     1.6470 H     1 <1>   0.1500 
 27 H       -2.3340     4.6670    -1.9870 H     1 <1>   0.0800 
 28 H       -1.7020     3.0590    -1.8940 H     1 <1>   0.0800 
 29 H        0.8530     0.4660    -0.3530 H     1 <1>   0.4000 
 30 H        2.2500     0.2080    -1.2830 H     1 <1>   0.4000 
 31 H        3.7940     2.0050    -1.7220 H     1 <1>   0.1500 
 32 H       -4.5210     1.3920     1.9380 H     1 <1>   0.0800 
 33 H       -4.1330     2.9890    -1.5760 H     1 <1>   0.0800 
 34 H       -4.0220     4.2170    -0.3530 H     1 <1>   0.0800 
 35 H       -2.1760     1.0410    -1.0450 H     1 <1>   0.0800 
 36 H       -2.4850     0.3200     0.5050 H     1 <1>   0.0800 
 37 H        4.7350     4.1330    -0.8980 H     1 <1>   0.1500 
 38 H        3.1070     6.0670     1.5740 H     1 <1>   0.4500 
 39 H       -5.7940     3.3210     0.3300 H     1 <1>   0.4000 
 40 H       -5.8380     0.0710     0.6080 H     1 <1>   0.0800 
 41 H       -6.0510     1.3090    -0.6200 H     1 <1>   0.0800 
 42 H       -4.1230    -0.8170    -0.6660 H     1 <1>   0.0800 
 43 H       -4.3310     0.4790    -1.8240 H     1 <1>   0.0800 
@<TRIPOS>BOND
  1   1   2  2   
  2   2   3  am  
  3   2   4  1   
  4   3   5  1   
  5   3   6  1   
  6   4   7  ar  
  7   4   8  ar  
  8   5   9  1   
  9   5  22  1   
 10   5  23  1   
 11   6  10  1   
 12   6  24  1   
 13   6  25  1   
 14   7  11  1   
 15   7  12  ar  
 16   8  13  ar  
 17   8  26  1   
 18   9  14  1   
 19   9  15  1   
 20   9  16  1   
 21  10  15  1   
 22  10  27  1   
 23  10  28  1   
 24  11  29  1   
 25  11  30  1   
 26  12  17  ar  
 27  12  31  1   
 28  13  17  ar  
 29  13  18  1   
 30  14  19  1   
 31  14  20  1   
 32  14  32  1   
 33  15  33  1   
 34  15  34  1   
 35  16  21  1   
 36  16  35  1   
 37  16  36  1   
 38  17  37  1   
 39  18  38  1   
 40  19  39  1   
 41  20  21  1   
 42  20  40  1   
 43  20  41  1   
 44  21  42  1   
 45  21  43  1   
@<TRIPOS>SUBSTRUCTURE
  1 ****   3 GROUP 4 **** **** 0

# MOE 2024.06 (io_trps.svl 2023.06)
