@<TRIPOS>MOLECULE
NONAME
48 49 1 0 0 
SMALL
USER_CHARGES


@<TRIPOS>ATOM
  1 O       -0.6330     1.0620    -1.2940 O.3   1 <1>  -0.6800 
  2 C       -0.4890     2.3200    -0.7330 C.3   1 <1>   0.2000 
  3 C       -1.4510     2.5370     0.4790 C.3   1 <1>   0.0000 
  4 C        0.9840     2.4960    -0.3310 C.3   1 <1>   0.3430 
  5 C       -0.8340     3.5760     1.4640 C.3   1 <1>  -0.1600 
  6 C       -1.6580     1.1980     1.2460 C.3   1 <1>   0.1200 
  7 C       -2.8390     3.0170    -0.0400 C.3   1 <1>  -0.1600 
  8 N        1.2670     3.8920     0.1610 N.4   1 <1>  -0.9590 
  9 C        0.0880     4.5860     0.7790 C.3   1 <1>   0.3430 
 10 O       -2.4300     1.3790     2.3870 O.3   1 <1>  -0.6800 
 11 C       -2.8990     4.4120    -0.6960 C.3   1 <1>  -0.1600 
 12 C        1.8810     4.7310    -0.9030 C.3   1 <1>   0.5240 
 13 C       -4.3140     4.7050    -1.2020 C.3   1 <1>  -0.2400 
 14 C        2.3050     6.0350    -0.2690 C.2   1 <1>  -0.1810 
 15 C        1.6420     7.2560    -0.3860 C.2   1 <1>   0.1080 
 16 C        3.3660     6.2880     0.5340 C.2   1 <1>  -0.3320 
 17 N        2.2200     8.1830     0.3000 N.2   1 <1>  -0.7070 
 18 C        0.3950     7.5610    -1.1910 C.3   1 <1>  -0.0590 
 19 N        3.2920     7.5970     0.8600 N.pl3 1 <1>   0.3000 
 20 C        4.4870     5.3870     1.0290 C.3   1 <1>  -0.0600 
 21 H       -1.5440     0.9270    -1.6320 H     1 <1>   0.4000 
 22 H       -0.6950     3.0220    -1.5200 H     1 <1>   0.0800 
 23 H        1.6150     2.2600    -1.1730 H     1 <1>   0.0800 
 24 H        1.1960     1.7920     0.4570 H     1 <1>   0.0800 
 25 H       -0.2580     3.0800     2.2260 H     1 <1>   0.0800 
 26 H       -1.6210     4.1040     1.9750 H     1 <1>   0.0800 
 27 H       -0.7200     0.7620     1.5450 H     1 <1>   0.0800 
 28 H       -2.1790     0.4850     0.6300 H     1 <1>   0.0800 
 29 H       -3.2140     2.2910    -0.7420 H     1 <1>   0.0800 
 30 H       -3.5350     3.0240     0.7820 H     1 <1>   0.0800 
 31 H        1.9890     3.8400     0.8910 H     1 <1>   0.4500 
 32 H        0.4310     5.3210     1.4920 H     1 <1>   0.0800 
 33 H       -0.4680     5.1050     0.0170 H     1 <1>   0.0800 
 34 H       -1.9160     1.7590     3.1240 H     1 <1>   0.4000 
 35 H       -2.6430     5.1720     0.0210 H     1 <1>   0.0800 
 36 H       -2.2270     4.4860    -1.5300 H     1 <1>   0.0800 
 37 H        2.7490     4.2390    -1.3120 H     1 <1>   0.0800 
 38 H        1.1790     4.9110    -1.6990 H     1 <1>   0.0800 
 39 H       -5.0200     4.6710    -0.3900 H     1 <1>   0.0800 
 40 H       -4.6090     3.9840    -1.9450 H     1 <1>   0.0800 
 41 H       -4.3550     5.6840    -1.6450 H     1 <1>   0.0800 
 42 H        0.2360     6.8380    -1.9660 H     1 <1>   0.0800 
 43 H        0.5010     8.5290    -1.6480 H     1 <1>   0.0800 
 44 H       -0.4590     7.5900    -0.5400 H     1 <1>   0.0800 
 45 H        3.9520     8.1220     1.4490 H     1 <1>   0.2700 
 46 H        4.3970     4.3950     0.6260 H     1 <1>   0.0800 
 47 H        4.4710     5.3270     2.1040 H     1 <1>   0.0800 
 48 H        5.4390     5.7870     0.7250 H     1 <1>   0.0800 
@<TRIPOS>BOND
  1   1   2  1   
  2   1  21  1   
  3   2   3  1   
  4   2   4  1   
  5   2  22  1   
  6   3   5  1   
  7   3   6  1   
  8   3   7  1   
  9   4   8  1   
 10   4  23  1   
 11   4  24  1   
 12   5   9  1   
 13   5  25  1   
 14   5  26  1   
 15   6  10  1   
 16   6  27  1   
 17   6  28  1   
 18   7  11  1   
 19   7  29  1   
 20   7  30  1   
 21   8   9  1   
 22   8  12  1   
 23   8  31  1   
 24   9  32  1   
 25   9  33  1   
 26  10  34  1   
 27  11  13  1   
 28  11  35  1   
 29  11  36  1   
 30  12  14  1   
 31  12  37  1   
 32  12  38  1   
 33  13  39  1   
 34  13  40  1   
 35  13  41  1   
 36  14  15  1   
 37  14  16  2   
 38  15  17  2   
 39  15  18  1   
 40  16  19  1   
 41  16  20  1   
 42  17  19  1   
 43  18  42  1   
 44  18  43  1   
 45  18  44  1   
 46  19  45  1   
 47  20  46  1   
 48  20  47  1   
 49  20  48  1   
@<TRIPOS>SUBSTRUCTURE
  1 ****   9 GROUP 4 **** **** 0

# MOE 2024.06 (io_trps.svl 2023.06)
