@<TRIPOS>MOLECULE
NONAME
51 53 1 0 0 
SMALL
USER_CHARGES


@<TRIPOS>ATOM
  1 CL       0.8890     0.8700    -0.6710 Cl    1 <1>  -0.1770 
  2 C        1.9880    -0.2650     0.0750 C.ar  1 <1>   0.1770 
  3 C        2.9660     0.1980     0.9370 C.ar  1 <1>  -0.1440 
  4 C        1.8660    -1.6050    -0.2340 C.ar  1 <1>  -0.1500 
  5 C        3.8370    -0.7220     1.4980 C.ar  1 <1>  -0.1500 
  6 C        3.0910     1.6740     1.2540 C.3   1 <1>   0.4870 
  7 C        2.7450    -2.5300     0.3230 C.ar  1 <1>   0.0830 
  8 C        3.7430    -2.0740     1.2070 C.ar  1 <1>   0.0830 
  9 N        4.3010     2.2090     0.5760 N.4   1 <1>  -0.9590 
 10 O        2.6580    -3.8540     0.0100 O.3   1 <1>  -0.3620 
 11 O        4.6780    -2.8360     1.8420 O.3   1 <1>  -0.3620 
 12 C        4.7280     3.5440     1.1340 C.3   1 <1>   0.3430 
 13 C        4.2110     2.1130    -0.9220 C.3   1 <1>   0.3430 
 14 C        1.6040    -4.3900    -0.7580 C.3   1 <1>   0.1200 
 15 C        4.5620    -4.2340     1.9920 C.3   1 <1>   0.0400 
 16 C        6.1260     4.0420     0.6660 C.3   1 <1>   0.2200 
 17 C        5.5570     2.2810    -1.6440 C.3   1 <1>  -0.0190 
 18 C        1.7850    -5.9070    -0.8180 C.3   1 <1>  -0.1600 
 19 N        6.0640     4.5180    -0.7350 N.am  1 <1>  -0.7300 
 20 C        7.2480     2.9860     0.8270 C.3   1 <1>   0.1200 
 21 C        5.8270     3.7520    -1.8140 C.2   1 <1>   0.5690 
 22 C        6.7720     1.5470    -1.0330 C.3   1 <1>   0.1200 
 23 C        0.6740    -6.5690    -1.6400 C.3   1 <1>  -0.2400 
 24 O        6.8770     1.7140     0.3560 O.3   1 <1>  -0.5600 
 25 O        5.7980     4.2390    -2.9100 O.2   1 <1>  -0.5700 
 26 H        1.0870    -1.8950    -0.9130 H     1 <1>   0.1500 
 27 H        4.6120    -0.4110     2.1780 H     1 <1>   0.1500 
 28 H        3.1840     1.7930     2.3220 H     1 <1>   0.0800 
 29 H        2.2140     2.2100     0.9300 H     1 <1>   0.0800 
 30 H        5.0890     1.5700     0.8060 H     1 <1>   0.4500 
 31 H        3.9960     4.2940     0.8850 H     1 <1>   0.0800 
 32 H        4.7590     3.4670     2.2080 H     1 <1>   0.0800 
 33 H        3.8310     1.1390    -1.1840 H     1 <1>   0.0800 
 34 H        3.5120     2.8430    -1.2970 H     1 <1>   0.0800 
 35 H        0.6720    -4.1390    -0.2820 H     1 <1>   0.0800 
 36 H        1.6490    -3.9650    -1.7450 H     1 <1>   0.0800 
 37 H        5.3030    -4.5590     2.7000 H     1 <1>   0.0800 
 38 H        4.7390    -4.7030     1.0410 H     1 <1>   0.0800 
 39 H        3.5770    -4.4680     2.3580 H     1 <1>   0.0800 
 40 H        6.3910     4.8920     1.2710 H     1 <1>   0.0800 
 41 H        5.4270     1.8920    -2.6370 H     1 <1>   0.0800 
 42 H        2.7380    -6.1320    -1.2640 H     1 <1>   0.0800 
 43 H        1.7700    -6.3050     0.1820 H     1 <1>   0.0800 
 44 H        6.2940     5.5000    -0.9250 H     1 <1>   0.3700 
 45 H        7.4770     2.8700     1.8720 H     1 <1>   0.0800 
 46 H        8.1490     3.2990     0.3260 H     1 <1>   0.0800 
 47 H        7.6900     1.8750    -1.4930 H     1 <1>   0.0800 
 48 H        6.6740     0.4890    -1.2090 H     1 <1>   0.0800 
 49 H        0.6810    -6.1990    -2.6510 H     1 <1>   0.0800 
 50 H       -0.2890    -6.3710    -1.2030 H     1 <1>   0.0800 
 51 H        0.8240    -7.6340    -1.6670 H     1 <1>   0.0800 
@<TRIPOS>BOND
  1   1   2  1   
  2   2   3  ar  
  3   2   4  ar  
  4   3   5  ar  
  5   3   6  1   
  6   4   7  ar  
  7   4  26  1   
  8   5   8  ar  
  9   5  27  1   
 10   6   9  1   
 11   6  28  1   
 12   6  29  1   
 13   7   8  ar  
 14   7  10  1   
 15   8  11  1   
 16   9  12  1   
 17   9  13  1   
 18   9  30  1   
 19  10  14  1   
 20  11  15  1   
 21  12  16  1   
 22  12  31  1   
 23  12  32  1   
 24  13  17  1   
 25  13  33  1   
 26  13  34  1   
 27  14  18  1   
 28  14  35  1   
 29  14  36  1   
 30  15  37  1   
 31  15  38  1   
 32  15  39  1   
 33  16  19  1   
 34  16  20  1   
 35  16  40  1   
 36  17  21  1   
 37  17  22  1   
 38  17  41  1   
 39  18  23  1   
 40  18  42  1   
 41  18  43  1   
 42  19  21  am  
 43  19  44  1   
 44  20  24  1   
 45  20  45  1   
 46  20  46  1   
 47  21  25  2   
 48  22  24  1   
 49  22  47  1   
 50  22  48  1   
 51  23  49  1   
 52  23  50  1   
 53  23  51  1   
@<TRIPOS>SUBSTRUCTURE
  1 ****   3 GROUP 4 **** **** 0

# MOE 2024.06 (io_trps.svl 2023.06)
