@<TRIPOS>MOLECULE
NONAME
48 50 1 0 0 
SMALL
USER_CHARGES


@<TRIPOS>ATOM
  1 O       -4.5270    -3.5380     0.4350 O.co2 1 <1>  -0.9000 
  2 C       -5.0190    -3.2210    -0.6490 C.2   1 <1>   0.9060 
  3 O       -5.8780    -3.9420    -1.1760 O.co2 1 <1>  -0.9000 
  4 C       -4.8100    -1.8190    -1.1830 C.3   1 <1>   0.0140 
  5 O       -6.0520    -1.1160    -1.2610 O.3   1 <1>  -0.3630 
  6 C       -6.3770    -0.2420    -0.2850 C.ar  1 <1>   0.0830 
  7 C       -6.8530    -0.6350     0.9700 C.ar  1 <1>  -0.1440 
  8 C       -6.2720     1.1020    -0.6050 C.ar  1 <1>  -0.1500 
  9 C       -7.2090     0.3530     1.8800 C.ar  1 <1>  -0.1500 
 10 C       -7.0040    -2.0830     1.4320 C.3   1 <1>   0.4870 
 11 C       -6.6300     2.0710     0.3120 C.ar  1 <1>  -0.1500 
 12 C       -7.1000     1.6950     1.5560 C.ar  1 <1>  -0.1500 
 13 N       -7.7860    -2.9380     0.4980 N.4   1 <1>  -0.9590 
 14 C       -8.8320    -2.3000    -0.3420 C.3   1 <1>   0.3430 
 15 C       -8.3080    -4.1900     1.0780 C.3   1 <1>   0.3430 
 16 C      -10.0000    -3.2930    -0.3900 C.3   1 <1>   0.2000 
 17 C       -9.4420    -4.6130     0.1450 C.3   1 <1>  -0.0800 
 18 O      -11.0060    -2.8590     0.4670 O.3   1 <1>  -0.6800 
 19 C       -8.9050    -5.5180    -0.9770 C.3   1 <1>   0.0210 
 20 C       -8.2610    -6.7510    -0.3760 C.2   1 <1>   0.1080 
 21 N       -8.9260    -7.6280     0.3100 N.2   1 <1>  -0.7070 
 22 C       -6.9080    -7.0590    -0.4580 C.2   1 <1>  -0.1500 
 23 N       -8.0030    -8.5430     0.6710 N.pl3 1 <1>   0.3000 
 24 C       -6.7740    -8.2150     0.2240 C.2   1 <1>  -0.3320 
 25 C       -5.5170    -9.0270     0.4760 C.3   1 <1>  -0.0600 
 26 H       -4.4040    -1.8840    -2.1740 H     1 <1>   0.0800 
 27 H       -4.1330    -1.2800    -0.5470 H     1 <1>   0.0800 
 28 H       -5.9110     1.3830    -1.5780 H     1 <1>   0.1500 
 29 H       -7.5730     0.0910     2.8580 H     1 <1>   0.1500 
 30 H       -7.5030    -2.0750     2.3850 H     1 <1>   0.0800 
 31 H       -6.0310    -2.5110     1.5940 H     1 <1>   0.0800 
 32 H       -6.5440     3.1140     0.0580 H     1 <1>   0.1500 
 33 H       -7.3780     2.4490     2.2740 H     1 <1>   0.1500 
 34 H       -7.0660    -3.2800    -0.1900 H     1 <1>   0.4500 
 35 H       -9.1540    -1.3580     0.0680 H     1 <1>   0.0800 
 36 H       -8.4350    -2.1400    -1.3320 H     1 <1>   0.0800 
 37 H       -7.5330    -4.9400     1.1390 H     1 <1>   0.0800 
 38 H       -8.7020    -4.0040     2.0620 H     1 <1>   0.0800 
 39 H      -10.4220    -3.3750    -1.3780 H     1 <1>   0.0800 
 40 H      -10.1890    -5.1680     0.6860 H     1 <1>   0.0800 
 41 H      -10.7210    -2.8820     1.4000 H     1 <1>   0.4000 
 42 H       -8.1820    -5.0000    -1.5830 H     1 <1>   0.0800 
 43 H       -9.7120    -5.8320    -1.6140 H     1 <1>   0.0800 
 44 H       -6.1540    -6.4710    -0.9590 H     1 <1>   0.1500 
 45 H       -8.2420    -9.3760     1.2210 H     1 <1>   0.2700 
 46 H       -4.6710    -8.5410     0.0220 H     1 <1>   0.0800 
 47 H       -5.6160   -10.0100     0.0530 H     1 <1>   0.0800 
 48 H       -5.3340    -9.1110     1.5320 H     1 <1>   0.0800 
@<TRIPOS>BOND
  1   1   2  ar  
  2   2   3  ar  
  3   2   4  1   
  4   4   5  1   
  5   4  26  1   
  6   4  27  1   
  7   5   6  1   
  8   6   7  ar  
  9   6   8  ar  
 10   7   9  ar  
 11   7  10  1   
 12   8  11  ar  
 13   8  28  1   
 14   9  12  ar  
 15   9  29  1   
 16  10  13  1   
 17  10  30  1   
 18  10  31  1   
 19  11  12  ar  
 20  11  32  1   
 21  12  33  1   
 22  13  14  1   
 23  13  15  1   
 24  13  34  1   
 25  14  16  1   
 26  14  35  1   
 27  14  36  1   
 28  15  17  1   
 29  15  37  1   
 30  15  38  1   
 31  16  17  1   
 32  16  18  1   
 33  16  39  1   
 34  17  19  1   
 35  17  40  1   
 36  18  41  1   
 37  19  20  1   
 38  19  42  1   
 39  19  43  1   
 40  20  21  2   
 41  20  22  1   
 42  21  23  1   
 43  22  24  2   
 44  22  44  1   
 45  23  24  1   
 46  23  45  1   
 47  24  25  1   
 48  25  46  1   
 49  25  47  1   
 50  25  48  1   
@<TRIPOS>SUBSTRUCTURE
  1 ****  13 GROUP 4 **** **** 0

# MOE 2024.06 (io_trps.svl 2023.06)
