@<TRIPOS>MOLECULE
NONAME
39 41 1 0 0 
SMALL
USER_CHARGES


@<TRIPOS>ATOM
  1 F        2.3160    -0.2560    -1.3640 F     1 <1>  -0.1900 
  2 C        2.3920    -0.5120    -0.0820 C.ar  1 <1>   0.1900 
  3 C        2.5680     0.5410     0.8050 C.ar  1 <1>  -0.1440 
  4 C        2.2820    -1.8340     0.3290 C.ar  1 <1>  -0.1440 
  5 C        2.6130     0.2420     2.1600 C.ar  1 <1>  -0.1500 
  6 C        2.6820     1.9880     0.3290 C.3   1 <1>   0.2540 
  7 C        2.3430    -2.1020     1.6870 C.ar  1 <1>  -0.1500 
  8 C        2.0990    -2.9640    -0.6740 C.3   1 <1>  -0.0960 
  9 C        2.5050    -1.0690     2.5960 C.ar  1 <1>  -0.1500 
 10 N        4.0740     2.4300     0.1110 N.3   1 <1>  -0.8100 
 11 C        4.8920     2.4080     1.3500 C.3   1 <1>   0.1100 
 12 C        4.6990     1.7490    -1.0440 C.3   1 <1>   0.1100 
 13 C        6.2570     3.1450     1.2760 C.3   1 <1>   0.2200 
 14 C        6.0090     2.4000    -1.5380 C.3   1 <1>  -0.0190 
 15 N        6.3130     4.1550     0.1860 N.am  1 <1>  -0.7300 
 16 C        7.4410     2.1620     1.1520 C.3   1 <1>   0.1200 
 17 C        6.1540     3.8500    -1.1190 C.2   1 <1>   0.5690 
 18 C        7.2630     1.5990    -1.1520 C.3   1 <1>   0.1200 
 19 O        7.2420     1.1760     0.1790 O.3   1 <1>  -0.5600 
 20 O        6.1620     4.7220    -1.9530 O.2   1 <1>  -0.5700 
 21 H        2.7340     1.0300     2.8830 H     1 <1>   0.1500 
 22 H        2.2270     2.6350     1.0590 H     1 <1>   0.0800 
 23 H        2.1260     2.1170    -0.5840 H     1 <1>   0.0800 
 24 H        2.2630    -3.1130     2.0460 H     1 <1>   0.1500 
 25 H        2.0340    -3.9150    -0.1790 H     1 <1>   0.0800 
 26 H        2.9310    -2.9870    -1.3540 H     1 <1>   0.0800 
 27 H        1.1960    -2.8080    -1.2380 H     1 <1>   0.0800 
 28 H        2.5460    -1.2870     3.6490 H     1 <1>   0.1500 
 29 H        4.3230     2.8780     2.1320 H     1 <1>   0.0800 
 30 H        5.0590     1.3870     1.6520 H     1 <1>   0.0800 
 31 H        4.8710     0.7120    -0.8060 H     1 <1>   0.0800 
 32 H        4.0000     1.7800    -1.8620 H     1 <1>   0.0800 
 33 H        6.3940     3.6690     2.2050 H     1 <1>   0.0800 
 34 H        5.9760     2.3950    -2.6120 H     1 <1>   0.0800 
 35 H        6.2470     5.1410     0.4350 H     1 <1>   0.3700 
 36 H        7.5610     1.6440     2.0870 H     1 <1>   0.0800 
 37 H        8.3570     2.6870     0.9410 H     1 <1>   0.0800 
 38 H        8.1590     2.1710    -1.3260 H     1 <1>   0.0800 
 39 H        7.3100     0.7080    -1.7530 H     1 <1>   0.0800 
@<TRIPOS>BOND
  1   1   2  1   
  2   2   3  ar  
  3   2   4  ar  
  4   3   5  ar  
  5   3   6  1   
  6   4   7  ar  
  7   4   8  1   
  8   5   9  ar  
  9   5  21  1   
 10   6  10  1   
 11   6  22  1   
 12   6  23  1   
 13   7   9  ar  
 14   7  24  1   
 15   8  25  1   
 16   8  26  1   
 17   8  27  1   
 18   9  28  1   
 19  10  11  1   
 20  10  12  1   
 21  11  13  1   
 22  11  29  1   
 23  11  30  1   
 24  12  14  1   
 25  12  31  1   
 26  12  32  1   
 27  13  15  1   
 28  13  16  1   
 29  13  33  1   
 30  14  17  1   
 31  14  18  1   
 32  14  34  1   
 33  15  17  am  
 34  15  35  1   
 35  16  19  1   
 36  16  36  1   
 37  16  37  1   
 38  17  20  2   
 39  18  19  1   
 40  18  38  1   
 41  18  39  1   
@<TRIPOS>SUBSTRUCTURE
  1 ****  10 GROUP 4 **** **** 0

# MOE 2024.06 (io_trps.svl 2023.06)
