@<TRIPOS>MOLECULE
NONAME
35 36 1 0 0 
SMALL
USER_CHARGES


@<TRIPOS>ATOM
  1 BR       0.4510     0.1290    -1.7170 Br    1 <1>  -0.1110 
  2 C        1.9090     1.2160    -1.1030 C.ar  1 <1>   0.4210 
  3 N        1.7740     2.5170    -1.2920 N.ar  1 <1>  -0.6200 
  4 C        2.9820     0.5710    -0.5130 C.ar  1 <1>  -0.1500 
  5 C        2.8030     3.2280    -0.8550 C.ar  1 <1>   0.1600 
  6 C        4.0370     1.3390    -0.0680 C.ar  1 <1>  -0.1500 
  7 C        3.9400     2.7060    -0.2480 C.ar  1 <1>  -0.0320 
  8 C        5.0590     3.6200     0.2170 C.3   1 <1>  -0.0680 
  9 C        5.6720     4.5930    -0.7440 C.3   1 <1>   0.0490 
 10 C        6.4560     3.4090    -0.2790 C.3   1 <1>  -0.2000 
 11 N        6.0220     5.9320    -0.2400 N.am  1 <1>  -0.5790 
 12 C        7.2260     6.5440    -0.3370 C.2   1 <1>   0.7800 
 13 O        8.1970     6.0180    -0.8420 O.2   1 <1>  -0.5700 
 14 O        7.2690     7.7780     0.1610 O.3   1 <1>  -0.4300 
 15 C        8.3860     8.6430     0.1940 C.3   1 <1>   0.2800 
 16 C        9.5070     8.0290     1.0400 C.3   1 <1>  -0.2400 
 17 C        8.8430     8.9740    -1.2320 C.3   1 <1>  -0.2400 
 18 C        7.8840     9.9190     0.8710 C.3   1 <1>  -0.2400 
 19 H        2.9810    -0.4980    -0.4110 H     1 <1>   0.1500 
 20 H        2.7380     4.2940    -0.9860 H     1 <1>   0.1500 
 21 H        4.8990     0.8950     0.4000 H     1 <1>   0.1500 
 22 H        4.9490     3.9240     1.2430 H     1 <1>   0.1000 
 23 H        5.3450     4.6030    -1.7710 H     1 <1>   0.1000 
 24 H        6.6450     2.6200    -0.9850 H     1 <1>   0.1000 
 25 H        7.2870     3.5790     0.3830 H     1 <1>   0.1000 
 26 H        5.2660     6.4930     0.1470 H     1 <1>   0.3700 
 27 H       10.2970     8.7460     1.1770 H     1 <1>   0.0800 
 28 H        9.9320     7.1680     0.5580 H     1 <1>   0.0800 
 29 H        9.1350     7.7460     2.0080 H     1 <1>   0.0800 
 30 H        9.6000     9.7360    -1.2060 H     1 <1>   0.0800 
 31 H        8.0170     9.3350    -1.8170 H     1 <1>   0.0800 
 32 H        9.2680     8.1130    -1.7140 H     1 <1>   0.0800 
 33 H        8.6770    10.6420     0.9400 H     1 <1>   0.0800 
 34 H        7.5360     9.7020     1.8650 H     1 <1>   0.0800 
 35 H        7.0800    10.3520     0.3030 H     1 <1>   0.0800 
@<TRIPOS>BOND
  1   1   2  1   
  2   2   3  ar  
  3   2   4  ar  
  4   3   5  ar  
  5   4   6  ar  
  6   4  19  1   
  7   5   7  ar  
  8   5  20  1   
  9   6   7  ar  
 10   6  21  1   
 11   7   8  1   
 12   8   9  1   
 13   8  10  1   
 14   8  22  1   
 15   9  10  1   
 16   9  11  1   
 17   9  23  1   
 18  10  24  1   
 19  10  25  1   
 20  11  12  am  
 21  11  26  1   
 22  12  13  2   
 23  12  14  1   
 24  14  15  1   
 25  15  16  1   
 26  15  17  1   
 27  15  18  1   
 28  16  27  1   
 29  16  28  1   
 30  16  29  1   
 31  17  30  1   
 32  17  31  1   
 33  17  32  1   
 34  18  33  1   
 35  18  34  1   
 36  18  35  1   
@<TRIPOS>SUBSTRUCTURE
  1 ****   9 GROUP 4 **** **** 0

# MOE 2024.06 (io_trps.svl 2023.06)
