@<TRIPOS>MOLECULE
NONAME
54 58 1 0 0 
SMALL
USER_CHARGES


@<TRIPOS>ATOM
  1 O        0.6780    -0.4500     1.4660 O.2   1 <1>  -0.5700 
  2 C       -0.1560     0.2650     0.9560 C.2   1 <1>   0.5690 
  3 N       -1.5020     0.0020     1.0910 N.am  1 <1>  -0.6600 
  4 C        0.3720     1.4000     0.1010 C.3   1 <1>   0.1570 
  5 C       -1.9860    -1.0860     1.9890 C.3   1 <1>   0.1400 
  6 C       -2.6150     0.7500     0.4420 C.3   1 <1>   0.1400 
  7 N       -0.0420     2.7200     0.6070 N.pl3 1 <1>   0.3140 
  8 C       -2.8230    -2.0830     1.1810 C.3   1 <1>  -0.1600 
  9 C       -3.4540    -0.2150    -0.3970 C.3   1 <1>  -0.1600 
 10 N        0.2600     3.1500     1.8530 N.2   1 <1>  -0.7070 
 11 C       -0.6990     3.6850    -0.1110 C.ar  1 <1>  -0.1520 
 12 C       -3.9830    -1.3970     0.4390 C.3   1 <1>   0.4240 
 13 C       -0.2170     4.3460     1.9270 C.2   1 <1>   0.1390 
 14 C       -0.8370     4.7620     0.7390 C.ar  1 <1>   0.0000 
 15 C       -1.1930     3.7420    -1.4220 C.ar  1 <1>  -0.1500 
 16 O       -4.7640    -0.8420     1.4760 O.3   1 <1>  -0.5600 
 17 C       -4.7990    -2.4110    -0.4140 C.ar  1 <1>  -0.1430 
 18 C       -1.4880     5.9240     0.3030 C.ar  1 <1>  -0.1500 
 19 C       -1.8290     4.8860    -1.8440 C.ar  1 <1>  -0.1500 
 20 C       -6.0920    -0.5380     1.2030 C.3   1 <1>   0.1200 
 21 C       -4.2240    -3.1370    -1.4660 C.ar  1 <1>   0.0820 
 22 C       -6.1520    -2.6180    -0.1400 C.ar  1 <1>  -0.1430 
 23 C       -1.9780     5.9790    -0.9800 C.ar  1 <1>  -0.1500 
 24 C       -6.8350    -1.8420     0.9670 C.3   1 <1>  -0.0170 
 25 O       -2.9130    -2.9390    -1.7680 O.3   1 <1>  -0.3620 
 26 C       -4.9900    -4.0440    -2.1960 C.ar  1 <1>  -0.1500 
 27 C       -6.9020    -3.5240    -0.8690 C.ar  1 <1>  -0.1500 
 28 C       -2.1870    -3.8160    -2.6010 C.3   1 <1>   0.0400 
 29 C       -6.3220    -4.2390    -1.8970 C.ar  1 <1>  -0.1500 
 30 H        0.0280     1.2710    -0.9050 H     1 <1>   0.0800 
 31 H        1.4450     1.3690     0.1040 H     1 <1>   0.0800 
 32 H       -2.5830    -0.6530     2.7740 H     1 <1>   0.0800 
 33 H       -1.1610    -1.6010     2.4500 H     1 <1>   0.0800 
 34 H       -2.2470     1.5280    -0.1960 H     1 <1>   0.0800 
 35 H       -3.2230     1.2060     1.2050 H     1 <1>   0.0800 
 36 H       -3.2220    -2.8360     1.8350 H     1 <1>   0.0800 
 37 H       -2.1630    -2.5750     0.4960 H     1 <1>   0.0800 
 38 H       -2.8360    -0.5740    -1.1950 H     1 <1>   0.0800 
 39 H       -4.2740     0.3080    -0.8510 H     1 <1>   0.0800 
 40 H       -0.1440     4.9650     2.8040 H     1 <1>   0.1500 
 41 H       -1.0770     2.9060    -2.0880 H     1 <1>   0.1500 
 42 H       -1.5900     6.7540     0.9780 H     1 <1>   0.1500 
 43 H       -2.2190     4.9570    -2.8450 H     1 <1>   0.1500 
 44 H       -6.1440     0.1040     0.3410 H     1 <1>   0.0800 
 45 H       -6.4950    -0.0210     2.0560 H     1 <1>   0.0800 
 46 H       -2.4800     6.8630    -1.3350 H     1 <1>   0.1500 
 47 H       -7.8530    -1.6250     0.7000 H     1 <1>   0.0800 
 48 H       -6.8370    -2.4240     1.8720 H     1 <1>   0.0800 
 49 H       -4.5710    -4.6070    -3.0070 H     1 <1>   0.1500 
 50 H       -7.9420    -3.6780    -0.6410 H     1 <1>   0.1500 
 51 H       -1.1530    -3.5230    -2.5740 H     1 <1>   0.0800 
 52 H       -2.5630    -3.7350    -3.6060 H     1 <1>   0.0800 
 53 H       -2.2920    -4.8200    -2.2280 H     1 <1>   0.0800 
 54 H       -6.9080    -4.9420    -2.4630 H     1 <1>   0.1500 
@<TRIPOS>BOND
  1   1   2  2   
  2   2   3  am  
  3   2   4  1   
  4   3   5  1   
  5   3   6  1   
  6   4   7  1   
  7   4  30  1   
  8   4  31  1   
  9   5   8  1   
 10   5  32  1   
 11   5  33  1   
 12   6   9  1   
 13   6  34  1   
 14   6  35  1   
 15   7  10  1   
 16   7  11  1   
 17   8  12  1   
 18   8  36  1   
 19   8  37  1   
 20   9  12  1   
 21   9  38  1   
 22   9  39  1   
 23  10  13  2   
 24  11  14  ar  
 25  11  15  ar  
 26  12  16  1   
 27  12  17  1   
 28  13  14  1   
 29  13  40  1   
 30  14  18  ar  
 31  15  19  ar  
 32  15  41  1   
 33  16  20  1   
 34  17  21  ar  
 35  17  22  ar  
 36  18  23  ar  
 37  18  42  1   
 38  19  23  ar  
 39  19  43  1   
 40  20  24  1   
 41  20  44  1   
 42  20  45  1   
 43  21  25  1   
 44  21  26  ar  
 45  22  24  1   
 46  22  27  ar  
 47  23  46  1   
 48  24  47  1   
 49  24  48  1   
 50  25  28  1   
 51  26  29  ar  
 52  26  49  1   
 53  27  29  ar  
 54  27  50  1   
 55  28  51  1   
 56  28  52  1   
 57  28  53  1   
 58  29  54  1   
@<TRIPOS>SUBSTRUCTURE
  1 ****   6 GROUP 4 **** **** 0

# MOE 2024.06 (io_trps.svl 2023.06)
