@<TRIPOS>MOLECULE
NONAME
48 51 1 0 0 
SMALL
USER_CHARGES


@<TRIPOS>ATOM
  1 O       -3.7830    -4.1600     0.5020 O.co2 1 <1>  -0.9000 
  2 C       -4.4900    -3.6240     1.3600 C.2   1 <1>   0.9060 
  3 O       -4.0560    -3.1610     2.4180 O.co2 1 <1>  -0.9000 
  4 C       -5.9660    -3.3880     1.0220 C.3   1 <1>   0.2370 
  5 N       -6.2580    -2.0730     0.3190 N.4   1 <1>  -0.9590 
  6 C       -5.8990    -0.9420     1.2470 C.3   1 <1>   0.3430 
  7 C       -5.4820    -2.0230    -0.9540 C.3   1 <1>   0.3430 
  8 C       -6.3840     0.4420     0.7510 C.3   1 <1>   0.2200 
  9 C       -5.7510    -0.7760    -1.8240 C.3   1 <1>  -0.0800 
 10 N       -7.5030     0.2880    -0.2530 N.am  1 <1>  -0.6600 
 11 C       -5.2260     1.3170     0.2430 C.3   1 <1>   0.1200 
 12 C       -4.5950     0.2310    -1.7610 C.3   1 <1>   0.1200 
 13 C       -7.1260    -0.0950    -1.6590 C.3   1 <1>   0.1400 
 14 C       -8.7950     0.2600     0.2280 C.2   1 <1>   0.5690 
 15 O       -4.2800     0.5680    -0.4550 O.3   1 <1>  -0.5600 
 16 O       -9.0590     0.6800     1.3280 O.2   1 <1>  -0.5700 
 17 C       -9.9450    -0.3430    -0.5500 C.3   1 <1>   0.1570 
 18 N       -9.9490    -1.7950    -0.3030 N.pl3 1 <1>   0.3140 
 19 N       -8.9790    -2.5960    -0.7810 N.2   1 <1>  -0.7070 
 20 C      -10.8570    -2.4690     0.4120 C.2   1 <1>  -0.3020 
 21 C       -9.3180    -3.7990    -0.3640 C.ar  1 <1>   0.2890 
 22 C      -10.4920    -3.7780     0.4080 C.ar  1 <1>   0.0000 
 23 C       -8.6590    -5.0290    -0.5900 C.ar  1 <1>  -0.1500 
 24 C      -10.9930    -4.9820     0.9650 C.ar  1 <1>  -0.1500 
 25 C       -9.1530    -6.1790    -0.0470 C.ar  1 <1>  -0.1500 
 26 C      -10.3320    -6.1530     0.7400 C.ar  1 <1>  -0.1500 
 27 H       -6.5150    -3.4360     1.9440 H     1 <1>   0.0800 
 28 H       -6.2790    -4.2060     0.4020 H     1 <1>   0.0800 
 29 H       -7.2670    -2.0300     0.0830 H     1 <1>   0.4500 
 30 H       -6.3490    -1.1270     2.2080 H     1 <1>   0.0800 
 31 H       -4.8310    -0.9200     1.4020 H     1 <1>   0.0800 
 32 H       -4.4270    -2.0800    -0.7320 H     1 <1>   0.0800 
 33 H       -5.7300    -2.8990    -1.5300 H     1 <1>   0.0800 
 34 H       -6.7610     0.9640     1.6130 H     1 <1>   0.0800 
 35 H       -5.7310    -1.1320    -2.8380 H     1 <1>   0.0800 
 36 H       -4.7110     1.7320     1.0910 H     1 <1>   0.0800 
 37 H       -5.5790     2.1300    -0.3680 H     1 <1>   0.0800 
 38 H       -4.8150     1.1310    -2.3110 H     1 <1>   0.0800 
 39 H       -3.7080    -0.2110    -2.1840 H     1 <1>   0.0800 
 40 H       -7.8610    -0.7600    -2.0720 H     1 <1>   0.0800 
 41 H       -7.1440     0.7960    -2.2630 H     1 <1>   0.0800 
 42 H       -9.8560    -0.1540    -1.6000 H     1 <1>   0.0800 
 43 H      -10.8700     0.0740    -0.1990 H     1 <1>   0.0800 
 44 H      -11.7050    -2.0160     0.8930 H     1 <1>   0.1500 
 45 H       -7.7740    -5.0200    -1.1980 H     1 <1>   0.1500 
 46 H      -11.8910    -4.9360     1.5550 H     1 <1>   0.1500 
 47 H       -8.6650    -7.1260    -0.2050 H     1 <1>   0.1500 
 48 H      -10.6900    -7.0820     1.1520 H     1 <1>   0.1500 
@<TRIPOS>BOND
  1   1   2  ar  
  2   2   3  ar  
  3   2   4  1   
  4   4   5  1   
  5   4  27  1   
  6   4  28  1   
  7   5   6  1   
  8   5   7  1   
  9   5  29  1   
 10   6   8  1   
 11   6  30  1   
 12   6  31  1   
 13   7   9  1   
 14   7  32  1   
 15   7  33  1   
 16   8  10  1   
 17   8  11  1   
 18   8  34  1   
 19   9  12  1   
 20   9  13  1   
 21   9  35  1   
 22  10  13  1   
 23  10  14  am  
 24  11  15  1   
 25  11  36  1   
 26  11  37  1   
 27  12  15  1   
 28  12  38  1   
 29  12  39  1   
 30  13  40  1   
 31  13  41  1   
 32  14  16  2   
 33  14  17  1   
 34  17  18  1   
 35  17  42  1   
 36  17  43  1   
 37  18  19  1   
 38  18  20  1   
 39  19  21  2   
 40  20  22  2   
 41  20  44  1   
 42  21  22  ar  
 43  21  23  ar  
 44  22  24  ar  
 45  23  25  ar  
 46  23  45  1   
 47  24  26  ar  
 48  24  46  1   
 49  25  26  ar  
 50  25  47  1   
 51  26  48  1   
@<TRIPOS>SUBSTRUCTURE
  1 ****   5 GROUP 4 **** **** 0

# MOE 2024.06 (io_trps.svl 2023.06)
