@<TRIPOS>MOLECULE
NONAME
31 32 1 0 0 
SMALL
USER_CHARGES


@<TRIPOS>ATOM
  1 O       -0.2320     1.2870     0.8680 O.3   1 <1>  -0.3630 
  2 C       -1.3810     1.3630     0.1370 C.ar  1 <1>   0.3920 
  3 C        0.2010     0.0510     1.4050 C.3   1 <1>   0.0400 
  4 N       -2.0850     0.2560    -0.0420 N.ar  1 <1>  -0.6200 
  5 C       -1.7390     2.6340    -0.3920 C.ar  1 <1>   0.4100 
  6 C       -3.1670     0.4750    -0.7770 C.ar  1 <1>   0.1600 
  7 N       -2.8230     2.8240    -1.1290 N.ar  1 <1>  -0.6200 
  8 N       -0.9520     3.7500    -0.1500 N.pl3 1 <1>  -0.8690 
  9 C       -3.5190     1.7090    -1.2990 C.ar  1 <1>   0.1600 
 10 C       -0.7270     4.7440    -1.2180 C.3   1 <1>   0.4690 
 11 C        0.7090     5.2530    -1.1310 C.2   1 <1>   0.0070 
 12 C       -1.7380     5.8820    -1.0780 C.3   1 <1>  -0.2400 
 13 N        1.5540     5.1540    -2.1030 N.2   1 <1>  -0.3380 
 14 N        1.2660     5.8470    -0.0630 N.pl3 1 <1>   0.0480 
 15 N        2.7010     5.6910    -1.6890 N.2   1 <1>  -0.3380 
 16 C        2.5080     6.0940    -0.4830 C.2   1 <1>   0.0360 
 17 C        0.7110     6.1820     1.2650 C.3   1 <1>   0.0160 
 18 H        1.1210     0.2160     1.9360 H     1 <1>   0.0800 
 19 H        0.3590    -0.6430     0.5980 H     1 <1>   0.0800 
 20 H       -0.5530    -0.3200     2.0770 H     1 <1>   0.0800 
 21 H       -3.8030    -0.3710    -0.9720 H     1 <1>   0.1500 
 22 H       -0.0490     3.4560     0.2310 H     1 <1>   0.4000 
 23 H       -4.4180     1.7850    -1.8850 H     1 <1>   0.1500 
 24 H       -0.8600     4.2740    -2.1800 H     1 <1>   0.0800 
 25 H       -1.7110     6.3060    -0.0940 H     1 <1>   0.0800 
 26 H       -2.7280     5.5150    -1.2710 H     1 <1>   0.0800 
 27 H       -1.5160     6.6490    -1.7980 H     1 <1>   0.0800 
 28 H        3.2520     6.5750     0.1260 H     1 <1>   0.1500 
 29 H        0.0280     5.4180     1.5840 H     1 <1>   0.0800 
 30 H        0.1940     7.1230     1.2050 H     1 <1>   0.0800 
 31 H        1.5100     6.2590     1.9790 H     1 <1>   0.0800 
@<TRIPOS>BOND
  1   1   2  1   
  2   1   3  1   
  3   2   4  ar  
  4   2   5  ar  
  5   3  18  1   
  6   3  19  1   
  7   3  20  1   
  8   4   6  ar  
  9   5   7  ar  
 10   5   8  1   
 11   6   9  ar  
 12   6  21  1   
 13   7   9  ar  
 14   8  10  1   
 15   8  22  1   
 16   9  23  1   
 17  10  11  1   
 18  10  12  1   
 19  10  24  1   
 20  11  13  2   
 21  11  14  1   
 22  12  25  1   
 23  12  26  1   
 24  12  27  1   
 25  13  15  1   
 26  14  16  1   
 27  14  17  1   
 28  15  16  2   
 29  16  28  1   
 30  17  29  1   
 31  17  30  1   
 32  17  31  1   
@<TRIPOS>SUBSTRUCTURE
  1 ****   8 GROUP 4 **** **** 0

# MOE 2024.06 (io_trps.svl 2023.06)
