@<TRIPOS>MOLECULE
NONAME
30 32 1 0 0 
SMALL
USER_CHARGES


@<TRIPOS>ATOM
  1 F       -1.2460     1.2650     1.4720 F     1 <1>  -0.3400 
  2 C       -1.8480     1.0770     0.2980 C.3   1 <1>   0.2600 
  3 C       -3.1570     1.8580     0.3280 C.3   1 <1>   0.2000 
  4 C       -2.2740    -0.3950     0.2200 C.3   1 <1>   0.2090 
  5 O       -3.6400     1.9970    -0.9730 O.3   1 <1>  -0.6800 
  6 C       -4.0910     0.9220     1.0990 C.3   1 <1>   0.2090 
  7 N       -3.7020    -0.4640     0.6810 N.pl3 1 <1>  -0.8220 
  8 C       -4.5770    -1.1640    -0.1670 C.2   1 <1>   0.2700 
  9 N       -5.3380    -0.5870    -1.0290 N.2   1 <1>  -0.3380 
 10 N       -4.7250    -2.5030    -0.2570 N.pl3 1 <1>   0.5930 
 11 N       -5.9710    -1.5650    -1.6680 N.2   1 <1>   0.0000 
 12 N       -5.6150    -2.7120    -1.2290 N.2   1 <1>  -0.4180 
 13 C       -4.0440    -3.5490     0.4360 C.ar  1 <1>  -0.0230 
 14 C       -3.7130    -3.4260     1.7840 C.ar  1 <1>  -0.1500 
 15 C       -3.6900    -4.7230    -0.2260 C.ar  1 <1>  -0.1500 
 16 C       -3.0450    -4.4400     2.4470 C.ar  1 <1>  -0.1500 
 17 C       -3.0230    -5.7380     0.4360 C.ar  1 <1>  -0.1500 
 18 C       -2.6980    -5.5970     1.7730 C.ar  1 <1>  -0.1500 
 19 H       -1.1580     1.3910    -0.4630 H     1 <1>   0.0800 
 20 H       -3.0560     2.8360     0.7630 H     1 <1>   0.0800 
 21 H       -1.6420    -1.0150     0.8320 H     1 <1>   0.0800 
 22 H       -2.2100    -0.7250    -0.8020 H     1 <1>   0.0800 
 23 H       -4.1460     1.1860    -1.2160 H     1 <1>   0.4000 
 24 H       -5.1270     1.1420     0.9010 H     1 <1>   0.0800 
 25 H       -3.9130     1.0250     2.1560 H     1 <1>   0.0800 
 26 H       -3.9780    -2.5330     2.3250 H     1 <1>   0.1500 
 27 H       -3.9400    -4.8490    -1.2670 H     1 <1>   0.1500 
 28 H       -2.7950    -4.3300     3.4880 H     1 <1>   0.1500 
 29 H       -2.7570    -6.6400    -0.0890 H     1 <1>   0.1500 
 30 H       -2.1790    -6.3870     2.2890 H     1 <1>   0.1500 
@<TRIPOS>BOND
  1   1   2  1   
  2   2   3  1   
  3   2   4  1   
  4   2  19  1   
  5   3   5  1   
  6   3   6  1   
  7   3  20  1   
  8   4   7  1   
  9   4  21  1   
 10   4  22  1   
 11   5  23  1   
 12   6   7  1   
 13   6  24  1   
 14   6  25  1   
 15   7   8  1   
 16   8   9  2   
 17   8  10  1   
 18   9  11  1   
 19  10  12  1   
 20  10  13  1   
 21  11  12  2   
 22  13  14  ar  
 23  13  15  ar  
 24  14  16  ar  
 25  14  26  1   
 26  15  17  ar  
 27  15  27  1   
 28  16  18  ar  
 29  16  28  1   
 30  17  18  ar  
 31  17  29  1   
 32  18  30  1   
@<TRIPOS>SUBSTRUCTURE
  1 ****   8 GROUP 4 **** **** 0

# MOE 2024.06 (io_trps.svl 2023.06)
