@<TRIPOS>MOLECULE
NONAME
44 44 1 0 0 
SMALL
USER_CHARGES


@<TRIPOS>ATOM
  1 S        0.1530    -1.0610    -1.7640 S.3   1 <1>  -0.4600 
  2 C       -1.4570    -1.3050    -0.9640 C.3   1 <1>   0.0700 
  3 C        1.4290    -1.1440    -0.4580 C.3   1 <1>   0.0700 
  4 C       -1.4320    -2.6880    -0.3080 C.3   1 <1>   0.4230 
  5 C        1.8530    -2.6010    -0.2080 C.3   1 <1>   0.0700 
  6 N       -2.7820    -3.3370    -0.2560 N.4   1 <1>  -0.9060 
  7 C       -0.7790    -2.6050     1.0790 C.3   1 <1>   0.0700 
  8 S        0.7850    -3.5040     0.9790 S.3   1 <1>  -0.4600 
  9 C       -2.6690    -4.7880     0.0770 C.3   1 <1>   0.3430 
 10 C       -4.0530    -5.4460     0.0970 C.3   1 <1>  -0.1600 
 11 C       -3.9340    -6.9470     0.4080 C.3   1 <1>   0.3430 
 12 N       -5.2670    -7.6210     0.3360 N.4   1 <1>  -0.9590 
 13 C       -6.1140    -7.3320     1.5300 C.3   1 <1>   0.3430 
 14 C       -5.1140    -9.0970     0.1650 C.3   1 <1>   0.3430 
 15 C       -7.5810    -7.5410     1.1720 C.3   1 <1>  -0.2400 
 16 C       -4.7280    -9.4090    -1.2760 C.3   1 <1>  -0.2400 
 17 H       -2.1840    -1.2460    -1.7540 H     1 <1>   0.0800 
 18 H       -1.6010    -0.5000    -0.2630 H     1 <1>   0.0800 
 19 H        1.0820    -0.6400     0.4240 H     1 <1>   0.0800 
 20 H        2.2690    -0.5970    -0.8520 H     1 <1>   0.0800 
 21 H       -0.8040    -3.3060    -0.9310 H     1 <1>   0.0800 
 22 H        2.8400    -2.6240     0.2200 H     1 <1>   0.0800 
 23 H        1.8670    -3.1610    -1.1270 H     1 <1>   0.0800 
 24 H       -3.2180    -3.2270    -1.1820 H     1 <1>   0.4500 
 25 H       -3.3760    -2.8380     0.4190 H     1 <1>   0.4500 
 26 H       -1.3590    -3.0860     1.8450 H     1 <1>   0.0800 
 27 H       -0.5540    -1.6000     1.3880 H     1 <1>   0.0800 
 28 H       -2.1970    -4.9060     1.0410 H     1 <1>   0.0800 
 29 H       -2.0450    -5.2760    -0.6570 H     1 <1>   0.0800 
 30 H       -4.5140    -5.3270    -0.8680 H     1 <1>   0.0800 
 31 H       -4.6580    -4.9690     0.8470 H     1 <1>   0.0800 
 32 H       -3.5050    -7.0960     1.3870 H     1 <1>   0.0800 
 33 H       -3.2690    -7.3960    -0.3130 H     1 <1>   0.0800 
 34 H       -5.7810    -7.2870    -0.4920 H     1 <1>   0.4500 
 35 H       -5.9820    -6.3100     1.8430 H     1 <1>   0.0800 
 36 H       -5.8360    -7.9740     2.3530 H     1 <1>   0.0800 
 37 H       -6.0480    -9.5920     0.3810 H     1 <1>   0.0800 
 38 H       -4.3700    -9.4820     0.8450 H     1 <1>   0.0800 
 39 H       -7.8750    -6.9020     0.3590 H     1 <1>   0.0800 
 40 H       -8.1890    -7.2890     2.0230 H     1 <1>   0.0800 
 41 H       -7.7890    -8.5650     0.9200 H     1 <1>   0.0800 
 42 H       -5.4660    -9.0310    -1.9620 H     1 <1>   0.0800 
 43 H       -4.6850   -10.4770    -1.4010 H     1 <1>   0.0800 
 44 H       -3.7600    -9.0160    -1.5270 H     1 <1>   0.0800 
@<TRIPOS>BOND
  1   1   2  1   
  2   1   3  1   
  3   2   4  1   
  4   2  17  1   
  5   2  18  1   
  6   3   5  1   
  7   3  19  1   
  8   3  20  1   
  9   4   6  1   
 10   4   7  1   
 11   4  21  1   
 12   5   8  1   
 13   5  22  1   
 14   5  23  1   
 15   6   9  1   
 16   6  24  1   
 17   6  25  1   
 18   7   8  1   
 19   7  26  1   
 20   7  27  1   
 21   9  10  1   
 22   9  28  1   
 23   9  29  1   
 24  10  11  1   
 25  10  30  1   
 26  10  31  1   
 27  11  12  1   
 28  11  32  1   
 29  11  33  1   
 30  12  13  1   
 31  12  14  1   
 32  12  34  1   
 33  13  15  1   
 34  13  35  1   
 35  13  36  1   
 36  14  16  1   
 37  14  37  1   
 38  14  38  1   
 39  15  39  1   
 40  15  40  1   
 41  15  41  1   
 42  16  42  1   
 43  16  43  1   
 44  16  44  1   
@<TRIPOS>SUBSTRUCTURE
  1 ****   9 GROUP 4 **** **** 0

# MOE 2024.06 (io_trps.svl 2023.06)
