@<TRIPOS>MOLECULE
NONAME
56 58 1 0 0 
SMALL
USER_CHARGES


@<TRIPOS>ATOM
  1 O       -0.8410     0.6780    -1.3040 O.2   1 <1>  -0.5700 
  2 C        0.2090     0.1730    -1.6300 C.2   1 <1>   0.5690 
  3 N        1.4070     0.8160    -1.5450 N.am  1 <1>  -0.4930 
  4 C        0.1680    -1.3170    -2.0480 C.3   1 <1>   0.4840 
  5 C        1.7600     1.7230    -0.5220 C.2   1 <1>   0.0630 
  6 N        0.2670    -2.2640    -0.8760 N.4   1 <1>  -0.9590 
  7 C        1.2220    -1.7110    -3.0910 C.3   1 <1>  -0.2400 
  8 C        2.7530     1.4680     0.4320 C.2   1 <1>   0.3720 
  9 C        1.2810     2.9470    -0.2210 C.2   1 <1>  -0.3320 
 10 C       -0.9320    -2.0880    -0.0050 C.3   1 <1>   0.3430 
 11 C        1.4930    -2.0470    -0.0540 C.3   1 <1>   0.3430 
 12 N        2.8930     2.4510     1.2610 N.2   1 <1>  -0.7070 
 13 N        3.5270     0.2850     0.4690 N.pl3 1 <1>  -0.8210 
 14 N        1.9790     3.3670     0.8640 N.pl3 1 <1>   0.3140 
 15 C        0.1900     3.7550    -0.9080 C.3   1 <1>  -0.0600 
 16 C       -1.2310    -3.3550     0.8000 C.3   1 <1>  -0.1600 
 17 C        2.0860    -3.3850     0.3870 C.3   1 <1>  -0.1600 
 18 C        4.8540     0.5100    -0.1810 C.3   1 <1>   0.2090 
 19 C        3.8080    -0.1900     1.8590 C.3   1 <1>   0.2090 
 20 C        1.8260     4.6410     1.5780 C.3   1 <1>   0.0160 
 21 C       -0.0870    -3.8810     1.6870 C.3   1 <1>  -0.1600 
 22 C        1.0870    -4.4490     0.8760 C.3   1 <1>  -0.1600 
 23 C        5.9220     0.0160     0.7900 C.3   1 <1>  -0.1600 
 24 C        5.1710    -0.8520     1.7840 C.3   1 <1>  -0.1600 
 25 H        2.2340     0.3280    -1.8860 H     1 <1>   0.3700 
 26 H       -0.7960    -1.4620    -2.5080 H     1 <1>   0.0800 
 27 H        0.2760    -3.2300    -1.2170 H     1 <1>   0.4500 
 28 H        2.2240    -1.6090    -2.7160 H     1 <1>   0.0800 
 29 H        1.1220    -1.0770    -3.9550 H     1 <1>   0.0800 
 30 H        1.0660    -2.7260    -3.4110 H     1 <1>   0.0800 
 31 H       -1.7940    -1.8590    -0.6120 H     1 <1>   0.0800 
 32 H       -0.7790    -1.2550     0.6640 H     1 <1>   0.0800 
 33 H        1.2520    -1.4520     0.8130 H     1 <1>   0.0800 
 34 H        2.2420    -1.5090    -0.6090 H     1 <1>   0.0800 
 35 H       -0.1570     3.2440    -1.7890 H     1 <1>   0.0800 
 36 H        0.5660     4.7180    -1.2030 H     1 <1>   0.0800 
 37 H       -0.6450     3.8890    -0.2450 H     1 <1>   0.0800 
 38 H       -1.5570    -4.1310     0.1300 H     1 <1>   0.0800 
 39 H       -2.0680    -3.1340     1.4390 H     1 <1>   0.0800 
 40 H        2.7770    -3.1760     1.1850 H     1 <1>   0.0800 
 41 H        2.6690    -3.7950    -0.4190 H     1 <1>   0.0800 
 42 H        5.0110     1.5530    -0.4100 H     1 <1>   0.0800 
 43 H        4.8980    -0.0570    -1.0940 H     1 <1>   0.0800 
 44 H        3.0530    -0.8780     2.1930 H     1 <1>   0.0800 
 45 H        3.8570     0.6340     2.5520 H     1 <1>   0.0800 
 46 H        0.8100     4.7410     1.9090 H     1 <1>   0.0800 
 47 H        2.0800     5.4480     0.9170 H     1 <1>   0.0800 
 48 H        2.4840     4.6500     2.4270 H     1 <1>   0.0800 
 49 H       -0.4870    -4.6810     2.2890 H     1 <1>   0.0800 
 50 H        0.2520    -3.1190     2.3680 H     1 <1>   0.0800 
 51 H        1.6260    -5.1460     1.4970 H     1 <1>   0.0800 
 52 H        0.7090    -5.0150     0.0420 H     1 <1>   0.0800 
 53 H        6.3460     0.8660     1.2960 H     1 <1>   0.0800 
 54 H        6.7080    -0.5180     0.2860 H     1 <1>   0.0800 
 55 H        5.0660    -1.8520     1.4030 H     1 <1>   0.0800 
 56 H        5.6530    -0.8850     2.7450 H     1 <1>   0.0800 
@<TRIPOS>BOND
  1   1   2  2   
  2   2   3  am  
  3   2   4  1   
  4   3   5  1   
  5   3  25  1   
  6   4   6  1   
  7   4   7  1   
  8   4  26  1   
  9   5   8  1   
 10   5   9  2   
 11   6  10  1   
 12   6  11  1   
 13   6  27  1   
 14   7  28  1   
 15   7  29  1   
 16   7  30  1   
 17   8  12  2   
 18   8  13  1   
 19   9  14  1   
 20   9  15  1   
 21  10  16  1   
 22  10  31  1   
 23  10  32  1   
 24  11  17  1   
 25  11  33  1   
 26  11  34  1   
 27  12  14  1   
 28  13  18  1   
 29  13  19  1   
 30  14  20  1   
 31  15  35  1   
 32  15  36  1   
 33  15  37  1   
 34  16  21  1   
 35  16  38  1   
 36  16  39  1   
 37  17  22  1   
 38  17  40  1   
 39  17  41  1   
 40  18  23  1   
 41  18  42  1   
 42  18  43  1   
 43  19  24  1   
 44  19  44  1   
 45  19  45  1   
 46  20  46  1   
 47  20  47  1   
 48  20  48  1   
 49  21  22  1   
 50  21  49  1   
 51  21  50  1   
 52  22  51  1   
 53  22  52  1   
 54  23  24  1   
 55  23  53  1   
 56  23  54  1   
 57  24  55  1   
 58  24  56  1   
@<TRIPOS>SUBSTRUCTURE
  1 ****   3 GROUP 4 **** **** 0

# MOE 2024.06 (io_trps.svl 2023.06)
