@<TRIPOS>MOLECULE
NONAME
48 49 1 0 0 
SMALL
USER_CHARGES


@<TRIPOS>ATOM
  1 S       -0.3390     0.0930     1.5410 S.o2  1 <1>   1.4470 
  2 O       -0.9490     1.0380     2.4440 O.2   1 <1>  -0.6500 
  3 O       -0.0810    -1.2460     2.0190 O.2   1 <1>  -0.6500 
  4 N       -1.4740    -0.0370     0.3050 N.am  1 <1>  -0.9140 
  5 C        1.1460     0.8040     0.7580 C.ar  1 <1>  -0.0090 
  6 C       -1.5270    -1.2330    -0.5420 C.3   1 <1>   0.2760 
  7 C        1.1610     2.0380     0.1000 C.ar  1 <1>  -0.1430 
  8 C        2.3360     0.0810     0.8060 C.ar  1 <1>  -0.1500 
  9 C       -2.1210    -2.4610     0.1560 C.3   1 <1>  -0.0800 
 10 C       -0.2010    -1.7290    -1.1290 C.3   1 <1>   0.1200 
 11 C        2.3290     2.4980    -0.4910 C.ar  1 <1>  -0.1500 
 12 C       -0.0790     2.9200     0.0070 C.3   1 <1>  -0.0970 
 13 C        3.5010     0.5370     0.2160 C.ar  1 <1>  -0.1430 
 14 C       -1.0420    -3.5280    -0.0610 C.3   1 <1>   0.1200 
 15 C       -3.4640    -2.8650    -0.4840 C.3   1 <1>  -0.0550 
 16 O       -0.3410    -3.1100    -1.1860 O.3   1 <1>  -0.5600 
 17 C        3.4910     1.7550    -0.4360 C.ar  1 <1>  -0.1500 
 18 C        4.7720    -0.2900     0.2910 C.3   1 <1>  -0.0970 
 19 S       -4.3960    -4.0530     0.4830 S.o2  1 <1>   1.3330 
 20 O       -3.6660    -5.3000     0.5100 O.2   1 <1>  -0.6500 
 21 O       -4.7940    -3.4230     1.7210 O.2   1 <1>  -0.6500 
 22 N       -5.7910    -4.2720    -0.4620 N.am  1 <1>  -0.8490 
 23 C       -6.3190    -5.6370    -0.3790 C.3   1 <1>   0.1160 
 24 C       -6.8550    -3.3060    -0.1690 C.3   1 <1>   0.1160 
 25 H       -2.3600     0.0570     0.7980 H     1 <1>   0.4200 
 26 H       -2.1500    -0.9850    -1.3860 H     1 <1>   0.0800 
 27 H        2.3520    -0.8660     1.3190 H     1 <1>   0.1500 
 28 H       -2.2640    -2.3000     1.2100 H     1 <1>   0.0800 
 29 H        0.6440    -1.5250    -0.5020 H     1 <1>   0.0800 
 30 H       -0.0300    -1.3560    -2.1230 H     1 <1>   0.0800 
 31 H        2.3440     3.4460    -1.0000 H     1 <1>   0.1500 
 32 H        0.1470     3.8560    -0.4710 H     1 <1>   0.0800 
 33 H       -0.4580     3.1390     0.9890 H     1 <1>   0.0800 
 34 H       -0.8450     2.4320    -0.5660 H     1 <1>   0.0800 
 35 H       -1.4290    -4.5160    -0.2380 H     1 <1>   0.0800 
 36 H       -0.3550    -3.5550     0.7680 H     1 <1>   0.0800 
 37 H       -3.2850    -3.2650    -1.4640 H     1 <1>   0.0800 
 38 H       -4.0680    -1.9870    -0.5970 H     1 <1>   0.0800 
 39 H        4.3860     2.1310    -0.9000 H     1 <1>   0.1500 
 40 H        5.4320    -0.0450    -0.5210 H     1 <1>   0.0800 
 41 H        4.5400    -1.3390     0.2340 H     1 <1>   0.0800 
 42 H        5.2780    -0.0960     1.2200 H     1 <1>   0.0800 
 43 H       -7.1920    -5.7400    -1.0000 H     1 <1>   0.0800 
 44 H       -6.5770    -5.8770     0.6400 H     1 <1>   0.0800 
 45 H       -5.5790    -6.3410    -0.7230 H     1 <1>   0.0800 
 46 H       -7.6710    -3.4320    -0.8610 H     1 <1>   0.0800 
 47 H       -6.4820    -2.3010    -0.2620 H     1 <1>   0.0800 
 48 H       -7.2230    -3.4450     0.8350 H     1 <1>   0.0800 
@<TRIPOS>BOND
  1   1   2  2   
  2   1   3  2   
  3   1   4  am  
  4   1   5  1   
  5   4   6  1   
  6   4  25  1   
  7   5   7  ar  
  8   5   8  ar  
  9   6   9  1   
 10   6  10  1   
 11   6  26  1   
 12   7  11  ar  
 13   7  12  1   
 14   8  13  ar  
 15   8  27  1   
 16   9  14  1   
 17   9  15  1   
 18   9  28  1   
 19  10  16  1   
 20  10  29  1   
 21  10  30  1   
 22  11  17  ar  
 23  11  31  1   
 24  12  32  1   
 25  12  33  1   
 26  12  34  1   
 27  13  17  ar  
 28  13  18  1   
 29  14  16  1   
 30  14  35  1   
 31  14  36  1   
 32  15  19  1   
 33  15  37  1   
 34  15  38  1   
 35  17  39  1   
 36  18  40  1   
 37  18  41  1   
 38  18  42  1   
 39  19  20  2   
 40  19  21  2   
 41  19  22  am  
 42  22  23  1   
 43  22  24  1   
 44  23  43  1   
 45  23  44  1   
 46  23  45  1   
 47  24  46  1   
 48  24  47  1   
 49  24  48  1   
@<TRIPOS>SUBSTRUCTURE
  1 ****   6 GROUP 4 **** **** 0

# MOE 2024.06 (io_trps.svl 2023.06)
