@<TRIPOS>MOLECULE
NONAME
41 43 1 0 0 
SMALL
USER_CHARGES


@<TRIPOS>ATOM
  1 O       -0.2460    -0.0040    -0.4330 O.2   1 <1>  -0.5700 
  2 C       -1.2490     0.6550    -0.2780 C.2   1 <1>   0.5690 
  3 N       -2.4670     0.0470    -0.0760 N.am  1 <1>  -0.6600 
  4 C       -1.0940     2.1790    -0.3640 C.3   1 <1>   0.1810 
  5 C       -2.5870    -1.4330     0.1130 C.3   1 <1>   0.1400 
  6 C       -3.7740     0.7590     0.0640 C.3   1 <1>   0.1400 
  7 O       -1.7120     2.8620     0.7010 O.3   1 <1>  -0.5600 
  8 C       -3.7570    -2.0100    -0.7050 C.3   1 <1>   0.3440 
  9 C       -4.8890     0.0580    -0.7460 C.3   1 <1>   0.2950 
 10 C       -1.4660     4.2320     0.7130 C.3   1 <1>   0.0400 
 11 O       -4.9380    -1.3020    -0.4280 O.3   1 <1>  -0.5600 
 12 C       -3.9610    -3.4880    -0.3850 C.ar  1 <1>  -0.1440 
 13 C       -6.3030     0.6200    -0.5140 C.3   1 <1>  -0.1950 
 14 C       -4.7740    -3.8970     0.6640 C.ar  1 <1>  -0.1500 
 15 C       -3.3120    -4.4510    -1.1470 C.ar  1 <1>  -0.1500 
 16 C       -6.5830     2.0520    -0.1680 C.3   1 <1>  -0.2000 
 17 C       -6.8500     0.9650     0.8370 C.3   1 <1>  -0.2000 
 18 C       -4.9360    -5.2420     0.9470 C.ar  1 <1>  -0.1500 
 19 C       -3.4720    -5.7970    -0.8650 C.ar  1 <1>  -0.1500 
 20 C       -4.2840    -6.1930     0.1820 C.ar  1 <1>  -0.1500 
 21 H       -1.5240     2.5250    -1.2860 H     1 <1>   0.0800 
 22 H       -0.0450     2.4150    -0.3530 H     1 <1>   0.0800 
 23 H       -1.6780    -1.9280    -0.1820 H     1 <1>   0.0800 
 24 H       -2.7500    -1.6440     1.1550 H     1 <1>   0.0800 
 25 H       -4.0410     0.7850     1.1050 H     1 <1>   0.0800 
 26 H       -3.6900     1.7720    -0.2810 H     1 <1>   0.0800 
 27 H       -3.5470    -1.9030    -1.7550 H     1 <1>   0.0800 
 28 H       -4.6600     0.1460    -1.7940 H     1 <1>   0.0800 
 29 H       -1.9880     4.6580     1.5520 H     1 <1>   0.0800 
 30 H       -1.8290     4.6680    -0.2010 H     1 <1>   0.0800 
 31 H       -0.4090     4.4020     0.8230 H     1 <1>   0.0800 
 32 H       -6.9960     0.1600    -1.1980 H     1 <1>   0.1000 
 33 H       -5.2880    -3.1640     1.2620 H     1 <1>   0.1500 
 34 H       -2.6760    -4.1580    -1.9640 H     1 <1>   0.1500 
 35 H       -5.7840     2.7400     0.0440 H     1 <1>   0.1000 
 36 H       -7.4240     2.5380    -0.6310 H     1 <1>   0.1000 
 37 H       -7.8690     0.6930     1.0540 H     1 <1>   0.1000 
 38 H       -6.2170     0.8830     1.7020 H     1 <1>   0.1000 
 39 H       -5.5700    -5.5460     1.7600 H     1 <1>   0.1500 
 40 H       -2.9660    -6.5350    -1.4610 H     1 <1>   0.1500 
 41 H       -4.4100    -7.2390     0.4010 H     1 <1>   0.1500 
@<TRIPOS>BOND
  1   1   2  2   
  2   2   3  am  
  3   2   4  1   
  4   3   5  1   
  5   3   6  1   
  6   4   7  1   
  7   4  21  1   
  8   4  22  1   
  9   5   8  1   
 10   5  23  1   
 11   5  24  1   
 12   6   9  1   
 13   6  25  1   
 14   6  26  1   
 15   7  10  1   
 16   8  11  1   
 17   8  12  1   
 18   8  27  1   
 19   9  11  1   
 20   9  13  1   
 21   9  28  1   
 22  10  29  1   
 23  10  30  1   
 24  10  31  1   
 25  12  14  ar  
 26  12  15  ar  
 27  13  16  1   
 28  13  17  1   
 29  13  32  1   
 30  14  18  ar  
 31  14  33  1   
 32  15  19  ar  
 33  15  34  1   
 34  16  17  1   
 35  16  35  1   
 36  16  36  1   
 37  17  37  1   
 38  17  38  1   
 39  18  20  ar  
 40  18  39  1   
 41  19  20  ar  
 42  19  40  1   
 43  20  41  1   
@<TRIPOS>SUBSTRUCTURE
  1 ****   5 GROUP 4 **** **** 0

# MOE 2024.06 (io_trps.svl 2023.06)
