@<TRIPOS>MOLECULE
NONAME
47 49 1 0 0 
SMALL
USER_CHARGES


@<TRIPOS>ATOM
  1 O        0.6690    -0.1110     1.9700 O.3   1 <1>  -0.5600 
  2 C        1.8350     0.6530     1.8300 C.3   1 <1>   0.1200 
  3 C        0.4800    -1.1010     0.9970 C.3   1 <1>   0.1200 
  4 C        3.0870    -0.2530     1.8430 C.3   1 <1>   0.4230 
  5 C        1.6720    -2.0900     0.9850 C.3   1 <1>   0.4230 
  6 N        2.9700    -1.3600     0.8190 N.4   1 <1>  -0.9590 
  7 C        4.3830     0.5760     1.6450 C.3   1 <1>   0.1100 
  8 C        1.5280    -3.1900    -0.0790 C.3   1 <1>  -0.1600 
  9 C        3.2610    -0.8370    -0.5630 C.3   1 <1>   0.3430 
 10 N        5.3130    -0.0620     0.6830 N.3   1 <1>  -0.8100 
 11 C        0.4090    -4.1890     0.2560 C.3   1 <1>  -0.1600 
 12 C        4.6680    -0.1990    -0.6460 C.3   1 <1>   0.1100 
 13 C        6.6200     0.6400     0.6070 C.3   1 <1>   0.2900 
 14 C        0.3540    -5.3130    -0.7820 C.3   1 <1>  -0.2400 
 15 C        6.5300     2.0270    -0.0210 C.2   1 <1>  -0.0400 
 16 O        5.9410     3.0110     0.6350 O.3   1 <1>  -0.2800 
 17 C        6.9870     2.4690    -1.2130 C.2   1 <1>  -0.1500 
 18 C        6.0060     4.0910    -0.1150 C.2   1 <1>  -0.0400 
 19 C        6.6400     3.8230    -1.2750 C.2   1 <1>  -0.1500 
 20 C        5.4070     5.3780     0.4080 C.3   1 <1>  -0.0600 
 21 H        1.7690     1.2170     0.9160 H     1 <1>   0.0800 
 22 H        1.8700     1.3440     2.6540 H     1 <1>   0.0800 
 23 H       -0.4310    -1.6170     1.2430 H     1 <1>   0.0800 
 24 H        0.3550    -0.6270     0.0390 H     1 <1>   0.0800 
 25 H        3.1400    -0.6980     2.8230 H     1 <1>   0.0800 
 26 H        1.6830    -2.5750     1.9480 H     1 <1>   0.0800 
 27 H        3.7590    -1.9840     1.0320 H     1 <1>   0.4500 
 28 H        4.8690     0.6960     2.5980 H     1 <1>   0.0800 
 29 H        4.1210     1.5600     1.2950 H     1 <1>   0.0800 
 30 H        1.3220    -2.7540    -1.0400 H     1 <1>   0.0800 
 31 H        2.4530    -3.7380    -0.1400 H     1 <1>   0.0800 
 32 H        3.2030    -1.6340    -1.2850 H     1 <1>   0.0800 
 33 H        2.5260    -0.0980    -0.8330 H     1 <1>   0.0800 
 34 H        0.5790    -4.6230     1.2280 H     1 <1>   0.0800 
 35 H       -0.5480    -3.6950     0.2740 H     1 <1>   0.0800 
 36 H        4.5730     0.7640    -1.1190 H     1 <1>   0.0800 
 37 H        5.2930    -0.8070    -1.2780 H     1 <1>   0.0800 
 38 H        7.0410     0.7290     1.5940 H     1 <1>   0.0800 
 39 H        7.2980     0.0430     0.0220 H     1 <1>   0.0800 
 40 H        1.2820    -5.8580    -0.8070 H     1 <1>   0.0800 
 41 H        0.1580    -4.9180    -1.7640 H     1 <1>   0.0800 
 42 H       -0.4340    -6.0030    -0.5340 H     1 <1>   0.0800 
 43 H        7.5160     1.9300    -1.9790 H     1 <1>   0.1500 
 44 H        6.8560     4.4870    -2.0940 H     1 <1>   0.1500 
 45 H        5.5410     6.1680    -0.3090 H     1 <1>   0.0800 
 46 H        5.8900     5.6560     1.3270 H     1 <1>   0.0800 
 47 H        4.3570     5.2460     0.5900 H     1 <1>   0.0800 
@<TRIPOS>BOND
  1   1   2  1   
  2   1   3  1   
  3   2   4  1   
  4   2  21  1   
  5   2  22  1   
  6   3   5  1   
  7   3  23  1   
  8   3  24  1   
  9   4   6  1   
 10   4   7  1   
 11   4  25  1   
 12   5   6  1   
 13   5   8  1   
 14   5  26  1   
 15   6   9  1   
 16   6  27  1   
 17   7  10  1   
 18   7  28  1   
 19   7  29  1   
 20   8  11  1   
 21   8  30  1   
 22   8  31  1   
 23   9  12  1   
 24   9  32  1   
 25   9  33  1   
 26  10  12  1   
 27  10  13  1   
 28  11  14  1   
 29  11  34  1   
 30  11  35  1   
 31  12  36  1   
 32  12  37  1   
 33  13  15  1   
 34  13  38  1   
 35  13  39  1   
 36  14  40  1   
 37  14  41  1   
 38  14  42  1   
 39  15  16  1   
 40  15  17  2   
 41  16  18  1   
 42  17  19  1   
 43  17  43  1   
 44  18  19  2   
 45  18  20  1   
 46  19  44  1   
 47  20  45  1   
 48  20  46  1   
 49  20  47  1   
@<TRIPOS>SUBSTRUCTURE
  1 ****   7 GROUP 4 **** **** 0

# MOE 2024.06 (io_trps.svl 2023.06)
