@<TRIPOS>MOLECULE
NONAME
42 43 1 0 0 
SMALL
USER_CHARGES


@<TRIPOS>ATOM
  1 CL      -2.8600    -1.1000     2.3840 Cl    1 <1>  -0.1770 
  2 C       -3.0220     0.1520     1.1720 C.ar  1 <1>   0.1770 
  3 C       -3.0880    -0.1770    -0.1750 C.ar  1 <1>  -0.1440 
  4 C       -3.0800     1.4640     1.6000 C.ar  1 <1>  -0.1500 
  5 C       -3.2200     0.8480    -1.1020 C.ar  1 <1>  -0.1500 
  6 C       -3.0270    -1.6240    -0.6400 C.3   1 <1>   0.2540 
  7 C       -3.2010     2.4820     0.6710 C.ar  1 <1>   0.0830 
  8 C       -3.2970     2.1690    -0.6910 C.ar  1 <1>   0.0830 
  9 N       -4.2820    -2.3350    -0.3370 N.3   1 <1>  -0.8100 
 10 O       -3.2130     3.7530     1.1370 O.3   1 <1>  -0.3630 
 11 O       -3.4690     3.1040    -1.6590 O.3   1 <1>  -0.3630 
 12 C       -4.1270    -3.7840    -0.6120 C.3   1 <1>   0.2900 
 13 C       -5.4660    -1.7550    -1.0350 C.3   1 <1>   0.1100 
 14 C       -2.0900     4.5450     0.8160 C.3   1 <1>   0.0400 
 15 C       -4.6420     3.8870    -1.5920 C.3   1 <1>   0.0400 
 16 C       -5.2660    -4.6280    -0.0510 C.2   1 <1>   0.0060 
 17 C       -6.2420    -0.7900    -0.1180 C.3   1 <1>   0.1200 
 18 N       -5.4970    -5.8510    -0.4130 N.2   1 <1>  -0.5650 
 19 N       -6.1350    -4.1700     0.8770 N.pl3 1 <1>   0.0330 
 20 O       -6.1410    -1.2340     1.1910 O.3   1 <1>  -0.6800 
 21 C       -6.5700    -6.2080     0.3200 C.2   1 <1>   0.0770 
 22 C       -6.9760    -5.1930     1.1130 C.2   1 <1>  -0.3020 
 23 H       -3.0260     1.6950     2.6480 H     1 <1>   0.1500 
 24 H       -3.2740     0.6340    -2.1550 H     1 <1>   0.1500 
 25 H       -2.2080    -2.1100    -0.1350 H     1 <1>   0.0800 
 26 H       -2.8300    -1.6650    -1.6980 H     1 <1>   0.0800 
 27 H       -3.2180    -4.1380    -0.1580 H     1 <1>   0.0800 
 28 H       -4.0560    -3.9530    -1.6730 H     1 <1>   0.0800 
 29 H       -6.1470    -2.5360    -1.3270 H     1 <1>   0.0800 
 30 H       -5.1730    -1.2490    -1.9390 H     1 <1>   0.0800 
 31 H       -2.2060     5.5010     1.2940 H     1 <1>   0.0800 
 32 H       -2.0360     4.6720    -0.2500 H     1 <1>   0.0800 
 33 H       -1.2050     4.0550     1.1800 H     1 <1>   0.0800 
 34 H       -4.7310     4.4370    -2.5110 H     1 <1>   0.0800 
 35 H       -4.5700     4.5710    -0.7660 H     1 <1>   0.0800 
 36 H       -5.4900     3.2380    -1.4670 H     1 <1>   0.0800 
 37 H       -7.2820    -0.7410    -0.3900 H     1 <1>   0.0800 
 38 H       -5.8200     0.1980    -0.1660 H     1 <1>   0.0800 
 39 H       -6.1520    -3.2130     1.2590 H     1 <1>   0.2700 
 40 H       -5.1890    -1.4620     1.3200 H     1 <1>   0.4000 
 41 H       -7.0020    -7.1910     0.2350 H     1 <1>   0.1500 
 42 H       -7.7920    -5.1390     1.8100 H     1 <1>   0.1500 
@<TRIPOS>BOND
  1   1   2  1   
  2   2   3  ar  
  3   2   4  ar  
  4   3   5  ar  
  5   3   6  1   
  6   4   7  ar  
  7   4  23  1   
  8   5   8  ar  
  9   5  24  1   
 10   6   9  1   
 11   6  25  1   
 12   6  26  1   
 13   7   8  ar  
 14   7  10  1   
 15   8  11  1   
 16   9  12  1   
 17   9  13  1   
 18  10  14  1   
 19  11  15  1   
 20  12  16  1   
 21  12  27  1   
 22  12  28  1   
 23  13  17  1   
 24  13  29  1   
 25  13  30  1   
 26  14  31  1   
 27  14  32  1   
 28  14  33  1   
 29  15  34  1   
 30  15  35  1   
 31  15  36  1   
 32  16  18  2   
 33  16  19  1   
 34  17  20  1   
 35  17  37  1   
 36  17  38  1   
 37  18  21  1   
 38  19  22  1   
 39  19  39  1   
 40  20  40  1   
 41  21  22  2   
 42  21  41  1   
 43  22  42  1   
@<TRIPOS>SUBSTRUCTURE
  1 ****   3 GROUP 4 **** **** 0

# MOE 2024.06 (io_trps.svl 2023.06)
