@<TRIPOS>MOLECULE
NONAME
57 60 1 0 0 
SMALL
USER_CHARGES


@<TRIPOS>ATOM
  1 O       -4.0910     2.9880    -1.3130 O.2   1 <1>  -0.5700 
  2 C       -3.2450     2.1650    -1.5830 C.2   1 <1>   0.5690 
  3 N       -3.5920     0.8350    -1.6170 N.am  1 <1>  -0.6600 
  4 C       -1.8440     2.6850    -1.8690 C.3   1 <1>   0.1570 
  5 C       -2.6280    -0.3210    -1.7040 C.3   1 <1>   0.3210 
  6 C       -5.0480     0.4620    -1.7310 C.3   1 <1>   0.1400 
  7 N       -0.9580     2.5350    -0.6970 N.pl3 1 <1>   0.0480 
  8 C       -2.8750    -1.3930    -0.6340 C.2   1 <1>   0.0460 
  9 C       -5.7770     0.3170    -0.3740 C.3   1 <1>   0.3430 
 10 C        0.2040     1.8280    -0.6650 C.ar  1 <1>  -0.1520 
 11 C       -1.1240     3.0160     0.5700 C.2   1 <1>   0.1010 
 12 N       -3.9870    -2.1620    -0.6600 N.2   1 <1>  -0.5650 
 13 C       -2.0860    -1.7490     0.4100 C.2   1 <1>  -0.3320 
 14 N       -5.3590     1.3570     0.6210 N.4   1 <1>  -0.9590 
 15 C        0.6360     1.8870     0.6470 C.ar  1 <1>   0.2270 
 16 C        0.9470     1.1420    -1.6330 C.ar  1 <1>  -0.1500 
 17 N       -0.2240     2.6200     1.4000 N.2   1 <1>  -0.5650 
 18 C       -2.2470     3.9620     0.9650 C.3   1 <1>  -0.0150 
 19 C       -3.8460    -2.9640     0.3440 C.2   1 <1>   0.0360 
 20 N       -2.7130    -2.7590     1.0410 N.pl3 1 <1>   0.0330 
 21 C       -0.7330    -1.2400     0.8750 C.3   1 <1>  -0.0600 
 22 C       -4.2660     0.8310     1.4970 C.3   1 <1>   0.2630 
 23 C       -6.5060     1.8720     1.4190 C.3   1 <1>   0.2630 
 24 C        1.8130     1.2460     1.0290 C.ar  1 <1>  -0.1500 
 25 C        2.1090     0.5100    -1.2470 C.ar  1 <1>  -0.1500 
 26 C       -2.2910     5.3480     0.3970 C.3   1 <1>  -0.2000 
 27 C       -1.9650     5.1410     1.8430 C.3   1 <1>  -0.2000 
 28 C        2.5420     0.5600     0.0830 C.ar  1 <1>  -0.1500 
 29 H       -1.9000     3.7280    -2.1190 H     1 <1>   0.0800 
 30 H       -1.4300     2.1610    -2.7080 H     1 <1>   0.0800 
 31 H       -1.6180     0.0260    -1.6100 H     1 <1>   0.0800 
 32 H       -2.7220    -0.7830    -2.6710 H     1 <1>   0.0800 
 33 H       -5.1490    -0.4560    -2.2850 H     1 <1>   0.0800 
 34 H       -5.5570     1.2180    -2.3040 H     1 <1>   0.0800 
 35 H       -5.5960    -0.6630     0.0310 H     1 <1>   0.0800 
 36 H       -6.8350     0.3910    -0.5590 H     1 <1>   0.0800 
 37 H       -4.9650     2.1350     0.0470 H     1 <1>   0.4500 
 38 H        0.6280     1.1100    -2.6590 H     1 <1>   0.1500 
 39 H       -3.1770     3.4570     1.1400 H     1 <1>   0.1000 
 40 H       -4.5490    -3.7350     0.6120 H     1 <1>   0.1500 
 41 H       -2.3840    -3.2890     1.8550 H     1 <1>   0.2700 
 42 H       -0.2160    -0.7690     0.0640 H     1 <1>   0.0800 
 43 H       -0.1200    -2.0550     1.2180 H     1 <1>   0.0800 
 44 H       -0.8470    -0.5310     1.6760 H     1 <1>   0.0800 
 45 H       -4.6040    -0.0370     2.0380 H     1 <1>   0.0800 
 46 H       -3.9540     1.5840     2.2020 H     1 <1>   0.0800 
 47 H       -3.4140     0.5500     0.9010 H     1 <1>   0.0800 
 48 H       -6.9460     1.0780     2.0000 H     1 <1>   0.0800 
 49 H       -7.2590     2.2830     0.7650 H     1 <1>   0.0800 
 50 H       -6.1740     2.6490     2.0880 H     1 <1>   0.0800 
 51 H        2.1260     1.3100     2.0550 H     1 <1>   0.1500 
 52 H        2.7030    -0.0250    -1.9680 H     1 <1>   0.1500 
 53 H       -3.2460     5.7660     0.1310 H     1 <1>   0.1000 
 54 H       -1.4990     5.6790    -0.2510 H     1 <1>   0.1000 
 55 H       -0.9520     5.2920     2.1780 H     1 <1>   0.1000 
 56 H       -2.6900     5.4220     2.5870 H     1 <1>   0.1000 
 57 H        3.4550     0.0610     0.3600 H     1 <1>   0.1500 
@<TRIPOS>BOND
  1   1   2  2   
  2   2   3  am  
  3   2   4  1   
  4   3   5  1   
  5   3   6  1   
  6   4   7  1   
  7   4  29  1   
  8   4  30  1   
  9   5   8  1   
 10   5  31  1   
 11   5  32  1   
 12   6   9  1   
 13   6  33  1   
 14   6  34  1   
 15   7  10  1   
 16   7  11  1   
 17   8  12  1   
 18   8  13  2   
 19   9  14  1   
 20   9  35  1   
 21   9  36  1   
 22  10  15  ar  
 23  10  16  ar  
 24  11  17  2   
 25  11  18  1   
 26  12  19  2   
 27  13  20  1   
 28  13  21  1   
 29  14  22  1   
 30  14  23  1   
 31  14  37  1   
 32  15  17  1   
 33  15  24  ar  
 34  16  25  ar  
 35  16  38  1   
 36  18  26  1   
 37  18  27  1   
 38  18  39  1   
 39  19  20  1   
 40  19  40  1   
 41  20  41  1   
 42  21  42  1   
 43  21  43  1   
 44  21  44  1   
 45  22  45  1   
 46  22  46  1   
 47  22  47  1   
 48  23  48  1   
 49  23  49  1   
 50  23  50  1   
 51  24  28  ar  
 52  24  51  1   
 53  25  28  ar  
 54  25  52  1   
 55  26  27  1   
 56  26  53  1   
 57  26  54  1   
 58  27  55  1   
 59  27  56  1   
 60  28  57  1   
@<TRIPOS>SUBSTRUCTURE
  1 ****   7 GROUP 4 **** **** 0

# MOE 2024.06 (io_trps.svl 2023.06)
