@<TRIPOS>MOLECULE
NONAME
49 51 1 0 0 
SMALL
USER_CHARGES


@<TRIPOS>ATOM
  1 O       -2.2840    -4.4050     0.9480 O.2   1 <1>  -0.5700 
  2 C       -1.0900    -4.5370     0.9030 C.2   1 <1>   0.5690 
  3 N       -0.4710    -5.5980     1.4600 N.am  1 <1>  -0.7300 
  4 C       -0.2220    -3.5040     0.2210 C.3   1 <1>  -0.0990 
  5 C        0.9920    -5.7870     1.4520 C.3   1 <1>   0.1400 
  6 C        0.8680    -4.1910    -0.6270 C.3   1 <1>  -0.0800 
  7 C        1.5610    -5.3880     0.0730 C.3   1 <1>  -0.0800 
  8 C        1.9830    -3.2330    -1.0710 C.3   1 <1>  -0.1600 
  9 C        3.0560    -5.0430     0.1100 C.3   1 <1>  -0.1600 
 10 C        3.2450    -4.0900    -1.0700 C.3   1 <1>   0.4230 
 11 N        4.4960    -3.2820    -1.0230 N.4   1 <1>  -0.9590 
 12 C        4.7160    -2.4940     0.2280 C.3   1 <1>   0.4860 
 13 C        5.6920    -4.1260    -1.3400 C.3   1 <1>   0.2630 
 14 C        5.7940    -1.4630    -0.0450 C.ar  1 <1>  -0.1440 
 15 C        7.0720    -1.6200     0.4710 C.ar  1 <1>  -0.1500 
 16 C        5.5140    -0.3500    -0.8240 C.ar  1 <1>  -0.1500 
 17 C        8.0550    -0.6850     0.1970 C.ar  1 <1>  -0.1500 
 18 C        6.5030     0.5770    -1.0930 C.ar  1 <1>  -0.1500 
 19 C        7.7970     0.4360    -0.5920 C.ar  1 <1>   0.0860 
 20 C        8.8200     1.4210    -0.8970 C.2   1 <1>   0.5440 
 21 O        8.8030     2.0090    -1.9590 O.2   1 <1>  -0.5700 
 22 N        9.8090     1.7080     0.0050 N.am  1 <1>  -0.7300 
 23 C       10.9100     2.6830    -0.2090 C.3   1 <1>   0.0600 
 24 H       -1.0580    -6.2760     1.9550 H     1 <1>   0.3700 
 25 H       -0.8370    -2.8760    -0.3990 H     1 <1>   0.0800 
 26 H        0.2150    -2.8940     0.9900 H     1 <1>   0.0800 
 27 H        1.4120    -5.1730     2.2300 H     1 <1>   0.0800 
 28 H        1.2260    -6.8160     1.6670 H     1 <1>   0.0800 
 29 H        0.3810    -4.5810    -1.5080 H     1 <1>   0.0800 
 30 H        1.4380    -6.2440    -0.5720 H     1 <1>   0.0800 
 31 H        2.0590    -2.4250    -0.3670 H     1 <1>   0.0800 
 32 H        1.7770    -2.8350    -2.0490 H     1 <1>   0.0800 
 33 H        3.6570    -5.9290     0.0090 H     1 <1>   0.0800 
 34 H        3.2790    -4.5550     1.0410 H     1 <1>   0.0800 
 35 H        3.2350    -4.6780    -1.9750 H     1 <1>   0.0800 
 36 H        4.4290    -2.5800    -1.7720 H     1 <1>   0.4500 
 37 H        3.8140    -1.9850     0.5210 H     1 <1>   0.0800 
 38 H        5.0190    -3.1430     1.0330 H     1 <1>   0.0800 
 39 H        5.8500    -4.8620    -0.5680 H     1 <1>   0.0800 
 40 H        6.5750    -3.5120    -1.4170 H     1 <1>   0.0800 
 41 H        5.5520    -4.6370    -2.2800 H     1 <1>   0.0800 
 42 H        7.3190    -2.4670     1.0890 H     1 <1>   0.1500 
 43 H        4.5300    -0.1850    -1.2300 H     1 <1>   0.1500 
 44 H        9.0450    -0.8300     0.5940 H     1 <1>   0.1500 
 45 H        6.2820     1.4360    -1.7050 H     1 <1>   0.1500 
 46 H        9.7520     1.3100     0.9430 H     1 <1>   0.3700 
 47 H       10.9110     3.0340    -1.2280 H     1 <1>   0.0800 
 48 H       11.8570     2.2140    -0.0060 H     1 <1>   0.0800 
 49 H       10.7820     3.5260     0.4470 H     1 <1>   0.0800 
@<TRIPOS>BOND
  1   1   2  2   
  2   2   3  am  
  3   2   4  1   
  4   3   5  1   
  5   3  24  1   
  6   4   6  1   
  7   4  25  1   
  8   4  26  1   
  9   5   7  1   
 10   5  27  1   
 11   5  28  1   
 12   6   7  1   
 13   6   8  1   
 14   6  29  1   
 15   7   9  1   
 16   7  30  1   
 17   8  10  1   
 18   8  31  1   
 19   8  32  1   
 20   9  10  1   
 21   9  33  1   
 22   9  34  1   
 23  10  11  1   
 24  10  35  1   
 25  11  12  1   
 26  11  13  1   
 27  11  36  1   
 28  12  14  1   
 29  12  37  1   
 30  12  38  1   
 31  13  39  1   
 32  13  40  1   
 33  13  41  1   
 34  14  15  ar  
 35  14  16  ar  
 36  15  17  ar  
 37  15  42  1   
 38  16  18  ar  
 39  16  43  1   
 40  17  19  ar  
 41  17  44  1   
 42  18  19  ar  
 43  18  45  1   
 44  19  20  1   
 45  20  21  2   
 46  20  22  am  
 47  22  23  1   
 48  22  46  1   
 49  23  47  1   
 50  23  48  1   
 51  23  49  1   
@<TRIPOS>SUBSTRUCTURE
  1 ****  12 GROUP 4 **** **** 0

# MOE 2024.06 (io_trps.svl 2023.06)
