@<TRIPOS>MOLECULE
NONAME
51 54 1 0 0 
SMALL
USER_CHARGES


@<TRIPOS>ATOM
  1 O       -0.3210    -0.0630     0.5970 O.2   1 <1>  -0.5700 
  2 C       -1.3150     0.5350     0.2590 C.2   1 <1>   0.5690 
  3 N       -2.3790    -0.1120    -0.3020 N.am  1 <1>  -0.6600 
  4 C       -1.3790     2.0340     0.4790 C.3   1 <1>  -0.0990 
  5 C       -3.6520     0.5040    -0.7550 C.3   1 <1>   0.1400 
  6 C       -2.4000    -1.5790    -0.5060 C.3   1 <1>   0.1400 
  7 C       -0.0020     2.6370     0.7910 C.3   1 <1>   0.0960 
  8 C       -4.4640    -0.6520    -1.3440 C.3   1 <1>   0.2000 
  9 C       -3.8680    -1.9270    -0.7500 C.3   1 <1>  -0.0800 
 10 N       -0.1150     4.0860     1.0360 N.pl3 1 <1>   0.3140 
 11 O       -5.8040    -0.5550    -1.0060 O.3   1 <1>  -0.6800 
 12 C       -4.0660    -3.1550    -1.6540 C.3   1 <1>  -0.0160 
 13 N       -0.5940     4.9330     0.1050 N.2   1 <1>  -0.7070 
 14 C        0.2110     4.7400     2.1680 C.2   1 <1>  -0.3020 
 15 C       -3.4930    -4.4130    -1.0080 C.ar  1 <1>  -0.1440 
 16 C       -0.5570     6.1000     0.6650 C.2   1 <1>   0.1080 
 17 C       -0.0620     6.0450     1.9620 C.2   1 <1>  -0.1500 
 18 C       -4.1710    -5.1110     0.0200 C.ar  1 <1>   0.0000 
 19 C       -2.2850    -4.9010    -1.4110 C.ar  1 <1>  -0.1500 
 20 C       -1.0100     7.3530    -0.0460 C.3   1 <1>  -0.0590 
 21 C       -3.5370    -6.2540     0.5660 C.ar  1 <1>   0.3100 
 22 C       -5.4360    -4.7460     0.5360 C.ar  1 <1>  -0.1500 
 23 C       -1.7500    -6.0460    -0.8080 C.ar  1 <1>   0.1600 
 24 N       -2.3310    -6.7080     0.1410 N.ar  1 <1>  -0.6200 
 25 C       -4.1790    -6.9590     1.5970 C.ar  1 <1>  -0.1500 
 26 C       -6.0360    -5.4570     1.5390 C.ar  1 <1>  -0.1500 
 27 C       -5.4000    -6.5770     2.0800 C.ar  1 <1>  -0.1500 
 28 H       -1.7630     2.5020    -0.4080 H     1 <1>   0.0800 
 29 H       -2.0480     2.2290     1.2960 H     1 <1>   0.0800 
 30 H       -4.1570     0.9420     0.0880 H     1 <1>   0.0800 
 31 H       -3.4620     1.2500    -1.5070 H     1 <1>   0.0800 
 32 H       -1.7950    -1.8170    -1.3640 H     1 <1>   0.0800 
 33 H       -2.0100    -2.0940     0.3570 H     1 <1>   0.0800 
 34 H        0.6640     2.4850    -0.0380 H     1 <1>   0.0800 
 35 H        0.4210     2.1710     1.6630 H     1 <1>   0.0800 
 36 H       -4.3830    -0.6420    -2.4180 H     1 <1>   0.0800 
 37 H       -4.3080    -2.1100     0.2140 H     1 <1>   0.0800 
 38 H       -5.9130    -0.5750    -0.0350 H     1 <1>   0.4000 
 39 H       -3.5820    -2.9830    -2.6000 H     1 <1>   0.0800 
 40 H       -5.1120    -3.2960    -1.8640 H     1 <1>   0.0800 
 41 H        0.6100     4.2520     3.0370 H     1 <1>   0.1500 
 42 H        0.0650     6.8760     2.6320 H     1 <1>   0.1500 
 43 H       -1.7130    -4.4280    -2.1890 H     1 <1>   0.1500 
 44 H       -0.9070     8.2080     0.5950 H     1 <1>   0.0800 
 45 H       -2.0400     7.2490    -0.3340 H     1 <1>   0.0800 
 46 H       -0.4150     7.4980    -0.9290 H     1 <1>   0.0800 
 47 H       -5.9460    -3.8920     0.1320 H     1 <1>   0.1500 
 48 H       -0.7930    -6.3970    -1.1560 H     1 <1>   0.1500 
 49 H       -3.6720    -7.8180     1.9950 H     1 <1>   0.1500 
 50 H       -6.9990    -5.1670     1.9230 H     1 <1>   0.1500 
 51 H       -5.8800    -7.1280     2.8710 H     1 <1>   0.1500 
@<TRIPOS>BOND
  1   1   2  2   
  2   2   3  am  
  3   2   4  1   
  4   3   5  1   
  5   3   6  1   
  6   4   7  1   
  7   4  28  1   
  8   4  29  1   
  9   5   8  1   
 10   5  30  1   
 11   5  31  1   
 12   6   9  1   
 13   6  32  1   
 14   6  33  1   
 15   7  10  1   
 16   7  34  1   
 17   7  35  1   
 18   8   9  1   
 19   8  11  1   
 20   8  36  1   
 21   9  12  1   
 22   9  37  1   
 23  10  13  1   
 24  10  14  1   
 25  11  38  1   
 26  12  15  1   
 27  12  39  1   
 28  12  40  1   
 29  13  16  2   
 30  14  17  2   
 31  14  41  1   
 32  15  18  ar  
 33  15  19  ar  
 34  16  17  1   
 35  16  20  1   
 36  17  42  1   
 37  18  21  ar  
 38  18  22  ar  
 39  19  23  ar  
 40  19  43  1   
 41  20  44  1   
 42  20  45  1   
 43  20  46  1   
 44  21  24  ar  
 45  21  25  ar  
 46  22  26  ar  
 47  22  47  1   
 48  23  24  ar  
 49  23  48  1   
 50  25  27  ar  
 51  25  49  1   
 52  26  27  ar  
 53  26  50  1   
 54  27  51  1   
@<TRIPOS>SUBSTRUCTURE
  1 ****   6 GROUP 4 **** **** 0

# MOE 2024.06 (io_trps.svl 2023.06)
