@<TRIPOS>MOLECULE
NONAME
48 50 1 0 0 
SMALL
USER_CHARGES


@<TRIPOS>ATOM
  1 O       -0.2750     1.2190     1.5390 O.2   1 <1>  -0.5700 
  2 C       -0.2630     2.3840     1.2340 C.2   1 <1>   0.5690 
  3 N       -1.3590     3.1550     1.3980 N.am  1 <1>  -0.7300 
  4 C        0.9870     3.0080     0.6160 C.3   1 <1>   0.1810 
  5 C       -1.4590     4.5630     0.9380 C.3   1 <1>   0.3640 
  6 O        1.0110     4.4090     0.7670 O.3   1 <1>  -0.5600 
  7 C       -2.6420     4.6580    -0.0250 C.ar  1 <1>  -0.1440 
  8 C       -0.1490     5.0840     0.2800 C.3   1 <1>   0.2610 
  9 C       -3.5420     5.7090     0.0880 C.ar  1 <1>  -0.1500 
 10 C       -2.8400     3.7110    -1.0240 C.ar  1 <1>  -0.1500 
 11 C       -0.0180     6.5930     0.5200 C.2   1 <1>   0.5690 
 12 C       -4.6190     5.8110    -0.7740 C.ar  1 <1>  -0.1500 
 13 C       -3.9180     3.8120    -1.8870 C.ar  1 <1>  -0.1500 
 14 O       -0.8790     7.3420     0.1220 O.2   1 <1>  -0.5700 
 15 N        1.0720     7.0630     1.1860 N.am  1 <1>  -0.7300 
 16 C       -4.8090     4.8620    -1.7620 C.ar  1 <1>  -0.1500 
 17 C        1.3690     8.4780     1.4810 C.3   1 <1>   0.1400 
 18 C        2.5400     8.9280     0.6130 C.3   1 <1>  -0.1600 
 19 C        2.8330    10.4120     0.8320 C.3   1 <1>   0.1400 
 20 N        4.0170    10.8040     0.0400 N.am  1 <1>  -0.6600 
 21 C        5.2540    11.0150     0.5410 C.2   1 <1>   0.5690 
 22 C        3.9210    11.0980    -1.3990 C.3   1 <1>   0.1400 
 23 O        5.5880    10.8680     1.6910 O.2   1 <1>  -0.5700 
 24 C        6.1950    11.4780    -0.5370 C.3   1 <1>  -0.0990 
 25 C        5.3800    11.3100    -1.8320 C.3   1 <1>  -0.1600 
 26 H       -2.2140     2.7210     1.7480 H     1 <1>   0.3700 
 27 H        1.0310     2.7740    -0.4320 H     1 <1>   0.0800 
 28 H        1.8600     2.6100     1.1000 H     1 <1>   0.0800 
 29 H       -1.6670     5.1710     1.8010 H     1 <1>   0.0800 
 30 H       -0.1940     4.9220    -0.7820 H     1 <1>   0.0800 
 31 H       -3.4060     6.4640     0.8440 H     1 <1>   0.1500 
 32 H       -2.1610     2.8850    -1.1380 H     1 <1>   0.1500 
 33 H       -5.3080     6.6330    -0.6780 H     1 <1>   0.1500 
 34 H       -4.0640     3.0730    -2.6550 H     1 <1>   0.1500 
 35 H        1.7800     6.3730     1.4590 H     1 <1>   0.3700 
 36 H       -5.6470     4.9420    -2.4330 H     1 <1>   0.1500 
 37 H        0.5020     9.0830     1.2710 H     1 <1>   0.0800 
 38 H        1.6130     8.5820     2.5240 H     1 <1>   0.0800 
 39 H        2.2950     8.7630    -0.4210 H     1 <1>   0.0800 
 40 H        3.4150     8.3570     0.8700 H     1 <1>   0.0800 
 41 H        3.0330    10.5920     1.8760 H     1 <1>   0.0800 
 42 H        1.9890    11.0120     0.5390 H     1 <1>   0.0800 
 43 H        3.4710    10.2770    -1.9300 H     1 <1>   0.0800 
 44 H        3.3410    11.9940    -1.5440 H     1 <1>   0.0800 
 45 H        6.4440    12.5080    -0.3620 H     1 <1>   0.0800 
 46 H        7.0860    10.8770    -0.5420 H     1 <1>   0.0800 
 47 H        5.7160    10.4350    -2.3600 H     1 <1>   0.0800 
 48 H        5.4750    12.1630    -2.4800 H     1 <1>   0.0800 
@<TRIPOS>BOND
  1   1   2  2   
  2   2   3  am  
  3   2   4  1   
  4   3   5  1   
  5   3  26  1   
  6   4   6  1   
  7   4  27  1   
  8   4  28  1   
  9   5   7  1   
 10   5   8  1   
 11   5  29  1   
 12   6   8  1   
 13   7   9  ar  
 14   7  10  ar  
 15   8  11  1   
 16   8  30  1   
 17   9  12  ar  
 18   9  31  1   
 19  10  13  ar  
 20  10  32  1   
 21  11  14  2   
 22  11  15  am  
 23  12  16  ar  
 24  12  33  1   
 25  13  16  ar  
 26  13  34  1   
 27  15  17  1   
 28  15  35  1   
 29  16  36  1   
 30  17  18  1   
 31  17  37  1   
 32  17  38  1   
 33  18  19  1   
 34  18  39  1   
 35  18  40  1   
 36  19  20  1   
 37  19  41  1   
 38  19  42  1   
 39  20  21  am  
 40  20  22  1   
 41  21  23  2   
 42  21  24  1   
 43  22  25  1   
 44  22  43  1   
 45  22  44  1   
 46  24  25  1   
 47  24  45  1   
 48  24  46  1   
 49  25  47  1   
 50  25  48  1   
@<TRIPOS>SUBSTRUCTURE
  1 ****  11 GROUP 4 **** **** 0

# MOE 2024.06 (io_trps.svl 2023.06)
