@<TRIPOS>MOLECULE
NONAME
51 53 1 0 0 
SMALL
USER_CHARGES


@<TRIPOS>ATOM
  1 S        1.6750    -0.1530     0.0890 S.o2  1 <1>   1.3330 
  2 O        2.1640    -0.1920     1.4480 O.2   1 <1>  -0.6500 
  3 O        2.3900    -0.8680    -0.9440 O.2   1 <1>  -0.6500 
  4 N        0.0720    -0.7130     0.0860 N.am  1 <1>  -0.8490 
  5 C        1.4850     1.5700    -0.3710 C.3   1 <1>  -0.0550 
  6 C       -0.1300    -1.8200     1.0260 C.3   1 <1>   0.1160 
  7 C       -0.4070    -1.0970    -1.2460 C.3   1 <1>   0.1160 
  8 C        2.8110     2.3560    -0.3840 C.3   1 <1>  -0.0800 
  9 C        2.5610     3.8460    -0.5390 C.3   1 <1>   0.2200 
 10 C        3.6340     2.0610    -1.6380 C.3   1 <1>   0.1200 
 11 N        3.7150     4.5850     0.0120 N.am  1 <1>  -0.7300 
 12 C        2.5060     4.0240    -2.0570 C.3   1 <1>   0.1200 
 13 O        3.1280     2.9060    -2.6240 O.3   1 <1>  -0.5600 
 14 C        3.6770     5.4970     1.0150 C.2   1 <1>   0.5690 
 15 O        2.6450     5.7870     1.5710 O.2   1 <1>  -0.5700 
 16 C        4.9670     6.1750     1.4510 C.3   1 <1>   0.0820 
 17 C        6.1550     5.8160     0.5610 C.2   1 <1>  -0.1810 
 18 C        6.2860     6.2820    -0.7680 C.ar  1 <1>   0.0000 
 19 C        7.2240     5.0220     0.8260 C.2   1 <1>  -0.3320 
 20 C        7.4640     5.7310    -1.2660 C.ar  1 <1>  -0.1520 
 21 C        5.5070     7.1040    -1.5890 C.ar  1 <1>  -0.1500 
 22 N        8.0310     4.9710    -0.2770 N.pl3 1 <1>   0.0330 
 23 C        7.5800     4.2520     2.0860 C.3   1 <1>  -0.0600 
 24 C        7.8930     5.9800    -2.5750 C.ar  1 <1>  -0.1500 
 25 C        5.9450     7.3340    -2.8690 C.ar  1 <1>   0.1900 
 26 C        7.1240     6.7880    -3.3820 C.ar  1 <1>  -0.1500 
 27 F        5.2310     8.0980    -3.6570 F     1 <1>  -0.1900 
 28 H        1.0190     1.6370    -1.3350 H     1 <1>   0.0800 
 29 H        0.8260     2.0270     0.3420 H     1 <1>   0.0800 
 30 H       -1.1580    -2.1410     1.0100 H     1 <1>   0.0800 
 31 H        0.1060    -1.5010     2.0280 H     1 <1>   0.0800 
 32 H        0.5060    -2.6500     0.7690 H     1 <1>   0.0800 
 33 H       -1.4520    -1.3540    -1.2030 H     1 <1>   0.0800 
 34 H        0.1470    -1.9440    -1.6170 H     1 <1>   0.0800 
 35 H       -0.2870    -0.2790    -1.9350 H     1 <1>   0.0800 
 36 H        3.3620     2.1410     0.5160 H     1 <1>   0.0800 
 37 H        1.6520     4.1760    -0.0630 H     1 <1>   0.0800 
 38 H        3.5680     1.0430    -1.9780 H     1 <1>   0.0800 
 39 H        4.6680     2.3200    -1.4860 H     1 <1>   0.0800 
 40 H        4.6160     4.4270    -0.4530 H     1 <1>   0.3700 
 41 H        3.0110     4.9160    -2.3840 H     1 <1>   0.0800 
 42 H        1.4880     4.0350    -2.4030 H     1 <1>   0.0800 
 43 H        4.8190     7.2380     1.4310 H     1 <1>   0.0800 
 44 H        5.1640     5.8950     2.4670 H     1 <1>   0.0800 
 45 H        4.5950     7.5390    -1.2250 H     1 <1>   0.1500 
 46 H        8.9130     4.4560    -0.3620 H     1 <1>   0.2700 
 47 H        6.8240     4.3700     2.8400 H     1 <1>   0.0800 
 48 H        8.5140     4.6080     2.4840 H     1 <1>   0.0800 
 49 H        7.6730     3.2040     1.8650 H     1 <1>   0.0800 
 50 H        8.8070     5.5430    -2.9370 H     1 <1>   0.1500 
 51 H        7.4090     7.0090    -4.3950 H     1 <1>   0.1500 
@<TRIPOS>BOND
  1   1   2  2   
  2   1   3  2   
  3   1   4  am  
  4   1   5  1   
  5   4   6  1   
  6   4   7  1   
  7   5   8  1   
  8   5  28  1   
  9   5  29  1   
 10   6  30  1   
 11   6  31  1   
 12   6  32  1   
 13   7  33  1   
 14   7  34  1   
 15   7  35  1   
 16   8   9  1   
 17   8  10  1   
 18   8  36  1   
 19   9  11  1   
 20   9  12  1   
 21   9  37  1   
 22  10  13  1   
 23  10  38  1   
 24  10  39  1   
 25  11  14  am  
 26  11  40  1   
 27  12  13  1   
 28  12  41  1   
 29  12  42  1   
 30  14  15  2   
 31  14  16  1   
 32  16  17  1   
 33  16  43  1   
 34  16  44  1   
 35  17  18  1   
 36  17  19  2   
 37  18  20  ar  
 38  18  21  ar  
 39  19  22  1   
 40  19  23  1   
 41  20  22  1   
 42  20  24  ar  
 43  21  25  ar  
 44  21  45  1   
 45  22  46  1   
 46  23  47  1   
 47  23  48  1   
 48  23  49  1   
 49  24  26  ar  
 50  24  50  1   
 51  25  26  ar  
 52  25  27  1   
 53  26  51  1   
@<TRIPOS>SUBSTRUCTURE
  1 ****  11 GROUP 4 **** **** 0

# MOE 2024.06 (io_trps.svl 2023.06)
