@<TRIPOS>MOLECULE
NONAME
45 47 1 0 0 
SMALL
USER_CHARGES


@<TRIPOS>ATOM
  1 O       -0.2500     1.5180    -2.1520 O.2   1 <1>  -0.5700 
  2 C       -1.2800     0.9720    -1.8040 C.2   1 <1>   0.7800 
  3 O       -1.5400    -0.3110    -2.0610 O.3   1 <1>  -0.2330 
  4 N       -2.3020     1.5430    -1.0990 N.am  1 <1>  -0.4770 
  5 C       -2.7430    -0.5810    -1.5150 C.ar  1 <1>   0.0830 
  6 C       -3.2420     0.5510    -0.9090 C.ar  1 <1>   0.1170 
  7 C       -2.3750     2.9510    -0.6590 C.3   1 <1>   0.1400 
  8 C       -3.4370    -1.7760    -1.5150 C.ar  1 <1>  -0.1500 
  9 C       -4.4730     0.5190    -0.2730 C.ar  1 <1>  -0.1500 
 10 C       -1.6070     3.1230     0.6530 C.3   1 <1>  -0.0990 
 11 C       -4.6690    -1.8090    -0.8790 C.ar  1 <1>  -0.1500 
 12 C       -5.1880    -0.6710    -0.2610 C.ar  1 <1>  -0.1440 
 13 C       -1.5890     4.5760     1.0970 C.2   1 <1>   0.5690 
 14 C       -6.5400    -0.7500     0.4250 C.3   1 <1>  -0.0960 
 15 O       -2.5380     5.2660     0.8080 O.2   1 <1>  -0.5700 
 16 N       -0.5280     5.0800     1.8000 N.am  1 <1>  -0.6600 
 17 C       -0.3820     6.5610     1.9830 C.3   1 <1>   0.3200 
 18 C        0.6180     4.2740     2.3150 C.3   1 <1>   0.0600 
 19 C        0.8080     7.0990     1.2030 C.2   1 <1>   0.2980 
 20 O        0.8180     7.0590    -0.0910 O.3   1 <1>  -0.2800 
 21 N        1.8810     7.6070     1.6810 N.2   1 <1>  -0.3380 
 22 C        1.9630     7.5680    -0.4060 C.2   1 <1>   0.2980 
 23 N        2.6370     7.9140     0.6260 N.2   1 <1>  -0.3380 
 24 C        2.3400     7.6820    -1.8750 C.3   1 <1>   0.0200 
 25 C        3.7310     8.2910    -2.1050 C.3   1 <1>  -0.2400 
 26 H       -3.4050     3.2370    -0.5330 H     1 <1>   0.0800 
 27 H       -1.9410     3.5790    -1.4190 H     1 <1>   0.0800 
 28 H       -3.0250    -2.6450    -1.9950 H     1 <1>   0.1500 
 29 H       -4.8560     1.4060     0.1980 H     1 <1>   0.1500 
 30 H       -0.6010     2.7820     0.4960 H     1 <1>   0.0800 
 31 H       -2.0670     2.5350     1.4240 H     1 <1>   0.0800 
 32 H       -5.2300    -2.7280    -0.8640 H     1 <1>   0.1500 
 33 H       -6.8530     0.2180     0.7740 H     1 <1>   0.0800 
 34 H       -6.4850    -1.4170     1.2670 H     1 <1>   0.0800 
 35 H       -7.2800    -1.1190    -0.2630 H     1 <1>   0.0800 
 36 H       -0.2460     6.7750     3.0270 H     1 <1>   0.0800 
 37 H       -1.2660     7.0780     1.6550 H     1 <1>   0.0800 
 38 H        0.3030     3.2740     2.5570 H     1 <1>   0.0800 
 39 H        1.0170     4.7250     3.2080 H     1 <1>   0.0800 
 40 H        1.3960     4.2310     1.5710 H     1 <1>   0.0800 
 41 H        1.6010     8.2870    -2.3680 H     1 <1>   0.0800 
 42 H        2.3070     6.6990    -2.3090 H     1 <1>   0.0800 
 43 H        3.7740     9.2830    -1.6900 H     1 <1>   0.0800 
 44 H        3.9430     8.3460    -3.1580 H     1 <1>   0.0800 
 45 H        4.4840     7.6870    -1.6300 H     1 <1>   0.0800 
@<TRIPOS>BOND
  1   1   2  2   
  2   2   3  1   
  3   2   4  am  
  4   3   5  1   
  5   4   6  1   
  6   4   7  1   
  7   5   6  ar  
  8   5   8  ar  
  9   6   9  ar  
 10   7  10  1   
 11   7  26  1   
 12   7  27  1   
 13   8  11  ar  
 14   8  28  1   
 15   9  12  ar  
 16   9  29  1   
 17  10  13  1   
 18  10  30  1   
 19  10  31  1   
 20  11  12  ar  
 21  11  32  1   
 22  12  14  1   
 23  13  15  2   
 24  13  16  am  
 25  14  33  1   
 26  14  34  1   
 27  14  35  1   
 28  16  17  1   
 29  16  18  1   
 30  17  19  1   
 31  17  36  1   
 32  17  37  1   
 33  18  38  1   
 34  18  39  1   
 35  18  40  1   
 36  19  20  1   
 37  19  21  2   
 38  20  22  1   
 39  21  23  1   
 40  22  23  2   
 41  22  24  1   
 42  24  25  1   
 43  24  41  1   
 44  24  42  1   
 45  25  43  1   
 46  25  44  1   
 47  25  45  1   
@<TRIPOS>SUBSTRUCTURE
  1 ****  10 GROUP 4 **** **** 0

# MOE 2024.06 (io_trps.svl 2023.06)
