@<TRIPOS>MOLECULE
NONAME
50 52 1 0 0 
SMALL
USER_CHARGES


@<TRIPOS>ATOM
  1 F       -5.8390     0.5350     1.5520 F     1 <1>  -0.1900 
  2 C       -4.8100     0.7000     0.7600 C.ar  1 <1>   0.1900 
  3 C       -4.0640    -0.4350     0.3740 C.ar  1 <1>   0.3100 
  4 C       -4.5210     1.9720     0.3430 C.ar  1 <1>  -0.1500 
  5 N       -4.3840    -1.6820     0.8240 N.ar  1 <1>  -0.6200 
  6 C       -2.9780    -0.2120    -0.5030 C.ar  1 <1>   0.0000 
  7 C       -3.4360     2.1720    -0.5150 C.ar  1 <1>  -0.1500 
  8 C       -3.6730    -2.6940     0.4180 C.ar  1 <1>   0.1670 
  9 C       -2.2310    -1.3260    -0.9210 C.ar  1 <1>  -0.1500 
 10 C       -2.6860     1.1020    -0.9270 C.ar  1 <1>  -0.1500 
 11 C       -2.5840    -2.5570    -0.4590 C.ar  1 <1>  -0.1500 
 12 C       -4.0360    -4.1000     0.9220 C.3   1 <1>   0.2540 
 13 N       -5.3540    -4.6150     0.4500 N.3   1 <1>  -0.8100 
 14 C       -5.3830    -4.6400    -1.0260 C.3   1 <1>   0.2900 
 15 C       -6.4660    -3.8120     1.0200 C.3   1 <1>   0.1100 
 16 C       -6.6790    -5.2660    -1.4840 C.2   1 <1>  -0.3320 
 17 C       -7.6710    -4.6930     1.3920 C.3   1 <1>   0.3430 
 18 N       -6.9770    -6.5700    -1.3400 N.pl3 1 <1>   0.0330 
 19 C       -7.7520    -4.6900    -2.0650 C.2   1 <1>   0.0770 
 20 N       -8.9160    -3.8920     1.6320 N.4   1 <1>  -0.9590 
 21 C       -8.2400    -6.6940    -1.8030 C.2   1 <1>   0.0060 
 22 N       -8.7460    -5.5820    -2.2280 N.2   1 <1>  -0.5650 
 23 C       -9.9110    -4.6960     2.3990 C.3   1 <1>   0.2630 
 24 C       -9.5100    -3.4550     0.3280 C.3   1 <1>   0.2630 
 25 C       -8.9770    -8.0160    -1.8260 C.3   1 <1>  -0.0600 
 26 H       -5.1160     2.8070     0.6670 H     1 <1>   0.1500 
 27 H       -3.2030     3.1710    -0.8440 H     1 <1>   0.1500 
 28 H       -1.4000    -1.1890    -1.5910 H     1 <1>   0.1500 
 29 H       -1.8500     1.2530    -1.5890 H     1 <1>   0.1500 
 30 H       -2.0320    -3.4300    -0.7590 H     1 <1>   0.1500 
 31 H       -4.0290    -4.0840     1.9980 H     1 <1>   0.0800 
 32 H       -3.2700    -4.7930     0.6200 H     1 <1>   0.0800 
 33 H       -4.5530    -5.2130    -1.4030 H     1 <1>   0.0800 
 34 H       -5.3100    -3.6380    -1.4190 H     1 <1>   0.0800 
 35 H       -6.7520    -3.0470     0.3190 H     1 <1>   0.0800 
 36 H       -6.1390    -3.3230     1.9220 H     1 <1>   0.0800 
 37 H       -7.4160    -5.2460     2.2810 H     1 <1>   0.0800 
 38 H       -7.8600    -5.3980     0.6030 H     1 <1>   0.0800 
 39 H       -6.3750    -7.3060    -0.9580 H     1 <1>   0.2700 
 40 H       -7.8700    -3.6620    -2.3670 H     1 <1>   0.1500 
 41 H       -8.6600    -3.0560     2.1810 H     1 <1>   0.4500 
 42 H      -10.1900    -5.5750     1.8400 H     1 <1>   0.0800 
 43 H      -10.7980    -4.1120     2.5870 H     1 <1>   0.0800 
 44 H       -9.4950    -5.0030     3.3450 H     1 <1>   0.0800 
 45 H       -9.7570    -4.3140    -0.2770 H     1 <1>   0.0800 
 46 H       -8.8100    -2.8460    -0.2200 H     1 <1>   0.0800 
 47 H      -10.4070    -2.8820     0.4950 H     1 <1>   0.0800 
 48 H       -9.0580    -8.4180    -0.8330 H     1 <1>   0.0800 
 49 H       -8.4540    -8.7170    -2.4520 H     1 <1>   0.0800 
 50 H       -9.9660    -7.8760    -2.2260 H     1 <1>   0.0800 
@<TRIPOS>BOND
  1   1   2  1   
  2   2   3  ar  
  3   2   4  ar  
  4   3   5  ar  
  5   3   6  ar  
  6   4   7  ar  
  7   4  26  1   
  8   5   8  ar  
  9   6   9  ar  
 10   6  10  ar  
 11   7  10  ar  
 12   7  27  1   
 13   8  11  ar  
 14   8  12  1   
 15   9  11  ar  
 16   9  28  1   
 17  10  29  1   
 18  11  30  1   
 19  12  13  1   
 20  12  31  1   
 21  12  32  1   
 22  13  14  1   
 23  13  15  1   
 24  14  16  1   
 25  14  33  1   
 26  14  34  1   
 27  15  17  1   
 28  15  35  1   
 29  15  36  1   
 30  16  18  1   
 31  16  19  2   
 32  17  20  1   
 33  17  37  1   
 34  17  38  1   
 35  18  21  1   
 36  18  39  1   
 37  19  22  1   
 38  19  40  1   
 39  20  23  1   
 40  20  24  1   
 41  20  41  1   
 42  21  22  2   
 43  21  25  1   
 44  23  42  1   
 45  23  43  1   
 46  23  44  1   
 47  24  45  1   
 48  24  46  1   
 49  24  47  1   
 50  25  48  1   
 51  25  49  1   
 52  25  50  1   
@<TRIPOS>SUBSTRUCTURE
  1 ****  15 GROUP 4 **** **** 0

# MOE 2024.06 (io_trps.svl 2023.06)
