@<TRIPOS>MOLECULE
NONAME
51 54 1 0 0 
SMALL
USER_CHARGES


@<TRIPOS>ATOM
  1 F       -2.3470    -1.4800    -2.3920 F     1 <1>  -0.1900 
  2 C       -3.0420    -0.5430    -1.8060 C.ar  1 <1>   0.1900 
  3 C       -3.4550    -0.7320    -0.5030 C.ar  1 <1>  -0.1500 
  4 C       -3.3400     0.6030    -2.5110 C.ar  1 <1>  -0.1500 
  5 C       -4.1990     0.2560     0.1290 C.ar  1 <1>  -0.1440 
  6 C       -4.0740     1.5910    -1.8800 C.ar  1 <1>  -0.1500 
  7 C       -4.5020     1.4300    -0.5670 C.ar  1 <1>  -0.1440 
  8 C       -4.6550     0.0010     1.5710 C.3   1 <1>   0.0440 
  9 C       -5.2910     2.5680     0.0680 C.3   1 <1>  -0.0960 
 10 C       -5.2500    -1.3840     1.7920 C.2   1 <1>   0.5690 
 11 O       -4.7550    -2.0800     2.6460 O.2   1 <1>  -0.5700 
 12 N       -6.3230    -1.8160     1.0590 N.am  1 <1>  -0.6600 
 13 C       -7.0240    -1.0690    -0.0150 C.3   1 <1>   0.1400 
 14 C       -6.8500    -3.2000     1.1530 C.3   1 <1>   0.1400 
 15 C       -8.2900    -1.8820    -0.2760 C.3   1 <1>   0.2000 
 16 C       -7.8840    -3.3280     0.0210 C.3   1 <1>  -0.0800 
 17 O       -9.2470    -1.5080     0.6530 O.3   1 <1>  -0.6800 
 18 C       -7.2840    -3.9950    -1.2330 C.3   1 <1>  -0.0170 
 19 C       -6.9700    -5.4630    -0.9960 C.ar  1 <1>   0.1670 
 20 N       -5.7380    -5.7800    -0.7460 N.ar  1 <1>  -0.6200 
 21 C       -8.0160    -6.3990    -1.0540 C.ar  1 <1>  -0.1500 
 22 C       -5.4510    -7.0880    -0.5240 C.ar  1 <1>   0.3100 
 23 C       -7.7580    -7.7180    -0.8380 C.ar  1 <1>  -0.1500 
 24 C       -6.4350    -8.1000    -0.5590 C.ar  1 <1>   0.0000 
 25 C       -4.1250    -7.4540    -0.2430 C.ar  1 <1>  -0.1500 
 26 C       -6.0530    -9.4340    -0.3150 C.ar  1 <1>  -0.1500 
 27 C       -3.7750    -8.7570    -0.0090 C.ar  1 <1>  -0.1500 
 28 C       -4.7510    -9.7580    -0.0460 C.ar  1 <1>  -0.1500 
 29 H       -3.1940    -1.6480     0.0010 H     1 <1>   0.1500 
 30 H       -3.0020     0.7170    -3.5250 H     1 <1>   0.1500 
 31 H       -4.3060     2.4920    -2.4220 H     1 <1>   0.1500 
 32 H       -5.3890     0.7130     1.8910 H     1 <1>   0.0800 
 33 H       -3.8030     0.1110     2.2170 H     1 <1>   0.0800 
 34 H       -5.3350     3.4210    -0.5840 H     1 <1>   0.0800 
 35 H       -4.8220     2.8770     0.9850 H     1 <1>   0.0800 
 36 H       -6.2980     2.2530     0.2750 H     1 <1>   0.0800 
 37 H       -7.2520    -0.0590     0.2770 H     1 <1>   0.0800 
 38 H       -6.4070    -1.0610    -0.8970 H     1 <1>   0.0800 
 39 H       -6.0480    -3.9140     1.0670 H     1 <1>   0.0800 
 40 H       -7.3230    -3.3290     2.1110 H     1 <1>   0.0800 
 41 H       -8.6970    -1.7310    -1.2610 H     1 <1>   0.0800 
 42 H       -8.7320    -3.9060     0.3420 H     1 <1>   0.0800 
 43 H       -8.8490    -1.5510     1.5460 H     1 <1>   0.4000 
 44 H       -6.3820    -3.4860    -1.5280 H     1 <1>   0.0800 
 45 H       -7.9790    -3.9230    -2.0500 H     1 <1>   0.0800 
 46 H       -9.0130    -6.0600    -1.2690 H     1 <1>   0.1500 
 47 H       -8.5320    -8.4640    -0.8740 H     1 <1>   0.1500 
 48 H       -3.3920    -6.6690    -0.2190 H     1 <1>   0.1500 
 49 H       -6.8090   -10.1990    -0.3450 H     1 <1>   0.1500 
 50 H       -2.7540    -9.0230     0.2050 H     1 <1>   0.1500 
 51 H       -4.4620   -10.7780     0.1410 H     1 <1>   0.1500 
@<TRIPOS>BOND
  1   1   2  1   
  2   2   3  ar  
  3   2   4  ar  
  4   3   5  ar  
  5   3  29  1   
  6   4   6  ar  
  7   4  30  1   
  8   5   7  ar  
  9   5   8  1   
 10   6   7  ar  
 11   6  31  1   
 12   7   9  1   
 13   8  10  1   
 14   8  32  1   
 15   8  33  1   
 16   9  34  1   
 17   9  35  1   
 18   9  36  1   
 19  10  11  2   
 20  10  12  am  
 21  12  13  1   
 22  12  14  1   
 23  13  15  1   
 24  13  37  1   
 25  13  38  1   
 26  14  16  1   
 27  14  39  1   
 28  14  40  1   
 29  15  16  1   
 30  15  17  1   
 31  15  41  1   
 32  16  18  1   
 33  16  42  1   
 34  17  43  1   
 35  18  19  1   
 36  18  44  1   
 37  18  45  1   
 38  19  20  ar  
 39  19  21  ar  
 40  20  22  ar  
 41  21  23  ar  
 42  21  46  1   
 43  22  24  ar  
 44  22  25  ar  
 45  23  24  ar  
 46  23  47  1   
 47  24  26  ar  
 48  25  27  ar  
 49  25  48  1   
 50  26  28  ar  
 51  26  49  1   
 52  27  28  ar  
 53  27  50  1   
 54  28  51  1   
@<TRIPOS>SUBSTRUCTURE
  1 ****  14 GROUP 4 **** **** 0

# MOE 2024.06 (io_trps.svl 2023.06)
