@<TRIPOS>MOLECULE
NONAME
56 59 1 0 0 
SMALL
USER_CHARGES


@<TRIPOS>ATOM
  1 S       -0.6180    -0.5260    -1.4290 S.o2  1 <1>   1.2040 
  2 O       -0.0450    -0.0690    -2.6790 O.2   1 <1>  -0.6500 
  3 O       -1.7810    -1.3820    -1.5190 O.2   1 <1>  -0.6500 
  4 C       -1.0110     0.9350    -0.4260 C.ar  1 <1>  -0.0090 
  5 C        0.6820    -1.3780    -0.5280 C.3   1 <1>   0.0890 
  6 C       -1.7350     0.8330     0.7670 C.ar  1 <1>   0.0860 
  7 C       -0.5840     2.1920    -0.8400 C.ar  1 <1>  -0.1500 
  8 C        1.7630    -0.4380    -0.0090 C.ar  1 <1>  -0.1440 
  9 C       -2.1950    -0.4360     1.2870 C.2   1 <1>   0.5440 
 10 C       -2.0160     1.9920     1.4910 C.ar  1 <1>  -0.1500 
 11 C       -0.8690     3.3320    -0.1110 C.ar  1 <1>  -0.1500 
 12 C        2.6620     0.1440    -0.8890 C.ar  1 <1>  -0.1500 
 13 C        1.8430    -0.1440     1.3430 C.ar  1 <1>  -0.1500 
 14 O       -1.3850    -1.1570     1.8380 O.2   1 <1>  -0.5700 
 15 N       -3.5090    -0.8380     1.1930 N.am  1 <1>  -0.6600 
 16 C       -1.5910     3.2320     1.0600 C.ar  1 <1>  -0.1500 
 17 C        3.6310     1.0150    -0.4210 C.ar  1 <1>  -0.1500 
 18 C        2.8120     0.7270     1.8110 C.ar  1 <1>  -0.1500 
 19 C       -4.4780    -0.1500     0.2850 C.3   1 <1>   0.2200 
 20 C       -3.9470    -2.0960     1.8730 C.3   1 <1>   0.0600 
 21 C        3.7060     1.3070     0.9290 C.ar  1 <1>  -0.1500 
 22 C       -5.2050    -1.0820    -0.6800 C.3   1 <1>  -0.1600 
 23 C       -5.5910     0.5580     1.0500 C.3   1 <1>  -0.1600 
 24 C       -6.4340    -0.2790    -1.1230 C.3   1 <1>  -0.0800 
 25 C       -6.7400     0.6990     0.0400 C.3   1 <1>  -0.0800 
 26 C       -7.6030    -1.1780    -1.5800 C.3   1 <1>   0.1400 
 27 C       -8.1280     0.4990     0.6790 C.3   1 <1>  -0.0990 
 28 N       -8.8860    -0.4560    -1.4450 N.am  1 <1>  -0.7300 
 29 C       -9.1860     0.3290    -0.3900 C.2   1 <1>   0.5690 
 30 O      -10.2560     0.8710    -0.2900 O.2   1 <1>  -0.5700 
 31 H        0.2640    -1.9230     0.2940 H     1 <1>   0.0800 
 32 H        1.1370    -2.1020    -1.1750 H     1 <1>   0.0800 
 33 H       -0.0170     2.2880    -1.7510 H     1 <1>   0.1500 
 34 H       -2.5730     1.9090     2.4090 H     1 <1>   0.1500 
 35 H       -0.5250     4.2940    -0.4560 H     1 <1>   0.1500 
 36 H        2.6120    -0.0710    -1.9440 H     1 <1>   0.1500 
 37 H        1.1530    -0.5870     2.0430 H     1 <1>   0.1500 
 38 H       -1.8150     4.1150     1.6340 H     1 <1>   0.1500 
 39 H        4.3260     1.4650    -1.1080 H     1 <1>   0.1500 
 40 H        2.8680     0.9520     2.8620 H     1 <1>   0.1500 
 41 H       -3.9690     0.5850    -0.3140 H     1 <1>   0.0800 
 42 H       -4.9870    -2.0480     2.1390 H     1 <1>   0.0800 
 43 H       -3.3750    -2.2530     2.7710 H     1 <1>   0.0800 
 44 H       -3.7850    -2.9320     1.2140 H     1 <1>   0.0800 
 45 H        4.4580     1.9840     1.2930 H     1 <1>   0.1500 
 46 H       -4.5780    -1.3460    -1.5140 H     1 <1>   0.0800 
 47 H       -5.5280    -1.9750    -0.1790 H     1 <1>   0.0800 
 48 H       -5.9030    -0.0410     1.8860 H     1 <1>   0.0800 
 49 H       -5.2650     1.5180     1.4080 H     1 <1>   0.0800 
 50 H       -6.1400     0.3180    -1.9710 H     1 <1>   0.0800 
 51 H       -6.7140     1.6960    -0.3690 H     1 <1>   0.0800 
 52 H       -7.6520    -2.0650    -0.9720 H     1 <1>   0.0800 
 53 H       -7.4560    -1.4770    -2.6040 H     1 <1>   0.0800 
 54 H       -8.3770     1.3410     1.2990 H     1 <1>   0.0800 
 55 H       -8.1390    -0.3850     1.2890 H     1 <1>   0.0800 
 56 H       -9.6140    -0.6020    -2.1470 H     1 <1>   0.3700 
@<TRIPOS>BOND
  1   1   2  2   
  2   1   3  2   
  3   1   4  1   
  4   1   5  1   
  5   4   6  ar  
  6   4   7  ar  
  7   5   8  1   
  8   5  31  1   
  9   5  32  1   
 10   6   9  1   
 11   6  10  ar  
 12   7  11  ar  
 13   7  33  1   
 14   8  12  ar  
 15   8  13  ar  
 16   9  14  2   
 17   9  15  am  
 18  10  16  ar  
 19  10  34  1   
 20  11  16  ar  
 21  11  35  1   
 22  12  17  ar  
 23  12  36  1   
 24  13  18  ar  
 25  13  37  1   
 26  15  19  1   
 27  15  20  1   
 28  16  38  1   
 29  17  21  ar  
 30  17  39  1   
 31  18  21  ar  
 32  18  40  1   
 33  19  22  1   
 34  19  23  1   
 35  19  41  1   
 36  20  42  1   
 37  20  43  1   
 38  20  44  1   
 39  21  45  1   
 40  22  24  1   
 41  22  46  1   
 42  22  47  1   
 43  23  25  1   
 44  23  48  1   
 45  23  49  1   
 46  24  25  1   
 47  24  26  1   
 48  24  50  1   
 49  25  27  1   
 50  25  51  1   
 51  26  28  1   
 52  26  52  1   
 53  26  53  1   
 54  27  29  1   
 55  27  54  1   
 56  27  55  1   
 57  28  29  am  
 58  28  56  1   
 59  29  30  2   
@<TRIPOS>SUBSTRUCTURE
  1 ****   6 GROUP 4 **** **** 0

# MOE 2024.06 (io_trps.svl 2023.06)
