@<TRIPOS>MOLECULE
NONAME
52 55 1 0 0 
SMALL
USER_CHARGES


@<TRIPOS>ATOM
  1 O       -3.0490    -0.7490     1.9580 O.2   1 <1>  -0.5700 
  2 C       -2.1480    -1.2270     1.3010 C.2   1 <1>   0.6900 
  3 N       -1.9450    -2.5930     1.2040 N.am  1 <1>  -0.4690 
  4 N       -1.3150    -0.3950     0.6210 N.am  1 <1>  -0.4900 
  5 C       -0.9170    -3.0970     0.4120 C.2   1 <1>  -0.0410 
  6 C       -2.8100    -3.5470     1.9720 C.3   1 <1>   0.2010 
  7 C       -0.2980    -0.8410    -0.1640 C.2   1 <1>   0.6160 
  8 C       -0.1070    -2.2480    -0.2620 C.2   1 <1>  -0.1360 
  9 C       -3.5760    -4.5120     1.0670 C.2   1 <1>   0.5690 
 10 O        0.3910    -0.0300    -0.7440 O.2   1 <1>  -0.5700 
 11 O       -3.0170    -5.5540     0.8050 O.2   1 <1>  -0.5700 
 12 N       -4.8330    -4.2310     0.5800 N.am  1 <1>  -0.6600 
 13 C       -5.6150    -2.9740     0.8440 C.3   1 <1>   0.1400 
 14 C       -5.5760    -5.2350    -0.2370 C.3   1 <1>   0.1400 
 15 C       -6.1020    -2.3170    -0.4640 C.3   1 <1>   0.1440 
 16 C       -6.0130    -4.6130    -1.5660 C.3   1 <1>  -0.1600 
 17 C       -6.9940    -1.1400    -0.1130 C.ar  1 <1>   0.1670 
 18 C       -6.8530    -3.3470    -1.3360 C.3   1 <1>  -0.1600 
 19 C       -4.9340    -1.6450    -1.2370 C.3   1 <1>  -0.1600 
 20 N       -8.1950    -1.2300     0.4030 N.ar  1 <1>  -0.6200 
 21 C       -6.3920     0.0490    -0.3890 C.ar  1 <1>  -0.1430 
 22 C       -5.0090    -0.1330    -0.9580 C.3   1 <1>  -0.0170 
 23 C       -8.8060    -0.0640     0.6340 C.ar  1 <1>   0.7200 
 24 C       -7.0930     1.1960    -0.1140 C.ar  1 <1>   0.1600 
 25 N       -8.3020     1.1510     0.3950 N.ar  1 <1>  -0.6200 
 26 N      -10.0780    -0.1210     1.1710 N.pl3 1 <1>  -0.8380 
 27 C      -10.7370     1.0740     1.7660 C.3   1 <1>   0.1290 
 28 C      -10.8820    -1.3740     1.1730 C.3   1 <1>   0.1290 
 29 H       -1.4450     0.6040     0.7210 H     1 <1>   0.3700 
 30 H       -0.8010    -4.1700     0.3610 H     1 <1>   0.1500 
 31 H       -3.4950    -3.0220     2.6100 H     1 <1>   0.0800 
 32 H       -2.1760    -4.1310     2.6130 H     1 <1>   0.0800 
 33 H        0.6990    -2.5810    -0.8870 H     1 <1>   0.1500 
 34 H       -5.0360    -2.2580     1.3950 H     1 <1>   0.0800 
 35 H       -6.4730    -3.2260     1.4440 H     1 <1>   0.0800 
 36 H       -6.4410    -5.5610     0.3150 H     1 <1>   0.0800 
 37 H       -4.9660    -6.1000    -0.4340 H     1 <1>   0.0800 
 38 H       -6.5930    -5.3320    -2.1170 H     1 <1>   0.0800 
 39 H       -5.1390    -4.3840    -2.1500 H     1 <1>   0.0800 
 40 H       -7.1280    -2.9060    -2.2780 H     1 <1>   0.0800 
 41 H       -7.7650    -3.6270    -0.8360 H     1 <1>   0.0800 
 42 H       -5.0650    -1.7960    -2.2940 H     1 <1>   0.0800 
 43 H       -3.9770    -2.0510    -0.9610 H     1 <1>   0.0800 
 44 H       -4.8740     0.4410    -1.8580 H     1 <1>   0.0800 
 45 H       -4.2790     0.1620    -0.2260 H     1 <1>   0.0800 
 46 H       -6.6590     2.1600    -0.3130 H     1 <1>   0.1500 
 47 H      -10.0010     1.7510     2.1650 H     1 <1>   0.0800 
 48 H      -11.3900     0.7760     2.5660 H     1 <1>   0.0800 
 49 H      -11.3060     1.5830     1.0090 H     1 <1>   0.0800 
 50 H      -10.5910    -2.0120     0.3560 H     1 <1>   0.0800 
 51 H      -11.9270    -1.1430     1.0660 H     1 <1>   0.0800 
 52 H      -10.7250    -1.8990     2.0990 H     1 <1>   0.0800 
@<TRIPOS>BOND
  1   1   2  2   
  2   2   3  am  
  3   2   4  am  
  4   3   5  1   
  5   3   6  1   
  6   4   7  am  
  7   4  29  1   
  8   5   8  2   
  9   5  30  1   
 10   6   9  1   
 11   6  31  1   
 12   6  32  1   
 13   7   8  1   
 14   7  10  2   
 15   8  33  1   
 16   9  11  2   
 17   9  12  am  
 18  12  13  1   
 19  12  14  1   
 20  13  15  1   
 21  13  34  1   
 22  13  35  1   
 23  14  16  1   
 24  14  36  1   
 25  14  37  1   
 26  15  17  1   
 27  15  18  1   
 28  15  19  1   
 29  16  18  1   
 30  16  38  1   
 31  16  39  1   
 32  17  20  ar  
 33  17  21  ar  
 34  18  40  1   
 35  18  41  1   
 36  19  22  1   
 37  19  42  1   
 38  19  43  1   
 39  20  23  ar  
 40  21  22  1   
 41  21  24  ar  
 42  22  44  1   
 43  22  45  1   
 44  23  25  ar  
 45  23  26  1   
 46  24  25  ar  
 47  24  46  1   
 48  26  27  1   
 49  26  28  1   
 50  27  47  1   
 51  27  48  1   
 52  27  49  1   
 53  28  50  1   
 54  28  51  1   
 55  28  52  1   
@<TRIPOS>SUBSTRUCTURE
  1 ****  15 GROUP 4 **** **** 0

# MOE 2024.06 (io_trps.svl 2023.06)
