@<TRIPOS>MOLECULE
NONAME
48 51 1 0 0 
SMALL
USER_CHARGES


@<TRIPOS>ATOM
  1 O       -1.6980    -0.5040     0.7800 O.co2 1 <1>  -0.9000 
  2 C       -1.6510    -1.2710    -0.1840 C.2   1 <1>   0.9060 
  3 O       -0.6730    -1.9760    -0.4520 O.co2 1 <1>  -0.9000 
  4 C       -2.9480    -1.5220    -0.9530 C.3   1 <1>   0.2370 
  5 N       -3.7660    -2.7050    -0.4510 N.4   1 <1>  -0.9590 
  6 C       -4.1840    -2.5020     0.9850 C.3   1 <1>   0.4230 
  7 C       -3.0490    -3.9890    -0.7310 C.3   1 <1>   0.3430 
  8 C       -3.1830    -2.9910     2.0650 C.3   1 <1>   0.1200 
  9 C       -5.5730    -3.1650     1.1690 C.3   1 <1>   0.1400 
 10 C       -3.4940    -5.2090     0.1040 C.3   1 <1>  -0.0800 
 11 O       -3.3450    -4.3520     2.3570 O.3   1 <1>  -0.5600 
 12 N       -5.8520    -4.2370     0.1430 N.am  1 <1>  -0.6600 
 13 C       -2.7630    -5.2280     1.4550 C.3   1 <1>   0.1200 
 14 C       -5.0170    -5.4720     0.2390 C.3   1 <1>   0.1400 
 15 C       -6.6090    -3.9460    -0.9610 C.2   1 <1>   0.5690 
 16 O       -6.6150    -2.8150    -1.3850 O.2   1 <1>  -0.5700 
 17 C       -7.3910    -5.0080    -1.7280 C.3   1 <1>   0.0440 
 18 C       -7.9820    -6.1060    -0.8450 C.ar  1 <1>  -0.1430 
 19 C       -7.7050    -7.4430    -1.1150 C.ar  1 <1>  -0.1500 
 20 C       -8.7970    -5.7680     0.2360 C.ar  1 <1>  -0.1500 
 21 C       -8.2440    -8.4020    -0.2810 C.ar  1 <1>   0.0830 
 22 C       -9.3330    -6.7480     1.0620 C.ar  1 <1>  -0.1500 
 23 O       -8.1030    -9.7300    -0.3470 O.3   1 <1>  -0.3630 
 24 C       -9.0350    -8.0650     0.7780 C.ar  1 <1>   0.0830 
 25 C       -8.8640   -10.2750     0.7310 C.3   1 <1>   0.4000 
 26 O       -9.4290    -9.1660     1.4270 O.3   1 <1>  -0.3620 
 27 H       -2.6840    -1.6730    -1.9840 H     1 <1>   0.0800 
 28 H       -3.5320    -0.6230    -0.8830 H     1 <1>   0.0800 
 29 H       -4.6700    -2.7350    -0.9580 H     1 <1>   0.4500 
 30 H       -4.3020    -1.4430     1.1470 H     1 <1>   0.0800 
 31 H       -3.1720    -4.2210    -1.7750 H     1 <1>   0.0800 
 32 H       -1.9920    -3.8430    -0.5650 H     1 <1>   0.0800 
 33 H       -3.3880    -2.4600     2.9770 H     1 <1>   0.0800 
 34 H       -2.1580    -2.7960     1.8050 H     1 <1>   0.0800 
 35 H       -6.3210    -2.3970     1.0840 H     1 <1>   0.0800 
 36 H       -5.6720    -3.5770     2.1590 H     1 <1>   0.0800 
 37 H       -3.0930    -6.0610    -0.4140 H     1 <1>   0.0800 
 38 H       -1.7190    -4.9770     1.3500 H     1 <1>   0.0800 
 39 H       -2.8280    -6.2100     1.8920 H     1 <1>   0.0800 
 40 H       -5.2270    -5.9630     1.1750 H     1 <1>   0.0800 
 41 H       -5.3030    -6.1540    -0.5410 H     1 <1>   0.0800 
 42 H       -8.1970    -4.5230    -2.2470 H     1 <1>   0.0800 
 43 H       -6.7430    -5.4340    -2.4690 H     1 <1>   0.0800 
 44 H       -7.0940    -7.7500    -1.9440 H     1 <1>   0.1500 
 45 H       -9.0190    -4.7350     0.4430 H     1 <1>   0.1500 
 46 H       -9.9610    -6.5030     1.8990 H     1 <1>   0.1500 
 47 H       -9.6510   -10.8940     0.3400 H     1 <1>   0.0800 
 48 H       -8.2150   -10.8220     1.3910 H     1 <1>   0.0800 
@<TRIPOS>BOND
  1   1   2  ar  
  2   2   3  ar  
  3   2   4  1   
  4   4   5  1   
  5   4  27  1   
  6   4  28  1   
  7   5   6  1   
  8   5   7  1   
  9   5  29  1   
 10   6   8  1   
 11   6   9  1   
 12   6  30  1   
 13   7  10  1   
 14   7  31  1   
 15   7  32  1   
 16   8  11  1   
 17   8  33  1   
 18   8  34  1   
 19   9  12  1   
 20   9  35  1   
 21   9  36  1   
 22  10  13  1   
 23  10  14  1   
 24  10  37  1   
 25  11  13  1   
 26  12  14  1   
 27  12  15  am  
 28  13  38  1   
 29  13  39  1   
 30  14  40  1   
 31  14  41  1   
 32  15  16  2   
 33  15  17  1   
 34  17  18  1   
 35  17  42  1   
 36  17  43  1   
 37  18  19  ar  
 38  18  20  ar  
 39  19  21  ar  
 40  19  44  1   
 41  20  22  ar  
 42  20  45  1   
 43  21  23  1   
 44  21  24  ar  
 45  22  24  ar  
 46  22  46  1   
 47  23  25  1   
 48  24  26  1   
 49  25  26  1   
 50  25  47  1   
 51  25  48  1   
@<TRIPOS>SUBSTRUCTURE
  1 ****  12 GROUP 4 **** **** 0

# MOE 2024.06 (io_trps.svl 2023.06)
