@<TRIPOS>MOLECULE
NONAME
46 49 1 0 0 
SMALL
USER_CHARGES


@<TRIPOS>ATOM
  1 O       -2.9980     0.7560    -1.5150 O.2   1 <1>  -0.5700 
  2 C       -2.3290     0.6380    -0.5160 C.2   1 <1>   0.5690 
  3 N       -1.9910    -0.5860    -0.0400 N.am  1 <1>  -0.7300 
  4 C       -1.8770     1.8720     0.2520 C.3   1 <1>  -0.0190 
  5 C       -2.4430    -1.8560    -0.6460 C.3   1 <1>   0.2200 
  6 C       -3.0280     2.5730     1.0040 C.3   1 <1>  -0.0220 
  7 C       -1.2000     2.9540    -0.6170 C.3   1 <1>  -0.0220 
  8 C       -3.7890    -2.2320    -0.0500 C.3   1 <1>  -0.0800 
  9 C       -1.5620    -3.0070    -0.1770 C.3   1 <1>   0.1200 
 10 C       -2.6530     4.0300     0.8970 C.2   1 <1>  -0.2880 
 11 C       -1.6720     4.2350     0.0270 C.2   1 <1>  -0.2880 
 12 C       -3.3980    -3.0150     1.2090 C.3   1 <1>   0.1200 
 13 C       -4.6260    -3.0720    -1.0330 C.3   1 <1>  -0.0170 
 14 O       -2.0500    -3.3680     1.0780 O.3   1 <1>  -0.5600 
 15 C       -6.0370    -3.2990    -0.5020 C.ar  1 <1>  -0.1440 
 16 C       -7.0190    -2.2780    -0.5140 C.ar  1 <1>   0.0000 
 17 C       -6.3950    -4.5130     0.0070 C.ar  1 <1>  -0.1500 
 18 C       -8.2930    -2.5870     0.0220 C.ar  1 <1>   0.3100 
 19 C       -6.8140    -0.9740    -1.0250 C.ar  1 <1>  -0.1500 
 20 C       -7.6870    -4.7140     0.5070 C.ar  1 <1>   0.1600 
 21 N       -8.6090    -3.8060     0.5280 N.ar  1 <1>  -0.6200 
 22 C       -9.2840    -1.5920     0.0350 C.ar  1 <1>  -0.1500 
 23 C       -7.8020    -0.0280    -0.9980 C.ar  1 <1>  -0.1500 
 24 C       -9.0540    -0.3380    -0.4600 C.ar  1 <1>  -0.1500 
 25 H       -1.5170    -0.6920     0.8590 H     1 <1>   0.3700 
 26 H       -1.1560     1.5720     0.9900 H     1 <1>   0.0800 
 27 H       -2.4610    -1.7650    -1.7200 H     1 <1>   0.0800 
 28 H       -3.9750     2.4070     0.5200 H     1 <1>   0.0800 
 29 H       -3.0780     2.2480     2.0280 H     1 <1>   0.0800 
 30 H       -0.1290     2.8630    -0.5850 H     1 <1>   0.0800 
 31 H       -1.5390     2.9200    -1.6380 H     1 <1>   0.0800 
 32 H       -4.3470    -1.3530     0.2190 H     1 <1>   0.0800 
 33 H       -0.5250    -2.7340    -0.1000 H     1 <1>   0.0800 
 34 H       -1.6700    -3.8570    -0.8270 H     1 <1>   0.0800 
 35 H       -3.1900     4.7510     1.4910 H     1 <1>   0.1500 
 36 H       -1.2110     5.1640    -0.2650 H     1 <1>   0.1500 
 37 H       -3.9790    -3.9110     1.3400 H     1 <1>   0.0800 
 38 H       -3.4900    -2.4000     2.0870 H     1 <1>   0.0800 
 39 H       -4.1440    -4.0190    -1.2050 H     1 <1>   0.0800 
 40 H       -4.6870    -2.5740    -1.9850 H     1 <1>   0.0800 
 41 H       -5.7050    -5.3360     0.0420 H     1 <1>   0.1500 
 42 H       -5.8620    -0.7090    -1.4470 H     1 <1>   0.1500 
 43 H       -7.9270    -5.6870     0.9010 H     1 <1>   0.1500 
 44 H      -10.2390    -1.8540     0.4510 H     1 <1>   0.1500 
 45 H       -7.6290     0.9600    -1.3890 H     1 <1>   0.1500 
 46 H       -9.8230     0.4150    -0.4440 H     1 <1>   0.1500 
@<TRIPOS>BOND
  1   1   2  2   
  2   2   3  am  
  3   2   4  1   
  4   3   5  1   
  5   3  25  1   
  6   4   6  1   
  7   4   7  1   
  8   4  26  1   
  9   5   8  1   
 10   5   9  1   
 11   5  27  1   
 12   6  10  1   
 13   6  28  1   
 14   6  29  1   
 15   7  11  1   
 16   7  30  1   
 17   7  31  1   
 18   8  12  1   
 19   8  13  1   
 20   8  32  1   
 21   9  14  1   
 22   9  33  1   
 23   9  34  1   
 24  10  11  2   
 25  10  35  1   
 26  11  36  1   
 27  12  14  1   
 28  12  37  1   
 29  12  38  1   
 30  13  15  1   
 31  13  39  1   
 32  13  40  1   
 33  15  16  ar  
 34  15  17  ar  
 35  16  18  ar  
 36  16  19  ar  
 37  17  20  ar  
 38  17  41  1   
 39  18  21  ar  
 40  18  22  ar  
 41  19  23  ar  
 42  19  42  1   
 43  20  21  ar  
 44  20  43  1   
 45  22  24  ar  
 46  22  44  1   
 47  23  24  ar  
 48  23  45  1   
 49  24  46  1   
@<TRIPOS>SUBSTRUCTURE
  1 ****   8 GROUP 4 **** **** 0

# MOE 2024.06 (io_trps.svl 2023.06)
