@<TRIPOS>MOLECULE
NONAME
39 41 1 0 0 
SMALL
USER_CHARGES


@<TRIPOS>ATOM
  1 O       -4.3570     1.8370    -0.9160 O.co2 1 <1>  -0.9000 
  2 C       -4.2460     1.6190     0.3110 C.2   1 <1>   1.0330 
  3 O       -5.2720     1.2080     0.8790 O.co2 1 <1>  -0.9000 
  4 C       -2.9150     1.3690     0.8730 C.2   1 <1>   0.0560 
  5 N       -2.3630     1.8460     1.9770 N.2   1 <1>  -0.7070 
  6 C       -2.0330     0.4630     0.2530 C.2   1 <1>  -0.1810 
  7 N       -1.1600     1.2690     2.0620 N.pl3 1 <1>   0.3000 
  8 C       -0.9360     0.4250     1.0380 C.2   1 <1>  -0.3020 
  9 C       -2.2790    -0.3010    -1.0460 C.3   1 <1>   0.5240 
 10 N       -3.6850    -0.7720    -1.1850 N.4   1 <1>  -0.9590 
 11 C       -4.2340    -1.5500    -0.0310 C.3   1 <1>   0.5660 
 12 C       -4.0310    -1.2820    -2.5240 C.3   1 <1>   0.3430 
 13 C       -3.2180    -2.5500     0.5050 C.ar  1 <1>  -0.1430 
 14 C       -5.5710    -2.2240    -0.3950 C.3   1 <1>  -0.1600 
 15 C       -5.5530    -1.2100    -2.7130 C.3   1 <1>  -0.1600 
 16 C       -2.7510    -3.6110    -0.2570 C.ar  1 <1>   0.1600 
 17 C       -2.7290    -2.3950     1.7880 C.ar  1 <1>  -0.1500 
 18 C       -6.3640    -1.3980    -1.4170 C.3   1 <1>  -0.1600 
 19 N       -1.8500    -4.4930     0.1390 N.ar  1 <1>  -0.6200 
 20 C       -1.7980    -3.3130     2.2240 C.ar  1 <1>  -0.1500 
 21 C       -1.3980    -4.3270     1.3720 C.ar  1 <1>   0.1600 
 22 H       -0.5130     1.4760     2.8340 H     1 <1>   0.2700 
 23 H       -0.0250    -0.1360     0.9360 H     1 <1>   0.1500 
 24 H       -1.6070    -1.1410    -1.0930 H     1 <1>   0.0800 
 25 H       -2.0530     0.3610    -1.8660 H     1 <1>   0.0800 
 26 H       -4.2240     0.1290    -1.1360 H     1 <1>   0.4500 
 27 H       -4.4420    -0.8530     0.7650 H     1 <1>   0.0800 
 28 H       -3.6990    -2.3010    -2.6200 H     1 <1>   0.0800 
 29 H       -3.5510    -0.6890    -3.2860 H     1 <1>   0.0800 
 30 H       -6.1470    -2.3320     0.5070 H     1 <1>   0.0800 
 31 H       -5.4060    -3.2110    -0.7870 H     1 <1>   0.0800 
 32 H       -5.8380    -1.9590    -3.4300 H     1 <1>   0.0800 
 33 H       -5.8060    -0.2530    -3.1390 H     1 <1>   0.0800 
 34 H       -3.1320    -3.7510    -1.2520 H     1 <1>   0.1500 
 35 H       -3.0550    -1.5860     2.4260 H     1 <1>   0.1500 
 36 H       -6.5720    -0.4290    -0.9860 H     1 <1>   0.0800 
 37 H       -7.3100    -1.8660    -1.6320 H     1 <1>   0.0800 
 38 H       -1.3850    -3.2440     3.2140 H     1 <1>   0.1500 
 39 H       -0.6690    -5.0390     1.7220 H     1 <1>   0.1500 
@<TRIPOS>BOND
  1   1   2  ar  
  2   2   3  ar  
  3   2   4  1   
  4   4   5  2   
  5   4   6  1   
  6   5   7  1   
  7   6   8  2   
  8   6   9  1   
  9   7   8  1   
 10   7  22  1   
 11   8  23  1   
 12   9  10  1   
 13   9  24  1   
 14   9  25  1   
 15  10  11  1   
 16  10  12  1   
 17  10  26  1   
 18  11  13  1   
 19  11  14  1   
 20  11  27  1   
 21  12  15  1   
 22  12  28  1   
 23  12  29  1   
 24  13  16  ar  
 25  13  17  ar  
 26  14  18  1   
 27  14  30  1   
 28  14  31  1   
 29  15  18  1   
 30  15  32  1   
 31  15  33  1   
 32  16  19  ar  
 33  16  34  1   
 34  17  20  ar  
 35  17  35  1   
 36  18  36  1   
 37  18  37  1   
 38  19  21  ar  
 39  20  21  ar  
 40  20  38  1   
 41  21  39  1   
@<TRIPOS>SUBSTRUCTURE
  1 ****  11 GROUP 4 **** **** 0

# MOE 2024.06 (io_trps.svl 2023.06)
