@<TRIPOS>MOLECULE
NONAME
64 68 1 0 0 
SMALL
USER_CHARGES


@<TRIPOS>ATOM
  1 O       -0.2960     0.1140    -0.9470 O.2   1 <1>  -0.5700 
  2 C       -1.2830     0.7830    -0.6930 C.2   1 <1>   0.7150 
  3 N       -2.4630     0.1200    -0.4260 N.am  1 <1>  -0.6600 
  4 C       -1.1450     2.2270    -0.6900 C.2   1 <1>   0.0550 
  5 C       -3.7960     0.7390    -0.2200 C.3   1 <1>   0.1400 
  6 C       -2.5730    -1.3600    -0.4360 C.3   1 <1>   0.1400 
  7 O       -2.0770     3.0580    -0.2330 O.3   1 <1>  -0.2800 
  8 C       -0.0940     2.9780    -1.1120 C.2   1 <1>  -0.1500 
  9 C       -4.7790    -0.4310    -0.1760 C.3   1 <1>   0.2000 
 10 C       -3.9440    -1.6600     0.1730 C.3   1 <1>  -0.0800 
 11 C       -1.6650     4.3000    -0.3440 C.2   1 <1>  -0.0400 
 12 C       -0.4200     4.3170    -0.8810 C.2   1 <1>  -0.1810 
 13 O       -5.7600    -0.2350     0.7850 O.3   1 <1>  -0.6800 
 14 C       -4.5740    -2.9700    -0.3280 C.3   1 <1>  -0.0170 
 15 C       -2.6450     5.3620     0.1420 C.3   1 <1>   0.0200 
 16 C        0.5100     5.4670    -1.1950 C.3   1 <1>   0.5240 
 17 C       -3.7120    -4.1690     0.0280 C.ar  1 <1>   0.1660 
 18 C       -2.1880     6.8100    -0.0580 C.3   1 <1>  -0.2400 
 19 N        1.3490     5.7090     0.0050 N.4   1 <1>  -0.9590 
 20 N       -2.7820    -4.5060    -0.8120 N.ar  1 <1>  -0.6200 
 21 C       -3.9490    -4.8420     1.2370 C.ar  1 <1>  -0.1500 
 22 C        2.1550     6.9480    -0.0590 C.3   1 <1>   0.3430 
 23 C        2.2960     4.6080     0.3070 C.3   1 <1>   0.3430 
 24 C       -1.9940    -5.5640    -0.4930 C.ar  1 <1>   0.3100 
 25 C       -3.1770    -5.9090     1.5800 C.ar  1 <1>  -0.1500 
 26 C        3.2250     6.7530     1.0070 C.3   1 <1>  -0.1600 
 27 C        3.3220     5.2410     1.2370 C.3   1 <1>  -0.1600 
 28 C       -2.1550    -6.3020     0.7000 C.ar  1 <1>   0.0000 
 29 C       -0.9740    -5.9420    -1.3800 C.ar  1 <1>  -0.1500 
 30 C       -1.2920    -7.3860     0.9560 C.ar  1 <1>  -0.1500 
 31 C       -0.1450    -6.9990    -1.1130 C.ar  1 <1>  -0.1500 
 32 C       -0.3070    -7.7290     0.0690 C.ar  1 <1>  -0.1500 
 33 H       -3.7970     1.2780     0.7110 H     1 <1>   0.0800 
 34 H       -4.0310     1.4020    -1.0340 H     1 <1>   0.0800 
 35 H       -2.5170    -1.7100    -1.4530 H     1 <1>   0.0800 
 36 H       -1.7780    -1.8130     0.1350 H     1 <1>   0.0800 
 37 H        0.8150     2.5950    -1.5450 H     1 <1>   0.1500 
 38 H       -5.2580    -0.5400    -1.1340 H     1 <1>   0.0800 
 39 H       -3.8100    -1.7140     1.2400 H     1 <1>   0.0800 
 40 H       -5.3570    -0.1580     1.6710 H     1 <1>   0.4000 
 41 H       -4.6960    -2.9320    -1.3970 H     1 <1>   0.0800 
 42 H       -5.5520    -3.0870     0.1050 H     1 <1>   0.0800 
 43 H       -3.5760     5.2200    -0.3790 H     1 <1>   0.0800 
 44 H       -2.8370     5.1940     1.1870 H     1 <1>   0.0800 
 45 H       -0.0650     6.3460    -1.4280 H     1 <1>   0.0800 
 46 H        1.1250     5.2250    -2.0470 H     1 <1>   0.0800 
 47 H       -2.0430     7.0180    -1.1030 H     1 <1>   0.0800 
 48 H       -1.2850     7.0070     0.4890 H     1 <1>   0.0800 
 49 H       -2.9510     7.4760     0.3080 H     1 <1>   0.0800 
 50 H        0.7100     5.7710     0.8070 H     1 <1>   0.4500 
 51 H       -4.7410    -4.5040     1.8810 H     1 <1>   0.1500 
 52 H        2.6250     7.0310    -1.0270 H     1 <1>   0.0800 
 53 H        1.5580     7.8270     0.1290 H     1 <1>   0.0800 
 54 H        1.7990     3.7690     0.7680 H     1 <1>   0.0800 
 55 H        2.7830     4.2830    -0.5990 H     1 <1>   0.0800 
 56 H       -3.3280    -6.4510     2.4970 H     1 <1>   0.1500 
 57 H        4.1620     7.1700     0.6800 H     1 <1>   0.0800 
 58 H        2.9300     7.2520     1.9140 H     1 <1>   0.0800 
 59 H        3.0850     5.0000     2.2590 H     1 <1>   0.0800 
 60 H        4.3070     4.8650     1.0190 H     1 <1>   0.0800 
 61 H       -0.8650    -5.3680    -2.2820 H     1 <1>   0.1500 
 62 H       -1.4210    -7.9420     1.8670 H     1 <1>   0.1500 
 63 H        0.6340    -7.2780    -1.8020 H     1 <1>   0.1500 
 64 H        0.3510    -8.5570     0.2680 H     1 <1>   0.1500 
@<TRIPOS>BOND
  1   1   2  2   
  2   2   3  am  
  3   2   4  1   
  4   3   5  1   
  5   3   6  1   
  6   4   7  1   
  7   4   8  2   
  8   5   9  1   
  9   5  33  1   
 10   5  34  1   
 11   6  10  1   
 12   6  35  1   
 13   6  36  1   
 14   7  11  1   
 15   8  12  1   
 16   8  37  1   
 17   9  10  1   
 18   9  13  1   
 19   9  38  1   
 20  10  14  1   
 21  10  39  1   
 22  11  12  2   
 23  11  15  1   
 24  12  16  1   
 25  13  40  1   
 26  14  17  1   
 27  14  41  1   
 28  14  42  1   
 29  15  18  1   
 30  15  43  1   
 31  15  44  1   
 32  16  19  1   
 33  16  45  1   
 34  16  46  1   
 35  17  20  ar  
 36  17  21  ar  
 37  18  47  1   
 38  18  48  1   
 39  18  49  1   
 40  19  22  1   
 41  19  23  1   
 42  19  50  1   
 43  20  24  ar  
 44  21  25  ar  
 45  21  51  1   
 46  22  26  1   
 47  22  52  1   
 48  22  53  1   
 49  23  27  1   
 50  23  54  1   
 51  23  55  1   
 52  24  28  ar  
 53  24  29  ar  
 54  25  28  ar  
 55  25  56  1   
 56  26  27  1   
 57  26  57  1   
 58  26  58  1   
 59  27  59  1   
 60  27  60  1   
 61  28  30  ar  
 62  29  31  ar  
 63  29  61  1   
 64  30  32  ar  
 65  30  62  1   
 66  31  32  ar  
 67  31  63  1   
 68  32  64  1   
@<TRIPOS>SUBSTRUCTURE
  1 ****   2 GROUP 4 **** **** 0

# MOE 2024.06 (io_trps.svl 2023.06)
