@<TRIPOS>MOLECULE
NONAME
58 62 1 0 0 
SMALL
USER_CHARGES


@<TRIPOS>ATOM
  1 O        2.5560     0.6790     0.1430 O.2   1 <1>  -0.5700 
  2 C        2.2010    -0.3980     0.5660 C.2   1 <1>   0.5690 
  3 N        1.1020    -0.6460     1.3320 N.am  1 <1>  -0.4770 
  4 C        2.9530    -1.7050     0.2750 C.3   1 <1>   0.2050 
  5 C        1.0040    -2.0080     1.5950 C.ar  1 <1>   0.1170 
  6 C        0.1430     0.3790     1.8090 C.3   1 <1>   0.0600 
  7 C        2.0520    -2.6920     1.0060 C.ar  1 <1>  -0.1440 
  8 C        3.0090    -1.9960    -1.2330 C.3   1 <1>  -0.1600 
  9 C        4.3700    -1.6930     0.8740 C.3   1 <1>  -0.1600 
 10 C        0.0420    -2.6900     2.3240 C.ar  1 <1>  -0.1500 
 11 C        2.1600    -4.0660     1.1310 C.ar  1 <1>  -0.1500 
 12 C        3.9460    -1.0170    -1.9400 C.3   1 <1>   0.3430 
 13 C        5.2740    -0.7270     0.1100 C.3   1 <1>   0.3430 
 14 C        0.1460    -4.0650     2.4530 C.ar  1 <1>  -0.1500 
 15 C        1.1980    -4.7500     1.8600 C.ar  1 <1>  -0.1500 
 16 N        5.3080    -1.1090    -1.3370 N.4   1 <1>  -0.9590 
 17 C        6.2850    -0.2470    -2.0910 C.3   1 <1>   0.5240 
 18 C        5.9310     1.2350    -2.0350 C.2   1 <1>   0.0460 
 19 N        6.1550     1.9620    -0.9240 N.2   1 <1>  -0.5650 
 20 C        5.3930     2.0190    -2.9810 C.2   1 <1>  -0.0400 
 21 C        5.7340     3.1520    -1.2380 C.2   1 <1>   0.4250 
 22 O        5.2710     3.2090    -2.4740 O.3   1 <1>  -0.2800 
 23 C        4.9380     1.7980    -4.4100 C.3   1 <1>  -0.0600 
 24 C        5.7330     4.3380    -0.4050 C.ar  1 <1>   0.0530 
 25 C        6.2580     4.3110     0.8890 C.ar  1 <1>  -0.1500 
 26 C        5.2110     5.5520    -0.8560 C.ar  1 <1>  -0.1500 
 27 C        6.2680     5.4340     1.6980 C.ar  1 <1>  -0.1430 
 28 C        5.2140     6.6790    -0.0560 C.ar  1 <1>  -0.1500 
 29 C        5.7420     6.6210     1.2200 C.ar  1 <1>  -0.1500 
 30 C        6.8450     5.3740     3.1010 C.3   1 <1>  -0.0970 
 31 H        0.4450     1.3550     1.4690 H     1 <1>   0.0800 
 32 H        0.1170     0.3760     2.8850 H     1 <1>   0.0800 
 33 H       -0.8380     0.1620     1.4260 H     1 <1>   0.0800 
 34 H        2.0200    -1.9010    -1.6490 H     1 <1>   0.0800 
 35 H        3.3380    -3.0050    -1.4080 H     1 <1>   0.0800 
 36 H        4.7950    -2.6810     0.8530 H     1 <1>   0.0800 
 37 H        4.3180    -1.3840     1.9040 H     1 <1>   0.0800 
 38 H       -0.7720    -2.1590     2.7820 H     1 <1>   0.1500 
 39 H        2.9710    -4.6080     0.6770 H     1 <1>   0.1500 
 40 H        3.5690    -0.0100    -1.8350 H     1 <1>   0.0800 
 41 H        3.9860    -1.2530    -2.9910 H     1 <1>   0.0800 
 42 H        6.2680    -0.7480     0.5260 H     1 <1>   0.0800 
 43 H        4.8900     0.2770     0.2140 H     1 <1>   0.0800 
 44 H       -0.5940    -4.6080     3.0160 H     1 <1>   0.1500 
 45 H        1.2650    -5.8190     1.9690 H     1 <1>   0.1500 
 46 H        5.6310    -2.0800    -1.4000 H     1 <1>   0.4500 
 47 H        6.3130    -0.5560    -3.1220 H     1 <1>   0.0800 
 48 H        7.2730    -0.3720    -1.6810 H     1 <1>   0.0800 
 49 H        5.0980     0.7820    -4.7170 H     1 <1>   0.0800 
 50 H        5.4880     2.4490    -5.0670 H     1 <1>   0.0800 
 51 H        3.8920     2.0320    -4.4980 H     1 <1>   0.0800 
 52 H        6.6650     3.3890     1.2620 H     1 <1>   0.1500 
 53 H        4.7950     5.6160    -1.8460 H     1 <1>   0.1500 
 54 H        4.8060     7.6040    -0.4260 H     1 <1>   0.1500 
 55 H        5.7410     7.5020     1.8390 H     1 <1>   0.1500 
 56 H        7.4620     4.5020     3.2240 H     1 <1>   0.0800 
 57 H        6.0470     5.3370     3.8210 H     1 <1>   0.0800 
 58 H        7.4460     6.2440     3.2920 H     1 <1>   0.0800 
@<TRIPOS>BOND
  1   1   2  2   
  2   2   3  am  
  3   2   4  1   
  4   3   5  1   
  5   3   6  1   
  6   4   7  1   
  7   4   8  1   
  8   4   9  1   
  9   5   7  ar  
 10   5  10  ar  
 11   6  31  1   
 12   6  32  1   
 13   6  33  1   
 14   7  11  ar  
 15   8  12  1   
 16   8  34  1   
 17   8  35  1   
 18   9  13  1   
 19   9  36  1   
 20   9  37  1   
 21  10  14  ar  
 22  10  38  1   
 23  11  15  ar  
 24  11  39  1   
 25  12  16  1   
 26  12  40  1   
 27  12  41  1   
 28  13  16  1   
 29  13  42  1   
 30  13  43  1   
 31  14  15  ar  
 32  14  44  1   
 33  15  45  1   
 34  16  17  1   
 35  16  46  1   
 36  17  18  1   
 37  17  47  1   
 38  17  48  1   
 39  18  19  1   
 40  18  20  2   
 41  19  21  2   
 42  20  22  1   
 43  20  23  1   
 44  21  22  1   
 45  21  24  1   
 46  23  49  1   
 47  23  50  1   
 48  23  51  1   
 49  24  25  ar  
 50  24  26  ar  
 51  25  27  ar  
 52  25  52  1   
 53  26  28  ar  
 54  26  53  1   
 55  27  29  ar  
 56  27  30  1   
 57  28  29  ar  
 58  28  54  1   
 59  29  55  1   
 60  30  56  1   
 61  30  57  1   
 62  30  58  1   
@<TRIPOS>SUBSTRUCTURE
  1 ****   1 GROUP 4 **** **** 0

# MOE 2024.06 (io_trps.svl 2023.06)
