@<TRIPOS>MOLECULE
NONAME
49 52 1 0 0 
SMALL
USER_CHARGES


@<TRIPOS>ATOM
  1 O       -1.0200    -4.2410     2.3930 O.2   1 <1>  -0.5700 
  2 C        0.0540    -4.2850     1.8560 C.2   1 <1>   0.5690 
  3 N        0.6710    -5.4560     1.5950 N.am  1 <1>  -0.7300 
  4 C        0.7720    -3.0160     1.4530 C.3   1 <1>  -0.0990 
  5 C        2.0000    -5.5570     0.9630 C.3   1 <1>   0.1400 
  6 C        1.3960    -3.1710     0.0510 C.3   1 <1>  -0.0800 
  7 C        2.1120    -4.5260    -0.1820 C.3   1 <1>  -0.0800 
  8 C        2.4140    -2.0710    -0.2830 C.3   1 <1>  -0.1600 
  9 C        3.5610    -4.1770    -0.5450 C.3   1 <1>  -0.1600 
 10 C        3.4660    -2.7710    -1.1360 C.3   1 <1>   0.4230 
 11 N        4.7590    -2.0310    -1.1900 N.4   1 <1>  -0.9590 
 12 C        5.5010    -1.9220     0.1010 C.3   1 <1>   0.4860 
 13 C        5.6440    -2.5750    -2.2700 C.3   1 <1>   0.2630 
 14 C        6.5380    -0.8280    -0.0420 C.ar  1 <1>  -0.1440 
 15 C        7.8600    -1.1530    -0.3020 C.ar  1 <1>  -0.1500 
 16 C        6.1750     0.5050     0.0780 C.ar  1 <1>  -0.1500 
 17 C        8.8390    -0.1750    -0.4680 C.ar  1 <1>   0.0530 
 18 C        7.1300     1.4930    -0.0750 C.ar  1 <1>  -0.1500 
 19 C       10.2090    -0.5330    -0.7610 C.2   1 <1>   0.0870 
 20 C        8.4430     1.1550    -0.3470 C.ar  1 <1>  -0.1500 
 21 O       10.5100    -1.7790    -1.1100 O.3   1 <1>  -0.2800 
 22 C       11.3520     0.2040    -0.7580 C.2   1 <1>  -0.1500 
 23 C       11.8060    -1.8550    -1.3270 C.2   1 <1>  -0.0100 
 24 C       12.3890    -0.6550    -1.1260 C.2   1 <1>  -0.1500 
 25 H        0.2010    -6.3120     1.9040 H     1 <1>   0.3700 
 26 H        0.0760    -2.1960     1.4640 H     1 <1>   0.0800 
 27 H        1.5280    -2.8270     2.1920 H     1 <1>   0.0800 
 28 H        2.7440    -5.3690     1.7190 H     1 <1>   0.0800 
 29 H        2.1460    -6.5530     0.5820 H     1 <1>   0.0800 
 30 H        0.5870    -3.1160    -0.6610 H     1 <1>   0.0800 
 31 H        1.6560    -4.9770    -1.0500 H     1 <1>   0.0800 
 32 H        2.8390    -1.6910     0.6280 H     1 <1>   0.0800 
 33 H        1.9440    -1.2660    -0.8190 H     1 <1>   0.0800 
 34 H        3.9620    -4.8820    -1.2520 H     1 <1>   0.0800 
 35 H        4.1570    -4.1800     0.3490 H     1 <1>   0.0800 
 36 H        3.0660    -2.8580    -2.1340 H     1 <1>   0.0800 
 37 H        4.5420    -1.0600    -1.4520 H     1 <1>   0.4500 
 38 H        4.8340    -1.6660     0.9060 H     1 <1>   0.0800 
 39 H        5.9810    -2.8570     0.3400 H     1 <1>   0.0800 
 40 H        5.9600    -3.5770    -2.0290 H     1 <1>   0.0800 
 41 H        6.5200    -1.9560    -2.3860 H     1 <1>   0.0800 
 42 H        5.1180    -2.5960    -3.2110 H     1 <1>   0.0800 
 43 H        8.1590    -2.1840    -0.3800 H     1 <1>   0.1500 
 44 H        5.1600     0.7920     0.2940 H     1 <1>   0.1500 
 45 H        6.8550     2.5310     0.0190 H     1 <1>   0.1500 
 46 H        9.1710     1.9380    -0.4670 H     1 <1>   0.1500 
 47 H       11.4720     1.2460    -0.5210 H     1 <1>   0.1500 
 48 H       12.2340    -2.7980    -1.6210 H     1 <1>   0.1500 
 49 H       13.4270    -0.3870    -1.2190 H     1 <1>   0.1500 
@<TRIPOS>BOND
  1   1   2  2   
  2   2   3  am  
  3   2   4  1   
  4   3   5  1   
  5   3  25  1   
  6   4   6  1   
  7   4  26  1   
  8   4  27  1   
  9   5   7  1   
 10   5  28  1   
 11   5  29  1   
 12   6   7  1   
 13   6   8  1   
 14   6  30  1   
 15   7   9  1   
 16   7  31  1   
 17   8  10  1   
 18   8  32  1   
 19   8  33  1   
 20   9  10  1   
 21   9  34  1   
 22   9  35  1   
 23  10  11  1   
 24  10  36  1   
 25  11  12  1   
 26  11  13  1   
 27  11  37  1   
 28  12  14  1   
 29  12  38  1   
 30  12  39  1   
 31  13  40  1   
 32  13  41  1   
 33  13  42  1   
 34  14  15  ar  
 35  14  16  ar  
 36  15  17  ar  
 37  15  43  1   
 38  16  18  ar  
 39  16  44  1   
 40  17  19  1   
 41  17  20  ar  
 42  18  20  ar  
 43  18  45  1   
 44  19  21  1   
 45  19  22  2   
 46  20  46  1   
 47  21  23  1   
 48  22  24  1   
 49  22  47  1   
 50  23  24  2   
 51  23  48  1   
 52  24  49  1   
@<TRIPOS>SUBSTRUCTURE
  1 ****  12 GROUP 4 **** **** 0

# MOE 2024.06 (io_trps.svl 2023.06)
