@<TRIPOS>MOLECULE
NONAME
54 56 1 0 0 
SMALL
USER_CHARGES


@<TRIPOS>ATOM
  1 O       -2.0580     0.5330    -1.3330 O.2   1 <1>  -0.5700 
  2 C       -3.0040     1.0970    -0.8280 C.2   1 <1>   0.5690 
  3 N       -4.2610     0.5410    -0.9010 N.am  1 <1>  -0.6600 
  4 C       -2.7390     2.4220    -0.0910 C.3   1 <1>  -0.0190 
  5 C       -4.4420    -0.7550    -1.6110 C.3   1 <1>   0.3200 
  6 C       -5.4680     1.0010    -0.1460 C.3   1 <1>   0.1400 
  7 C       -3.2530     3.6300    -0.8970 C.3   1 <1>  -0.1600 
  8 C       -1.2460     2.6350     0.2440 C.3   1 <1>  -0.1600 
  9 C       -4.1110    -1.8750    -0.6520 C.2   1 <1>  -0.3320 
 10 C       -6.5370     1.5610    -1.0920 C.3   1 <1>   0.1200 
 11 C       -3.0000     4.9500    -0.1660 C.3   1 <1>   0.1400 
 12 C       -1.0050     3.9610     0.9690 C.3   1 <1>   0.1400 
 13 N       -2.8710    -2.0420    -0.1610 N.pl3 1 <1>   0.0330 
 14 C       -4.8650    -2.8600    -0.1180 C.2   1 <1>   0.0770 
 15 O       -7.5520     2.1360    -0.3430 O.3   1 <1>  -0.6800 
 16 N       -1.5530     5.0810     0.1550 N.am  1 <1>  -0.6600 
 17 C       -2.9490    -3.1190     0.6480 C.2   1 <1>   0.0070 
 18 N       -4.1320    -3.6380     0.7010 N.2   1 <1>  -0.5650 
 19 C       -0.8330     6.1950    -0.2310 C.2   1 <1>   0.5690 
 20 C       -1.7590    -3.6550     1.4120 C.3   1 <1>  -0.0600 
 21 O       -1.3510     7.0550    -0.9120 O.2   1 <1>  -0.5700 
 22 C        0.6600     6.3670     0.1500 C.3   1 <1>   0.2610 
 23 O        0.8870     6.3230     1.5420 O.3   1 <1>  -0.5600 
 24 C        1.3240     7.6650    -0.3140 C.3   1 <1>  -0.1600 
 25 C        1.8830     7.2150     1.9410 C.3   1 <1>   0.1200 
 26 C        2.4630     7.8210     0.6700 C.3   1 <1>  -0.1600 
 27 H       -3.2520     2.3900     0.8510 H     1 <1>   0.0800 
 28 H       -3.7910    -0.8040    -2.4680 H     1 <1>   0.0800 
 29 H       -5.4540    -0.8580    -1.9610 H     1 <1>   0.0800 
 30 H       -5.2080     1.7640     0.5620 H     1 <1>   0.0800 
 31 H       -5.8710     0.1670     0.4030 H     1 <1>   0.0800 
 32 H       -4.3070     3.5370    -1.0750 H     1 <1>   0.0800 
 33 H       -2.7630     3.6630    -1.8550 H     1 <1>   0.0800 
 34 H       -0.6630     2.6290    -0.6610 H     1 <1>   0.0800 
 35 H       -0.8960     1.8270     0.8620 H     1 <1>   0.0800 
 36 H       -6.9670     0.7900    -1.7060 H     1 <1>   0.0800 
 37 H       -6.1220     2.3300    -1.7190 H     1 <1>   0.0800 
 38 H       -3.5640     4.9800     0.7500 H     1 <1>   0.0800 
 39 H       -3.3330     5.7680    -0.7830 H     1 <1>   0.0800 
 40 H        0.0500     4.0750     1.1390 H     1 <1>   0.0800 
 41 H       -1.4950     3.9550     1.9270 H     1 <1>   0.0800 
 42 H       -2.0610    -1.4430    -0.3710 H     1 <1>   0.2700 
 43 H       -5.9120    -3.0590    -0.2770 H     1 <1>   0.1500 
 44 H       -8.0830     1.4570     0.1190 H     1 <1>   0.4000 
 45 H       -1.3830    -2.9040     2.0820 H     1 <1>   0.0800 
 46 H       -0.9820    -3.9440     0.7280 H     1 <1>   0.0800 
 47 H       -2.0530    -4.5150     1.9860 H     1 <1>   0.0800 
 48 H        1.2030     5.5420    -0.2720 H     1 <1>   0.0800 
 49 H        0.6350     8.4860    -0.2110 H     1 <1>   0.0800 
 50 H        1.6530     7.6050    -1.3360 H     1 <1>   0.0800 
 51 H        2.6220     6.6860     2.5170 H     1 <1>   0.0800 
 52 H        1.4150     7.9710     2.5480 H     1 <1>   0.0800 
 53 H        2.7550     8.8470     0.8090 H     1 <1>   0.0800 
 54 H        3.3160     7.2460     0.3560 H     1 <1>   0.0800 
@<TRIPOS>BOND
  1   1   2  2   
  2   2   3  am  
  3   2   4  1   
  4   3   5  1   
  5   3   6  1   
  6   4   7  1   
  7   4   8  1   
  8   4  27  1   
  9   5   9  1   
 10   5  28  1   
 11   5  29  1   
 12   6  10  1   
 13   6  30  1   
 14   6  31  1   
 15   7  11  1   
 16   7  32  1   
 17   7  33  1   
 18   8  12  1   
 19   8  34  1   
 20   8  35  1   
 21   9  13  1   
 22   9  14  2   
 23  10  15  1   
 24  10  36  1   
 25  10  37  1   
 26  11  16  1   
 27  11  38  1   
 28  11  39  1   
 29  12  16  1   
 30  12  40  1   
 31  12  41  1   
 32  13  17  1   
 33  13  42  1   
 34  14  18  1   
 35  14  43  1   
 36  15  44  1   
 37  16  19  am  
 38  17  18  2   
 39  17  20  1   
 40  19  21  2   
 41  19  22  1   
 42  20  45  1   
 43  20  46  1   
 44  20  47  1   
 45  22  23  1   
 46  22  24  1   
 47  22  48  1   
 48  23  25  1   
 49  24  26  1   
 50  24  49  1   
 51  24  50  1   
 52  25  26  1   
 53  25  51  1   
 54  25  52  1   
 55  26  53  1   
 56  26  54  1   
@<TRIPOS>SUBSTRUCTURE
  1 ****   4 GROUP 4 **** **** 0

# MOE 2024.06 (io_trps.svl 2023.06)
