@<TRIPOS>MOLECULE
NONAME
52 54 1 0 0 
SMALL
USER_CHARGES


@<TRIPOS>ATOM
  1 O       -0.4460     0.3770    -0.7550 O.2   1 <1>  -0.5700 
  2 C       -1.3140     1.0180    -0.1940 C.2   1 <1>   0.5440 
  3 N       -2.2520     0.3530     0.5680 N.am  1 <1>  -0.6600 
  4 C       -1.3440     2.4580    -0.3540 C.ar  1 <1>   0.0860 
  5 C       -2.1300    -1.1030     0.8870 C.3   1 <1>   0.1400 
  6 C       -3.5870     0.9190     0.9280 C.3   1 <1>   0.1400 
  7 C       -1.3430     3.0410    -1.6180 C.ar  1 <1>  -0.1500 
  8 C       -1.3750     3.3170     0.7440 C.ar  1 <1>  -0.1500 
  9 C       -3.3440    -1.8770     0.3480 C.3   1 <1>   0.1200 
 10 C       -4.7160     0.0250     0.3880 C.3   1 <1>   0.1200 
 11 C       -1.3910     4.4130    -1.7780 C.ar  1 <1>  -0.1500 
 12 C       -1.4210     4.6900     0.5840 C.ar  1 <1>  -0.1500 
 13 O       -4.5380    -1.3000     0.7990 O.3   1 <1>  -0.5600 
 14 C       -1.4290     5.2760    -0.6830 C.ar  1 <1>   0.0860 
 15 C       -1.4790     6.7140    -0.8670 C.2   1 <1>   0.5440 
 16 O       -2.0050     7.1940    -1.8510 O.2   1 <1>  -0.5700 
 17 N       -0.9280     7.5540     0.0570 N.am  1 <1>  -0.7300 
 18 C       -0.8360     9.0190    -0.0880 C.3   1 <1>   0.3640 
 19 C        0.6180     9.4000     0.1660 C.ar  1 <1>  -0.1430 
 20 C       -1.8510     9.7300     0.8440 C.3   1 <1>  -0.0800 
 21 C        1.1580     9.4250     1.4460 C.ar  1 <1>   0.1600 
 22 C        1.4400     9.7170    -0.8980 C.ar  1 <1>  -0.1500 
 23 C       -3.3040     9.3370     0.5200 C.3   1 <1>  -0.2400 
 24 C       -1.7260    11.2620     0.7510 C.3   1 <1>  -0.2400 
 25 N        2.4100     9.7340     1.7400 N.ar  1 <1>  -0.6200 
 26 C        2.7480    10.0440    -0.6120 C.ar  1 <1>  -0.1500 
 27 C        3.1750    10.0370     0.7040 C.ar  1 <1>   0.1600 
 28 H       -2.0780    -1.2270     1.9540 H     1 <1>   0.0800 
 29 H       -1.2300    -1.5150     0.4650 H     1 <1>   0.0800 
 30 H       -3.7080     1.9080     0.5240 H     1 <1>   0.0800 
 31 H       -3.6680     0.9810     1.9990 H     1 <1>   0.0800 
 32 H       -1.3050     2.4000    -2.4830 H     1 <1>   0.1500 
 33 H       -1.3620     2.8920     1.7330 H     1 <1>   0.1500 
 34 H       -3.3180    -2.8950     0.6950 H     1 <1>   0.0800 
 35 H       -3.3430    -1.8780    -0.7280 H     1 <1>   0.0800 
 36 H       -4.7390     0.0520    -0.6880 H     1 <1>   0.0800 
 37 H       -5.6670     0.3590     0.7630 H     1 <1>   0.0800 
 38 H       -1.3960     4.8340    -2.7700 H     1 <1>   0.1500 
 39 H       -1.4580     5.3170     1.4580 H     1 <1>   0.1500 
 40 H       -0.2970     7.1690     0.7580 H     1 <1>   0.3700 
 41 H       -1.0820     9.2890    -1.1020 H     1 <1>   0.0800 
 42 H       -1.6530     9.4440     1.8610 H     1 <1>   0.0800 
 43 H        0.5300     9.1770     2.2830 H     1 <1>   0.1500 
 44 H        1.0800     9.7080    -1.9140 H     1 <1>   0.1500 
 45 H       -3.5380     9.5700    -0.5050 H     1 <1>   0.0800 
 46 H       -3.9900     9.8650     1.1580 H     1 <1>   0.0800 
 47 H       -3.4560     8.2830     0.6690 H     1 <1>   0.0800 
 48 H       -1.9100    11.5950    -0.2560 H     1 <1>   0.0800 
 49 H       -0.7440    11.5880     1.0450 H     1 <1>   0.0800 
 50 H       -2.4390    11.7360     1.4030 H     1 <1>   0.0800 
 51 H        3.4320    10.3000    -1.4000 H     1 <1>   0.1500 
 52 H        4.1990    10.2940     0.9160 H     1 <1>   0.1500 
@<TRIPOS>BOND
  1   1   2  2   
  2   2   3  am  
  3   2   4  1   
  4   3   5  1   
  5   3   6  1   
  6   4   7  ar  
  7   4   8  ar  
  8   5   9  1   
  9   5  28  1   
 10   5  29  1   
 11   6  10  1   
 12   6  30  1   
 13   6  31  1   
 14   7  11  ar  
 15   7  32  1   
 16   8  12  ar  
 17   8  33  1   
 18   9  13  1   
 19   9  34  1   
 20   9  35  1   
 21  10  13  1   
 22  10  36  1   
 23  10  37  1   
 24  11  14  ar  
 25  11  38  1   
 26  12  14  ar  
 27  12  39  1   
 28  14  15  1   
 29  15  16  2   
 30  15  17  am  
 31  17  18  1   
 32  17  40  1   
 33  18  19  1   
 34  18  20  1   
 35  18  41  1   
 36  19  21  ar  
 37  19  22  ar  
 38  20  23  1   
 39  20  24  1   
 40  20  42  1   
 41  21  25  ar  
 42  21  43  1   
 43  22  26  ar  
 44  22  44  1   
 45  23  45  1   
 46  23  46  1   
 47  23  47  1   
 48  24  48  1   
 49  24  49  1   
 50  24  50  1   
 51  25  27  ar  
 52  26  27  ar  
 53  26  51  1   
 54  27  52  1   
@<TRIPOS>SUBSTRUCTURE
  1 ****  12 GROUP 4 **** **** 0

# MOE 2024.06 (io_trps.svl 2023.06)
