@<TRIPOS>MOLECULE
NONAME
45 47 1 0 0 
SMALL
USER_CHARGES


@<TRIPOS>ATOM
  1 F        0.8780     3.7230     1.2970 F     1 <1>  -0.3400 
  2 C        1.6750     2.7150     0.9620 C.3   1 <1>   1.1640 
  3 F        0.8970     1.8050     0.3870 F     1 <1>  -0.3400 
  4 F        2.0940     2.1790     2.1020 F     1 <1>  -0.3400 
  5 C        2.8480     3.1640     0.0770 C.ar  1 <1>  -0.1440 
  6 C        3.5560     4.3180     0.3950 C.ar  1 <1>  -0.1500 
  7 C        3.2320     2.4370    -1.0460 C.ar  1 <1>  -0.1500 
  8 C        4.6200     4.7450    -0.3840 C.ar  1 <1>  -0.1440 
  9 C        4.2920     2.8580    -1.8280 C.ar  1 <1>  -0.1500 
 10 C        4.9840     4.0090    -1.4990 C.ar  1 <1>  -0.1500 
 11 C        5.3820     6.0080    -0.0180 C.3   1 <1>  -0.0160 
 12 C        6.5730     5.6690     0.8810 C.3   1 <1>   0.2090 
 13 N        7.2730     6.9110     1.2870 N.pl3 1 <1>  -0.8690 
 14 C        8.0740     7.5710     0.3960 C.ar  1 <1>   0.4100 
 15 N        7.6960     8.8110     0.1780 N.ar  1 <1>  -0.6200 
 16 C        9.1850     6.9820    -0.2280 C.ar  1 <1>   0.1600 
 17 C        8.4640     9.4600    -0.7160 C.ar  1 <1>   0.3960 
 18 N        9.9540     7.5840    -1.1110 N.ar  1 <1>  -0.6200 
 19 C        8.1860    10.8490    -1.0910 C.2   1 <1>   0.5440 
 20 C        9.5520     8.8300    -1.3310 C.ar  1 <1>   0.1600 
 21 O        8.4690    11.2240    -2.2180 O.2   1 <1>  -0.5700 
 22 N        7.6380    11.7880    -0.2360 N.am  1 <1>  -0.6600 
 23 C        7.3590    11.6000     1.2050 C.3   1 <1>   0.1400 
 24 C        7.3490    13.1780    -0.6530 C.3   1 <1>   0.1400 
 25 C        7.1510    13.0090     1.7470 C.3   1 <1>  -0.1600 
 26 C        6.6570    13.8120     0.5480 C.3   1 <1>  -0.1600 
 27 H        3.2740     4.8920     1.2630 H     1 <1>   0.1500 
 28 H        2.7100     1.5360    -1.3240 H     1 <1>   0.1500 
 29 H        4.5800     2.2890    -2.6960 H     1 <1>   0.1500 
 30 H        5.8060     4.3280    -2.1180 H     1 <1>   0.1500 
 31 H        4.7260     6.6890     0.4930 H     1 <1>   0.0800 
 32 H        5.7300     6.4890    -0.9140 H     1 <1>   0.0800 
 33 H        7.2500     5.0150     0.3580 H     1 <1>   0.0800 
 34 H        6.2280     5.1550     1.7620 H     1 <1>   0.0800 
 35 H        6.6370     7.5750     1.7390 H     1 <1>   0.4000 
 36 H        9.4250     5.9690     0.0350 H     1 <1>   0.1500 
 37 H       10.1220     9.3970    -2.0470 H     1 <1>   0.1500 
 38 H        8.1760    11.1020     1.7000 H     1 <1>   0.0800 
 39 H        6.4590    11.0190     1.3140 H     1 <1>   0.0800 
 40 H        6.7230    13.1910    -1.5290 H     1 <1>   0.0800 
 41 H        8.2780    13.6790    -0.8660 H     1 <1>   0.0800 
 42 H        8.0970    13.3970     2.0830 H     1 <1>   0.0800 
 43 H        6.4550    13.0230     2.5670 H     1 <1>   0.0800 
 44 H        5.5930    13.6920     0.4390 H     1 <1>   0.0800 
 45 H        6.8850    14.8600     0.6320 H     1 <1>   0.0800 
@<TRIPOS>BOND
  1   1   2  1   
  2   2   3  1   
  3   2   4  1   
  4   2   5  1   
  5   5   6  ar  
  6   5   7  ar  
  7   6   8  ar  
  8   6  27  1   
  9   7   9  ar  
 10   7  28  1   
 11   8  10  ar  
 12   8  11  1   
 13   9  10  ar  
 14   9  29  1   
 15  10  30  1   
 16  11  12  1   
 17  11  31  1   
 18  11  32  1   
 19  12  13  1   
 20  12  33  1   
 21  12  34  1   
 22  13  14  1   
 23  13  35  1   
 24  14  15  ar  
 25  14  16  ar  
 26  15  17  ar  
 27  16  18  ar  
 28  16  36  1   
 29  17  19  1   
 30  17  20  ar  
 31  18  20  ar  
 32  19  21  2   
 33  19  22  am  
 34  20  37  1   
 35  22  23  1   
 36  22  24  1   
 37  23  25  1   
 38  23  38  1   
 39  23  39  1   
 40  24  26  1   
 41  24  40  1   
 42  24  41  1   
 43  25  26  1   
 44  25  42  1   
 45  25  43  1   
 46  26  44  1   
 47  26  45  1   
@<TRIPOS>SUBSTRUCTURE
  1 ****  11 GROUP 4 **** **** 0

# MOE 2024.06 (io_trps.svl 2023.06)
