@<TRIPOS>MOLECULE
NONAME
25 25 1 0 0 
SMALL
USER_CHARGES


@<TRIPOS>ATOM
  1 O        6.3720     3.0160    -1.1070 O.2   1 <1>  -0.5700 
  2 C        5.3510     3.4080    -0.6030 C.2   1 <1>   0.5690 
  3 N        4.1780     2.7960    -0.8950 N.am  1 <1>  -0.4930 
  4 C        5.4140     4.5910     0.3340 C.3   1 <1>  -0.1790 
  5 C        2.8610     3.0230    -0.4230 C.2   1 <1>   0.0630 
  6 C        2.4300     3.4350     0.8380 C.2   1 <1>   0.1390 
  7 C        1.7240     2.8580    -1.1290 C.2   1 <1>  -0.3020 
  8 N        1.1340     3.5310     0.9100 N.2   1 <1>  -0.7070 
  9 N        0.6980     3.1730    -0.3110 N.pl3 1 <1>   0.3140 
 10 C       -0.7370     3.1460    -0.6440 C.3   1 <1>   0.0960 
 11 C       -1.5510     3.5210     0.6030 C.3   1 <1>   0.3430 
 12 N       -3.0270     3.5200     0.3600 N.4   1 <1>  -0.8530 
 13 H        4.2840     2.0660    -1.6010 H     1 <1>   0.3700 
 14 H        4.5990     5.2620     0.1440 H     1 <1>   0.0800 
 15 H        6.3370     5.1200     0.1800 H     1 <1>   0.0800 
 16 H        5.3790     4.2490     1.3510 H     1 <1>   0.0800 
 17 H        3.0860     3.6450     1.6660 H     1 <1>   0.1500 
 18 H        1.6010     2.5440    -2.1490 H     1 <1>   0.1500 
 19 H       -0.9820     2.1540    -0.9760 H     1 <1>   0.0800 
 20 H       -0.9060     3.8520    -1.4360 H     1 <1>   0.0800 
 21 H       -1.2400     4.5000     0.9340 H     1 <1>   0.0800 
 22 H       -1.3140     2.8210     1.3900 H     1 <1>   0.0800 
 23 H       -3.2990     4.2030    -0.3580 H     1 <1>   0.4500 
 24 H       -3.5220     3.7780     1.2250 H     1 <1>   0.4500 
 25 H       -3.3710     2.5930     0.0810 H     1 <1>   0.4500 
@<TRIPOS>BOND
  1   1   2  2   
  2   2   3  am  
  3   2   4  1   
  4   3   5  1   
  5   3  13  1   
  6   4  14  1   
  7   4  15  1   
  8   4  16  1   
  9   5   6  1   
 10   5   7  2   
 11   6   8  2   
 12   6  17  1   
 13   7   9  1   
 14   7  18  1   
 15   8   9  1   
 16   9  10  1   
 17  10  11  1   
 18  10  19  1   
 19  10  20  1   
 20  11  12  1   
 21  11  21  1   
 22  11  22  1   
 23  12  23  1   
 24  12  24  1   
 25  12  25  1   
@<TRIPOS>SUBSTRUCTURE
  1 ****   5 GROUP 4 **** **** 0

# MOE 2024.06 (io_trps.svl 2023.06)
