@<TRIPOS>MOLECULE
NONAME
46 49 1 0 0 
SMALL
USER_CHARGES


@<TRIPOS>ATOM
  1 O       -1.3870     0.6440     1.5970 O.2   1 <1>  -0.5700 
  2 C       -1.7660     0.8090     0.4520 C.2   1 <1>   0.7160 
  3 N       -2.3740    -0.2410    -0.1930 N.am  1 <1>  -0.6600 
  4 C       -1.5550     2.0630    -0.1960 C.2   1 <1>  -0.0860 
  5 C       -2.6620    -1.5420     0.4550 C.3   1 <1>   0.1400 
  6 C       -2.9350    -0.1910    -1.5580 C.3   1 <1>   0.1400 
  7 C       -2.5640     2.9460    -0.5910 C.2   1 <1>   0.3720 
  8 C       -0.4090     2.6900    -0.5780 C.2   1 <1>   0.0870 
  9 C       -3.3770    -2.3770    -0.6120 C.3   1 <1>   0.2000 
 10 C       -3.1640    -1.6490    -1.9370 C.3   1 <1>  -0.1600 
 11 N       -2.0690     3.9810    -1.1740 N.2   1 <1>  -0.4100 
 12 N       -3.9360     2.7480    -0.3860 N.pl3 1 <1>  -0.8210 
 13 O       -0.7750     3.8100    -1.1500 O.3   1 <1>  -0.0190 
 14 C        0.9930     2.3530    -0.4790 C.ar  1 <1>   0.0530 
 15 O       -2.8300    -3.6450    -0.6960 O.3   1 <1>  -0.6800 
 16 C       -4.3560     2.7820     1.0500 C.3   1 <1>   0.2090 
 17 C       -4.8470     3.6060    -1.2060 C.3   1 <1>   0.2090 
 18 C        1.4360     1.0600    -0.1900 C.ar  1 <1>  -0.1500 
 19 C        1.9740     3.3280    -0.6790 C.ar  1 <1>  -0.1500 
 20 C       -5.8490     2.4350     1.1910 C.3   1 <1>   0.1200 
 21 C       -6.3200     3.2250    -0.9690 C.3   1 <1>   0.1200 
 22 C        2.7830     0.7570    -0.1030 C.ar  1 <1>  -0.1500 
 23 C        3.3220     3.0310    -0.5950 C.ar  1 <1>  -0.1500 
 24 O       -6.6380     3.2750     0.3950 O.3   1 <1>  -0.5600 
 25 C        3.7310     1.7430    -0.3060 C.ar  1 <1>  -0.1500 
 26 H       -1.7390    -2.0010     0.7640 H     1 <1>   0.0800 
 27 H       -3.2980    -1.3910     1.3090 H     1 <1>   0.0800 
 28 H       -3.8720     0.3400    -1.5350 H     1 <1>   0.0800 
 29 H       -2.2600     0.2970    -2.2420 H     1 <1>   0.0800 
 30 H       -4.4230    -2.4700    -0.3760 H     1 <1>   0.0800 
 31 H       -2.2860    -2.0130    -2.4400 H     1 <1>   0.0800 
 32 H       -4.0150    -1.7510    -2.5870 H     1 <1>   0.0800 
 33 H       -1.8870    -3.5880    -0.9440 H     1 <1>   0.4000 
 34 H       -3.7790     2.0790     1.6230 H     1 <1>   0.0800 
 35 H       -4.1790     3.7650     1.4540 H     1 <1>   0.0800 
 36 H       -4.7030     4.6420    -0.9470 H     1 <1>   0.0800 
 37 H       -4.6090     3.4870    -2.2480 H     1 <1>   0.0800 
 38 H        0.7280     0.2700    -0.0280 H     1 <1>   0.1500 
 39 H        1.6800     4.3380    -0.9010 H     1 <1>   0.1500 
 40 H       -6.1630     2.5610     2.2120 H     1 <1>   0.0800 
 41 H       -6.0250     1.4160     0.8970 H     1 <1>   0.0800 
 42 H       -6.5120     2.2310    -1.3310 H     1 <1>   0.0800 
 43 H       -6.9670     3.9130    -1.4820 H     1 <1>   0.0800 
 44 H        3.0940    -0.2480     0.1240 H     1 <1>   0.1500 
 45 H        4.0550     3.8040    -0.7540 H     1 <1>   0.1500 
 46 H        4.7790     1.5090    -0.2390 H     1 <1>   0.1500 
@<TRIPOS>BOND
  1   1   2  2   
  2   2   3  am  
  3   2   4  1   
  4   3   5  1   
  5   3   6  1   
  6   4   7  1   
  7   4   8  2   
  8   5   9  1   
  9   5  26  1   
 10   5  27  1   
 11   6  10  1   
 12   6  28  1   
 13   6  29  1   
 14   7  11  2   
 15   7  12  1   
 16   8  13  1   
 17   8  14  1   
 18   9  10  1   
 19   9  15  1   
 20   9  30  1   
 21  10  31  1   
 22  10  32  1   
 23  11  13  1   
 24  12  16  1   
 25  12  17  1   
 26  14  18  ar  
 27  14  19  ar  
 28  15  33  1   
 29  16  20  1   
 30  16  34  1   
 31  16  35  1   
 32  17  21  1   
 33  17  36  1   
 34  17  37  1   
 35  18  22  ar  
 36  18  38  1   
 37  19  23  ar  
 38  19  39  1   
 39  20  24  1   
 40  20  40  1   
 41  20  41  1   
 42  21  24  1   
 43  21  42  1   
 44  21  43  1   
 45  22  25  ar  
 46  22  44  1   
 47  23  25  ar  
 48  23  45  1   
 49  25  46  1   
@<TRIPOS>SUBSTRUCTURE
  1 ****   4 GROUP 4 **** **** 0

# MOE 2024.06 (io_trps.svl 2023.06)
