@<TRIPOS>MOLECULE
NONAME
50 53 1 0 0 
SMALL
USER_CHARGES


@<TRIPOS>ATOM
  1 F        2.3330     1.1100    -3.1290 F     1 <1>  -0.1900 
  2 C        2.3960     1.3090    -1.8400 C.ar  1 <1>   0.1900 
  3 C        2.3370     0.2170    -0.9790 C.ar  1 <1>   0.0860 
  4 C        2.4980     2.6180    -1.4090 C.ar  1 <1>  -0.1500 
  5 C        2.3980     0.5030     0.3960 C.ar  1 <1>   0.0830 
  6 C        2.1820    -1.1150    -1.5060 C.2   1 <1>   0.5440 
  7 C        2.5400     2.8720    -0.0500 C.ar  1 <1>  -0.1500 
  8 O        2.3530    -0.4440     1.3600 O.3   1 <1>  -0.3630 
  9 C        2.4860     1.8150     0.8410 C.ar  1 <1>  -0.1500 
 10 O        3.1590    -1.7020    -1.9330 O.2   1 <1>  -0.5700 
 11 N        0.9610    -1.7560    -1.5000 N.am  1 <1>  -0.6600 
 12 C        3.1870    -1.5840     1.2840 C.3   1 <1>   0.0400 
 13 C       -0.2640    -1.2220    -0.8320 C.3   1 <1>   0.1400 
 14 C        0.7930    -3.1680    -1.9600 C.3   1 <1>   0.1400 
 15 C       -0.6840    -2.1460     0.3260 C.3   1 <1>   0.1900 
 16 C        0.3150    -4.0620    -0.8020 C.3   1 <1>   0.1100 
 17 N       -0.9130    -3.5290    -0.1670 N.3   1 <1>  -0.8100 
 18 C       -1.9470    -1.6010     1.0210 C.3   1 <1>   0.1200 
 19 C       -1.3810    -4.3880     0.9460 C.3   1 <1>   0.3330 
 20 O       -2.3380    -2.4460     2.0650 O.3   1 <1>  -0.5600 
 21 C       -1.7480    -5.7860     0.4480 C.ar  1 <1>  -0.1430 
 22 C       -2.6050    -3.7580     1.6440 C.3   1 <1>   0.1200 
 23 C       -2.5410    -5.9550    -0.6790 C.ar  1 <1>  -0.1500 
 24 C       -1.2950    -6.9080     1.1270 C.ar  1 <1>  -0.1500 
 25 C       -2.8760    -7.2230    -1.1210 C.ar  1 <1>  -0.1500 
 26 C       -1.6280    -8.1770     0.6870 C.ar  1 <1>  -0.1500 
 27 C       -2.4190    -8.3350    -0.4370 C.ar  1 <1>  -0.1500 
 28 H        2.5400     3.4200    -2.1250 H     1 <1>   0.1500 
 29 H        2.6150     3.8840     0.3110 H     1 <1>   0.1500 
 30 H        2.5180     2.0040     1.9000 H     1 <1>   0.1500 
 31 H        3.3870    -1.9200     2.2860 H     1 <1>   0.0800 
 32 H        4.1080    -1.3220     0.7940 H     1 <1>   0.0800 
 33 H        2.6770    -2.3580     0.7400 H     1 <1>   0.0800 
 34 H       -0.0980    -0.2310    -0.4540 H     1 <1>   0.0800 
 35 H       -1.0620    -1.1720    -1.5520 H     1 <1>   0.0800 
 36 H        0.0650    -3.1960    -2.7510 H     1 <1>   0.0800 
 37 H        1.7170    -3.5560    -2.3510 H     1 <1>   0.0800 
 38 H        0.1120    -2.1490     1.0520 H     1 <1>   0.0800 
 39 H        1.1030    -4.1410    -0.0730 H     1 <1>   0.0800 
 40 H        0.1260    -5.0460    -1.1930 H     1 <1>   0.0800 
 41 H       -2.7610    -1.5190     0.3220 H     1 <1>   0.0800 
 42 H       -1.7510    -0.6320     1.4450 H     1 <1>   0.0800 
 43 H       -0.5940    -4.4730     1.6760 H     1 <1>   0.0800 
 44 H       -2.8700    -4.3340     2.5110 H     1 <1>   0.0800 
 45 H       -3.4470    -3.7380     0.9740 H     1 <1>   0.0800 
 46 H       -2.8930    -5.0910    -1.2170 H     1 <1>   0.1500 
 47 H       -0.6800    -6.8010     2.0030 H     1 <1>   0.1500 
 48 H       -3.4900    -7.3420    -1.9960 H     1 <1>   0.1500 
 49 H       -1.2730    -9.0430     1.2190 H     1 <1>   0.1500 
 50 H       -2.6790    -9.3220    -0.7790 H     1 <1>   0.1500 
@<TRIPOS>BOND
  1   1   2  1   
  2   2   3  ar  
  3   2   4  ar  
  4   3   5  ar  
  5   3   6  1   
  6   4   7  ar  
  7   4  28  1   
  8   5   8  1   
  9   5   9  ar  
 10   6  10  2   
 11   6  11  am  
 12   7   9  ar  
 13   7  29  1   
 14   8  12  1   
 15   9  30  1   
 16  11  13  1   
 17  11  14  1   
 18  12  31  1   
 19  12  32  1   
 20  12  33  1   
 21  13  15  1   
 22  13  34  1   
 23  13  35  1   
 24  14  16  1   
 25  14  36  1   
 26  14  37  1   
 27  15  17  1   
 28  15  18  1   
 29  15  38  1   
 30  16  17  1   
 31  16  39  1   
 32  16  40  1   
 33  17  19  1   
 34  18  20  1   
 35  18  41  1   
 36  18  42  1   
 37  19  21  1   
 38  19  22  1   
 39  19  43  1   
 40  20  22  1   
 41  21  23  ar  
 42  21  24  ar  
 43  22  44  1   
 44  22  45  1   
 45  23  25  ar  
 46  23  46  1   
 47  24  26  ar  
 48  24  47  1   
 49  25  27  ar  
 50  25  48  1   
 51  26  27  ar  
 52  26  49  1   
 53  27  50  1   
@<TRIPOS>SUBSTRUCTURE
  1 ****  15 GROUP 4 **** **** 0

# MOE 2024.06 (io_trps.svl 2023.06)
