@<TRIPOS>MOLECULE
NONAME
50 52 1 0 0 
SMALL
USER_CHARGES


@<TRIPOS>ATOM
  1 O       -2.2080     0.7280     2.4040 O.2   1 <1>  -0.5700 
  2 C       -2.5680     1.1590     1.3250 C.2   1 <1>   0.5440 
  3 N       -3.5500     0.4800     0.6430 N.am  1 <1>  -0.6600 
  4 C       -1.9640     2.3530     0.7860 C.ar  1 <1>   0.0860 
  5 C       -4.1470     0.9080    -0.6480 C.3   1 <1>   0.1400 
  6 C       -3.8630    -0.9440     0.9130 C.3   1 <1>   0.1400 
  7 C       -1.1430     2.3490    -0.3500 C.ar  1 <1>   0.0820 
  8 C       -2.2100     3.5810     1.3960 C.ar  1 <1>  -0.1500 
  9 C       -5.0910    -0.2320    -1.0310 C.3   1 <1>   0.2000 
 10 C       -4.4620    -1.4760    -0.3970 C.3   1 <1>  -0.0800 
 11 O       -0.8110     1.2180    -1.0180 O.3   1 <1>  -0.3630 
 12 C       -0.6330     3.5310    -0.8610 C.ar  1 <1>  -0.1500 
 13 C       -1.7070     4.7670     0.8970 C.ar  1 <1>   0.0820 
 14 O       -6.3150    -0.0140    -0.4210 O.3   1 <1>  -0.6800 
 15 C       -3.3890    -2.0740    -1.3320 C.3   1 <1>  -0.0170 
 16 C       -0.1860     0.1600    -0.3140 C.3   1 <1>   0.0400 
 17 C       -0.8950     4.7530    -0.2490 C.ar  1 <1>   0.0820 
 18 O       -2.0540     5.8850     1.5960 O.3   1 <1>  -0.3630 
 19 C       -2.7230    -3.3070    -0.7430 C.ar  1 <1>   0.1670 
 20 O       -0.3680     5.9140    -0.7250 O.3   1 <1>  -0.3630 
 21 C       -2.3570     7.0840     0.9170 C.3   1 <1>   0.0400 
 22 N       -1.5190    -3.1390    -0.2190 N.ar  1 <1>  -0.6200 
 23 C       -3.3840    -4.5340    -0.7750 C.ar  1 <1>   0.1600 
 24 C        0.5800     5.9430    -1.7700 C.3   1 <1>   0.0400 
 25 C       -1.0300    -4.2660     0.2720 C.ar  1 <1>   0.1600 
 26 N       -2.8960    -5.6620    -0.2860 N.ar  1 <1>  -0.6200 
 27 C       -1.6960    -5.4850     0.2400 C.ar  1 <1>   0.1600 
 28 H       -4.6660     1.8460    -0.5530 H     1 <1>   0.0800 
 29 H       -3.3710     0.9990    -1.3870 H     1 <1>   0.0800 
 30 H       -2.9800    -1.4800     1.2190 H     1 <1>   0.0800 
 31 H       -4.5880    -0.9940     1.7070 H     1 <1>   0.0800 
 32 H       -2.8180     3.6070     2.2820 H     1 <1>   0.1500 
 33 H       -5.2520    -0.3130    -2.0920 H     1 <1>   0.0800 
 34 H       -5.2070    -2.2270    -0.1990 H     1 <1>   0.0800 
 35 H       -0.0230     3.4630    -1.7400 H     1 <1>   0.1500 
 36 H       -6.1610     0.2280     0.5150 H     1 <1>   0.4000 
 37 H       -2.6320    -1.3390    -1.5480 H     1 <1>   0.0800 
 38 H       -3.8440    -2.3460    -2.2680 H     1 <1>   0.0800 
 39 H        0.3670    -0.4330    -1.0190 H     1 <1>   0.0800 
 40 H       -0.9340    -0.4530     0.1530 H     1 <1>   0.0800 
 41 H        0.4800     0.5690     0.4260 H     1 <1>   0.0800 
 42 H       -2.9750     7.6850     1.5580 H     1 <1>   0.0800 
 43 H       -2.8830     6.8530     0.0070 H     1 <1>   0.0800 
 44 H       -1.4410     7.6050     0.7060 H     1 <1>   0.0800 
 45 H       -4.3600    -4.5840    -1.2240 H     1 <1>   0.1500 
 46 H        0.8860     6.9630    -1.9150 H     1 <1>   0.0800 
 47 H        0.1230     5.5680    -2.6680 H     1 <1>   0.0800 
 48 H        1.4280     5.3440    -1.4880 H     1 <1>   0.0800 
 49 H       -0.0540    -4.2240     0.7230 H     1 <1>   0.1500 
 50 H       -1.2150    -6.3480     0.6660 H     1 <1>   0.1500 
@<TRIPOS>BOND
  1   1   2  2   
  2   2   3  am  
  3   2   4  1   
  4   3   5  1   
  5   3   6  1   
  6   4   7  ar  
  7   4   8  ar  
  8   5   9  1   
  9   5  28  1   
 10   5  29  1   
 11   6  10  1   
 12   6  30  1   
 13   6  31  1   
 14   7  11  1   
 15   7  12  ar  
 16   8  13  ar  
 17   8  32  1   
 18   9  10  1   
 19   9  14  1   
 20   9  33  1   
 21  10  15  1   
 22  10  34  1   
 23  11  16  1   
 24  12  17  ar  
 25  12  35  1   
 26  13  17  ar  
 27  13  18  1   
 28  14  36  1   
 29  15  19  1   
 30  15  37  1   
 31  15  38  1   
 32  16  39  1   
 33  16  40  1   
 34  16  41  1   
 35  17  20  1   
 36  18  21  1   
 37  19  22  ar  
 38  19  23  ar  
 39  20  24  1   
 40  21  42  1   
 41  21  43  1   
 42  21  44  1   
 43  22  25  ar  
 44  23  26  ar  
 45  23  45  1   
 46  24  46  1   
 47  24  47  1   
 48  24  48  1   
 49  25  27  ar  
 50  25  49  1   
 51  26  27  ar  
 52  27  50  1   
@<TRIPOS>SUBSTRUCTURE
  1 ****   2 GROUP 4 **** **** 0

# MOE 2024.06 (io_trps.svl 2023.06)
