@<TRIPOS>MOLECULE
NONAME
45 49 1 0 0 
SMALL
USER_CHARGES


@<TRIPOS>ATOM
  1 O       -0.8610     4.0540    -2.4690 O.2   1 <1>  -0.5700 
  2 C       -0.5940     3.7580    -1.3200 C.2   1 <1>   0.5440 
  3 N       -1.6240     3.4740    -0.4470 N.am  1 <1>  -0.6600 
  4 C        0.7940     3.7100    -0.9090 C.ar  1 <1>   0.0860 
  5 C       -3.0520     3.6680    -0.8750 C.3   1 <1>   0.1400 
  6 C       -1.3990     2.8360     0.8860 C.3   1 <1>   0.1400 
  7 C        1.7060     2.9020    -1.5700 C.ar  1 <1>  -0.1500 
  8 C        1.2560     4.4920     0.1740 C.ar  1 <1>  -0.1500 
  9 C       -3.9800     3.9470     0.3230 C.3   1 <1>   0.1440 
 10 C       -2.6010     1.9800     1.2950 C.3   1 <1>  -0.1600 
 11 C        3.0340     2.8570    -1.1540 C.ar  1 <1>   0.2270 
 12 C        2.5660     4.4570     0.5900 C.ar  1 <1>  -0.1500 
 13 C       -5.3840     4.1990    -0.2060 C.ar  1 <1>   0.1660 
 14 C       -3.9250     2.7710     1.3370 C.3   1 <1>  -0.1600 
 15 C       -3.6330     5.3160     0.9810 C.3   1 <1>  -0.1600 
 16 N        4.0870     2.1450    -1.6280 N.2   1 <1>  -0.2270 
 17 C        3.4510     3.6190    -0.0950 C.ar  1 <1>  -0.1520 
 18 N       -6.2060     3.2820    -0.6620 N.ar  1 <1>  -0.6200 
 19 C       -5.7040     5.5250    -0.1750 C.ar  1 <1>  -0.1440 
 20 C       -4.5770     6.3640     0.3700 C.3   1 <1>  -0.0170 
 21 N        5.1170     2.4280    -0.9240 N.2   1 <1>  -0.4180 
 22 N        4.7610     3.3210     0.0110 N.pl3 1 <1>   0.3000 
 23 C       -7.3750     3.7550    -1.0640 C.ar  1 <1>   0.7200 
 24 C       -6.9440     5.8990    -0.6330 C.ar  1 <1>   0.1600 
 25 N       -7.7990     5.0110    -1.0870 N.ar  1 <1>  -0.6200 
 26 N       -8.2330     2.8490    -1.5360 N.pl3 1 <1>  -0.9000 
 27 H       -3.3860     2.7790    -1.3820 H     1 <1>   0.0800 
 28 H       -3.1150     4.4850    -1.5730 H     1 <1>   0.0800 
 29 H       -1.2410     3.6050     1.6230 H     1 <1>   0.0800 
 30 H       -0.5210     2.2140     0.8500 H     1 <1>   0.0800 
 31 H        1.4010     2.3050    -2.4100 H     1 <1>   0.1500 
 32 H        0.5490     5.1340     0.6710 H     1 <1>   0.1500 
 33 H       -2.4180     1.5340     2.2570 H     1 <1>   0.0800 
 34 H       -2.6920     1.1760     0.5840 H     1 <1>   0.0800 
 35 H        2.9100     5.0570     1.4150 H     1 <1>   0.1500 
 36 H       -4.7170     2.0750     1.1230 H     1 <1>   0.0800 
 37 H       -4.1010     3.1300     2.3340 H     1 <1>   0.0800 
 38 H       -2.6040     5.5960     0.8420 H     1 <1>   0.0800 
 39 H       -3.8290     5.2790     2.0370 H     1 <1>   0.0800 
 40 H       -4.0930     6.8870    -0.4380 H     1 <1>   0.0800 
 41 H       -4.9220     7.0670     1.1080 H     1 <1>   0.0800 
 42 H        5.4230     3.7050     0.6930 H     1 <1>   0.2700 
 43 H       -7.2370     6.9350    -0.6280 H     1 <1>   0.1500 
 44 H       -8.9720     3.2240    -2.1220 H     1 <1>   0.4000 
 45 H       -7.8130     1.9710    -1.8270 H     1 <1>   0.4000 
@<TRIPOS>BOND
  1   1   2  2   
  2   2   3  am  
  3   2   4  1   
  4   3   5  1   
  5   3   6  1   
  6   4   7  ar  
  7   4   8  ar  
  8   5   9  1   
  9   5  27  1   
 10   5  28  1   
 11   6  10  1   
 12   6  29  1   
 13   6  30  1   
 14   7  11  ar  
 15   7  31  1   
 16   8  12  ar  
 17   8  32  1   
 18   9  13  1   
 19   9  14  1   
 20   9  15  1   
 21  10  14  1   
 22  10  33  1   
 23  10  34  1   
 24  11  16  1   
 25  11  17  ar  
 26  12  17  ar  
 27  12  35  1   
 28  13  18  ar  
 29  13  19  ar  
 30  14  36  1   
 31  14  37  1   
 32  15  20  1   
 33  15  38  1   
 34  15  39  1   
 35  16  21  2   
 36  17  22  1   
 37  18  23  ar  
 38  19  20  1   
 39  19  24  ar  
 40  20  40  1   
 41  20  41  1   
 42  21  22  1   
 43  22  42  1   
 44  23  25  ar  
 45  23  26  1   
 46  24  25  ar  
 47  24  43  1   
 48  26  44  1   
 49  26  45  1   
@<TRIPOS>SUBSTRUCTURE
  1 ****   3 GROUP 4 **** **** 0

# MOE 2024.06 (io_trps.svl 2023.06)
