@<TRIPOS>MOLECULE
NONAME
51 54 1 0 0 
SMALL
USER_CHARGES


@<TRIPOS>ATOM
  1 O        2.2280    -0.3870     2.4900 O.2   1 <1>  -0.5700 
  2 C        2.2010    -0.7800     1.3380 C.2   1 <1>   0.5440 
  3 N        2.5350     0.1100     0.3270 N.am  1 <1>  -0.6600 
  4 C        1.8780    -2.1620     1.0720 C.ar  1 <1>   0.0860 
  5 C        2.9700     1.4960     0.6970 C.3   1 <1>   0.1400 
  6 C        2.8170    -0.3590    -1.0680 C.3   1 <1>   0.1400 
  7 C        0.6720    -2.5490     0.4400 C.ar  1 <1>   0.0000 
  8 C        2.7600    -3.1570     1.3970 C.ar  1 <1>  -0.1500 
  9 C        4.5120     1.6720     0.7520 C.3   1 <1>   0.4230 
 10 C        4.2580    -0.0880    -1.5550 C.3   1 <1>  -0.0800 
 11 C        0.4850    -3.9180     0.1360 C.ar  1 <1>   0.3100 
 12 C       -0.3470    -1.6340     0.0990 C.ar  1 <1>  -0.1500 
 13 C        2.4840    -4.4860     1.0750 C.ar  1 <1>   0.1660 
 14 N        5.1140     2.0840    -0.5700 N.4   1 <1>  -0.9590 
 15 C        5.2880     0.4560     1.3300 C.3   1 <1>   0.1200 
 16 C        5.3780    -0.8010    -0.7640 C.3   1 <1>   0.1200 
 17 C        4.5120     1.4080    -1.7580 C.3   1 <1>   0.3430 
 18 N        1.4090    -4.8610     0.4610 N.ar  1 <1>  -0.6200 
 19 C       -0.7010    -4.3130    -0.5260 C.ar  1 <1>  -0.1430 
 20 C       -1.4860    -2.0430    -0.5360 C.ar  1 <1>  -0.1500 
 21 C        3.4790    -5.5670     1.4410 C.3   1 <1>  -0.0970 
 22 C        5.0970     3.5700    -0.7440 C.3   1 <1>   0.2630 
 23 O        5.1850    -0.7520     0.6150 O.3   1 <1>  -0.5600 
 24 C       -1.6610    -3.3910    -0.8540 C.ar  1 <1>  -0.1500 
 25 C       -0.9210    -5.7810    -0.8770 C.3   1 <1>  -0.0970 
 26 H        2.5330     2.2030     0.0160 H     1 <1>   0.0800 
 27 H        2.5790     1.7440     1.6690 H     1 <1>   0.0800 
 28 H        2.6400    -1.4170    -1.1490 H     1 <1>   0.0800 
 29 H        2.1160     0.1200    -1.7310 H     1 <1>   0.0800 
 30 H        3.6800    -2.9100     1.8960 H     1 <1>   0.1500 
 31 H        4.6890     2.4810     1.4410 H     1 <1>   0.0800 
 32 H        4.2960    -0.5050    -2.5450 H     1 <1>   0.0800 
 33 H       -0.2290    -0.5950     0.3500 H     1 <1>   0.1500 
 34 H        6.0960     1.7780    -0.5240 H     1 <1>   0.4500 
 35 H        4.9120     0.2510     2.3190 H     1 <1>   0.0800 
 36 H        6.3320     0.6930     1.4260 H     1 <1>   0.0800 
 37 H        6.3540    -0.4110    -0.9950 H     1 <1>   0.0800 
 38 H        5.3740    -1.8470    -1.0250 H     1 <1>   0.0800 
 39 H        3.5780     1.8830    -2.0130 H     1 <1>   0.0800 
 40 H        5.1760     1.5330    -2.5980 H     1 <1>   0.0800 
 41 H       -2.2600    -1.3400    -0.7940 H     1 <1>   0.1500 
 42 H        4.3300    -5.1580     1.9540 H     1 <1>   0.0800 
 43 H        3.8140    -6.0640     0.5490 H     1 <1>   0.0800 
 44 H        3.0030    -6.2890     2.0800 H     1 <1>   0.0800 
 45 H        4.0820     3.9320    -0.7890 H     1 <1>   0.0800 
 46 H        5.6010     3.8460    -1.6560 H     1 <1>   0.0800 
 47 H        5.5980     4.0510     0.0810 H     1 <1>   0.0800 
 48 H       -2.5670    -3.6860    -1.3560 H     1 <1>   0.1500 
 49 H       -1.8610    -5.9280    -1.3760 H     1 <1>   0.0800 
 50 H       -0.9110    -6.3740     0.0210 H     1 <1>   0.0800 
 51 H       -0.1310    -6.1240    -1.5210 H     1 <1>   0.0800 
@<TRIPOS>BOND
  1   1   2  2   
  2   2   3  am  
  3   2   4  1   
  4   3   5  1   
  5   3   6  1   
  6   4   7  ar  
  7   4   8  ar  
  8   5   9  1   
  9   5  26  1   
 10   5  27  1   
 11   6  10  1   
 12   6  28  1   
 13   6  29  1   
 14   7  11  ar  
 15   7  12  ar  
 16   8  13  ar  
 17   8  30  1   
 18   9  14  1   
 19   9  15  1   
 20   9  31  1   
 21  10  16  1   
 22  10  17  1   
 23  10  32  1   
 24  11  18  ar  
 25  11  19  ar  
 26  12  20  ar  
 27  12  33  1   
 28  13  18  ar  
 29  13  21  1   
 30  14  17  1   
 31  14  22  1   
 32  14  34  1   
 33  15  23  1   
 34  15  35  1   
 35  15  36  1   
 36  16  23  1   
 37  16  37  1   
 38  16  38  1   
 39  17  39  1   
 40  17  40  1   
 41  19  24  ar  
 42  19  25  1   
 43  20  24  ar  
 44  20  41  1   
 45  21  42  1   
 46  21  43  1   
 47  21  44  1   
 48  22  45  1   
 49  22  46  1   
 50  22  47  1   
 51  24  48  1   
 52  25  49  1   
 53  25  50  1   
 54  25  51  1   
@<TRIPOS>SUBSTRUCTURE
  1 ****   4 GROUP 4 **** **** 0

# MOE 2024.06 (io_trps.svl 2023.06)
