@<TRIPOS>MOLECULE
NONAME
49 52 1 0 0 
SMALL
USER_CHARGES


@<TRIPOS>ATOM
  1 O       -1.0840    -2.0650    -1.2760 O.2   1 <1>  -0.5700 
  2 C       -0.1420    -2.5830    -0.7360 C.2   1 <1>   0.5690 
  3 N       -0.3020    -3.4380     0.2960 N.am  1 <1>  -0.7300 
  4 C        1.2740    -2.2910    -1.1870 C.3   1 <1>  -0.0990 
  5 C        0.8320    -4.0890     0.9830 C.3   1 <1>   0.1400 
  6 C        2.1040    -3.5890    -1.2450 C.3   1 <1>  -0.0800 
  7 C        1.8650    -4.5580    -0.0620 C.3   1 <1>  -0.0800 
  8 C        3.6160    -3.3380    -1.2910 C.3   1 <1>  -0.1600 
  9 C        3.2480    -4.8250     0.5470 C.3   1 <1>  -0.1600 
 10 C        4.2370    -4.5400    -0.5810 C.3   1 <1>   0.2200 
 11 N        5.6050    -4.2740    -0.0650 N.am  1 <1>  -0.6600 
 12 C        6.4610    -3.5210    -0.8290 C.2   1 <1>   0.5440 
 13 C        6.2040    -5.4040     0.6950 C.3   1 <1>   0.0600 
 14 O        6.9710    -4.0570    -1.7960 O.2   1 <1>  -0.5700 
 15 C        6.7520    -2.1360    -0.4980 C.ar  1 <1>   0.0860 
 16 C        7.5210    -1.3360    -1.3460 C.ar  1 <1>  -0.1500 
 17 C        6.2830    -1.5330     0.6710 C.ar  1 <1>  -0.1500 
 18 C        7.8070    -0.0180    -1.0460 C.ar  1 <1>  -0.1500 
 19 C        6.5680    -0.2160     0.9760 C.ar  1 <1>  -0.1500 
 20 C        7.3390     0.5720     0.1260 C.ar  1 <1>   0.1170 
 21 N        7.6500     1.9050     0.4370 N.am  1 <1>  -0.4770 
 22 C        6.9750     2.8130     1.2240 C.2   1 <1>   0.6900 
 23 C        8.9450     2.5360     0.0400 C.3   1 <1>   0.2010 
 24 O        5.8850     2.6630     1.7280 O.2   1 <1>  -0.5700 
 25 N        7.6840     3.9500     1.3830 N.am  1 <1>  -0.4900 
 26 C        8.8580     3.8810     0.7310 C.2   1 <1>   0.5690 
 27 O        9.6950     4.7440     0.7000 O.2   1 <1>  -0.5700 
 28 H       -1.2530    -3.6140     0.6240 H     1 <1>   0.3700 
 29 H        1.2550    -1.8190    -2.1520 H     1 <1>   0.0800 
 30 H        1.7000    -1.6010    -0.4830 H     1 <1>   0.0800 
 31 H        1.2770    -3.3750     1.6540 H     1 <1>   0.0800 
 32 H        0.4800    -4.9290     1.5580 H     1 <1>   0.0800 
 33 H        1.8240    -4.1140    -2.1440 H     1 <1>   0.0800 
 34 H        1.5030    -5.4850    -0.4760 H     1 <1>   0.0800 
 35 H        3.8490    -2.4410    -0.7450 H     1 <1>   0.0800 
 36 H        3.9720    -3.2480    -2.3030 H     1 <1>   0.0800 
 37 H        3.3300    -5.8370     0.9020 H     1 <1>   0.0800 
 38 H        3.4340    -4.1390     1.3540 H     1 <1>   0.0800 
 39 H        4.2650    -5.3760    -1.2610 H     1 <1>   0.0800 
 40 H        5.7560    -5.4720     1.6710 H     1 <1>   0.0800 
 41 H        7.2640    -5.2500     0.8120 H     1 <1>   0.0800 
 42 H        6.0500    -6.3270     0.1630 H     1 <1>   0.0800 
 43 H        7.8980    -1.7650    -2.2600 H     1 <1>   0.1500 
 44 H        5.6850    -2.1080     1.3550 H     1 <1>   0.1500 
 45 H        8.3950     0.5510    -1.7400 H     1 <1>   0.1500 
 46 H        6.1860     0.2030     1.8900 H     1 <1>   0.1500 
 47 H        9.7780     1.9680     0.4110 H     1 <1>   0.0800 
 48 H        9.0020     2.6660    -1.0240 H     1 <1>   0.0800 
 49 H        7.3570     4.7400     1.9290 H     1 <1>   0.3700 
@<TRIPOS>BOND
  1   1   2  2   
  2   2   3  am  
  3   2   4  1   
  4   3   5  1   
  5   3  28  1   
  6   4   6  1   
  7   4  29  1   
  8   4  30  1   
  9   5   7  1   
 10   5  31  1   
 11   5  32  1   
 12   6   7  1   
 13   6   8  1   
 14   6  33  1   
 15   7   9  1   
 16   7  34  1   
 17   8  10  1   
 18   8  35  1   
 19   8  36  1   
 20   9  10  1   
 21   9  37  1   
 22   9  38  1   
 23  10  11  1   
 24  10  39  1   
 25  11  12  am  
 26  11  13  1   
 27  12  14  2   
 28  12  15  1   
 29  13  40  1   
 30  13  41  1   
 31  13  42  1   
 32  15  16  ar  
 33  15  17  ar  
 34  16  18  ar  
 35  16  43  1   
 36  17  19  ar  
 37  17  44  1   
 38  18  20  ar  
 39  18  45  1   
 40  19  20  ar  
 41  19  46  1   
 42  20  21  1   
 43  21  22  am  
 44  21  23  1   
 45  22  24  2   
 46  22  25  am  
 47  23  26  1   
 48  23  47  1   
 49  23  48  1   
 50  25  26  am  
 51  25  49  1   
 52  26  27  2   
@<TRIPOS>SUBSTRUCTURE
  1 ****  17 GROUP 4 **** **** 0

# MOE 2024.06 (io_trps.svl 2023.06)
