@<TRIPOS>MOLECULE
NONAME
43 45 1 0 0 
SMALL
USER_CHARGES


@<TRIPOS>ATOM
  1 S       -1.2400     0.1740     1.5980 S.3   1 <1>  -0.0800 
  2 C       -1.7920    -1.4340     1.2740 C.2   1 <1>   0.4420 
  3 C       -0.6370     0.2070    -0.0260 C.2   1 <1>   0.1980 
  4 N       -1.5290    -1.8130     0.0790 N.2   1 <1>  -0.3380 
  5 N       -2.4350    -2.1170     2.2770 N.am  1 <1>  -0.4940 
  6 N       -0.8640    -0.8760    -0.6540 N.2   1 <1>  -0.3380 
  7 C        0.0630     1.4630    -0.5120 C.3   1 <1>   0.0200 
  8 C       -2.9940    -3.3620     2.2820 C.2   1 <1>   0.7030 
  9 C        1.4510     1.6210     0.1260 C.3   1 <1>  -0.1600 
 10 O       -3.8170    -3.5550     3.1510 O.2   1 <1>  -0.5700 
 11 C       -2.6900    -4.4450     1.3530 C.2   1 <1>   0.2770 
 12 C        2.1650     2.8780    -0.3880 C.3   1 <1>  -0.1600 
 13 N       -3.5640    -5.4900     1.0920 N.pl3 1 <1>  -0.7000 
 14 C       -1.5830    -4.7140     0.6130 C.2   1 <1>   0.2000 
 15 C        3.5490     3.0270     0.2530 C.3   1 <1>  -0.1600 
 16 C       -3.0090    -6.3370     0.2160 C.cat 1 <1>   0.7910 
 17 N       -1.7780    -5.8760    -0.0990 N.pl3 1 <1>  -0.6290 
 18 C        4.2610     4.2820    -0.2600 C.3   1 <1>  -0.2400 
 19 C       -3.5060    -7.5310    -0.3520 C.2   1 <1>  -0.1290 
 20 C       -0.9850    -6.5530    -0.9990 C.2   1 <1>   0.2290 
 21 C       -2.7170    -8.2120    -1.2430 C.2   1 <1>  -0.1500 
 22 C       -4.8930    -8.0470     0.0190 C.3   1 <1>  -0.1020 
 23 C       -1.4410    -7.7060    -1.5660 C.2   1 <1>  -0.1500 
 24 H       -2.6990    -1.5660     3.0940 H     1 <1>   0.3700 
 25 H       -0.5490     2.3170    -0.2820 H     1 <1>   0.0800 
 26 H        0.1650     1.4060    -1.5810 H     1 <1>   0.0800 
 27 H        2.0450     0.7530    -0.1060 H     1 <1>   0.0800 
 28 H        1.3510     1.6810     1.1960 H     1 <1>   0.0800 
 29 H        1.5720     3.7480    -0.1600 H     1 <1>   0.0800 
 30 H        2.2740     2.8190    -1.4580 H     1 <1>   0.0800 
 31 H       -4.4810    -5.5950     1.5340 H     1 <1>   0.4500 
 32 H       -0.6630    -4.1550     0.5490 H     1 <1>   0.1500 
 33 H        4.1500     2.1630     0.0250 H     1 <1>   0.0800 
 34 H        3.4490     3.0910     1.3240 H     1 <1>   0.0800 
 35 H        4.3940     4.2310    -1.3260 H     1 <1>   0.0800 
 36 H        5.2290     4.3690     0.2010 H     1 <1>   0.0800 
 37 H        3.6900     5.1630    -0.0230 H     1 <1>   0.0800 
 38 H       -0.0140    -6.1440    -1.2330 H     1 <1>   0.1500 
 39 H       -3.0430    -9.1280    -1.7100 H     1 <1>   0.1500 
 40 H       -5.6450    -7.3250    -0.2490 H     1 <1>   0.0800 
 41 H       -4.9510    -8.2390     1.0760 H     1 <1>   0.0800 
 42 H       -5.1110    -8.9640    -0.5000 H     1 <1>   0.0800 
 43 H       -0.8340    -8.2500    -2.2710 H     1 <1>   0.1500 
@<TRIPOS>BOND
  1   1   2  1   
  2   1   3  1   
  3   2   4  2   
  4   2   5  1   
  5   3   6  2   
  6   3   7  1   
  7   4   6  1   
  8   5   8  am  
  9   5  24  1   
 10   7   9  1   
 11   7  25  1   
 12   7  26  1   
 13   8  10  2   
 14   8  11  1   
 15   9  12  1   
 16   9  27  1   
 17   9  28  1   
 18  11  13  1   
 19  11  14  2   
 20  12  15  1   
 21  12  29  1   
 22  12  30  1   
 23  13  16  ar  
 24  13  31  1   
 25  14  17  1   
 26  14  32  1   
 27  15  18  1   
 28  15  33  1   
 29  15  34  1   
 30  16  17  ar  
 31  16  19  1   
 32  17  20  1   
 33  18  35  1   
 34  18  36  1   
 35  18  37  1   
 36  19  21  2   
 37  19  22  1   
 38  20  23  2   
 39  20  38  1   
 40  21  23  1   
 41  21  39  1   
 42  22  40  1   
 43  22  41  1   
 44  22  42  1   
 45  23  43  1   
@<TRIPOS>SUBSTRUCTURE
  1 ****   4 GROUP 4 **** **** 0

# MOE 2024.06 (io_trps.svl 2023.06)
