@<TRIPOS>MOLECULE
NONAME
41 42 1 0 0 
SMALL
USER_CHARGES


@<TRIPOS>ATOM
  1 S        0.3430    -0.0320    -0.6140 S.3   1 <1>  -0.4600 
  2 C        0.3200     1.4540     0.4230 C.3   1 <1>   0.0700 
  3 C       -0.8760    -1.1070     0.1820 C.3   1 <1>   0.0700 
  4 C        1.4010     2.4020    -0.0980 C.3   1 <1>  -0.0990 
  5 C       -0.9430    -2.4010    -0.6240 C.3   1 <1>  -0.2400 
  6 C        1.4100     3.7160     0.6530 C.2   1 <1>   0.5690 
  7 O        1.0490     3.7550     1.8030 O.2   1 <1>  -0.5700 
  8 N        1.8280     4.8230     0.0030 N.am  1 <1>  -0.7300 
  9 C        1.9830     6.1460     0.6270 C.3   1 <1>   0.5070 
 10 C        0.9160     7.1160     0.1020 C.ar  1 <1>  -0.1440 
 11 C        3.4120     6.6010     0.3300 C.ar  1 <1>  -0.1440 
 12 C       -0.3630     6.6990    -0.2240 C.ar  1 <1>  -0.1500 
 13 C        1.1530     8.4730    -0.0520 C.ar  1 <1>  -0.1500 
 14 C        3.8020     6.9350    -0.9650 C.ar  1 <1>  -0.1500 
 15 C        4.3390     6.6750     1.3650 C.ar  1 <1>  -0.1500 
 16 C       -1.2950     7.6120    -0.6890 C.ar  1 <1>   0.1600 
 17 C        0.1510     9.3030    -0.5260 C.ar  1 <1>   0.1600 
 18 C        5.1000     7.3420    -1.2260 C.ar  1 <1>  -0.1500 
 19 C        5.6400     7.0810     1.1170 C.ar  1 <1>  -0.1500 
 20 N       -1.0660     8.9030    -0.8530 N.ar  1 <1>  -0.6200 
 21 C        5.9950     7.4080    -0.1770 C.ar  1 <1>   0.1900 
 22 F        7.2200     7.7920    -0.4160 F     1 <1>  -0.1900 
 23 H        0.5150     1.1510     1.4370 H     1 <1>   0.0800 
 24 H       -0.6610     1.8890     0.3470 H     1 <1>   0.0800 
 25 H       -1.8190    -0.5880     0.1810 H     1 <1>   0.0800 
 26 H       -0.5450    -1.2830     1.1910 H     1 <1>   0.0800 
 27 H        1.2290     2.5900    -1.1410 H     1 <1>   0.0800 
 28 H        2.3630     1.9370     0.0140 H     1 <1>   0.0800 
 29 H       -1.2410    -2.1910    -1.6360 H     1 <1>   0.0800 
 30 H       -1.6580    -3.0710    -0.1840 H     1 <1>   0.0800 
 31 H        0.0210    -2.8790    -0.6350 H     1 <1>   0.0800 
 32 H        2.1770     4.7730    -0.9510 H     1 <1>   0.3700 
 33 H        1.8530     6.0580     1.6930 H     1 <1>   0.0800 
 34 H       -0.6530     5.6700    -0.1150 H     1 <1>   0.1500 
 35 H        2.1070     8.9030     0.1920 H     1 <1>   0.1500 
 36 H        3.0940     6.8850    -1.7760 H     1 <1>   0.1500 
 37 H        4.0540     6.4120     2.3710 H     1 <1>   0.1500 
 38 H       -2.2820     7.2600    -0.9370 H     1 <1>   0.1500 
 39 H        0.3630    10.3520    -0.6410 H     1 <1>   0.1500 
 40 H        5.4150     7.6060    -2.2200 H     1 <1>   0.1500 
 41 H        6.3660     7.1430     1.9070 H     1 <1>   0.1500 
@<TRIPOS>BOND
  1   1   2  1   
  2   1   3  1   
  3   2   4  1   
  4   2  23  1   
  5   2  24  1   
  6   3   5  1   
  7   3  25  1   
  8   3  26  1   
  9   4   6  1   
 10   4  27  1   
 11   4  28  1   
 12   5  29  1   
 13   5  30  1   
 14   5  31  1   
 15   6   7  2   
 16   6   8  am  
 17   8   9  1   
 18   8  32  1   
 19   9  10  1   
 20   9  11  1   
 21   9  33  1   
 22  10  12  ar  
 23  10  13  ar  
 24  11  14  ar  
 25  11  15  ar  
 26  12  16  ar  
 27  12  34  1   
 28  13  17  ar  
 29  13  35  1   
 30  14  18  ar  
 31  14  36  1   
 32  15  19  ar  
 33  15  37  1   
 34  16  20  ar  
 35  16  38  1   
 36  17  20  ar  
 37  17  39  1   
 38  18  21  ar  
 39  18  40  1   
 40  19  21  ar  
 41  19  41  1   
 42  21  22  1   
@<TRIPOS>SUBSTRUCTURE
  1 ****   8 GROUP 4 **** **** 0

# MOE 2024.06 (io_trps.svl 2023.06)
