@<TRIPOS>MOLECULE
NONAME
49 51 1 0 0 
SMALL
USER_CHARGES


@<TRIPOS>ATOM
  1 S       -1.2760    -0.5700    -2.2490 S.3   1 <1>  -0.0800 
  2 C       -2.3480    -1.7460    -1.5040 C.2   1 <1>  -0.1400 
  3 C       -1.0310    -1.6060    -3.6440 C.2   1 <1>  -0.1100 
  4 C       -2.4750    -2.8300    -2.2950 C.2   1 <1>  -0.1500 
  5 C       -2.9280    -1.3680    -0.1540 C.3   1 <1>   0.3200 
  6 C       -1.7270    -2.7500    -3.5130 C.2   1 <1>  -0.1500 
  7 N       -3.9560    -2.3480     0.2280 N.am  1 <1>  -0.7300 
  8 C       -4.2650    -2.7380     1.4860 C.2   1 <1>   0.5690 
  9 O       -3.7340    -2.2530     2.4560 O.2   1 <1>  -0.5700 
 10 C       -5.3210    -3.8370     1.6630 C.3   1 <1>   0.1710 
 11 N       -6.1570    -4.0960     0.4480 N.3   1 <1>  -0.8100 
 12 C       -6.7750    -5.4370     0.5340 C.3   1 <1>   0.1100 
 13 C       -7.1470    -3.0190     0.2560 C.3   1 <1>   0.1100 
 14 C       -7.5540    -5.8450    -0.7270 C.3   1 <1>   0.1400 
 15 C       -7.5870    -2.9630    -1.2100 C.3   1 <1>  -0.1600 
 16 N       -8.8580    -5.1210    -0.8250 N.am  1 <1>  -0.6600 
 17 C       -8.8270    -3.8080    -1.5310 C.3   1 <1>   0.1400 
 18 C      -10.0570    -5.6500    -0.3920 C.2   1 <1>   0.5690 
 19 O      -11.1010    -5.0800    -0.6290 O.2   1 <1>  -0.5700 
 20 C      -10.0990    -6.9670     0.4290 C.3   1 <1>   0.2610 
 21 O       -9.8350    -8.0840    -0.3770 O.3   1 <1>  -0.5600 
 22 C      -11.4490    -7.3100     1.0620 C.3   1 <1>  -0.1600 
 23 C      -11.0160    -8.5170    -0.9740 C.3   1 <1>   0.1200 
 24 C      -12.1350    -8.1590     0.0010 C.3   1 <1>  -0.1600 
 25 H       -0.3830    -1.2440    -4.4220 H     1 <1>   0.1500 
 26 H       -3.0670    -3.7020    -2.0760 H     1 <1>   0.1500 
 27 H       -3.3780    -0.3920    -0.2130 H     1 <1>   0.0800 
 28 H       -2.1490    -1.3430     0.5900 H     1 <1>   0.0800 
 29 H       -1.7480    -3.5540    -4.2280 H     1 <1>   0.1500 
 30 H       -4.4870    -2.7830    -0.5310 H     1 <1>   0.3700 
 31 H       -5.9520    -3.5790     2.4940 H     1 <1>   0.0800 
 32 H       -4.7850    -4.7310     1.9250 H     1 <1>   0.0800 
 33 H       -5.9910    -6.1600     0.6720 H     1 <1>   0.0800 
 34 H       -7.4250    -5.4900     1.3900 H     1 <1>   0.0800 
 35 H       -7.9930    -3.1520     0.9100 H     1 <1>   0.0800 
 36 H       -6.6930    -2.0720     0.4970 H     1 <1>   0.0800 
 37 H       -7.7260    -6.9050    -0.7000 H     1 <1>   0.0800 
 38 H       -6.9560    -5.6510    -1.6010 H     1 <1>   0.0800 
 39 H       -6.7700    -3.2450    -1.8490 H     1 <1>   0.0800 
 40 H       -7.8290    -1.9440    -1.4520 H     1 <1>   0.0800 
 41 H       -8.8830    -3.9800    -2.5920 H     1 <1>   0.0800 
 42 H       -9.6980    -3.2400    -1.2500 H     1 <1>   0.0800 
 43 H       -9.3420    -6.9210     1.1890 H     1 <1>   0.0800 
 44 H      -11.2800    -7.8960     1.9470 H     1 <1>   0.0800 
 45 H      -12.0180    -6.4360     1.3270 H     1 <1>   0.0800 
 46 H      -11.1320    -7.9900    -1.9070 H     1 <1>   0.0800 
 47 H      -10.9470    -9.5760    -1.1520 H     1 <1>   0.0800 
 48 H      -12.8950    -7.5970    -0.5130 H     1 <1>   0.0800 
 49 H      -12.5770    -9.0430     0.4260 H     1 <1>   0.0800 
@<TRIPOS>BOND
  1   1   2  1   
  2   1   3  1   
  3   2   4  2   
  4   2   5  1   
  5   3   6  2   
  6   3  25  1   
  7   4   6  1   
  8   4  26  1   
  9   5   7  1   
 10   5  27  1   
 11   5  28  1   
 12   6  29  1   
 13   7   8  am  
 14   7  30  1   
 15   8   9  2   
 16   8  10  1   
 17  10  11  1   
 18  10  31  1   
 19  10  32  1   
 20  11  12  1   
 21  11  13  1   
 22  12  14  1   
 23  12  33  1   
 24  12  34  1   
 25  13  15  1   
 26  13  35  1   
 27  13  36  1   
 28  14  16  1   
 29  14  37  1   
 30  14  38  1   
 31  15  17  1   
 32  15  39  1   
 33  15  40  1   
 34  16  17  1   
 35  16  18  am  
 36  17  41  1   
 37  17  42  1   
 38  18  19  2   
 39  18  20  1   
 40  20  21  1   
 41  20  22  1   
 42  20  43  1   
 43  21  23  1   
 44  22  24  1   
 45  22  44  1   
 46  22  45  1   
 47  23  24  1   
 48  23  46  1   
 49  23  47  1   
 50  24  48  1   
 51  24  49  1   
@<TRIPOS>SUBSTRUCTURE
  1 ****  11 GROUP 4 **** **** 0

# MOE 2024.06 (io_trps.svl 2023.06)
