@<TRIPOS>MOLECULE
NONAME
42 44 1 0 0 
SMALL
USER_CHARGES


@<TRIPOS>ATOM
  1 CL      -1.4720    -0.3870    -2.6760 Cl    1 <1>  -0.1770 
  2 C       -2.4320    -1.0160    -1.3580 C.ar  1 <1>   0.1770 
  3 C       -3.2170    -0.1830    -0.5800 C.ar  1 <1>   0.1900 
  4 C       -2.4020    -2.3750    -1.0980 C.ar  1 <1>  -0.1500 
  5 F       -3.2520     1.1000    -0.8230 F     1 <1>  -0.1900 
  6 C       -3.9770    -0.6810     0.4620 C.ar  1 <1>  -0.1500 
  7 C       -3.1660    -2.8950    -0.0580 C.ar  1 <1>  -0.1440 
  8 C       -3.9470    -2.0440     0.7200 C.ar  1 <1>  -0.1500 
  9 C       -3.1500    -4.3860     0.2340 C.3   1 <1>   0.4870 
 10 N       -3.9390    -5.0970    -0.8100 N.4   1 <1>  -0.9590 
 11 C       -5.3950    -4.7570    -0.7190 C.3   1 <1>   0.3430 
 12 C       -3.8410    -6.5740    -0.5970 C.3   1 <1>   0.3430 
 13 C       -6.0140    -5.8280     0.1840 C.3   1 <1>   0.2000 
 14 C       -5.2400    -7.0830    -0.2210 C.3   1 <1>  -0.0800 
 15 O       -5.7380    -5.4970     1.5090 O.3   1 <1>  -0.6800 
 16 C       -5.1960    -8.2210     0.8170 C.3   1 <1>   0.0210 
 17 C       -4.4180    -9.4120     0.2890 C.2   1 <1>   0.1080 
 18 N       -3.1710    -9.3410    -0.0650 N.2   1 <1>  -0.7070 
 19 C       -4.9380   -10.6910     0.1300 C.2   1 <1>  -0.1500 
 20 N       -2.8560   -10.5960    -0.4510 N.pl3 1 <1>   0.3000 
 21 C       -3.9130   -11.4270    -0.3470 C.2   1 <1>  -0.3320 
 22 C       -3.8760   -12.9010    -0.7080 C.3   1 <1>  -0.0600 
 23 H       -1.7770    -3.0020    -1.7100 H     1 <1>   0.1500 
 24 H       -4.5760    -0.0110     1.0560 H     1 <1>   0.1500 
 25 H       -4.5370    -2.4320     1.5360 H     1 <1>   0.1500 
 26 H       -3.5680    -4.5740     1.2100 H     1 <1>   0.0800 
 27 H       -2.1310    -4.7390     0.2310 H     1 <1>   0.0800 
 28 H       -3.5690    -4.8310    -1.7290 H     1 <1>   0.4500 
 29 H       -5.5670    -3.7680    -0.3280 H     1 <1>   0.0800 
 30 H       -5.8400    -4.8290    -1.6980 H     1 <1>   0.0800 
 31 H       -3.4930    -7.0790    -1.4850 H     1 <1>   0.0800 
 32 H       -3.1530    -6.7950     0.2040 H     1 <1>   0.0800 
 33 H       -7.0800    -5.9110     0.0570 H     1 <1>   0.0800 
 34 H       -5.6840    -7.4740    -1.1200 H     1 <1>   0.0800 
 35 H       -6.2800    -6.0310     2.1280 H     1 <1>   0.4000 
 36 H       -6.1950    -8.5330     1.0600 H     1 <1>   0.0800 
 37 H       -4.7180    -7.8930     1.7230 H     1 <1>   0.0800 
 38 H       -5.9420   -11.0080     0.3500 H     1 <1>   0.1500 
 39 H       -1.9160   -10.8590    -0.7740 H     1 <1>   0.2700 
 40 H       -4.8390   -13.3490    -0.5360 H     1 <1>   0.0800 
 41 H       -3.1480   -13.4150    -0.1050 H     1 <1>   0.0800 
 42 H       -3.6230   -13.0250    -1.7460 H     1 <1>   0.0800 
@<TRIPOS>BOND
  1   1   2  1   
  2   2   3  ar  
  3   2   4  ar  
  4   3   5  1   
  5   3   6  ar  
  6   4   7  ar  
  7   4  23  1   
  8   6   8  ar  
  9   6  24  1   
 10   7   8  ar  
 11   7   9  1   
 12   8  25  1   
 13   9  10  1   
 14   9  26  1   
 15   9  27  1   
 16  10  11  1   
 17  10  12  1   
 18  10  28  1   
 19  11  13  1   
 20  11  29  1   
 21  11  30  1   
 22  12  14  1   
 23  12  31  1   
 24  12  32  1   
 25  13  14  1   
 26  13  15  1   
 27  13  33  1   
 28  14  16  1   
 29  14  34  1   
 30  15  35  1   
 31  16  17  1   
 32  16  36  1   
 33  16  37  1   
 34  17  18  2   
 35  17  19  1   
 36  18  20  1   
 37  19  21  2   
 38  19  38  1   
 39  20  21  1   
 40  20  39  1   
 41  21  22  1   
 42  22  40  1   
 43  22  41  1   
 44  22  42  1   
@<TRIPOS>SUBSTRUCTURE
  1 ****  10 GROUP 4 **** **** 0

# MOE 2024.06 (io_trps.svl 2023.06)
