@<TRIPOS>MOLECULE
NONAME
60 63 1 0 0 
SMALL
USER_CHARGES


@<TRIPOS>ATOM
  1 F        0.1140     0.2610     0.4150 F     1 <1>  -0.3400 
  2 C       -1.1110    -0.0420     0.0020 C.3   1 <1>   1.1640 
  3 F       -1.2840     0.5810    -1.1530 F     1 <1>  -0.3400 
  4 F       -1.9480     0.5120     0.8660 F     1 <1>  -0.3400 
  5 C       -1.3300    -1.5630    -0.1230 C.ar  1 <1>  -0.1440 
  6 C       -0.3380    -2.4870     0.1300 C.ar  1 <1>  -0.1500 
  7 C       -2.5820    -2.0410    -0.5270 C.ar  1 <1>  -0.1500 
  8 C       -0.5660    -3.8670     0.0060 C.ar  1 <1>   0.3610 
  9 C       -2.8250    -3.3860    -0.6290 C.ar  1 <1>  -0.1500 
 10 N        0.4730    -4.7590     0.1450 N.ar  1 <1>  -0.1790 
 11 C       -1.8510    -4.3510    -0.3100 C.ar  1 <1>   0.0000 
 12 C        0.3080    -6.0830    -0.0100 C.ar  1 <1>   0.2180 
 13 C       -2.0730    -5.7680    -0.3460 C.ar  1 <1>   0.1000 
 14 C       -0.9440    -6.5870    -0.2540 C.ar  1 <1>  -0.1500 
 15 C        1.5260    -6.9850     0.1110 C.3   1 <1>  -0.0970 
 16 N       -3.3060    -6.3350    -0.4240 N.pl3 1 <1>  -0.8380 
 17 C       -3.6000    -7.5620    -1.2190 C.3   1 <1>   0.2090 
 18 C       -4.4950    -5.8320     0.3250 C.3   1 <1>   0.2090 
 19 C       -4.0800    -8.6790    -0.2870 C.3   1 <1>  -0.1600 
 20 C       -4.9940    -6.9250     1.2740 C.3   1 <1>  -0.1600 
 21 C       -5.3090    -8.2410     0.5400 C.3   1 <1>  -0.0800 
 22 C       -5.7430    -9.3040     1.5650 C.3   1 <1>   0.3430 
 23 N       -6.0550   -10.6100     0.9230 N.4   1 <1>  -0.9590 
 24 C       -7.2600   -10.6130     0.0250 C.3   1 <1>   0.3430 
 25 C       -6.1380   -11.7470     1.8980 C.3   1 <1>   0.3430 
 26 C       -7.4250   -11.9840    -0.6790 C.3   1 <1>   0.1100 
 27 C       -6.2780   -13.1010     1.1570 C.3   1 <1>   0.1100 
 28 N       -6.3460   -12.9310    -0.3140 N.3   1 <1>  -0.8100 
 29 C       -6.5150   -14.2230    -0.9940 C.3   1 <1>   0.0300 
 30 H        0.6430    -2.1510     0.4210 H     1 <1>   0.1500 
 31 H       -3.3660    -1.3370    -0.7660 H     1 <1>   0.1500 
 32 H       -3.7890    -3.7110    -0.9780 H     1 <1>   0.1500 
 33 H        1.4010    -4.3820     0.3440 H     1 <1>   0.4570 
 34 H       -1.0700    -7.6500    -0.3420 H     1 <1>   0.1500 
 35 H        2.2630    -6.7220    -0.6260 H     1 <1>   0.0800 
 36 H        1.2540    -8.0140    -0.0430 H     1 <1>   0.0800 
 37 H        1.9620    -6.8980     1.0910 H     1 <1>   0.0800 
 38 H       -2.7310    -7.8790    -1.7690 H     1 <1>   0.0800 
 39 H       -4.3680    -7.3330    -1.9390 H     1 <1>   0.0800 
 40 H       -5.2700    -5.5580    -0.3720 H     1 <1>   0.0800 
 41 H       -4.2350    -4.9660     0.9080 H     1 <1>   0.0800 
 42 H       -3.2700    -8.9500     0.3670 H     1 <1>   0.0800 
 43 H       -4.3190    -9.5350    -0.8920 H     1 <1>   0.0800 
 44 H       -5.8750    -6.5640     1.7770 H     1 <1>   0.0800 
 45 H       -4.2360    -7.0880     2.0210 H     1 <1>   0.0800 
 46 H       -6.1280    -8.0440    -0.1300 H     1 <1>   0.0800 
 47 H       -6.6050    -8.9510     2.1070 H     1 <1>   0.0800 
 48 H       -4.9410    -9.4400     2.2730 H     1 <1>   0.0800 
 49 H       -5.2860   -10.8960     0.2970 H     1 <1>   0.4500 
 50 H       -7.1600    -9.8500    -0.7290 H     1 <1>   0.0800 
 51 H       -8.1480   -10.3980     0.5950 H     1 <1>   0.0800 
 52 H       -6.9830   -11.6120     2.5530 H     1 <1>   0.0800 
 53 H       -5.2500   -11.7760     2.5080 H     1 <1>   0.0800 
 54 H       -7.4180   -11.8300    -1.7450 H     1 <1>   0.0800 
 55 H       -8.3830   -12.4010    -0.4200 H     1 <1>   0.0800 
 56 H       -7.1610   -13.6060     1.5110 H     1 <1>   0.0800 
 57 H       -5.4320   -13.7210     1.4030 H     1 <1>   0.0800 
 58 H       -6.5170   -14.0800    -2.0620 H     1 <1>   0.0800 
 59 H       -7.4400   -14.6920    -0.7020 H     1 <1>   0.0800 
 60 H       -5.6970   -14.8790    -0.7460 H     1 <1>   0.0800 
@<TRIPOS>BOND
  1   1   2  1   
  2   2   3  1   
  3   2   4  1   
  4   2   5  1   
  5   5   6  ar  
  6   5   7  ar  
  7   6   8  ar  
  8   6  30  1   
  9   7   9  ar  
 10   7  31  1   
 11   8  10  ar  
 12   8  11  ar  
 13   9  11  ar  
 14   9  32  1   
 15  10  12  ar  
 16  10  33  1   
 17  11  13  ar  
 18  12  14  ar  
 19  12  15  1   
 20  13  14  ar  
 21  13  16  1   
 22  14  34  1   
 23  15  35  1   
 24  15  36  1   
 25  15  37  1   
 26  16  17  1   
 27  16  18  1   
 28  17  19  1   
 29  17  38  1   
 30  17  39  1   
 31  18  20  1   
 32  18  40  1   
 33  18  41  1   
 34  19  21  1   
 35  19  42  1   
 36  19  43  1   
 37  20  21  1   
 38  20  44  1   
 39  20  45  1   
 40  21  22  1   
 41  21  46  1   
 42  22  23  1   
 43  22  47  1   
 44  22  48  1   
 45  23  24  1   
 46  23  25  1   
 47  23  49  1   
 48  24  26  1   
 49  24  50  1   
 50  24  51  1   
 51  25  27  1   
 52  25  52  1   
 53  25  53  1   
 54  26  28  1   
 55  26  54  1   
 56  26  55  1   
 57  27  28  1   
 58  27  56  1   
 59  27  57  1   
 60  28  29  1   
 61  29  58  1   
 62  29  59  1   
 63  29  60  1   
@<TRIPOS>SUBSTRUCTURE
  1 ****  16 GROUP 4 **** **** 0

# MOE 2024.06 (io_trps.svl 2023.06)
