@<TRIPOS>MOLECULE
NONAME
20 21 1 0 0 
SMALL
USER_CHARGES


@<TRIPOS>ATOM
  1 BR       0.1460     0.0430     0.9090 Br    1 <1>  -0.1110 
  2 C       -1.3530    -1.1240     0.6090 C.ar  1 <1>   0.1110 
  3 C       -1.4090    -2.3550     1.2140 C.ar  1 <1>   0.1600 
  4 C       -2.3820    -0.7360    -0.2130 C.ar  1 <1>   0.1600 
  5 N       -2.4350    -3.1620     1.0110 N.ar  1 <1>  -0.6200 
  6 N       -3.4200    -1.5290    -0.4280 N.ar  1 <1>  -0.6200 
  7 C       -3.3820    -2.7090     0.1970 C.ar  1 <1>   0.5880 
  8 C       -4.6100    -3.6240    -0.0780 C.3   1 <1>   0.4280 
  9 N       -5.8030    -2.8810    -0.5280 N.4   1 <1>  -0.7460 
 10 C       -4.8730    -4.8930     0.6710 C.3   1 <1>  -0.2000 
 11 C       -4.3860    -4.9450    -0.7450 C.3   1 <1>  -0.2000 
 12 H       -0.6110    -2.6760     1.8640 H     1 <1>   0.1500 
 13 H       -2.3480     0.2290    -0.6930 H     1 <1>   0.1500 
 14 H       -6.2900    -2.4810     0.2770 H     1 <1>   0.4500 
 15 H       -6.4310    -3.4730    -1.0720 H     1 <1>   0.4500 
 16 H       -5.4580    -2.0990    -1.1040 H     1 <1>   0.4500 
 17 H       -5.8830    -5.2030     0.8780 H     1 <1>   0.1000 
 18 H       -4.1880    -5.2050     1.4420 H     1 <1>   0.1000 
 19 H       -3.3760    -5.2880    -0.9020 H     1 <1>   0.1000 
 20 H       -5.0570    -5.2970    -1.5080 H     1 <1>   0.1000 
@<TRIPOS>BOND
  1   1   2  1   
  2   2   3  ar  
  3   2   4  ar  
  4   3   5  ar  
  5   3  12  1   
  6   4   6  ar  
  7   4  13  1   
  8   5   7  ar  
  9   6   7  ar  
 10   7   8  1   
 11   8   9  1   
 12   8  10  1   
 13   8  11  1   
 14   9  14  1   
 15   9  15  1   
 16   9  16  1   
 17  10  11  1   
 18  10  17  1   
 19  10  18  1   
 20  11  19  1   
 21  11  20  1   
@<TRIPOS>SUBSTRUCTURE
  1 ****   7 GROUP 4 **** **** 0

# MOE 2024.06 (io_trps.svl 2023.06)
