@<TRIPOS>MOLECULE
NONAME
40 41 1 0 0 
SMALL
USER_CHARGES


@<TRIPOS>ATOM
  1 O        0.2890     0.0880    -0.3930 O.2   1 <1>  -0.5700 
  2 C        0.8090     1.1770    -0.5340 C.2   1 <1>   0.7800 
  3 O        0.1330     2.3070    -0.3160 O.3   1 <1>  -0.4300 
  4 N        2.1130     1.3070    -0.9190 N.am  1 <1>  -0.6600 
  5 C       -1.2080     2.4320     0.1030 C.3   1 <1>   0.2800 
  6 C        3.0160     0.1530    -1.0900 C.3   1 <1>   0.1400 
  7 C        2.8480     2.5820    -0.9730 C.3   1 <1>   0.1400 
  8 C       -2.1510     1.8310    -0.9460 C.3   1 <1>  -0.2400 
  9 C       -1.4560     3.9380     0.2000 C.3   1 <1>  -0.2400 
 10 C       -1.3920     1.8000     1.4880 C.3   1 <1>  -0.2400 
 11 C        4.4350     0.7350    -1.1180 C.3   1 <1>  -0.0800 
 12 C        4.3030     2.2110    -0.6880 C.3   1 <1>  -0.0800 
 13 C        5.4230    -0.0860    -0.2540 C.3   1 <1>  -0.1600 
 14 C        4.6640     2.4020     0.7950 C.3   1 <1>  -0.1600 
 15 C        6.5920     0.7570     0.2640 C.3   1 <1>   0.2000 
 16 C        6.1070     1.9500     1.1070 C.3   1 <1>  -0.1600 
 17 O        7.2750     1.2450    -0.8290 O.3   1 <1>  -0.6800 
 18 H        2.8760    -0.5250    -0.2650 H     1 <1>   0.0800 
 19 H        2.7880    -0.3600    -2.0080 H     1 <1>   0.0800 
 20 H        2.7530     2.9930    -1.9630 H     1 <1>   0.0800 
 21 H        2.4640     3.2870    -0.2550 H     1 <1>   0.0800 
 22 H       -3.1710     2.0510    -0.6910 H     1 <1>   0.0800 
 23 H       -2.0520     0.7620    -0.9890 H     1 <1>   0.0800 
 24 H       -1.9440     2.2450    -1.9160 H     1 <1>   0.0800 
 25 H       -2.4640     4.1310     0.5180 H     1 <1>   0.0800 
 26 H       -1.3080     4.4020    -0.7590 H     1 <1>   0.0800 
 27 H       -0.7840     4.3810     0.9120 H     1 <1>   0.0800 
 28 H       -2.3740     2.0210     1.8650 H     1 <1>   0.0800 
 29 H       -0.6660     2.1920     2.1770 H     1 <1>   0.0800 
 30 H       -1.2950     0.7310     1.4430 H     1 <1>   0.0800 
 31 H        4.7740     0.7150    -2.1390 H     1 <1>   0.0800 
 32 H        4.9470     2.8410    -1.2780 H     1 <1>   0.0800 
 33 H        5.7980    -0.9270    -0.8120 H     1 <1>   0.0800 
 34 H        4.9130    -0.4800     0.6070 H     1 <1>   0.0800 
 35 H        4.5430     3.4330     1.0790 H     1 <1>   0.0800 
 36 H        3.9800     1.8210     1.3910 H     1 <1>   0.0800 
 37 H        7.2840     0.1530     0.8280 H     1 <1>   0.0800 
 38 H        6.1410     1.6650     2.1430 H     1 <1>   0.0800 
 39 H        6.7900     2.7740     0.9890 H     1 <1>   0.0800 
 40 H        6.6710     1.7990    -1.3550 H     1 <1>   0.4000 
@<TRIPOS>BOND
  1   1   2  2   
  2   2   3  1   
  3   2   4  am  
  4   3   5  1   
  5   4   6  1   
  6   4   7  1   
  7   5   8  1   
  8   5   9  1   
  9   5  10  1   
 10   6  11  1   
 11   6  18  1   
 12   6  19  1   
 13   7  12  1   
 14   7  20  1   
 15   7  21  1   
 16   8  22  1   
 17   8  23  1   
 18   8  24  1   
 19   9  25  1   
 20   9  26  1   
 21   9  27  1   
 22  10  28  1   
 23  10  29  1   
 24  10  30  1   
 25  11  12  1   
 26  11  13  1   
 27  11  31  1   
 28  12  14  1   
 29  12  32  1   
 30  13  15  1   
 31  13  33  1   
 32  13  34  1   
 33  14  16  1   
 34  14  35  1   
 35  14  36  1   
 36  15  16  1   
 37  15  17  1   
 38  15  37  1   
 39  16  38  1   
 40  16  39  1   
 41  17  40  1   
@<TRIPOS>SUBSTRUCTURE
  1 ****   4 GROUP 4 **** **** 0

# MOE 2024.06 (io_trps.svl 2023.06)
