@<TRIPOS>MOLECULE
NONAME
46 49 1 0 0 
SMALL
USER_CHARGES


@<TRIPOS>ATOM
  1 F        0.5170     1.2740    -0.8100 F     1 <1>  -0.1900 
  2 C        1.7220     1.7790    -0.7460 C.ar  1 <1>   0.1900 
  3 C        2.2350     2.1660     0.4830 C.ar  1 <1>  -0.1440 
  4 C        2.4370     1.9060    -1.9210 C.ar  1 <1>  -0.1500 
  5 C        3.5160     2.6970     0.5110 C.ar  1 <1>  -0.1500 
  6 C        1.4250     2.0150     1.7610 C.3   1 <1>  -0.0960 
  7 C        3.7130     2.4380    -1.8700 C.ar  1 <1>  -0.1500 
  8 C        4.2600     2.8380    -0.6570 C.ar  1 <1>  -0.1440 
  9 C        5.6700     3.4230    -0.6160 C.3   1 <1>   0.0640 
 10 C        6.6470     2.5200     0.1730 C.3   1 <1>  -0.1600 
 11 C        5.6700     4.8980    -0.1440 C.3   1 <1>  -0.1600 
 12 C        7.9170     3.2520     0.6550 C.3   1 <1>   0.2200 
 13 C        7.0490     5.4020     0.3380 C.3   1 <1>   0.2200 
 14 N        8.0800     4.4700    -0.1540 N.am  1 <1>  -0.6600 
 15 C        7.7380     3.8330     2.0630 C.3   1 <1>  -0.1600 
 16 C        7.2040     5.2560     1.8530 C.3   1 <1>  -0.1600 
 17 C        9.1610     4.6950    -0.9610 C.2   1 <1>   0.5690 
 18 O        9.8880     3.7920    -1.3010 O.2   1 <1>  -0.5700 
 19 C        9.4760     6.0730    -1.4990 C.3   1 <1>   0.1570 
 20 N        9.7990     6.9940    -0.4020 N.pl3 1 <1>   0.3140 
 21 N       10.7050     6.7660     0.5340 N.2   1 <1>  -0.4180 
 22 C        9.2200     8.1610    -0.1210 C.2   1 <1>   0.2700 
 23 N       10.6420     7.7580     1.3430 N.2   1 <1>   0.0000 
 24 N        9.7190     8.6370     0.9570 N.2   1 <1>  -0.3380 
 25 N        8.2220     8.8030    -0.8360 N.pl3 1 <1>  -0.8840 
 26 H        2.0010     1.5920    -2.8510 H     1 <1>   0.1500 
 27 H        3.9400     3.0040     1.4500 H     1 <1>   0.1500 
 28 H        1.9800     2.3590     2.6150 H     1 <1>   0.0800 
 29 H        1.1700     0.9810     1.9120 H     1 <1>   0.0800 
 30 H        0.5170     2.5870     1.6880 H     1 <1>   0.0800 
 31 H        4.2760     2.5380    -2.7820 H     1 <1>   0.1500 
 32 H        6.0490     3.4430    -1.6240 H     1 <1>   0.0800 
 33 H        6.9490     1.7140    -0.4720 H     1 <1>   0.0800 
 34 H        6.1520     2.0630     1.0090 H     1 <1>   0.0800 
 35 H        4.9430     5.0430     0.6320 H     1 <1>   0.0800 
 36 H        5.3520     5.5100    -0.9680 H     1 <1>   0.0800 
 37 H        8.7810     2.6100     0.6070 H     1 <1>   0.0800 
 38 H        7.2070     6.4190     0.0290 H     1 <1>   0.0800 
 39 H        7.0810     3.2380     2.6720 H     1 <1>   0.0800 
 40 H        8.6980     3.8760     2.5470 H     1 <1>   0.0800 
 41 H        7.9330     5.9690     2.1980 H     1 <1>   0.0800 
 42 H        6.2850     5.4310     2.3830 H     1 <1>   0.0800 
 43 H        8.6320     6.4420    -2.0460 H     1 <1>   0.0800 
 44 H       10.3240     6.0130    -2.1540 H     1 <1>   0.0800 
 45 H        8.5220     9.1630    -1.7470 H     1 <1>   0.4000 
 46 H        7.8390     9.5890    -0.2990 H     1 <1>   0.4000 
@<TRIPOS>BOND
  1   1   2  1   
  2   2   3  ar  
  3   2   4  ar  
  4   3   5  ar  
  5   3   6  1   
  6   4   7  ar  
  7   4  26  1   
  8   5   8  ar  
  9   5  27  1   
 10   6  28  1   
 11   6  29  1   
 12   6  30  1   
 13   7   8  ar  
 14   7  31  1   
 15   8   9  1   
 16   9  10  1   
 17   9  11  1   
 18   9  32  1   
 19  10  12  1   
 20  10  33  1   
 21  10  34  1   
 22  11  13  1   
 23  11  35  1   
 24  11  36  1   
 25  12  14  1   
 26  12  15  1   
 27  12  37  1   
 28  13  14  1   
 29  13  16  1   
 30  13  38  1   
 31  14  17  am  
 32  15  16  1   
 33  15  39  1   
 34  15  40  1   
 35  16  41  1   
 36  16  42  1   
 37  17  18  2   
 38  17  19  1   
 39  19  20  1   
 40  19  43  1   
 41  19  44  1   
 42  20  21  1   
 43  20  22  1   
 44  21  23  2   
 45  22  24  2   
 46  22  25  1   
 47  23  24  1   
 48  25  45  1   
 49  25  46  1   
@<TRIPOS>SUBSTRUCTURE
  1 ****  11 GROUP 4 **** **** 0

# MOE 2024.06 (io_trps.svl 2023.06)
