@<TRIPOS>MOLECULE
NONAME
49 51 1 0 0 
SMALL
USER_CHARGES


@<TRIPOS>ATOM
  1 F       -2.5590    -6.2610     2.3100 F     1 <1>  -0.1900 
  2 C       -3.3740    -5.4270     1.7220 C.ar  1 <1>   0.1900 
  3 C       -4.0050    -4.4620     2.4820 C.ar  1 <1>  -0.1500 
  4 C       -3.5790    -5.5400     0.3620 C.ar  1 <1>  -0.1500 
  5 C       -4.8730    -3.5860     1.8520 C.ar  1 <1>  -0.1500 
  6 C       -4.4490    -4.6560    -0.2530 C.ar  1 <1>  -0.1500 
  7 C       -5.1070    -3.6770     0.4840 C.ar  1 <1>  -0.0320 
  8 C       -6.0810    -2.6970    -0.1760 C.3   1 <1>   0.0320 
  9 C       -7.4980    -2.8450     0.4200 C.2   1 <1>   0.6300 
 10 C       -5.5350    -1.3130    -0.4640 C.3   1 <1>  -0.1900 
 11 C       -5.8550    -2.2110    -1.6000 C.3   1 <1>  -0.2000 
 12 O       -7.7250    -2.2440     1.4490 O.2   1 <1>  -0.5700 
 13 N       -8.4840    -3.6300    -0.1390 N.am  1 <1>  -0.6600 
 14 C       -6.4120    -0.0660    -0.2710 C.3   1 <1>  -0.1450 
 15 C       -4.0550    -0.9830    -0.2130 C.3   1 <1>  -0.1450 
 16 C       -8.3980    -4.2940    -1.4680 C.3   1 <1>   0.3200 
 17 C       -9.8020    -3.7470     0.5670 C.3   1 <1>   0.1400 
 18 C       -7.5000    -5.5100    -1.4330 C.2   1 <1>  -0.3320 
 19 C       -9.7290    -4.6660     1.8000 C.3   1 <1>   0.1200 
 20 N       -7.3440    -6.2910    -0.3510 N.pl3 1 <1>   0.0330 
 21 C       -6.7280    -6.0490    -2.4020 C.2   1 <1>   0.0770 
 22 O       -9.5400    -5.9960     1.4320 O.3   1 <1>  -0.6800 
 23 C       -6.4770    -7.2540    -0.7280 C.2   1 <1>   0.0060 
 24 N       -6.0840    -7.1450    -1.9560 N.2   1 <1>  -0.5650 
 25 C       -6.0180    -8.3420     0.2170 C.3   1 <1>  -0.0600 
 26 H       -3.8210    -4.3990     3.5390 H     1 <1>   0.1500 
 27 H       -3.0800    -6.3050    -0.2050 H     1 <1>   0.1500 
 28 H       -5.3740    -2.8260     2.4270 H     1 <1>   0.1500 
 29 H       -4.6170    -4.7450    -1.3100 H     1 <1>   0.1500 
 30 H       -6.6820    -1.9230    -2.2220 H     1 <1>   0.1000 
 31 H       -5.0450    -2.6240    -2.1740 H     1 <1>   0.1000 
 32 H       -7.4350    -0.2610    -0.5380 H     1 <1>   0.0800 
 33 H       -6.0540     0.7430    -0.8830 H     1 <1>   0.0800 
 34 H       -6.3870     0.2410     0.7590 H     1 <1>   0.0800 
 35 H       -3.4200    -1.8180    -0.4490 H     1 <1>   0.0800 
 36 H       -3.9070    -0.7250     0.8200 H     1 <1>   0.0800 
 37 H       -3.7500    -0.1520    -0.8230 H     1 <1>   0.0800 
 38 H       -8.0480    -3.6010    -2.2080 H     1 <1>   0.0800 
 39 H       -9.3780    -4.6110    -1.7770 H     1 <1>   0.0800 
 40 H      -10.5710    -4.0930    -0.1000 H     1 <1>   0.0800 
 41 H      -10.0950    -2.7650     0.9000 H     1 <1>   0.0800 
 42 H      -10.6420    -4.6050     2.3660 H     1 <1>   0.0800 
 43 H       -8.9120    -4.3710     2.4370 H     1 <1>   0.0800 
 44 H       -7.8090    -6.1670     0.5610 H     1 <1>   0.2700 
 45 H       -6.5950    -5.7050    -3.4140 H     1 <1>   0.1500 
 46 H      -10.3480    -6.3560     1.0140 H     1 <1>   0.4000 
 47 H       -6.8600    -8.9190     0.5510 H     1 <1>   0.0800 
 48 H       -5.5270    -7.9040     1.0670 H     1 <1>   0.0800 
 49 H       -5.3260    -8.9930    -0.2860 H     1 <1>   0.0800 
@<TRIPOS>BOND
  1   1   2  1   
  2   2   3  ar  
  3   2   4  ar  
  4   3   5  ar  
  5   3  26  1   
  6   4   6  ar  
  7   4  27  1   
  8   5   7  ar  
  9   5  28  1   
 10   6   7  ar  
 11   6  29  1   
 12   7   8  1   
 13   8   9  1   
 14   8  10  1   
 15   8  11  1   
 16   9  12  2   
 17   9  13  am  
 18  10  11  1   
 19  10  14  1   
 20  10  15  1   
 21  11  30  1   
 22  11  31  1   
 23  13  16  1   
 24  13  17  1   
 25  14  32  1   
 26  14  33  1   
 27  14  34  1   
 28  15  35  1   
 29  15  36  1   
 30  15  37  1   
 31  16  18  1   
 32  16  38  1   
 33  16  39  1   
 34  17  19  1   
 35  17  40  1   
 36  17  41  1   
 37  18  20  1   
 38  18  21  2   
 39  19  22  1   
 40  19  42  1   
 41  19  43  1   
 42  20  23  1   
 43  20  44  1   
 44  21  24  1   
 45  21  45  1   
 46  22  46  1   
 47  23  24  2   
 48  23  25  1   
 49  25  47  1   
 50  25  48  1   
 51  25  49  1   
@<TRIPOS>SUBSTRUCTURE
  1 ****   7 GROUP 4 **** **** 0

# MOE 2024.06 (io_trps.svl 2023.06)
