@<TRIPOS>MOLECULE
NONAME
50 54 1 0 0 
SMALL
USER_CHARGES


@<TRIPOS>ATOM
  1 S       -0.6570     1.2560     2.4160 S.3   1 <1>  -0.0800 
  2 C       -0.2750     2.1650     0.9680 C.2   1 <1>  -0.1400 
  3 C        0.8230     1.8180     3.1810 C.2   1 <1>  -0.1100 
  4 C        0.8890     2.8180     1.0800 C.2   1 <1>  -0.1810 
  5 C       -1.1750     2.1870    -0.2370 C.3   1 <1>   0.0200 
  6 C        1.5180     2.6250     2.3550 C.2   1 <1>  -0.1500 
  7 C        1.4300     3.6660    -0.0740 C.3   1 <1>   0.4610 
  8 C       -0.7620     3.3980    -1.0890 C.3   1 <1>   0.1200 
  9 O        0.6380     3.4680    -1.2320 O.3   1 <1>  -0.5600 
 10 C        1.4260     5.1590     0.2860 C.3   1 <1>  -0.1600 
 11 C        2.8460     3.2120    -0.4510 C.3   1 <1>  -0.1600 
 12 C        2.0410     6.0090    -0.8270 C.3   1 <1>   0.1400 
 13 C        3.4490     4.0900    -1.5480 C.3   1 <1>   0.1400 
 14 N        3.4180     5.5130    -1.1070 N.am  1 <1>  -0.6600 
 15 C        4.5720     6.2450    -0.9680 C.2   1 <1>   0.5690 
 16 O        5.6580     5.7640    -1.1950 O.2   1 <1>  -0.5700 
 17 C        4.5070     7.6940    -0.5120 C.3   1 <1>  -0.0990 
 18 C        5.8840     8.3720    -0.4080 C.3   1 <1>   0.0200 
 19 C        5.7920     9.8200     0.0520 C.2   1 <1>   0.0070 
 20 N        4.7030    10.4380     0.3610 N.2   1 <1>  -0.5650 
 21 N        6.9050    10.5880     0.1700 N.pl3 1 <1>   0.0330 
 22 C        5.1090    11.6920     0.7060 C.ar  1 <1>   0.2270 
 23 C        6.4810    11.8040     0.5930 C.ar  1 <1>  -0.1520 
 24 C        4.3550    12.7860     1.1270 C.ar  1 <1>  -0.1500 
 25 C        7.1400    12.9990     0.8930 C.ar  1 <1>  -0.1500 
 26 C        4.9940    13.9700     1.4260 C.ar  1 <1>  -0.1500 
 27 C        6.3870    14.0750     1.3080 C.ar  1 <1>  -0.1500 
 28 H        1.0180     1.4790     4.1820 H     1 <1>   0.1500 
 29 H       -2.2030     2.2850     0.0630 H     1 <1>   0.0800 
 30 H       -1.0600     1.2780    -0.7980 H     1 <1>   0.0800 
 31 H        2.4560     3.0950     2.5940 H     1 <1>   0.1500 
 32 H       -1.1050     4.3100    -0.6340 H     1 <1>   0.0800 
 33 H       -1.1900     3.3220    -2.0730 H     1 <1>   0.0800 
 34 H        1.9990     5.3060     1.1830 H     1 <1>   0.0800 
 35 H        0.4260     5.4870     0.4940 H     1 <1>   0.0800 
 36 H        2.8140     2.1890    -0.7760 H     1 <1>   0.0800 
 37 H        3.4870     3.2600     0.4090 H     1 <1>   0.0800 
 38 H        2.0430     7.0420    -0.5310 H     1 <1>   0.0800 
 39 H        1.4490     5.9220    -1.7230 H     1 <1>   0.0800 
 40 H        2.8800     3.9890    -2.4570 H     1 <1>   0.0800 
 41 H        4.4580     3.7720    -1.7520 H     1 <1>   0.0800 
 42 H        4.0330     7.7300     0.4510 H     1 <1>   0.0800 
 43 H        3.9050     8.2470    -1.2100 H     1 <1>   0.0800 
 44 H        6.3640     8.3410    -1.3700 H     1 <1>   0.0800 
 45 H        6.4930     7.8240     0.2890 H     1 <1>   0.0800 
 46 H        7.8710    10.3120    -0.0190 H     1 <1>   0.2700 
 47 H        3.2900    12.6770     1.2070 H     1 <1>   0.1500 
 48 H        8.2090    13.0700     0.8000 H     1 <1>   0.1500 
 49 H        4.4280    14.8250     1.7520 H     1 <1>   0.1500 
 50 H        6.8620    15.0110     1.5480 H     1 <1>   0.1500 
@<TRIPOS>BOND
  1   1   2  1   
  2   1   3  1   
  3   2   4  2   
  4   2   5  1   
  5   3   6  2   
  6   3  28  1   
  7   4   6  1   
  8   4   7  1   
  9   5   8  1   
 10   5  29  1   
 11   5  30  1   
 12   6  31  1   
 13   7   9  1   
 14   7  10  1   
 15   7  11  1   
 16   8   9  1   
 17   8  32  1   
 18   8  33  1   
 19  10  12  1   
 20  10  34  1   
 21  10  35  1   
 22  11  13  1   
 23  11  36  1   
 24  11  37  1   
 25  12  14  1   
 26  12  38  1   
 27  12  39  1   
 28  13  14  1   
 29  13  40  1   
 30  13  41  1   
 31  14  15  am  
 32  15  16  2   
 33  15  17  1   
 34  17  18  1   
 35  17  42  1   
 36  17  43  1   
 37  18  19  1   
 38  18  44  1   
 39  18  45  1   
 40  19  20  2   
 41  19  21  1   
 42  20  22  1   
 43  21  23  1   
 44  21  46  1   
 45  22  23  ar  
 46  22  24  ar  
 47  23  25  ar  
 48  24  26  ar  
 49  24  47  1   
 50  25  27  ar  
 51  25  48  1   
 52  26  27  ar  
 53  26  49  1   
 54  27  50  1   
@<TRIPOS>SUBSTRUCTURE
  1 ****  17 GROUP 4 **** **** 0

# MOE 2024.06 (io_trps.svl 2023.06)
