@<TRIPOS>MOLECULE
NONAME
48 49 1 0 0 
SMALL
USER_CHARGES


@<TRIPOS>ATOM
  1 N       -2.1360    -1.0860    -1.3140 N.ar  1 <1>  -0.6200 
  2 C       -2.5420    -0.0930    -0.5460 C.ar  1 <1>   0.4100 
  3 C       -1.0800    -0.7570    -2.0500 C.ar  1 <1>   0.1600 
  4 N       -3.6790    -0.4240     0.1990 N.pl3 1 <1>  -0.8380 
  5 C       -1.8670     1.1770    -0.4700 C.ar  1 <1>   0.4100 
  6 C       -0.4410     0.4670    -1.9960 C.ar  1 <1>   0.1600 
  7 C       -3.4630    -0.6020     1.6660 C.3   1 <1>   0.2090 
  8 C       -4.8990     0.3590    -0.1350 C.3   1 <1>   0.1290 
  9 N       -0.8030     1.4620    -1.1990 N.ar  1 <1>  -0.6200 
 10 N       -2.2820     2.2040     0.3870 N.pl3 1 <1>  -0.8380 
 11 C       -2.5830    -1.8410     1.9460 C.3   1 <1>   0.3430 
 12 C       -2.9760     3.3250    -0.3020 C.3   1 <1>   0.1290 
 13 C       -1.2510     2.7050     1.3370 C.3   1 <1>   0.1290 
 14 N       -2.8340    -2.9290     0.9480 N.4   1 <1>  -0.9590 
 15 C       -4.1900    -3.5200     1.0700 C.3   1 <1>   0.3430 
 16 C       -1.7690    -3.9560     0.9550 C.3   1 <1>   0.3430 
 17 C       -4.6740    -4.1030    -0.2580 C.3   1 <1>  -0.1600 
 18 C       -1.3570    -4.3550    -0.4630 C.3   1 <1>  -0.1600 
 19 C       -3.7750    -5.1810    -0.8880 C.3   1 <1>  -0.1600 
 20 C       -2.4870    -4.5940    -1.4800 C.3   1 <1>  -0.1600 
 21 H       -0.7080    -1.5030    -2.7310 H     1 <1>   0.1500 
 22 H        0.4090     0.6420    -2.6320 H     1 <1>   0.1500 
 23 H       -4.4140    -0.7310     2.1530 H     1 <1>   0.0800 
 24 H       -3.0010     0.2760     2.0840 H     1 <1>   0.0800 
 25 H       -4.8900     0.6270    -1.1790 H     1 <1>   0.0800 
 26 H       -4.9380     1.2590     0.4540 H     1 <1>   0.0800 
 27 H       -5.7780    -0.2310     0.0580 H     1 <1>   0.0800 
 28 H       -2.7480    -2.1950     2.9490 H     1 <1>   0.0800 
 29 H       -1.5550    -1.5300     1.8670 H     1 <1>   0.0800 
 30 H       -3.6440     2.9410    -1.0530 H     1 <1>   0.0800 
 31 H       -2.2540     3.9650    -0.7820 H     1 <1>   0.0800 
 32 H       -3.5430     3.8990     0.4090 H     1 <1>   0.0800 
 33 H       -0.6880     1.8800     1.7380 H     1 <1>   0.0800 
 34 H       -1.7220     3.2340     2.1470 H     1 <1>   0.0800 
 35 H       -0.5700     3.3670     0.8290 H     1 <1>   0.0800 
 36 H       -2.8160    -2.4140     0.0340 H     1 <1>   0.4500 
 37 H       -4.8880    -2.7560     1.3680 H     1 <1>   0.0800 
 38 H       -4.1880    -4.2870     1.8270 H     1 <1>   0.0800 
 39 H       -2.1180    -4.8280     1.4830 H     1 <1>   0.0800 
 40 H       -0.8990    -3.5830     1.4700 H     1 <1>   0.0800 
 41 H       -4.8210    -3.2970    -0.9570 H     1 <1>   0.0800 
 42 H       -5.6420    -4.5370    -0.0830 H     1 <1>   0.0800 
 43 H       -0.7810    -5.2600    -0.3800 H     1 <1>   0.0800 
 44 H       -0.6920    -3.6060    -0.8540 H     1 <1>   0.0800 
 45 H       -4.3280    -5.6310    -1.6950 H     1 <1>   0.0800 
 46 H       -3.5530    -5.9650    -0.1830 H     1 <1>   0.0800 
 47 H       -2.1160    -5.2670    -2.2360 H     1 <1>   0.0800 
 48 H       -2.7210    -3.6730    -1.9860 H     1 <1>   0.0800 
@<TRIPOS>BOND
  1   1   2  ar  
  2   1   3  ar  
  3   2   4  1   
  4   2   5  ar  
  5   3   6  ar  
  6   3  21  1   
  7   4   7  1   
  8   4   8  1   
  9   5   9  ar  
 10   5  10  1   
 11   6   9  ar  
 12   6  22  1   
 13   7  11  1   
 14   7  23  1   
 15   7  24  1   
 16   8  25  1   
 17   8  26  1   
 18   8  27  1   
 19  10  12  1   
 20  10  13  1   
 21  11  14  1   
 22  11  28  1   
 23  11  29  1   
 24  12  30  1   
 25  12  31  1   
 26  12  32  1   
 27  13  33  1   
 28  13  34  1   
 29  13  35  1   
 30  14  15  1   
 31  14  16  1   
 32  14  36  1   
 33  15  17  1   
 34  15  37  1   
 35  15  38  1   
 36  16  18  1   
 37  16  39  1   
 38  16  40  1   
 39  17  19  1   
 40  17  41  1   
 41  17  42  1   
 42  18  20  1   
 43  18  43  1   
 44  18  44  1   
 45  19  20  1   
 46  19  45  1   
 47  19  46  1   
 48  20  47  1   
 49  20  48  1   
@<TRIPOS>SUBSTRUCTURE
  1 ****   2 GROUP 4 **** **** 0

# MOE 2024.06 (io_trps.svl 2023.06)
