@<TRIPOS>MOLECULE
NONAME
54 56 1 0 0 
SMALL
USER_CHARGES


@<TRIPOS>ATOM
  1 O       -1.0470     0.9630     1.2320 O.2   1 <1>  -0.5700 
  2 C       -0.7770     2.1100     0.9810 C.2   1 <1>   0.5690 
  3 N       -1.5180     3.1200     1.4830 N.am  1 <1>  -0.7300 
  4 C        0.3940     2.4410     0.0560 C.3   1 <1>   0.1810 
  5 C       -1.2950     4.5510     1.1630 C.3   1 <1>   0.3640 
  6 O        0.8560     3.7640     0.2240 O.3   1 <1>  -0.5600 
  7 C       -2.6150     5.1320     0.6620 C.ar  1 <1>  -0.1440 
  8 C       -0.1560     4.7640     0.1270 C.3   1 <1>   0.2610 
  9 C       -3.3610     4.4840    -0.3150 C.ar  1 <1>  -0.1500 
 10 C       -3.0860     6.3310     1.1800 C.ar  1 <1>  -0.1500 
 11 C        0.4760     6.1500     0.3100 C.2   1 <1>   0.5690 
 12 C       -4.5530     5.0250    -0.7660 C.ar  1 <1>  -0.1500 
 13 C       -4.2780     6.8720     0.7310 C.ar  1 <1>  -0.1500 
 14 O       -0.1960     7.1510     0.2380 O.2   1 <1>  -0.5700 
 15 N        1.8140     6.2440     0.5410 N.am  1 <1>  -0.7300 
 16 C       -5.0120     6.2200    -0.2430 C.ar  1 <1>  -0.1500 
 17 C        2.5430     7.5250     0.7640 C.3   1 <1>   0.1400 
 18 C        3.2130     8.1140    -0.5180 C.3   1 <1>   0.5030 
 19 N        3.6460     9.5290    -0.3050 N.4   1 <1>  -0.9590 
 20 C        2.2670     8.1010    -1.7300 C.3   1 <1>  -0.2400 
 21 C        4.4490     7.2850    -0.8890 C.3   1 <1>  -0.2400 
 22 C        4.7070     9.7470     0.7450 C.3   1 <1>   0.3430 
 23 C        2.5230    10.5210    -0.1060 C.3   1 <1>   0.3430 
 24 C        5.1110    11.2360     0.8530 C.3   1 <1>   0.1200 
 25 C        3.0530    11.9700    -0.0130 C.3   1 <1>   0.1200 
 26 O        4.4510    12.0080    -0.1120 O.3   1 <1>  -0.5600 
 27 H       -2.3360     2.8940     2.0510 H     1 <1>   0.3700 
 28 H        0.0930     2.3090    -0.9670 H     1 <1>   0.0800 
 29 H        1.2120     1.7760     0.2670 H     1 <1>   0.0800 
 30 H       -1.0200     5.0500     2.0770 H     1 <1>   0.0800 
 31 H       -0.5650     4.7150    -0.8660 H     1 <1>   0.0800 
 32 H       -3.0230     3.5510    -0.7320 H     1 <1>   0.1500 
 33 H       -2.5260     6.8580     1.9330 H     1 <1>   0.1500 
 34 H       -5.1240     4.5150    -1.5220 H     1 <1>   0.1500 
 35 H       -4.6320     7.8030     1.1370 H     1 <1>   0.1500 
 36 H        2.3330     5.3570     0.5940 H     1 <1>   0.3700 
 37 H       -5.9380     6.6410    -0.5930 H     1 <1>   0.1500 
 38 H        1.8370     8.2380     1.1500 H     1 <1>   0.0800 
 39 H        3.2880     7.3610     1.5220 H     1 <1>   0.0800 
 40 H        4.0910     9.8350    -1.1810 H     1 <1>   0.4500 
 41 H        2.0720     7.0890    -2.0380 H     1 <1>   0.0800 
 42 H        2.7010     8.6150    -2.5690 H     1 <1>   0.0800 
 43 H        1.3150     8.5390    -1.4940 H     1 <1>   0.0800 
 44 H        4.1490     6.2910    -1.1710 H     1 <1>   0.0800 
 45 H        5.1280     7.1840    -0.0620 H     1 <1>   0.0800 
 46 H        4.9670     7.7180    -1.7270 H     1 <1>   0.0800 
 47 H        4.3540     9.4130     1.7060 H     1 <1>   0.0800 
 48 H        5.5880     9.1750     0.5060 H     1 <1>   0.0800 
 49 H        1.8260    10.4680    -0.9260 H     1 <1>   0.0800 
 50 H        1.9780    10.2920     0.7940 H     1 <1>   0.0800 
 51 H        6.1700    11.3450     0.6940 H     1 <1>   0.0800 
 52 H        4.8770    11.6270     1.8290 H     1 <1>   0.0800 
 53 H        2.7590    12.4260     0.9170 H     1 <1>   0.0800 
 54 H        2.6530    12.5630    -0.8180 H     1 <1>   0.0800 
@<TRIPOS>BOND
  1   1   2  2   
  2   2   3  am  
  3   2   4  1   
  4   3   5  1   
  5   3  27  1   
  6   4   6  1   
  7   4  28  1   
  8   4  29  1   
  9   5   7  1   
 10   5   8  1   
 11   5  30  1   
 12   6   8  1   
 13   7   9  ar  
 14   7  10  ar  
 15   8  11  1   
 16   8  31  1   
 17   9  12  ar  
 18   9  32  1   
 19  10  13  ar  
 20  10  33  1   
 21  11  14  2   
 22  11  15  am  
 23  12  16  ar  
 24  12  34  1   
 25  13  16  ar  
 26  13  35  1   
 27  15  17  1   
 28  15  36  1   
 29  16  37  1   
 30  17  18  1   
 31  17  38  1   
 32  17  39  1   
 33  18  19  1   
 34  18  20  1   
 35  18  21  1   
 36  19  22  1   
 37  19  23  1   
 38  19  40  1   
 39  20  41  1   
 40  20  42  1   
 41  20  43  1   
 42  21  44  1   
 43  21  45  1   
 44  21  46  1   
 45  22  24  1   
 46  22  47  1   
 47  22  48  1   
 48  23  25  1   
 49  23  49  1   
 50  23  50  1   
 51  24  26  1   
 52  24  51  1   
 53  24  52  1   
 54  25  26  1   
 55  25  53  1   
 56  25  54  1   
@<TRIPOS>SUBSTRUCTURE
  1 ****  11 GROUP 4 **** **** 0

# MOE 2024.06 (io_trps.svl 2023.06)
