@<TRIPOS>MOLECULE
NONAME
57 60 1 0 0 
SMALL
USER_CHARGES


@<TRIPOS>ATOM
  1 O        0.6200     0.1800    -0.1700 O.3   1 <1>  -0.6800 
  2 C        1.8260    -0.0720    -0.8090 C.3   1 <1>   0.2000 
  3 C        2.5200    -1.2800    -0.1860 C.3   1 <1>  -0.0800 
  4 C        2.8090     1.0800    -0.6140 C.3   1 <1>   0.2090 
  5 C        4.0030    -1.0370    -0.4730 C.3   1 <1>   0.2090 
  6 C        2.0080    -2.6290    -0.7190 C.3   1 <1>  -0.0170 
  7 N        4.1560     0.4400    -0.5750 N.pl3 1 <1>  -0.8380 
  8 C        2.7520    -3.8010    -0.0990 C.ar  1 <1>   0.1660 
  9 C        5.3200     1.1360    -0.5870 C.ar  1 <1>   0.4100 
 10 N        3.9130    -4.1230    -0.6510 N.ar  1 <1>  -0.6200 
 11 C        2.1990    -4.4660     0.9850 C.ar  1 <1>  -0.1500 
 12 N        5.2420     2.4530    -0.5870 N.ar  1 <1>  -0.6200 
 13 C        6.5630     0.4760    -0.5990 C.ar  1 <1>  -0.1500 
 14 C        4.5380    -5.1570    -0.1090 C.ar  1 <1>   0.1600 
 15 C        2.8650    -5.5360     1.5430 C.ar  1 <1>  -0.1500 
 16 C        6.3640     3.1560    -0.5860 C.ar  1 <1>   0.7710 
 17 C        7.7010     1.2080    -0.5960 C.ar  1 <1>   0.2180 
 18 C        4.0680    -5.8850     0.9700 C.ar  1 <1>  -0.1500 
 19 N        7.5660     2.5550    -0.5860 N.ar  1 <1>  -0.1790 
 20 N        6.3090     4.5170    -0.5760 N.pl3 1 <1>  -0.8380 
 21 C        9.0980     0.6000    -0.6000 C.3   1 <1>  -0.0170 
 22 C        7.4500     5.4710    -0.7380 C.3   1 <1>   0.2090 
 23 C        5.0160     5.2500    -0.3640 C.3   1 <1>   0.2090 
 24 C        9.8720     0.9270     0.6840 C.3   1 <1>  -0.2400 
 25 C        7.6090     6.2850     0.5490 C.3   1 <1>  -0.1600 
 26 C        5.1170     6.0780     0.9210 C.3   1 <1>  -0.1600 
 27 C        6.3160     7.0370     0.8950 C.3   1 <1>  -0.1600 
 28 H       -0.0220    -0.5330    -0.3460 H     1 <1>   0.4000 
 29 H        1.6430    -0.2150    -1.8600 H     1 <1>   0.0800 
 30 H        2.3940    -1.2440     0.8820 H     1 <1>   0.0800 
 31 H        2.6270     1.5760     0.3240 H     1 <1>   0.0800 
 32 H        2.7450     1.7850    -1.4250 H     1 <1>   0.0800 
 33 H        4.2840    -1.4860    -1.4110 H     1 <1>   0.0800 
 34 H        4.6130    -1.4420     0.3170 H     1 <1>   0.0800 
 35 H        2.1250    -2.6720    -1.7880 H     1 <1>   0.0800 
 36 H        0.9590    -2.7220    -0.5060 H     1 <1>   0.0800 
 37 H        1.2540    -4.1540     1.3930 H     1 <1>   0.1500 
 38 H        6.5850    -0.5970    -0.6100 H     1 <1>   0.1500 
 39 H        5.4790    -5.4420    -0.5490 H     1 <1>   0.1500 
 40 H        2.4640    -6.0750     2.3850 H     1 <1>   0.1500 
 41 H        4.6370    -6.7120     1.3530 H     1 <1>   0.1500 
 42 H        8.3620     3.1730    -0.5450 H     1 <1>   0.4570 
 43 H        9.0190    -0.4710    -0.6900 H     1 <1>   0.0800 
 44 H        9.6460     0.9530    -1.4570 H     1 <1>   0.0800 
 45 H        8.3710     4.9690    -0.9700 H     1 <1>   0.0800 
 46 H        7.2330     6.1400    -1.5560 H     1 <1>   0.0800 
 47 H        4.8330     5.9000    -1.2030 H     1 <1>   0.0800 
 48 H        4.1760     4.5820    -0.2840 H     1 <1>   0.0800 
 49 H        9.3320     0.5790     1.5480 H     1 <1>   0.0800 
 50 H       10.0450     1.9840     0.7840 H     1 <1>   0.0800 
 51 H       10.8290     0.4320     0.6680 H     1 <1>   0.0800 
 52 H        7.8720     5.6270     1.3590 H     1 <1>   0.0800 
 53 H        8.4100     6.9940     0.4280 H     1 <1>   0.0800 
 54 H        4.2100     6.6410     1.0500 H     1 <1>   0.0800 
 55 H        5.2030     5.4070     1.7590 H     1 <1>   0.0800 
 56 H        6.1410     7.8020     0.1570 H     1 <1>   0.0800 
 57 H        6.4170     7.5200     1.8520 H     1 <1>   0.0800 
@<TRIPOS>BOND
  1   1   2  1   
  2   1  28  1   
  3   2   3  1   
  4   2   4  1   
  5   2  29  1   
  6   3   5  1   
  7   3   6  1   
  8   3  30  1   
  9   4   7  1   
 10   4  31  1   
 11   4  32  1   
 12   5   7  1   
 13   5  33  1   
 14   5  34  1   
 15   6   8  1   
 16   6  35  1   
 17   6  36  1   
 18   7   9  1   
 19   8  10  ar  
 20   8  11  ar  
 21   9  12  ar  
 22   9  13  ar  
 23  10  14  ar  
 24  11  15  ar  
 25  11  37  1   
 26  12  16  ar  
 27  13  17  ar  
 28  13  38  1   
 29  14  18  ar  
 30  14  39  1   
 31  15  18  ar  
 32  15  40  1   
 33  16  19  ar  
 34  16  20  1   
 35  17  19  ar  
 36  17  21  1   
 37  18  41  1   
 38  19  42  1   
 39  20  22  1   
 40  20  23  1   
 41  21  24  1   
 42  21  43  1   
 43  21  44  1   
 44  22  25  1   
 45  22  45  1   
 46  22  46  1   
 47  23  26  1   
 48  23  47  1   
 49  23  48  1   
 50  24  49  1   
 51  24  50  1   
 52  24  51  1   
 53  25  27  1   
 54  25  52  1   
 55  25  53  1   
 56  26  27  1   
 57  26  54  1   
 58  26  55  1   
 59  27  56  1   
 60  27  57  1   
@<TRIPOS>SUBSTRUCTURE
  1 ****   9 GROUP 4 **** **** 0

# MOE 2024.06 (io_trps.svl 2023.06)
