@<TRIPOS>MOLECULE
NONAME
44 45 1 0 0 
SMALL
USER_CHARGES


@<TRIPOS>ATOM
  1 S       -0.4400    -0.6540    -0.0520 S.3   1 <1>  -0.4600 
  2 C       -1.9640    -0.0420    -0.8180 C.3   1 <1>   0.0700 
  3 C        0.6250     0.7880     0.3240 C.3   1 <1>   0.0700 
  4 C       -2.9580     0.2790     0.3160 C.3   1 <1>   0.4230 
  5 C       -0.1050     2.1380     0.3450 C.3   1 <1>   0.0700 
  6 N       -4.3600    -0.1980     0.0250 N.4   1 <1>  -0.9590 
  7 C       -2.9420     1.7740     0.6690 C.3   1 <1>   0.0700 
  8 S       -1.4280     2.1390     1.5940 S.3   1 <1>  -0.4600 
  9 C       -4.3960    -1.7050     0.0490 C.3   1 <1>   0.3430 
 10 C       -4.9350     0.3660    -1.2440 C.3   1 <1>   0.2630 
 11 C       -5.8180    -2.2710     0.1220 C.3   1 <1>   0.1200 
 12 O       -5.7040    -3.6710     0.1190 O.3   1 <1>  -0.3630 
 13 C       -6.8000    -4.4700     0.1590 C.ar  1 <1>   0.0820 
 14 C       -6.5760    -5.8350     0.0950 C.ar  1 <1>  -0.1500 
 15 C       -8.1050    -3.9930     0.2570 C.ar  1 <1>  -0.1500 
 16 C       -7.6320    -6.7290     0.1250 C.ar  1 <1>   0.0820 
 17 C       -9.1650    -4.8840     0.2880 C.ar  1 <1>  -0.1500 
 18 O       -7.3180    -8.0480     0.0560 O.3   1 <1>  -0.3630 
 19 C       -8.9340    -6.2470     0.2220 C.ar  1 <1>  -0.1500 
 20 C       -8.3180    -9.0420     0.0810 C.3   1 <1>   0.0400 
 21 H       -2.3080    -0.8480    -1.4400 H     1 <1>   0.0800 
 22 H       -1.7210     0.8050    -1.4320 H     1 <1>   0.0800 
 23 H        1.3980     0.7970    -0.4250 H     1 <1>   0.0800 
 24 H        1.0760     0.5920     1.2810 H     1 <1>   0.0800 
 25 H       -2.6180    -0.2480     1.1950 H     1 <1>   0.0800 
 26 H       -0.5270     2.3960    -0.6080 H     1 <1>   0.0800 
 27 H        0.5810     2.9140     0.6370 H     1 <1>   0.0800 
 28 H       -4.9380     0.1220     0.8170 H     1 <1>   0.4500 
 29 H       -3.7510     2.0270     1.3310 H     1 <1>   0.0800 
 30 H       -2.9560     2.4100    -0.1980 H     1 <1>   0.0800 
 31 H       -3.8520    -2.0620     0.9090 H     1 <1>   0.0800 
 32 H       -3.9150    -2.0950    -0.8340 H     1 <1>   0.0800 
 33 H       -4.3760     0.0190    -2.0980 H     1 <1>   0.0800 
 34 H       -4.9040     1.4430    -1.2260 H     1 <1>   0.0800 
 35 H       -5.9620     0.0590    -1.3610 H     1 <1>   0.0800 
 36 H       -6.3990    -1.9880    -0.7370 H     1 <1>   0.0800 
 37 H       -6.3030    -1.9780     1.0360 H     1 <1>   0.0800 
 38 H       -5.5730    -6.2120     0.0200 H     1 <1>   0.1500 
 39 H       -8.3230    -2.9450     0.3120 H     1 <1>   0.1500 
 40 H      -10.1740    -4.5180     0.3640 H     1 <1>   0.1500 
 41 H       -9.7750    -6.9140     0.2480 H     1 <1>   0.1500 
 42 H       -7.8360   -10.0010     0.0160 H     1 <1>   0.0800 
 43 H       -8.9700    -8.9030    -0.7630 H     1 <1>   0.0800 
 44 H       -8.8610    -8.9680     1.0070 H     1 <1>   0.0800 
@<TRIPOS>BOND
  1   1   2  1   
  2   1   3  1   
  3   2   4  1   
  4   2  21  1   
  5   2  22  1   
  6   3   5  1   
  7   3  23  1   
  8   3  24  1   
  9   4   6  1   
 10   4   7  1   
 11   4  25  1   
 12   5   8  1   
 13   5  26  1   
 14   5  27  1   
 15   6   9  1   
 16   6  10  1   
 17   6  28  1   
 18   7   8  1   
 19   7  29  1   
 20   7  30  1   
 21   9  11  1   
 22   9  31  1   
 23   9  32  1   
 24  10  33  1   
 25  10  34  1   
 26  10  35  1   
 27  11  12  1   
 28  11  36  1   
 29  11  37  1   
 30  12  13  1   
 31  13  14  ar  
 32  13  15  ar  
 33  14  16  ar  
 34  14  38  1   
 35  15  17  ar  
 36  15  39  1   
 37  16  18  1   
 38  16  19  ar  
 39  17  19  ar  
 40  17  40  1   
 41  18  20  1   
 42  19  41  1   
 43  20  42  1   
 44  20  43  1   
 45  20  44  1   
@<TRIPOS>SUBSTRUCTURE
  1 ****   9 GROUP 4 **** **** 0

# MOE 2024.06 (io_trps.svl 2023.06)
