@<TRIPOS>MOLECULE
Untitled Document
48 50 1 0 0 
SMALL
USER_CHARGES


@<TRIPOS>ATOM
  1 S       -0.1000     0.1940    -0.5590 S.3   1 <1>  -0.0800 
  2 C       -1.5530    -0.7240    -0.9480 C.2   1 <1>   0.1240 
  3 C        0.9550    -1.2230    -0.6520 C.2   1 <1>  -0.0050 
  4 N       -2.7880    -0.0870    -1.0140 N.pl3 1 <1>  -0.8220 
  5 C       -1.1970    -2.0210    -1.1290 C.2   1 <1>  -0.1500 
  6 C        0.1830    -2.2970    -0.9670 C.2   1 <1>  -0.1500 
  7 C        2.3440    -1.0040    -0.3990 C.2   1 <1>  -0.1050 
  8 C       -4.0570    -0.8600    -1.0510 C.3   1 <1>   0.2090 
  9 C       -2.9730     1.3810    -0.8290 C.3   1 <1>   0.2090 
 10 C        3.3840    -1.8820    -0.3880 C.2   1 <1>   0.0370 
 11 C       -4.8060    -0.6460     0.2650 C.3   1 <1>  -0.1600 
 12 C       -3.6980     1.6240     0.4940 C.3   1 <1>  -0.1600 
 13 C        3.2170    -3.2820    -0.6390 C.1   1 <1>   0.4920 
 14 C        4.7370    -1.4530    -0.1210 C.ar  1 <1>   0.0280 
 15 C       -5.0150     0.8470     0.5240 C.3   1 <1>   0.2000 
 16 N        3.0890    -4.4020    -0.8200 N.1   1 <1>  -0.5570 
 17 C        5.2590    -0.3130    -0.7270 C.ar  1 <1>  -0.1500 
 18 C        5.5740    -2.1490     0.7490 C.ar  1 <1>  -0.1500 
 19 O       -5.5820     0.9980     1.7690 O.3   1 <1>  -0.6800 
 20 C        6.5460     0.1330    -0.4880 C.ar  1 <1>   0.0830 
 21 C        6.8680    -1.7310     0.9950 C.ar  1 <1>  -0.1500 
 22 O        6.8780     1.2750    -1.1580 O.3   1 <1>  -0.3620 
 23 C        7.3810    -0.5910     0.3800 C.ar  1 <1>   0.0830 
 24 C        7.8780     2.1540    -0.6940 C.3   1 <1>   0.0400 
 25 O        8.6660    -0.1900     0.5980 O.3   1 <1>  -0.3630 
 26 C        9.5910    -0.9680     1.3270 C.3   1 <1>   0.0400 
 27 H       -1.8820    -2.8070    -1.3810 H     1 <1>   0.1500 
 28 H        0.5430    -3.3020    -1.0950 H     1 <1>   0.1500 
 29 H        2.5660     0.0260    -0.1820 H     1 <1>   0.1500 
 30 H       -4.6550    -0.5170    -1.8790 H     1 <1>   0.0800 
 31 H       -3.8630    -1.9080    -1.1910 H     1 <1>   0.0800 
 32 H       -2.0340     1.9040    -0.8350 H     1 <1>   0.0800 
 33 H       -3.5620     1.7630    -1.6450 H     1 <1>   0.0800 
 34 H       -4.2270    -1.0850     1.0570 H     1 <1>   0.0800 
 35 H       -5.7590    -1.1410     0.2140 H     1 <1>   0.0800 
 36 H       -3.8950     2.6750     0.6010 H     1 <1>   0.0800 
 37 H       -3.0550     1.3060     1.2950 H     1 <1>   0.0800 
 38 H       -5.7010     1.2550    -0.2000 H     1 <1>   0.0800 
 39 H        4.6520     0.2500    -1.4130 H     1 <1>   0.1500 
 40 H        5.2120    -3.0330     1.2470 H     1 <1>   0.1500 
 41 H       -4.9760     0.6480     2.4490 H     1 <1>   0.4000 
 42 H        7.4620    -2.3130     1.6740 H     1 <1>   0.1500 
 43 H        7.7570     3.0960    -1.1970 H     1 <1>   0.0800 
 44 H        8.8410     1.7390    -0.9290 H     1 <1>   0.0800 
 45 H        7.7660     2.2860     0.3680 H     1 <1>   0.0800 
 46 H       10.5430    -0.4700     1.2950 H     1 <1>   0.0800 
 47 H        9.6710    -1.9380     0.8680 H     1 <1>   0.0800 
 48 H        9.2560    -1.0470     2.3460 H     1 <1>   0.0800 
@<TRIPOS>BOND
  1   1   2  1   
  2   1   3  1   
  3   2   4  1   
  4   2   5  2   
  5   3   6  2   
  6   3   7  1   
  7   4   8  1   
  8   4   9  1   
  9   5   6  1   
 10   5  27  1   
 11   6  28  1   
 12   7  10  2   
 13   7  29  1   
 14   8  11  1   
 15   8  30  1   
 16   8  31  1   
 17   9  12  1   
 18   9  32  1   
 19   9  33  1   
 20  10  13  1   
 21  10  14  1   
 22  11  15  1   
 23  11  34  1   
 24  11  35  1   
 25  12  15  1   
 26  12  36  1   
 27  12  37  1   
 28  13  16  3   
 29  14  17  ar  
 30  14  18  ar  
 31  15  19  1   
 32  15  38  1   
 33  17  20  ar  
 34  17  39  1   
 35  18  21  ar  
 36  18  40  1   
 37  19  41  1   
 38  20  22  1   
 39  20  23  ar  
 40  21  23  ar  
 41  21  42  1   
 42  22  24  1   
 43  23  25  1   
 44  24  43  1   
 45  24  44  1   
 46  24  45  1   
 47  25  26  1   
 48  26  46  1   
 49  26  47  1   
 50  26  48  1   
@<TRIPOS>SUBSTRUCTURE
  1 ****   7 GROUP 4 **** **** 0

# MOE 2024.06 (io_trps.svl 2023.06)
