@<TRIPOS>MOLECULE
NONAME
41 42 1 0 0 
SMALL
USER_CHARGES


@<TRIPOS>ATOM
  1 O        0.1620    -0.4710    -1.0430 O.2   1 <1>  -0.5700 
  2 C        1.0650    -0.7860    -0.2850 C.2   1 <1>   0.5440 
  3 N        1.9260     0.1710     0.1880 N.am  1 <1>  -0.4930 
  4 C        1.2620    -2.1750     0.1270 C.ar  1 <1>   0.3960 
  5 C        2.0210     1.5620    -0.0750 C.2   1 <1>   0.0630 
  6 N        2.3160    -2.4690     0.9160 N.ar  1 <1>  -0.6200 
  7 C        0.3730    -3.1620    -0.2900 C.ar  1 <1>  -0.1500 
  8 C        1.0170     2.5300    -0.1770 C.2   1 <1>   0.1080 
  9 C        3.1740     2.2440    -0.2530 C.2   1 <1>  -0.3320 
 10 C        2.4640    -3.7330     1.2720 C.ar  1 <1>   0.1600 
 11 C        0.5390    -4.4750     0.0890 C.ar  1 <1>   0.0830 
 12 N        1.4980     3.7130    -0.4030 N.2   1 <1>  -0.7070 
 13 C       -0.4710     2.3000    -0.0340 C.3   1 <1>  -0.0590 
 14 N        2.8290     3.5420    -0.4550 N.pl3 1 <1>   0.3140 
 15 C        4.6060     1.7260    -0.2540 C.3   1 <1>  -0.0600 
 16 C        1.6230    -4.7620     0.8980 C.ar  1 <1>  -0.1500 
 17 O       -0.3580    -5.3840    -0.3470 O.3   1 <1>  -0.3630 
 18 C        3.7290     4.6860    -0.7090 C.3   1 <1>   0.0960 
 19 C       -0.2570    -6.7490    -0.0060 C.3   1 <1>   0.0400 
 20 C        4.1890     5.3280     0.6080 C.3   1 <1>  -0.1600 
 21 C        5.1300     6.5110     0.3550 C.3   1 <1>  -0.2400 
 22 H        2.6860    -0.2140     0.7510 H     1 <1>   0.3700 
 23 H       -0.4590    -2.9020    -0.9200 H     1 <1>   0.1500 
 24 H        3.3060    -3.9650     1.9020 H     1 <1>   0.1500 
 25 H       -0.6580     1.5190     0.6780 H     1 <1>   0.0800 
 26 H       -0.8810     2.0180    -0.9850 H     1 <1>   0.0800 
 27 H       -0.9490     3.2020     0.3010 H     1 <1>   0.0800 
 28 H        4.6250     0.6630    -0.0950 H     1 <1>   0.0800 
 29 H        5.1730     2.1980     0.5280 H     1 <1>   0.0800 
 30 H        5.0730     1.9320    -1.2000 H     1 <1>   0.0800 
 31 H        1.8250    -5.7590     1.2390 H     1 <1>   0.1500 
 32 H        3.1890     5.4050    -1.2980 H     1 <1>   0.0800 
 33 H        4.5720     4.3430    -1.2780 H     1 <1>   0.0800 
 34 H       -1.0760    -7.2700    -0.4680 H     1 <1>   0.0800 
 35 H       -0.3180    -6.8480     1.0630 H     1 <1>   0.0800 
 36 H        0.6770    -7.1350    -0.3770 H     1 <1>   0.0800 
 37 H        4.6950     4.5940     1.2100 H     1 <1>   0.0800 
 38 H        3.3240     5.6720     1.1490 H     1 <1>   0.0800 
 39 H        6.0120     6.1890    -0.1720 H     1 <1>   0.0800 
 40 H        5.4320     6.9460     1.2920 H     1 <1>   0.0800 
 41 H        4.6340     7.2680    -0.2270 H     1 <1>   0.0800 
@<TRIPOS>BOND
  1   1   2  2   
  2   2   3  am  
  3   2   4  1   
  4   3   5  1   
  5   3  22  1   
  6   4   6  ar  
  7   4   7  ar  
  8   5   8  1   
  9   5   9  2   
 10   6  10  ar  
 11   7  11  ar  
 12   7  23  1   
 13   8  12  2   
 14   8  13  1   
 15   9  14  1   
 16   9  15  1   
 17  10  16  ar  
 18  10  24  1   
 19  11  16  ar  
 20  11  17  1   
 21  12  14  1   
 22  13  25  1   
 23  13  26  1   
 24  13  27  1   
 25  14  18  1   
 26  15  28  1   
 27  15  29  1   
 28  15  30  1   
 29  16  31  1   
 30  17  19  1   
 31  18  20  1   
 32  18  32  1   
 33  18  33  1   
 34  19  34  1   
 35  19  35  1   
 36  19  36  1   
 37  20  21  1   
 38  20  37  1   
 39  20  38  1   
 40  21  39  1   
 41  21  40  1   
 42  21  41  1   
@<TRIPOS>SUBSTRUCTURE
  1 ****   3 GROUP 4 **** **** 0

# MOE 2024.06 (io_trps.svl 2023.06)
