@<TRIPOS>MOLECULE
NONAME
47 50 1 0 0 
SMALL
USER_CHARGES


@<TRIPOS>ATOM
  1 S       -0.1790     0.6410     2.1750 S.3   1 <1>  -0.0800 
  2 C       -1.1360     1.3140     0.8640 C.2   1 <1>  -0.1400 
  3 C       -1.4860    -0.4530     2.6100 C.2   1 <1>  -0.1100 
  4 C       -2.3420     0.7340     0.8120 C.2   1 <1>  -0.1810 
  5 C       -0.6160     2.4110    -0.0580 C.3   1 <1>   0.4600 
  6 C       -2.5480    -0.2810     1.8000 C.2   1 <1>  -0.1500 
  7 C       -3.3370     1.1760    -0.2370 C.3   1 <1>   0.0210 
  8 O       -1.5640     2.6210    -1.0890 O.3   1 <1>  -0.5600 
  9 C       -0.4040     3.7300     0.6960 C.3   1 <1>  -0.1600 
 10 C        0.6810     1.9780    -0.7480 C.3   1 <1>  -0.1600 
 11 C       -2.9320     2.5700    -0.7550 C.3   1 <1>   0.1200 
 12 C        0.1550     4.8210    -0.2200 C.3   1 <1>   0.1400 
 13 C        1.2350     3.0810    -1.6500 C.3   1 <1>   0.1400 
 14 N        1.4100     4.3300    -0.8560 N.am  1 <1>  -0.6600 
 15 C        2.6600     4.8410    -0.6050 C.2   1 <1>   0.6900 
 16 O        3.6520     4.1680    -0.8120 O.2   1 <1>  -0.5700 
 17 N        2.7640     6.1230    -0.1470 N.am  1 <1>  -0.5470 
 18 C        3.8590     6.8620     0.3220 C.ar  1 <1>   0.1170 
 19 C        3.7920     8.2490     0.2890 C.ar  1 <1>  -0.1500 
 20 C        5.0060     6.2690     0.8400 C.ar  1 <1>  -0.1500 
 21 C        4.8350     9.0310     0.7530 C.ar  1 <1>   0.0820 
 22 C        6.0560     7.0400     1.3050 C.ar  1 <1>  -0.1500 
 23 O        4.6680    10.3760     0.6750 O.3   1 <1>  -0.3620 
 24 C        5.9760     8.4210     1.2640 C.ar  1 <1>  -0.1500 
 25 C        5.6830    11.2620     1.0910 C.3   1 <1>   0.0400 
 26 H       -1.3160    -1.1180     3.4370 H     1 <1>   0.1500 
 27 H       -3.4740    -0.8270     1.8550 H     1 <1>   0.1500 
 28 H       -4.3230     1.2260     0.1860 H     1 <1>   0.0800 
 29 H       -3.3470     0.4720    -1.0490 H     1 <1>   0.0800 
 30 H        0.2960     3.5670     1.4960 H     1 <1>   0.0800 
 31 H       -1.3240     4.0540     1.1410 H     1 <1>   0.0800 
 32 H        0.4990     1.0890    -1.3230 H     1 <1>   0.0800 
 33 H        1.4250     1.7400    -0.0090 H     1 <1>   0.0800 
 34 H       -3.1280     3.3180    -0.0080 H     1 <1>   0.0800 
 35 H       -3.4940     2.8130    -1.6400 H     1 <1>   0.0800 
 36 H        0.3330     5.7080     0.3590 H     1 <1>   0.0800 
 37 H       -0.5600     5.0550    -0.9910 H     1 <1>   0.0800 
 38 H        0.5510     3.2730    -2.4590 H     1 <1>   0.0800 
 39 H        2.1720     2.7660    -2.0780 H     1 <1>   0.0800 
 40 H        1.9130     6.6520    -0.2910 H     1 <1>   0.3700 
 41 H        2.9220     8.7370    -0.1050 H     1 <1>   0.1500 
 42 H        5.0810     5.1970     0.8830 H     1 <1>   0.1500 
 43 H        6.9360     6.5620     1.6990 H     1 <1>   0.1500 
 44 H        6.8040     8.9960     1.6310 H     1 <1>   0.1500 
 45 H        5.3370    12.2670     0.9270 H     1 <1>   0.0800 
 46 H        6.5670    11.0800     0.5060 H     1 <1>   0.0800 
 47 H        5.8740    11.1080     2.1380 H     1 <1>   0.0800 
@<TRIPOS>BOND
  1   1   2  1   
  2   1   3  1   
  3   2   4  2   
  4   2   5  1   
  5   3   6  2   
  6   3  26  1   
  7   4   6  1   
  8   4   7  1   
  9   5   8  1   
 10   5   9  1   
 11   5  10  1   
 12   6  27  1   
 13   7  11  1   
 14   7  28  1   
 15   7  29  1   
 16   8  11  1   
 17   9  12  1   
 18   9  30  1   
 19   9  31  1   
 20  10  13  1   
 21  10  32  1   
 22  10  33  1   
 23  11  34  1   
 24  11  35  1   
 25  12  14  1   
 26  12  36  1   
 27  12  37  1   
 28  13  14  1   
 29  13  38  1   
 30  13  39  1   
 31  14  15  am  
 32  15  16  2   
 33  15  17  am  
 34  17  18  1   
 35  17  40  1   
 36  18  19  ar  
 37  18  20  ar  
 38  19  21  ar  
 39  19  41  1   
 40  20  22  ar  
 41  20  42  1   
 42  21  23  1   
 43  21  24  ar  
 44  22  24  ar  
 45  22  43  1   
 46  23  25  1   
 47  24  44  1   
 48  25  45  1   
 49  25  46  1   
 50  25  47  1   
@<TRIPOS>SUBSTRUCTURE
  1 ****  14 GROUP 4 **** **** 0

# MOE 2024.06 (io_trps.svl 2023.06)
