@<TRIPOS>MOLECULE
NONAME
60 64 1 0 0 
SMALL
USER_CHARGES


@<TRIPOS>ATOM
  1 O       -0.5230    -2.2100     0.8530 O.2   1 <1>  -0.5700 
  2 C       -1.7380    -2.2510     0.6900 C.2   1 <1>   0.4690 
  3 C       -2.5680    -1.0850     0.8140 C.ar  1 <1>   0.0860 
  4 C       -2.3650    -3.4800     0.3880 C.2   1 <1>  -0.1360 
  5 C       -3.9500    -1.1980     0.5610 C.ar  1 <1>   0.1000 
  6 C       -2.0410     0.1520     1.2030 C.ar  1 <1>  -0.1500 
  7 C       -3.6880    -3.5660     0.1120 C.2   1 <1>  -0.0380 
  8 N       -4.4760    -2.4250     0.1020 N.pl3 1 <1>  -0.5690 
  9 C       -4.7520    -0.0710     0.7890 C.ar  1 <1>  -0.1500 
 10 C       -2.8480     1.2520     1.3820 C.ar  1 <1>  -0.1500 
 11 C       -4.3150    -4.9230    -0.1750 C.3   1 <1>  -0.1020 
 12 C       -5.8530    -2.4590    -0.5300 C.3   1 <1>   0.2700 
 13 C       -4.2140     1.1340     1.1840 C.ar  1 <1>  -0.1500 
 14 C       -7.0000    -2.8630     0.4130 C.2   1 <1>   0.5690 
 15 O       -7.1370    -2.2230     1.4330 O.2   1 <1>  -0.5700 
 16 N       -7.8760    -3.8870     0.1090 N.am  1 <1>  -0.6600 
 17 C       -8.8280    -4.4020     1.1340 C.3   1 <1>   0.1400 
 18 C       -8.0700    -4.5370    -1.2200 C.3   1 <1>   0.1400 
 19 C       -8.6010    -5.9040     1.3180 C.3   1 <1>  -0.1600 
 20 C       -7.8420    -6.0460    -1.0930 C.3   1 <1>  -0.1600 
 21 C       -8.7330    -6.6780    -0.0100 C.3   1 <1>   0.4240 
 22 O      -10.0410    -6.4480    -0.4850 O.3   1 <1>  -0.5600 
 23 C       -8.4340    -8.1960     0.1470 C.ar  1 <1>  -0.1440 
 24 C      -11.0600    -7.2620    -0.0030 C.3   1 <1>   0.1200 
 25 C       -7.1790    -8.6730     0.5520 C.ar  1 <1>   0.0830 
 26 C       -9.4360    -9.1300    -0.1140 C.ar  1 <1>  -0.1440 
 27 C      -10.8220    -8.6720    -0.5210 C.3   1 <1>  -0.0170 
 28 O       -6.1910    -7.7870     0.8460 O.3   1 <1>  -0.3630 
 29 C       -6.9490   -10.0430     0.6560 C.ar  1 <1>  -0.1500 
 30 C       -9.1960   -10.4890    -0.0040 C.ar  1 <1>  -0.1500 
 31 C       -5.1050    -8.1360     1.6770 C.3   1 <1>   0.0400 
 32 C       -7.9530   -10.9470     0.3790 C.ar  1 <1>  -0.1500 
 33 H       -1.7240    -4.3400     0.3930 H     1 <1>   0.1500 
 34 H       -0.9810     0.2330     1.3710 H     1 <1>   0.1500 
 35 H       -5.8170    -0.1280     0.6760 H     1 <1>   0.1500 
 36 H       -2.4270     2.1960     1.6840 H     1 <1>   0.1500 
 37 H       -5.1490    -5.0870     0.4820 H     1 <1>   0.0800 
 38 H       -3.6040    -5.7120    -0.0080 H     1 <1>   0.0800 
 39 H       -4.6400    -4.9850    -1.1960 H     1 <1>   0.0800 
 40 H       -5.8100    -3.1190    -1.3680 H     1 <1>   0.0800 
 41 H       -6.0830    -1.4940    -0.9380 H     1 <1>   0.0800 
 42 H       -4.8520     1.9860     1.3450 H     1 <1>   0.1500 
 43 H       -9.8370    -4.2150     0.8080 H     1 <1>   0.0800 
 44 H       -8.6860    -3.9040     2.0780 H     1 <1>   0.0800 
 45 H       -7.4200    -4.1320    -1.9690 H     1 <1>   0.0800 
 46 H       -9.0820    -4.3570    -1.5450 H     1 <1>   0.0800 
 47 H       -9.2910    -6.2950     2.0410 H     1 <1>   0.0800 
 48 H       -7.6200    -6.0300     1.7300 H     1 <1>   0.0800 
 49 H       -6.8080    -6.2120    -0.8800 H     1 <1>   0.0800 
 50 H       -8.0490    -6.5260    -2.0320 H     1 <1>   0.0800 
 51 H      -11.9940    -6.8760    -0.3710 H     1 <1>   0.0800 
 52 H      -11.0630    -7.2350     1.0720 H     1 <1>   0.0800 
 53 H      -10.9100    -8.6820    -1.5930 H     1 <1>   0.0800 
 54 H      -11.5680    -9.3280    -0.1120 H     1 <1>   0.0800 
 55 H       -5.9900   -10.4270     0.9460 H     1 <1>   0.1500 
 56 H       -9.9780   -11.1980    -0.2160 H     1 <1>   0.1500 
 57 H       -4.5830    -7.2350     1.9430 H     1 <1>   0.0800 
 58 H       -4.4470    -8.7930     1.1370 H     1 <1>   0.0800 
 59 H       -5.4830    -8.6120     2.5650 H     1 <1>   0.0800 
 60 H       -7.7690   -12.0040     0.4590 H     1 <1>   0.1500 
@<TRIPOS>BOND
  1   1   2  2   
  2   2   3  1   
  3   2   4  1   
  4   3   5  ar  
  5   3   6  ar  
  6   4   7  2   
  7   4  33  1   
  8   5   8  1   
  9   5   9  ar  
 10   6  10  ar  
 11   6  34  1   
 12   7   8  1   
 13   7  11  1   
 14   8  12  1   
 15   9  13  ar  
 16   9  35  1   
 17  10  13  ar  
 18  10  36  1   
 19  11  37  1   
 20  11  38  1   
 21  11  39  1   
 22  12  14  1   
 23  12  40  1   
 24  12  41  1   
 25  13  42  1   
 26  14  15  2   
 27  14  16  am  
 28  16  17  1   
 29  16  18  1   
 30  17  19  1   
 31  17  43  1   
 32  17  44  1   
 33  18  20  1   
 34  18  45  1   
 35  18  46  1   
 36  19  21  1   
 37  19  47  1   
 38  19  48  1   
 39  20  21  1   
 40  20  49  1   
 41  20  50  1   
 42  21  22  1   
 43  21  23  1   
 44  22  24  1   
 45  23  25  ar  
 46  23  26  ar  
 47  24  27  1   
 48  24  51  1   
 49  24  52  1   
 50  25  28  1   
 51  25  29  ar  
 52  26  27  1   
 53  26  30  ar  
 54  27  53  1   
 55  27  54  1   
 56  28  31  1   
 57  29  32  ar  
 58  29  55  1   
 59  30  32  ar  
 60  30  56  1   
 61  31  57  1   
 62  31  58  1   
 63  31  59  1   
 64  32  60  1   
@<TRIPOS>SUBSTRUCTURE
  1 ****  16 GROUP 4 **** **** 0

# MOE 2024.06 (io_trps.svl 2023.06)
