@<TRIPOS>MOLECULE
NONAME
54 57 1 0 0 
SMALL
USER_CHARGES


@<TRIPOS>ATOM
  1 O        0.2080    -0.4860    -1.7210 O.2   1 <1>  -0.5700 
  2 C       -0.6050     0.3840    -1.5010 C.2   1 <1>   0.5690 
  3 N       -1.7950     0.0950    -0.8870 N.am  1 <1>  -0.6600 
  4 C       -0.2710     1.8180    -1.9420 C.3   1 <1>   0.1710 
  5 C       -2.7830     1.0800    -0.3770 C.3   1 <1>   0.1400 
  6 C       -2.1630    -1.2760    -0.4570 C.3   1 <1>   0.1400 
  7 N       -0.0050     2.7790    -0.8360 N.3   1 <1>  -0.8100 
  8 C       -3.4850     0.3470     0.7650 C.3   1 <1>   0.2000 
  9 C       -3.4820    -1.1170     0.3100 C.3   1 <1>  -0.0800 
 10 C        1.1970     2.3690    -0.0640 C.3   1 <1>   0.1100 
 11 C        0.1880     4.1470    -1.3710 C.3   1 <1>   0.1100 
 12 O       -2.7030     0.4780     1.9030 O.3   1 <1>  -0.6800 
 13 C       -3.6800    -2.1570     1.4280 C.3   1 <1>  -0.0170 
 14 C        1.5440     3.3600     1.0640 C.3   1 <1>   0.2090 
 15 C        0.4920     5.1700    -0.2610 C.3   1 <1>   0.2090 
 16 C       -3.7360    -3.5650     0.8550 C.ar  1 <1>  -0.1440 
 17 N        1.6920     4.7460     0.5220 N.pl3 1 <1>  -0.8380 
 18 C       -4.8980    -4.0850     0.3210 C.ar  1 <1>  -0.1500 
 19 C       -2.6320    -4.3930     0.8350 C.ar  1 <1>  -0.1500 
 20 C        2.9020     5.4080     0.4730 C.ar  1 <1>   0.7200 
 21 C       -4.8980    -5.3700    -0.1960 C.ar  1 <1>   0.1600 
 22 C       -2.7390    -5.6630     0.2930 C.ar  1 <1>   0.1600 
 23 N        3.0030     6.4370    -0.3690 N.ar  1 <1>  -0.6200 
 24 N        3.8720     4.9610     1.2710 N.ar  1 <1>  -0.6200 
 25 N       -3.8460    -6.1710    -0.2240 N.ar  1 <1>  -0.6200 
 26 C        4.1570     7.0580    -0.3990 C.ar  1 <1>   0.1600 
 27 C        5.0140     5.6000     1.2210 C.ar  1 <1>   0.1600 
 28 C        5.2130     6.6740     0.3890 C.ar  1 <1>  -0.1500 
 29 H       -1.0990     2.1760    -2.5240 H     1 <1>   0.0800 
 30 H        0.5870     1.7760    -2.5900 H     1 <1>   0.0800 
 31 H       -2.3200     1.9890    -0.0340 H     1 <1>   0.0800 
 32 H       -3.4870     1.3050    -1.1580 H     1 <1>   0.0800 
 33 H       -2.2760    -1.9260    -1.3080 H     1 <1>   0.0800 
 34 H       -1.3870    -1.6600     0.1830 H     1 <1>   0.0800 
 35 H       -4.4680     0.7290     0.9780 H     1 <1>   0.0800 
 36 H       -4.2780    -1.2350    -0.4040 H     1 <1>   0.0800 
 37 H        1.0310     1.4000     0.3730 H     1 <1>   0.0800 
 38 H        2.0460     2.2940    -0.7230 H     1 <1>   0.0800 
 39 H        1.0060     4.1560    -2.0730 H     1 <1>   0.0800 
 40 H       -0.7020     4.4570    -1.8890 H     1 <1>   0.0800 
 41 H       -1.7660     0.3590     1.6460 H     1 <1>   0.4000 
 42 H       -4.5960    -1.9480     1.9520 H     1 <1>   0.0800 
 43 H       -2.8800    -2.0950     2.1450 H     1 <1>   0.0800 
 44 H        2.4430     3.0290     1.5530 H     1 <1>   0.0800 
 45 H        0.7560     3.3520     1.7950 H     1 <1>   0.0800 
 46 H       -0.3540     5.2300     0.4020 H     1 <1>   0.0800 
 47 H        0.6270     6.1430    -0.6970 H     1 <1>   0.0800 
 48 H       -5.8010    -3.5040     0.3010 H     1 <1>   0.1500 
 49 H       -1.6900    -4.0660     1.2350 H     1 <1>   0.1500 
 50 H       -5.8130    -5.7600    -0.6090 H     1 <1>   0.1500 
 51 H       -1.8670    -6.2950     0.2850 H     1 <1>   0.1500 
 52 H        4.2620     7.8950    -1.0690 H     1 <1>   0.1500 
 53 H        5.8110     5.2590     1.8590 H     1 <1>   0.1500 
 54 H        6.1530     7.1900     0.3560 H     1 <1>   0.1500 
@<TRIPOS>BOND
  1   1   2  2   
  2   2   3  am  
  3   2   4  1   
  4   3   5  1   
  5   3   6  1   
  6   4   7  1   
  7   4  29  1   
  8   4  30  1   
  9   5   8  1   
 10   5  31  1   
 11   5  32  1   
 12   6   9  1   
 13   6  33  1   
 14   6  34  1   
 15   7  10  1   
 16   7  11  1   
 17   8   9  1   
 18   8  12  1   
 19   8  35  1   
 20   9  13  1   
 21   9  36  1   
 22  10  14  1   
 23  10  37  1   
 24  10  38  1   
 25  11  15  1   
 26  11  39  1   
 27  11  40  1   
 28  12  41  1   
 29  13  16  1   
 30  13  42  1   
 31  13  43  1   
 32  14  17  1   
 33  14  44  1   
 34  14  45  1   
 35  15  17  1   
 36  15  46  1   
 37  15  47  1   
 38  16  18  ar  
 39  16  19  ar  
 40  17  20  1   
 41  18  21  ar  
 42  18  48  1   
 43  19  22  ar  
 44  19  49  1   
 45  20  23  ar  
 46  20  24  ar  
 47  21  25  ar  
 48  21  50  1   
 49  22  25  ar  
 50  22  51  1   
 51  23  26  ar  
 52  24  27  ar  
 53  26  28  ar  
 54  26  52  1   
 55  27  28  ar  
 56  27  53  1   
 57  28  54  1   
@<TRIPOS>SUBSTRUCTURE
  1 ****   2 GROUP 4 **** **** 0

# MOE 2024.06 (io_trps.svl 2023.06)
