@<TRIPOS>MOLECULE
NONAME
50 51 1 0 0 
SMALL
USER_CHARGES


@<TRIPOS>ATOM
  1 O       -1.0980     1.5490    -0.2570 O.2   1 <1>  -0.5700 
  2 C       -0.4990     0.6050    -0.7170 C.2   1 <1>   0.5690 
  3 N        0.5570     0.7530    -1.5510 N.am  1 <1>  -0.7300 
  4 C       -0.9080    -0.8190    -0.3250 C.3   1 <1>   0.1710 
  5 C        1.2720     2.0160    -1.7830 C.3   1 <1>   0.2840 
  6 N        0.2200    -1.8060    -0.3050 N.3   1 <1>  -0.8100 
  7 C        2.5040     2.0130    -0.8960 C.ar  1 <1>  -0.1430 
  8 C       -0.3070    -3.1770    -0.1780 C.3   1 <1>   0.1100 
  9 C        1.1620    -1.4840     0.7860 C.3   1 <1>   0.0300 
 10 C        3.7380     1.6170    -1.3890 C.ar  1 <1>  -0.1500 
 11 C        2.3940     2.3920     0.4330 C.ar  1 <1>  -0.1500 
 12 C        0.7340    -4.2130    -0.6100 C.3   1 <1>   0.0960 
 13 C        4.8460     1.6030    -0.5610 C.ar  1 <1>  -0.1500 
 14 C        3.5040     2.3800     1.2570 C.ar  1 <1>  -0.1500 
 15 N        0.1560    -5.5660    -0.5110 N.pl3 1 <1>   0.0480 
 16 C        4.7430     1.9920     0.7700 C.ar  1 <1>   0.1170 
 17 C        0.1490    -6.4150     0.5480 C.2   1 <1>   0.0060 
 18 C       -0.5170    -6.2190    -1.4760 C.2   1 <1>  -0.3020 
 19 N        5.8490     1.9820     1.6250 N.am  1 <1>  -0.5470 
 20 N       -0.4680    -7.5270     0.3170 N.2   1 <1>  -0.5650 
 21 C        0.7980    -6.1030     1.8810 C.3   1 <1>  -0.0600 
 22 C       -0.8870    -7.4070    -0.9550 C.2   1 <1>   0.0770 
 23 C        7.0900     2.5110     1.4790 C.2   1 <1>   0.5690 
 24 O        7.9110     2.3580     2.3450 O.2   1 <1>  -0.5700 
 25 C        7.4620     3.3140     0.2550 C.3   1 <1>  -0.1790 
 26 H        1.0890    -0.1020    -1.7360 H     1 <1>   0.3700 
 27 H       -1.6460    -1.1350    -1.0400 H     1 <1>   0.0800 
 28 H       -1.3790    -0.7850     0.6410 H     1 <1>   0.0800 
 29 H        0.6390     2.8530    -1.5380 H     1 <1>   0.0800 
 30 H        1.5470     2.0900    -2.8210 H     1 <1>   0.0800 
 31 H       -1.1650    -3.2890    -0.8210 H     1 <1>   0.0800 
 32 H       -0.6190    -3.3600     0.8370 H     1 <1>   0.0800 
 33 H        1.5390    -0.4810     0.6760 H     1 <1>   0.0800 
 34 H        2.0060    -2.1500     0.7670 H     1 <1>   0.0800 
 35 H        0.6740    -1.5630     1.7430 H     1 <1>   0.0800 
 36 H        3.8390     1.3130    -2.4170 H     1 <1>   0.1500 
 37 H        1.4360     2.6930     0.8250 H     1 <1>   0.1500 
 38 H        1.6050    -4.1640     0.0140 H     1 <1>   0.0800 
 39 H        1.0220    -4.0340    -1.6300 H     1 <1>   0.0800 
 40 H        5.7950     1.2810    -0.9490 H     1 <1>   0.1500 
 41 H        3.4060     2.6800     2.2850 H     1 <1>   0.1500 
 42 H       -0.6920    -5.8160    -2.4560 H     1 <1>   0.1500 
 43 H        5.7090     1.5710     2.5480 H     1 <1>   0.3700 
 44 H        0.3610    -5.2210     2.3100 H     1 <1>   0.0800 
 45 H        1.8540    -5.9580     1.7530 H     1 <1>   0.0800 
 46 H        0.6450    -6.9260     2.5580 H     1 <1>   0.0800 
 47 H       -1.4410    -8.1970    -1.4350 H     1 <1>   0.1500 
 48 H        6.6290     3.9100    -0.0690 H     1 <1>   0.0800 
 49 H        7.7640     2.6520    -0.5340 H     1 <1>   0.0800 
 50 H        8.2820     3.9670     0.4910 H     1 <1>   0.0800 
@<TRIPOS>BOND
  1   1   2  2   
  2   2   3  am  
  3   2   4  1   
  4   3   5  1   
  5   3  26  1   
  6   4   6  1   
  7   4  27  1   
  8   4  28  1   
  9   5   7  1   
 10   5  29  1   
 11   5  30  1   
 12   6   8  1   
 13   6   9  1   
 14   7  10  ar  
 15   7  11  ar  
 16   8  12  1   
 17   8  31  1   
 18   8  32  1   
 19   9  33  1   
 20   9  34  1   
 21   9  35  1   
 22  10  13  ar  
 23  10  36  1   
 24  11  14  ar  
 25  11  37  1   
 26  12  15  1   
 27  12  38  1   
 28  12  39  1   
 29  13  16  ar  
 30  13  40  1   
 31  14  16  ar  
 32  14  41  1   
 33  15  17  1   
 34  15  18  1   
 35  16  19  1   
 36  17  20  2   
 37  17  21  1   
 38  18  22  2   
 39  18  42  1   
 40  19  23  am  
 41  19  43  1   
 42  20  22  1   
 43  21  44  1   
 44  21  45  1   
 45  21  46  1   
 46  22  47  1   
 47  23  24  2   
 48  23  25  1   
 49  25  48  1   
 50  25  49  1   
 51  25  50  1   
@<TRIPOS>SUBSTRUCTURE
  1 ****   9 GROUP 4 **** **** 0

# MOE 2024.06 (io_trps.svl 2023.06)
