@<TRIPOS>MOLECULE
NONAME
60 61 1 0 0 
SMALL
USER_CHARGES


@<TRIPOS>ATOM
  1 O        2.8440    -1.2320    -2.2080 O.2   1 <1>  -0.5700 
  2 C        1.6930    -1.0450    -1.8910 C.2   1 <1>   0.5690 
  3 N        1.2230     0.0970    -1.3110 N.am  1 <1>  -0.5470 
  4 C        0.6620    -2.1470    -2.1370 C.3   1 <1>   0.1710 
  5 C        1.8220     1.3310    -1.0070 C.ar  1 <1>   0.1170 
  6 N       -0.2890    -2.3130    -1.0010 N.3   1 <1>  -0.8100 
  7 C        1.6870     1.8730     0.2830 C.ar  1 <1>  -0.1430 
  8 C        2.5190     2.0560    -1.9840 C.ar  1 <1>  -0.1430 
  9 C       -1.6030    -2.8220    -1.4370 C.3   1 <1>   0.1100 
 10 C        0.2990    -3.1490     0.0550 C.3   1 <1>   0.1100 
 11 C        2.2770     3.0960     0.5670 C.ar  1 <1>  -0.1500 
 12 C        0.9320     1.1990     1.4430 C.3   1 <1>   0.0630 
 13 C        3.0990     3.2710    -1.6650 C.ar  1 <1>  -0.1500 
 14 C        2.6640     1.5800    -3.4260 C.3   1 <1>  -0.0970 
 15 C       -2.5830    -2.8570    -0.2500 C.3   1 <1>   0.2000 
 16 C       -0.6240    -3.1490     1.2790 C.3   1 <1>  -0.1600 
 17 C        2.9820     3.7920    -0.3940 C.ar  1 <1>  -0.1500 
 18 C        1.6670    -0.0490     1.9380 C.3   1 <1>  -0.2400 
 19 C       -0.5470     0.9150     1.1430 C.3   1 <1>  -0.2400 
 20 O       -3.8120    -3.3390    -0.6900 O.3   1 <1>  -0.6800 
 21 C       -2.0480    -3.6800     0.9590 C.3   1 <1>   0.0000 
 22 C       -1.9830    -5.1860     0.5730 C.3   1 <1>   0.1200 
 23 C       -2.9740    -3.5360     2.2030 C.3   1 <1>  -0.1600 
 24 O       -1.4230    -5.9570     1.5830 O.3   1 <1>  -0.6800 
 25 C       -3.2660    -2.1050     2.6940 C.3   1 <1>  -0.1600 
 26 C       -4.1570    -2.1330     3.9400 C.3   1 <1>  -0.2400 
 27 H        0.3080    -0.0490    -0.8830 H     1 <1>   0.3700 
 28 H        1.1710    -3.0730    -2.3390 H     1 <1>   0.0800 
 29 H        0.1200    -1.8700    -3.0230 H     1 <1>   0.0800 
 30 H       -2.0050    -2.1600    -2.1860 H     1 <1>   0.0800 
 31 H       -1.4900    -3.8010    -1.8680 H     1 <1>   0.0800 
 32 H        0.4530    -4.1520    -0.3070 H     1 <1>   0.0800 
 33 H        1.2610    -2.7560     0.3370 H     1 <1>   0.0800 
 34 H        2.1980     3.5280     1.5490 H     1 <1>   0.1500 
 35 H        0.9270     1.8870     2.2710 H     1 <1>   0.0800 
 36 H        3.6460     3.8240    -2.4080 H     1 <1>   0.1500 
 37 H        2.8480     2.4090    -4.0850 H     1 <1>   0.0800 
 38 H        1.7690     1.0890    -3.7580 H     1 <1>   0.0800 
 39 H        3.4910     0.8970    -3.5010 H     1 <1>   0.0800 
 40 H       -2.7430    -1.8370     0.0480 H     1 <1>   0.0800 
 41 H       -0.1730    -3.7210     2.0680 H     1 <1>   0.0800 
 42 H       -0.6780    -2.1360     1.6290 H     1 <1>   0.0800 
 43 H        3.4370     4.7360    -0.1540 H     1 <1>   0.1500 
 44 H        1.7440    -0.7810     1.1590 H     1 <1>   0.0800 
 45 H        1.1530    -0.4820     2.7770 H     1 <1>   0.0800 
 46 H        2.6630     0.2160     2.2450 H     1 <1>   0.0800 
 47 H       -0.6760     0.0650     0.5030 H     1 <1>   0.0800 
 48 H       -0.9980     1.7740     0.6800 H     1 <1>   0.0800 
 49 H       -1.0700     0.7130     2.0610 H     1 <1>   0.0800 
 50 H       -3.7640    -4.2900    -0.8950 H     1 <1>   0.4000 
 51 H       -1.3990    -5.3460    -0.3140 H     1 <1>   0.0800 
 52 H       -2.9730    -5.5730     0.4010 H     1 <1>   0.0800 
 53 H       -3.9170    -4.0050     1.9790 H     1 <1>   0.0800 
 54 H       -2.5420    -4.0880     3.0200 H     1 <1>   0.0800 
 55 H       -0.5500    -5.6050     1.8420 H     1 <1>   0.4000 
 56 H       -2.3550    -1.5920     2.9410 H     1 <1>   0.0800 
 57 H       -3.7760    -1.5450     1.9300 H     1 <1>   0.0800 
 58 H       -3.6720    -2.6650     4.7390 H     1 <1>   0.0800 
 59 H       -5.0930    -2.6160     3.7200 H     1 <1>   0.0800 
 60 H       -4.3600    -1.1300     4.2710 H     1 <1>   0.0800 
@<TRIPOS>BOND
  1   1   2  2   
  2   2   3  am  
  3   2   4  1   
  4   3   5  1   
  5   3  27  1   
  6   4   6  1   
  7   4  28  1   
  8   4  29  1   
  9   5   7  ar  
 10   5   8  ar  
 11   6   9  1   
 12   6  10  1   
 13   7  11  ar  
 14   7  12  1   
 15   8  13  ar  
 16   8  14  1   
 17   9  15  1   
 18   9  30  1   
 19   9  31  1   
 20  10  16  1   
 21  10  32  1   
 22  10  33  1   
 23  11  17  ar  
 24  11  34  1   
 25  12  18  1   
 26  12  19  1   
 27  12  35  1   
 28  13  17  ar  
 29  13  36  1   
 30  14  37  1   
 31  14  38  1   
 32  14  39  1   
 33  15  20  1   
 34  15  21  1   
 35  15  40  1   
 36  16  21  1   
 37  16  41  1   
 38  16  42  1   
 39  17  43  1   
 40  18  44  1   
 41  18  45  1   
 42  18  46  1   
 43  19  47  1   
 44  19  48  1   
 45  19  49  1   
 46  20  50  1   
 47  21  22  1   
 48  21  23  1   
 49  22  24  1   
 50  22  51  1   
 51  22  52  1   
 52  23  25  1   
 53  23  53  1   
 54  23  54  1   
 55  24  55  1   
 56  25  26  1   
 57  25  56  1   
 58  25  57  1   
 59  26  58  1   
 60  26  59  1   
 61  26  60  1   
@<TRIPOS>SUBSTRUCTURE
  1 ****   6 GROUP 4 **** **** 0

# MOE 2024.06 (io_trps.svl 2023.06)
