@<TRIPOS>MOLECULE
NONAME
59 61 1 0 0 
SMALL
USER_CHARGES


@<TRIPOS>ATOM
  1 O        0.1280     1.4730    -2.1920 O.2   1 <1>  -0.5700 
  2 C       -0.1170     2.6040    -1.8590 C.2   1 <1>   0.5690 
  3 N       -0.6930     2.8680    -0.6680 N.am  1 <1>  -0.7300 
  4 C        0.1900     3.7690    -2.7970 C.3   1 <1>   0.1810 
  5 C       -1.1350     4.2190    -0.2420 C.3   1 <1>   0.3640 
  6 O        0.3430     4.9860    -2.0970 O.3   1 <1>  -0.5600 
  7 C       -2.6440     4.1700    -0.0090 C.ar  1 <1>  -0.1440 
  8 C       -0.7640     5.3360    -1.2630 C.3   1 <1>   0.2610 
  9 C       -3.4980     3.5540    -0.9170 C.ar  1 <1>  -0.1500 
 10 C       -3.1870     4.7560     1.1270 C.ar  1 <1>  -0.1500 
 11 C       -0.4480     6.6440    -0.5260 C.2   1 <1>   0.5690 
 12 C       -4.8630     3.5230    -0.6920 C.ar  1 <1>  -0.1500 
 13 C       -4.5520     4.7260     1.3530 C.ar  1 <1>  -0.1500 
 14 O       -1.2070     7.0580     0.3150 O.2   1 <1>  -0.5700 
 15 N        0.7070     7.2970    -0.8540 N.am  1 <1>  -0.7300 
 16 C       -5.3910     4.1090     0.4440 C.ar  1 <1>  -0.1500 
 17 C        1.2680     8.5750    -0.3510 C.3   1 <1>   0.3000 
 18 C        2.6190     8.7990    -1.1160 C.3   1 <1>   0.3430 
 19 C        0.2540     9.6840    -0.6730 C.3   1 <1>  -0.2400 
 20 C        1.4500     8.4490     1.1680 C.3   1 <1>  -0.2400 
 21 N        3.6610     9.7840    -0.6140 N.4   1 <1>  -0.9590 
 22 C        4.4450     9.2250     0.5280 C.3   1 <1>   0.3430 
 23 C        3.1260    11.1580    -0.3880 C.3   1 <1>   0.3430 
 24 C        5.7180    10.0260     0.8090 C.3   1 <1>  -0.1600 
 25 C        4.2110    12.1960    -0.6750 C.3   1 <1>  -0.1600 
 26 C        5.4370    11.3770     1.4820 C.3   1 <1>  -0.1600 
 27 C        5.1380    12.5230     0.5070 C.3   1 <1>  -0.1600 
 28 H       -0.9690     2.0830    -0.0750 H     1 <1>   0.3700 
 29 H       -0.6050     3.8780    -3.5110 H     1 <1>   0.0800 
 30 H        1.1070     3.5710    -3.3220 H     1 <1>   0.0800 
 31 H       -0.6480     4.4380     0.6940 H     1 <1>   0.0800 
 32 H       -1.6060     5.5170    -1.9070 H     1 <1>   0.0800 
 33 H       -3.1090     3.0880    -1.8060 H     1 <1>   0.1500 
 34 H       -2.5520     5.2490     1.8440 H     1 <1>   0.1500 
 35 H       -5.5150     3.0420    -1.4000 H     1 <1>   0.1500 
 36 H       -4.9600     5.1860     2.2360 H     1 <1>   0.1500 
 37 H        1.2420     6.8040    -1.5780 H     1 <1>   0.3700 
 38 H       -6.4530     4.0860     0.6190 H     1 <1>   0.1500 
 39 H        2.3560     9.0820    -2.1220 H     1 <1>   0.0800 
 40 H        3.0970     7.8370    -1.1820 H     1 <1>   0.0800 
 41 H        0.5470    10.6250    -0.2510 H     1 <1>   0.0800 
 42 H       -0.7090     9.4530    -0.2530 H     1 <1>   0.0800 
 43 H        0.1380     9.8000    -1.7360 H     1 <1>   0.0800 
 44 H        1.8230     9.3640     1.5860 H     1 <1>   0.0800 
 45 H        2.1240     7.6460     1.4070 H     1 <1>   0.0800 
 46 H        0.5100     8.2560     1.6520 H     1 <1>   0.0800 
 47 H        4.3450     9.8900    -1.3740 H     1 <1>   0.4500 
 48 H        3.8460     9.2030     1.4210 H     1 <1>   0.0800 
 49 H        4.7290     8.2110     0.2970 H     1 <1>   0.0800 
 50 H        2.3180    11.3350    -1.0790 H     1 <1>   0.0800 
 51 H        2.7470    11.2680     0.6150 H     1 <1>   0.0800 
 52 H        6.3050     9.4420     1.4960 H     1 <1>   0.0800 
 53 H        6.3110    10.1460    -0.0810 H     1 <1>   0.0800 
 54 H        4.7950    11.8870    -1.5250 H     1 <1>   0.0800 
 55 H        3.7240    13.1120    -0.9610 H     1 <1>   0.0800 
 56 H        4.6250    11.2720     2.1830 H     1 <1>   0.0800 
 57 H        6.3030    11.6600     2.0590 H     1 <1>   0.0800 
 58 H        6.0690    12.8950     0.1100 H     1 <1>   0.0800 
 59 H        4.7060    13.3310     1.0750 H     1 <1>   0.0800 
@<TRIPOS>BOND
  1   1   2  2   
  2   2   3  am  
  3   2   4  1   
  4   3   5  1   
  5   3  28  1   
  6   4   6  1   
  7   4  29  1   
  8   4  30  1   
  9   5   7  1   
 10   5   8  1   
 11   5  31  1   
 12   6   8  1   
 13   7   9  ar  
 14   7  10  ar  
 15   8  11  1   
 16   8  32  1   
 17   9  12  ar  
 18   9  33  1   
 19  10  13  ar  
 20  10  34  1   
 21  11  14  2   
 22  11  15  am  
 23  12  16  ar  
 24  12  35  1   
 25  13  16  ar  
 26  13  36  1   
 27  15  17  1   
 28  15  37  1   
 29  16  38  1   
 30  17  18  1   
 31  17  19  1   
 32  17  20  1   
 33  18  21  1   
 34  18  39  1   
 35  18  40  1   
 36  19  41  1   
 37  19  42  1   
 38  19  43  1   
 39  20  44  1   
 40  20  45  1   
 41  20  46  1   
 42  21  22  1   
 43  21  23  1   
 44  21  47  1   
 45  22  24  1   
 46  22  48  1   
 47  22  49  1   
 48  23  25  1   
 49  23  50  1   
 50  23  51  1   
 51  24  26  1   
 52  24  52  1   
 53  24  53  1   
 54  25  27  1   
 55  25  54  1   
 56  25  55  1   
 57  26  27  1   
 58  26  56  1   
 59  26  57  1   
 60  27  58  1   
 61  27  59  1   
@<TRIPOS>SUBSTRUCTURE
  1 ****  15 GROUP 4 **** **** 0

# MOE 2024.06 (io_trps.svl 2023.06)
