@<TRIPOS>MOLECULE
NONAME
49 52 1 0 0 
SMALL
USER_CHARGES


@<TRIPOS>ATOM
  1 F       -5.5670     2.9340    -2.0830 F     1 <1>  -0.1900 
  2 C       -5.6460     2.0980    -1.0830 C.ar  1 <1>   0.1900 
  3 C       -5.7250     0.7450    -1.3520 C.ar  1 <1>  -0.1500 
  4 C       -5.6540     2.6000     0.2040 C.ar  1 <1>  -0.1500 
  5 C       -5.8210    -0.1430    -0.2910 C.ar  1 <1>  -0.1440 
  6 C       -5.7480     1.7090     1.2590 C.ar  1 <1>  -0.1500 
  7 C       -5.8330     0.3470     1.0090 C.ar  1 <1>  -0.1500 
  8 C       -5.9390    -1.6370    -0.5400 C.3   1 <1>   0.2840 
  9 N       -7.3610    -1.9280    -0.7730 N.am  1 <1>  -0.7300 
 10 C       -8.1650    -2.5510     0.1170 C.2   1 <1>   0.6900 
 11 O       -7.6740    -3.2640     0.9720 O.2   1 <1>  -0.5700 
 12 N       -9.5190    -2.3460     0.0590 N.am  1 <1>  -0.6600 
 13 C      -10.1620    -1.2440    -0.7220 C.3   1 <1>   0.1400 
 14 C      -10.4230    -3.0480     1.0220 C.3   1 <1>   0.1400 
 15 C      -10.7110    -0.1570     0.2280 C.3   1 <1>   0.1440 
 16 C      -11.7400    -2.2830     1.2510 C.3   1 <1>  -0.1600 
 17 C      -11.5530     0.7840    -0.6170 C.ar  1 <1>   0.1670 
 18 C      -11.4870    -0.7750     1.4250 C.3   1 <1>  -0.1600 
 19 C       -9.5780     0.7850     0.7160 C.3   1 <1>  -0.1600 
 20 N      -12.7630     0.5340    -1.0670 N.ar  1 <1>  -0.6200 
 21 C      -10.8870     1.9420    -0.8920 C.ar  1 <1>  -0.1430 
 22 C       -9.5120     1.9600    -0.2730 C.3   1 <1>  -0.0170 
 23 C      -13.2890     1.5090    -1.7960 C.ar  1 <1>   0.4770 
 24 C      -11.5260     2.8830    -1.6600 C.ar  1 <1>   0.1600 
 25 N      -12.7410     2.6720    -2.1220 N.ar  1 <1>  -0.6200 
 26 C      -14.6820     1.2710    -2.3260 C.3   1 <1>  -0.0970 
 27 H       -5.7130     0.4040    -2.3720 H     1 <1>   0.1500 
 28 H       -5.5870     3.6600     0.3720 H     1 <1>   0.1500 
 29 H       -5.7560     2.0700     2.2730 H     1 <1>   0.1500 
 30 H       -5.9140    -0.3390     1.8370 H     1 <1>   0.1500 
 31 H       -5.5720    -2.1910     0.3080 H     1 <1>   0.0800 
 32 H       -5.3670    -1.9230    -1.4050 H     1 <1>   0.0800 
 33 H       -7.8090    -1.3350    -1.4610 H     1 <1>   0.3700 
 34 H      -10.9750    -1.6620    -1.2920 H     1 <1>   0.0800 
 35 H       -9.4830    -0.8000    -1.4240 H     1 <1>   0.0800 
 36 H       -9.9160    -3.1500     1.9660 H     1 <1>   0.0800 
 37 H      -10.6320    -4.0380     0.6520 H     1 <1>   0.0800 
 38 H      -12.2280    -2.6750     2.1250 H     1 <1>   0.0800 
 39 H      -12.4000    -2.4460     0.4160 H     1 <1>   0.0800 
 40 H      -12.4240    -0.2630     1.5620 H     1 <1>   0.0800 
 41 H      -10.9190    -0.6510     2.3300 H     1 <1>   0.0800 
 42 H       -8.6350     0.2790     0.8070 H     1 <1>   0.0800 
 43 H       -9.8360     1.1900     1.6790 H     1 <1>   0.0800 
 44 H       -8.7670     1.7820    -1.0290 H     1 <1>   0.0800 
 45 H       -9.3070     2.8900     0.2300 H     1 <1>   0.0800 
 46 H      -11.0410     3.8130    -1.9020 H     1 <1>   0.1500 
 47 H      -15.0400     0.3030    -2.0300 H     1 <1>   0.0800 
 48 H      -14.6700     1.3280    -3.3980 H     1 <1>   0.0800 
 49 H      -15.3430     2.0240    -1.9400 H     1 <1>   0.0800 
@<TRIPOS>BOND
  1   1   2  1   
  2   2   3  ar  
  3   2   4  ar  
  4   3   5  ar  
  5   3  27  1   
  6   4   6  ar  
  7   4  28  1   
  8   5   7  ar  
  9   5   8  1   
 10   6   7  ar  
 11   6  29  1   
 12   7  30  1   
 13   8   9  1   
 14   8  31  1   
 15   8  32  1   
 16   9  10  am  
 17   9  33  1   
 18  10  11  2   
 19  10  12  am  
 20  12  13  1   
 21  12  14  1   
 22  13  15  1   
 23  13  34  1   
 24  13  35  1   
 25  14  16  1   
 26  14  36  1   
 27  14  37  1   
 28  15  17  1   
 29  15  18  1   
 30  15  19  1   
 31  16  18  1   
 32  16  38  1   
 33  16  39  1   
 34  17  20  ar  
 35  17  21  ar  
 36  18  40  1   
 37  18  41  1   
 38  19  22  1   
 39  19  42  1   
 40  19  43  1   
 41  20  23  ar  
 42  21  22  1   
 43  21  24  ar  
 44  22  44  1   
 45  22  45  1   
 46  23  25  ar  
 47  23  26  1   
 48  24  25  ar  
 49  24  46  1   
 50  26  47  1   
 51  26  48  1   
 52  26  49  1   
@<TRIPOS>SUBSTRUCTURE
  1 ****  19 GROUP 4 **** **** 0

# MOE 2024.06 (io_trps.svl 2023.06)
