@<TRIPOS>MOLECULE
NONAME
44 46 1 0 0 
SMALL
USER_CHARGES


@<TRIPOS>ATOM
  1 O       -3.0800     1.5650    -2.0640 O.2   1 <1>  -0.5700 
  2 C       -2.6990     1.5780    -0.9210 C.2   1 <1>   0.5690 
  3 N       -2.5280     0.4430    -0.2030 N.am  1 <1>  -0.7300 
  4 C       -2.3890     2.9070    -0.2640 C.3   1 <1>  -0.0990 
  5 C       -2.7300    -0.9260    -0.7260 C.3   1 <1>   0.2200 
  6 C       -0.8750     3.1660    -0.2030 C.3   1 <1>  -0.1600 
  7 C       -3.9450    -1.5430    -0.0550 C.3   1 <1>  -0.0800 
  8 C       -1.6090    -1.8270    -0.2250 C.3   1 <1>   0.1200 
  9 C       -0.5620     4.5460     0.3930 C.3   1 <1>   0.0960 
 10 C       -3.3560    -2.0950     1.2500 C.3   1 <1>   0.1200 
 11 C       -4.5700    -2.6490    -0.9280 C.3   1 <1>  -0.0160 
 12 O       -1.9720    -2.1980     1.0700 O.3   1 <1>  -0.5600 
 13 N        0.8950     4.7340     0.5260 N.pl3 1 <1>   0.3140 
 14 C       -5.7980    -3.2540    -0.2660 C.ar  1 <1>  -0.1440 
 15 N        1.5680     4.3630     1.6060 N.2   1 <1>  -0.7070 
 16 C        1.7530     5.2590    -0.3530 C.2   1 <1>   0.0360 
 17 C       -5.7780    -4.5060     0.3170 C.ar  1 <1>  -0.1500 
 18 C       -7.0020    -2.5800    -0.2180 C.ar  1 <1>  -0.1500 
 19 C        2.7810     4.6910     1.3020 C.2   1 <1>   0.3660 
 20 N        2.9550     5.2520     0.0980 N.2   1 <1>  -0.5650 
 21 C       -6.9270    -5.0040     0.9080 C.ar  1 <1>   0.1600 
 22 C       -8.0930    -3.1690     0.3990 C.ar  1 <1>   0.1600 
 23 N       -8.0840    -4.3650     0.9650 N.ar  1 <1>  -0.6200 
 24 H       -2.1860     0.4750     0.7590 H     1 <1>   0.3700 
 25 H       -2.8690     3.6830    -0.8330 H     1 <1>   0.0800 
 26 H       -2.8080     2.9130     0.7260 H     1 <1>   0.0800 
 27 H       -2.7950    -0.9130    -1.8020 H     1 <1>   0.0800 
 28 H       -0.4670     3.1050    -1.1980 H     1 <1>   0.0800 
 29 H       -0.4090     2.4060     0.4020 H     1 <1>   0.0800 
 30 H       -4.6960    -0.8000     0.1460 H     1 <1>   0.0800 
 31 H       -0.6530    -1.3330    -0.2070 H     1 <1>   0.0800 
 32 H       -1.5450    -2.7230    -0.8170 H     1 <1>   0.0800 
 33 H       -0.9980     4.6350     1.3720 H     1 <1>   0.0800 
 34 H       -0.9560     5.3260    -0.2330 H     1 <1>   0.0800 
 35 H       -3.7440    -3.0630     1.5130 H     1 <1>   0.0800 
 36 H       -3.5260    -1.4120     2.0640 H     1 <1>   0.0800 
 37 H       -3.8480    -3.4230    -1.1240 H     1 <1>   0.0800 
 38 H       -4.8620    -2.2310    -1.8760 H     1 <1>   0.0800 
 39 H        1.4530     5.6340    -1.3140 H     1 <1>   0.1500 
 40 H       -4.8810    -5.0980     0.3190 H     1 <1>   0.1500 
 41 H       -7.1010    -1.6030    -0.6540 H     1 <1>   0.1500 
 42 H        3.6190     4.5330     1.9620 H     1 <1>   0.1500 
 43 H       -6.8920    -5.9820     1.3590 H     1 <1>   0.1500 
 44 H       -9.0230    -2.6280     0.4270 H     1 <1>   0.1500 
@<TRIPOS>BOND
  1   1   2  2   
  2   2   3  am  
  3   2   4  1   
  4   3   5  1   
  5   3  24  1   
  6   4   6  1   
  7   4  25  1   
  8   4  26  1   
  9   5   7  1   
 10   5   8  1   
 11   5  27  1   
 12   6   9  1   
 13   6  28  1   
 14   6  29  1   
 15   7  10  1   
 16   7  11  1   
 17   7  30  1   
 18   8  12  1   
 19   8  31  1   
 20   8  32  1   
 21   9  13  1   
 22   9  33  1   
 23   9  34  1   
 24  10  12  1   
 25  10  35  1   
 26  10  36  1   
 27  11  14  1   
 28  11  37  1   
 29  11  38  1   
 30  13  15  1   
 31  13  16  1   
 32  14  17  ar  
 33  14  18  ar  
 34  15  19  2   
 35  16  20  2   
 36  16  39  1   
 37  17  21  ar  
 38  17  40  1   
 39  18  22  ar  
 40  18  41  1   
 41  19  20  1   
 42  19  42  1   
 43  21  23  ar  
 44  21  43  1   
 45  22  23  ar  
 46  22  44  1   
@<TRIPOS>SUBSTRUCTURE
  1 ****   3 GROUP 4 **** **** 0

# MOE 2024.06 (io_trps.svl 2023.06)
