@<TRIPOS>MOLECULE
NONAME
55 58 1 0 0 
SMALL
USER_CHARGES


@<TRIPOS>ATOM
  1 O       -1.9820     0.9880     2.6430 O.2   1 <1>  -0.5700 
  2 C       -2.5970     1.3140     1.6370 C.2   1 <1>   0.7160 
  3 N       -3.7310     0.5770     1.3230 N.am  1 <1>  -0.6600 
  4 C       -2.0960     2.4330     0.8370 C.2   1 <1>   0.2030 
  5 C       -4.3410     0.5190    -0.0340 C.3   1 <1>   0.1400 
  6 C       -4.4440    -0.2430     2.3400 C.3   1 <1>   0.1400 
  7 N       -2.7660     3.1930    -0.0160 N.2   1 <1>  -0.7070 
  8 C       -0.7670     2.8720     0.9060 C.2   1 <1>  -0.1500 
  9 C       -4.3970    -0.9370    -0.5070 C.3   1 <1>  -0.1600 
 10 C       -4.4740    -1.7030     1.8860 C.3   1 <1>  -0.1600 
 11 N       -1.8880     4.0890    -0.4790 N.pl3 1 <1>   0.3140 
 12 C       -0.6650     3.9160     0.0630 C.2   1 <1>  -0.3320 
 13 C       -5.1140    -1.8520     0.4950 C.3   1 <1>   0.4240 
 14 C       -2.2850     5.1130    -1.4520 C.3   1 <1>   0.0160 
 15 C        0.5560     4.7660    -0.2470 C.3   1 <1>  -0.0600 
 16 O       -6.4350    -1.3650     0.5620 O.3   1 <1>  -0.5600 
 17 C       -5.0720    -3.3190     0.0150 C.ar  1 <1>  -0.1430 
 18 C       -7.4190    -2.2340     1.0290 C.3   1 <1>   0.1200 
 19 C       -6.2380    -4.0390    -0.2120 C.ar  1 <1>  -0.1430 
 20 C       -3.8560    -3.9560    -0.1940 C.ar  1 <1>  -0.1500 
 21 C       -7.5790    -3.3760     0.0300 C.3   1 <1>  -0.0170 
 22 C       -6.1820    -5.3500    -0.6550 C.ar  1 <1>  -0.1500 
 23 C       -3.7800    -5.2700    -0.6230 C.ar  1 <1>   0.0830 
 24 C       -4.9620    -5.9830    -0.8770 C.ar  1 <1>   0.0830 
 25 O       -2.5130    -5.7520    -0.7660 O.3   1 <1>  -0.3630 
 26 O       -4.9030    -7.2640    -1.3470 O.3   1 <1>  -0.3620 
 27 C       -2.2180    -7.1120    -0.5370 C.3   1 <1>   0.0400 
 28 C       -6.0320    -7.9130    -1.8880 C.3   1 <1>   0.0400 
 29 H       -3.7670     1.0830    -0.7450 H     1 <1>   0.0800 
 30 H       -5.3330     0.9360     0.0060 H     1 <1>   0.0800 
 31 H       -5.4490     0.1300     2.4470 H     1 <1>   0.0800 
 32 H       -3.9610    -0.1710     3.2990 H     1 <1>   0.0800 
 33 H       -0.0110     2.4290     1.5310 H     1 <1>   0.1500 
 34 H       -3.3890    -1.2740    -0.6580 H     1 <1>   0.0800 
 35 H       -4.8990    -0.9930    -1.4550 H     1 <1>   0.0800 
 36 H       -5.0020    -2.3010     2.6030 H     1 <1>   0.0800 
 37 H       -3.4630    -2.0630     1.8590 H     1 <1>   0.0800 
 38 H       -3.3290     4.9970    -1.6800 H     1 <1>   0.0800 
 39 H       -1.7050     4.9930    -2.3470 H     1 <1>   0.0800 
 40 H       -2.1160     6.0850    -1.0290 H     1 <1>   0.0800 
 41 H        1.4010     4.4170     0.3200 H     1 <1>   0.0800 
 42 H        0.3700     5.7930     0.0140 H     1 <1>   0.0800 
 43 H        0.7970     4.7050    -1.2930 H     1 <1>   0.0800 
 44 H       -8.3350    -1.6780     1.1160 H     1 <1>   0.0800 
 45 H       -7.1360    -2.6030     1.9990 H     1 <1>   0.0800 
 46 H       -2.9310    -3.4370    -0.0200 H     1 <1>   0.1500 
 47 H       -7.9650    -2.9890    -0.8960 H     1 <1>   0.0800 
 48 H       -8.2830    -4.0890     0.4200 H     1 <1>   0.0800 
 49 H       -7.1070    -5.8670    -0.8220 H     1 <1>   0.1500 
 50 H       -1.1640    -7.1980    -0.3460 H     1 <1>   0.0800 
 51 H       -2.4750    -7.6750    -1.4160 H     1 <1>   0.0800 
 52 H       -2.7770    -7.4550     0.3150 H     1 <1>   0.0800 
 53 H       -5.7110    -8.8510    -2.3030 H     1 <1>   0.0800 
 54 H       -6.4520    -7.2960    -2.6640 H     1 <1>   0.0800 
 55 H       -6.7450    -8.0880    -1.1030 H     1 <1>   0.0800 
@<TRIPOS>BOND
  1   1   2  2   
  2   2   3  am  
  3   2   4  1   
  4   3   5  1   
  5   3   6  1   
  6   4   7  2   
  7   4   8  1   
  8   5   9  1   
  9   5  29  1   
 10   5  30  1   
 11   6  10  1   
 12   6  31  1   
 13   6  32  1   
 14   7  11  1   
 15   8  12  2   
 16   8  33  1   
 17   9  13  1   
 18   9  34  1   
 19   9  35  1   
 20  10  13  1   
 21  10  36  1   
 22  10  37  1   
 23  11  12  1   
 24  11  14  1   
 25  12  15  1   
 26  13  16  1   
 27  13  17  1   
 28  14  38  1   
 29  14  39  1   
 30  14  40  1   
 31  15  41  1   
 32  15  42  1   
 33  15  43  1   
 34  16  18  1   
 35  17  19  ar  
 36  17  20  ar  
 37  18  21  1   
 38  18  44  1   
 39  18  45  1   
 40  19  21  1   
 41  19  22  ar  
 42  20  23  ar  
 43  20  46  1   
 44  21  47  1   
 45  21  48  1   
 46  22  24  ar  
 47  22  49  1   
 48  23  24  ar  
 49  23  25  1   
 50  24  26  1   
 51  25  27  1   
 52  26  28  1   
 53  27  50  1   
 54  27  51  1   
 55  27  52  1   
 56  28  53  1   
 57  28  54  1   
 58  28  55  1   
@<TRIPOS>SUBSTRUCTURE
  1 ****   9 GROUP 4 **** **** 0

# MOE 2024.06 (io_trps.svl 2023.06)
