@<TRIPOS>MOLECULE
NONAME
48 50 1 0 0 
SMALL
USER_CHARGES


@<TRIPOS>ATOM
  1 F       -1.5630    -0.8260    -1.8100 F     1 <1>  -0.1900 
  2 C       -2.4100    -1.3860    -0.9880 C.ar  1 <1>   0.1900 
  3 C       -3.7630    -1.2560    -1.2340 C.ar  1 <1>  -0.1500 
  4 C       -1.9210    -2.0890     0.0950 C.ar  1 <1>  -0.1500 
  5 C       -4.6560    -1.8530    -0.3600 C.ar  1 <1>  -0.1500 
  6 C       -2.8240    -2.6820     0.9620 C.ar  1 <1>  -0.1500 
  7 C       -4.1900    -2.5660     0.7390 C.ar  1 <1>  -0.1440 
  8 C       -5.1710    -3.2250     1.6950 C.3   1 <1>  -0.0160 
  9 C       -5.3580    -4.7020     1.3290 C.3   1 <1>  -0.1600 
 10 C       -6.3640    -5.3980     2.2610 C.3   1 <1>  -0.0990 
 11 C       -6.5090    -6.8740     1.9310 C.2   1 <1>   0.5690 
 12 O       -5.7870    -7.6520     2.5060 O.2   1 <1>  -0.5700 
 13 N       -7.4250    -7.2990     1.0090 N.am  1 <1>  -0.6600 
 14 C       -8.3300    -6.4550     0.1910 C.3   1 <1>   0.1400 
 15 C       -7.5800    -8.7300     0.6590 C.3   1 <1>   0.1400 
 16 C       -8.9580    -7.4160    -0.8190 C.3   1 <1>   0.2000 
 17 C       -8.8500    -8.8040    -0.1890 C.3   1 <1>  -0.0800 
 18 O      -10.2850    -7.1030    -1.0620 O.3   1 <1>  -0.6800 
 19 C       -8.8340    -9.9330    -1.2300 C.3   1 <1>  -0.0160 
 20 C       -8.7360   -11.2950    -0.5610 C.ar  1 <1>  -0.1440 
 21 C       -7.5320   -11.9530    -0.4030 C.ar  1 <1>  -0.1500 
 22 C       -9.8520   -11.9440    -0.0750 C.ar  1 <1>  -0.1500 
 23 C       -7.5050   -13.1900     0.2200 C.ar  1 <1>   0.1600 
 24 C       -9.7160   -13.1820     0.5300 C.ar  1 <1>   0.1600 
 25 N       -8.5690   -13.8210     0.6900 N.ar  1 <1>  -0.6200 
 26 H       -4.1050    -0.7010    -2.0880 H     1 <1>   0.1500 
 27 H       -0.8610    -2.1700     0.2530 H     1 <1>   0.1500 
 28 H       -5.7130    -1.7610    -0.5390 H     1 <1>   0.1500 
 29 H       -2.4600    -3.2350     1.8110 H     1 <1>   0.1500 
 30 H       -4.7990    -3.1420     2.7010 H     1 <1>   0.0800 
 31 H       -6.1170    -2.7130     1.6530 H     1 <1>   0.0800 
 32 H       -4.4090    -5.2060     1.3970 H     1 <1>   0.0800 
 33 H       -5.6940    -4.7750     0.3090 H     1 <1>   0.0800 
 34 H       -7.3220    -4.9170     2.2080 H     1 <1>   0.0800 
 35 H       -6.0190    -5.3200     3.2760 H     1 <1>   0.0800 
 36 H       -9.0830    -6.0230     0.8270 H     1 <1>   0.0800 
 37 H       -7.7780    -5.6830    -0.3150 H     1 <1>   0.0800 
 38 H       -6.7170    -9.0410     0.0950 H     1 <1>   0.0800 
 39 H       -7.6590    -9.3360     1.5470 H     1 <1>   0.0800 
 40 H       -8.4200    -7.3650    -1.7500 H     1 <1>   0.0800 
 41 H       -9.6730    -8.9550     0.4880 H     1 <1>   0.0800 
 42 H      -10.8150    -7.2020    -0.2470 H     1 <1>   0.4000 
 43 H       -8.0060    -9.8000    -1.9050 H     1 <1>   0.0800 
 44 H       -9.7360    -9.8910    -1.8160 H     1 <1>   0.0800 
 45 H       -6.6150   -11.5180    -0.7550 H     1 <1>   0.1500 
 46 H      -10.8270   -11.5000    -0.1620 H     1 <1>   0.1500 
 47 H       -6.5570   -13.6870     0.3360 H     1 <1>   0.1500 
 48 H      -10.5990   -13.6740     0.9030 H     1 <1>   0.1500 
@<TRIPOS>BOND
  1   1   2  1   
  2   2   3  ar  
  3   2   4  ar  
  4   3   5  ar  
  5   3  26  1   
  6   4   6  ar  
  7   4  27  1   
  8   5   7  ar  
  9   5  28  1   
 10   6   7  ar  
 11   6  29  1   
 12   7   8  1   
 13   8   9  1   
 14   8  30  1   
 15   8  31  1   
 16   9  10  1   
 17   9  32  1   
 18   9  33  1   
 19  10  11  1   
 20  10  34  1   
 21  10  35  1   
 22  11  12  2   
 23  11  13  am  
 24  13  14  1   
 25  13  15  1   
 26  14  16  1   
 27  14  36  1   
 28  14  37  1   
 29  15  17  1   
 30  15  38  1   
 31  15  39  1   
 32  16  17  1   
 33  16  18  1   
 34  16  40  1   
 35  17  19  1   
 36  17  41  1   
 37  18  42  1   
 38  19  20  1   
 39  19  43  1   
 40  19  44  1   
 41  20  21  ar  
 42  20  22  ar  
 43  21  23  ar  
 44  21  45  1   
 45  22  24  ar  
 46  22  46  1   
 47  23  25  ar  
 48  23  47  1   
 49  24  25  ar  
 50  24  48  1   
@<TRIPOS>SUBSTRUCTURE
  1 ****  13 GROUP 4 **** **** 0

# MOE 2024.06 (io_trps.svl 2023.06)
