@<TRIPOS>MOLECULE
NONAME
42 45 1 0 0 
SMALL
USER_CHARGES


@<TRIPOS>ATOM
  1 S       -1.2760     0.5400     0.2210 S.3   1 <1>  -0.0800 
  2 C       -0.0900     1.7190    -0.2900 C.ar  1 <1>   0.0400 
  3 C       -2.1530     1.8170     1.0570 C.2   1 <1>   0.2280 
  4 C       -0.4640     2.9500     0.2110 C.ar  1 <1>   0.2270 
  5 C        1.0430     1.5340    -1.0570 C.ar  1 <1>  -0.1500 
  6 N       -1.6310     2.9730     0.9690 N.2   1 <1>  -0.5650 
  7 C        0.3300     4.0480    -0.0670 C.ar  1 <1>  -0.1500 
  8 C        1.8250     2.6450    -1.3190 C.ar  1 <1>  -0.1500 
  9 C        1.4940     3.9210    -0.8300 C.ar  1 <1>   0.0860 
 10 C        2.3430     5.0690    -1.1080 C.2   1 <1>   0.5440 
 11 O        3.3010     4.9990    -1.8560 O.2   1 <1>  -0.5700 
 12 N        2.1510     6.2790    -0.4940 N.am  1 <1>  -0.6600 
 13 C        2.7430     6.4540     0.8790 C.3   1 <1>   0.2200 
 14 C        1.9440     7.4810    -1.3600 C.3   1 <1>   0.1400 
 15 C        2.0810     7.5880     1.6780 C.3   1 <1>   0.1200 
 16 C        4.2800     6.6580     0.8050 C.3   1 <1>   0.3430 
 17 C        2.8170     8.7000    -1.0060 C.3   1 <1>  -0.0800 
 18 O        2.7020     8.8090     1.4060 O.3   1 <1>  -0.5600 
 19 N        4.7520     7.0680    -0.5640 N.4   1 <1>  -0.9590 
 20 C        2.3040     9.4420     0.2380 C.3   1 <1>   0.1200 
 21 C        4.3410     8.4510    -0.9590 C.3   1 <1>   0.3430 
 22 C        6.2160     6.8550    -0.7310 C.3   1 <1>   0.2630 
 23 H       -3.0510     1.5260     1.5720 H     1 <1>   0.1500 
 24 H        1.2990     0.5580    -1.4330 H     1 <1>   0.1500 
 25 H        0.0180     5.0000     0.3190 H     1 <1>   0.1500 
 26 H        2.7140     2.5290    -1.9170 H     1 <1>   0.1500 
 27 H        2.5590     5.5490     1.4310 H     1 <1>   0.0800 
 28 H        2.1350     7.2090    -2.3860 H     1 <1>   0.0800 
 29 H        0.9050     7.7620    -1.3040 H     1 <1>   0.0800 
 30 H        2.2190     7.4050     2.7290 H     1 <1>   0.0800 
 31 H        1.0230     7.6540     1.4840 H     1 <1>   0.0800 
 32 H        4.7450     5.7220     1.0670 H     1 <1>   0.0800 
 33 H        4.5850     7.3860     1.5380 H     1 <1>   0.0800 
 34 H        2.6640     9.3990    -1.8090 H     1 <1>   0.0800 
 35 H        4.2510     6.4120    -1.2080 H     1 <1>   0.4500 
 36 H        1.2300     9.5340     0.2350 H     1 <1>   0.0800 
 37 H        2.7200    10.4350     0.2670 H     1 <1>   0.0800 
 38 H        4.7880     9.1650    -0.2860 H     1 <1>   0.0800 
 39 H        4.7340     8.6460    -1.9440 H     1 <1>   0.0800 
 40 H        6.7670     7.4950    -0.0620 H     1 <1>   0.0800 
 41 H        6.5100     7.0740    -1.7450 H     1 <1>   0.0800 
 42 H        6.4680     5.8280    -0.5190 H     1 <1>   0.0800 
@<TRIPOS>BOND
  1   1   2  1   
  2   1   3  1   
  3   2   4  ar  
  4   2   5  ar  
  5   3   6  2   
  6   3  23  1   
  7   4   6  1   
  8   4   7  ar  
  9   5   8  ar  
 10   5  24  1   
 11   7   9  ar  
 12   7  25  1   
 13   8   9  ar  
 14   8  26  1   
 15   9  10  1   
 16  10  11  2   
 17  10  12  am  
 18  12  13  1   
 19  12  14  1   
 20  13  15  1   
 21  13  16  1   
 22  13  27  1   
 23  14  17  1   
 24  14  28  1   
 25  14  29  1   
 26  15  18  1   
 27  15  30  1   
 28  15  31  1   
 29  16  19  1   
 30  16  32  1   
 31  16  33  1   
 32  17  20  1   
 33  17  21  1   
 34  17  34  1   
 35  18  20  1   
 36  19  21  1   
 37  19  22  1   
 38  19  35  1   
 39  20  36  1   
 40  20  37  1   
 41  21  38  1   
 42  21  39  1   
 43  22  40  1   
 44  22  41  1   
 45  22  42  1   
@<TRIPOS>SUBSTRUCTURE
  1 ****  10 GROUP 4 **** **** 0

# MOE 2024.06 (io_trps.svl 2023.06)
