@<TRIPOS>MOLECULE
NONAME
18 18 1 0 0 
SMALL
USER_CHARGES


@<TRIPOS>ATOM
  1 S       -0.1220     0.0010     0.4480 S.3   1 <1>  -0.3710 
  2 C       -0.0480    -1.7520     0.1290 C.2   1 <1>   0.5770 
  3 C        1.5960     0.6050     0.1210 C.3   1 <1>  -0.0100 
  4 N        1.0760    -2.2530    -0.2400 N.2   1 <1>  -0.6610 
  5 C       -1.2530    -2.4690     0.3080 C.2   1 <1>  -0.1360 
  6 C        1.0790    -3.5970    -0.4710 C.2   1 <1>   0.8410 
  7 C       -1.2450    -3.8020     0.0770 C.2   1 <1>  -0.0290 
  8 O        2.0960    -4.1600    -0.8230 O.2   1 <1>  -0.5700 
  9 N       -0.0550    -4.3440    -0.3150 N.am  1 <1>  -0.5390 
 10 C       -2.4420    -4.7200     0.2200 C.3   1 <1>  -0.1020 
 11 H        1.6140     1.6650     0.2980 H     1 <1>   0.0800 
 12 H        1.8360     0.3800    -0.9030 H     1 <1>   0.0800 
 13 H        2.2610     0.0890     0.7900 H     1 <1>   0.0800 
 14 H       -2.1260    -1.9290     0.6200 H     1 <1>   0.1500 
 15 H        0.0720    -5.3340    -0.5170 H     1 <1>   0.3700 
 16 H       -2.2380    -5.4800     0.9530 H     1 <1>   0.0800 
 17 H       -2.6580    -5.1920    -0.7220 H     1 <1>   0.0800 
 18 H       -3.3080    -4.1660     0.5320 H     1 <1>   0.0800 
@<TRIPOS>BOND
  1   1   2  1   
  2   1   3  1   
  3   2   4  2   
  4   2   5  1   
  5   3  11  1   
  6   3  12  1   
  7   3  13  1   
  8   4   6  1   
  9   5   7  2   
 10   5  14  1   
 11   6   8  2   
 12   6   9  am  
 13   7   9  1   
 14   7  10  1   
 15   9  15  1   
 16  10  16  1   
 17  10  17  1   
 18  10  18  1   
@<TRIPOS>SUBSTRUCTURE
  1 ****   2 GROUP 4 **** **** 0

# MOE 2024.06 (io_trps.svl 2023.06)
