@<TRIPOS>MOLECULE
NONAME
51 53 1 0 0 
SMALL
USER_CHARGES


@<TRIPOS>ATOM
  1 O        3.4850    -1.0310     1.3320 O.2   1 <1>  -0.5700 
  2 C        2.2810    -1.0520     1.2350 C.2   1 <1>   0.5690 
  3 N        1.5460     0.0800     1.0840 N.am  1 <1>  -0.7300 
  4 C        1.5470    -2.3980     1.2710 C.3   1 <1>   0.1710 
  5 C        2.0750     1.4610     1.0260 C.3   1 <1>   0.1400 
  6 N        0.2820    -2.4360     0.4790 N.3   1 <1>  -0.8100 
  7 C        2.1330     1.9350    -0.4250 C.3   1 <1>  -0.0170 
  8 C        0.5170    -2.3080    -0.9680 C.3   1 <1>   0.1100 
  9 C       -0.4650    -3.6950     0.6630 C.3   1 <1>   0.1100 
 10 C        2.6460     3.3640    -0.4930 C.ar  1 <1>  -0.1440 
 11 C       -0.7430    -2.8790    -1.6040 C.3   1 <1>   0.2000 
 12 C       -1.0670    -4.0700    -0.7040 C.3   1 <1>  -0.0800 
 13 C        4.0090     3.6140    -0.4530 C.ar  1 <1>  -0.1500 
 14 C        1.7620     4.4280    -0.5880 C.ar  1 <1>  -0.1500 
 15 O       -1.7460    -1.9410    -1.4500 O.3   1 <1>  -0.6800 
 16 C       -0.4570    -5.3690    -1.2660 C.3   1 <1>   0.0210 
 17 C        4.4840     4.9130    -0.5100 C.ar  1 <1>  -0.1500 
 18 C        2.2360     5.7270    -0.6450 C.ar  1 <1>  -0.1500 
 19 C       -0.7090    -6.5580    -0.3560 C.2   1 <1>   0.1080 
 20 C        3.5970     5.9710    -0.6060 C.ar  1 <1>  -0.1500 
 21 N       -1.8980    -6.9570    -0.0300 N.2   1 <1>  -0.7070 
 22 C        0.2840    -7.3430     0.2200 C.2   1 <1>  -0.1500 
 23 N       -1.6950    -8.0210     0.7690 N.pl3 1 <1>   0.3000 
 24 C       -0.3800    -8.2740     0.9380 C.2   1 <1>  -0.3320 
 25 C        0.1680    -9.4080     1.7830 C.3   1 <1>  -0.0600 
 26 H        0.5410    -0.0530     0.9330 H     1 <1>   0.3700 
 27 H        1.3200    -2.6090     2.3000 H     1 <1>   0.0800 
 28 H        2.2190    -3.1610     0.9190 H     1 <1>   0.0800 
 29 H        1.4410     2.1120     1.6030 H     1 <1>   0.0800 
 30 H        3.0640     1.4880     1.4530 H     1 <1>   0.0800 
 31 H        2.7920     1.2930    -0.9830 H     1 <1>   0.0800 
 32 H        1.1530     1.8800    -0.8650 H     1 <1>   0.0800 
 33 H        0.6820    -1.2840    -1.2590 H     1 <1>   0.0800 
 34 H        1.3670    -2.9010    -1.2600 H     1 <1>   0.0800 
 35 H        0.1840    -4.4760     1.0240 H     1 <1>   0.0800 
 36 H       -1.2480    -3.5440     1.3870 H     1 <1>   0.0800 
 37 H       -0.6440    -3.1170    -2.6490 H     1 <1>   0.0800 
 38 H       -2.1310    -4.2120    -0.6220 H     1 <1>   0.0800 
 39 H        4.7070     2.7980    -0.3780 H     1 <1>   0.1500 
 40 H        0.7010     4.2510    -0.6200 H     1 <1>   0.1500 
 41 H       -1.7340    -1.6750    -0.5080 H     1 <1>   0.4000 
 42 H        0.6020    -5.2520    -1.4080 H     1 <1>   0.0800 
 43 H       -0.9000    -5.5830    -2.2220 H     1 <1>   0.0800 
 44 H        5.5430     5.1000    -0.4790 H     1 <1>   0.1500 
 45 H        1.5450     6.5490    -0.7200 H     1 <1>   0.1500 
 46 H        3.9660     6.9810    -0.6500 H     1 <1>   0.1500 
 47 H        1.3450    -7.2160     0.1020 H     1 <1>   0.1500 
 48 H       -2.4730    -8.5530     1.1780 H     1 <1>   0.2700 
 49 H        1.2430    -9.4010     1.7620 H     1 <1>   0.0800 
 50 H       -0.1750   -10.3550     1.4030 H     1 <1>   0.0800 
 51 H       -0.1550    -9.3020     2.8040 H     1 <1>   0.0800 
@<TRIPOS>BOND
  1   1   2  2   
  2   2   3  am  
  3   2   4  1   
  4   3   5  1   
  5   3  26  1   
  6   4   6  1   
  7   4  27  1   
  8   4  28  1   
  9   5   7  1   
 10   5  29  1   
 11   5  30  1   
 12   6   8  1   
 13   6   9  1   
 14   7  10  1   
 15   7  31  1   
 16   7  32  1   
 17   8  11  1   
 18   8  33  1   
 19   8  34  1   
 20   9  12  1   
 21   9  35  1   
 22   9  36  1   
 23  10  13  ar  
 24  10  14  ar  
 25  11  12  1   
 26  11  15  1   
 27  11  37  1   
 28  12  16  1   
 29  12  38  1   
 30  13  17  ar  
 31  13  39  1   
 32  14  18  ar  
 33  14  40  1   
 34  15  41  1   
 35  16  19  1   
 36  16  42  1   
 37  16  43  1   
 38  17  20  ar  
 39  17  44  1   
 40  18  20  ar  
 41  18  45  1   
 42  19  21  2   
 43  19  22  1   
 44  20  46  1   
 45  21  23  1   
 46  22  24  2   
 47  22  47  1   
 48  23  24  1   
 49  23  48  1   
 50  24  25  1   
 51  25  49  1   
 52  25  50  1   
 53  25  51  1   
@<TRIPOS>SUBSTRUCTURE
  1 ****   6 GROUP 4 **** **** 0

# MOE 2024.06 (io_trps.svl 2023.06)
