@<TRIPOS>MOLECULE
NONAME
50 52 1 0 0 
SMALL
USER_CHARGES


@<TRIPOS>ATOM
  1 CL       0.9860    -3.6340     3.3090 Cl    1 <1>  -0.1770 
  2 C        1.5870    -3.0860     1.7620 C.ar  1 <1>   0.1770 
  3 C        0.7340    -2.4800     0.8440 C.ar  1 <1>  -0.1440 
  4 C        2.9310    -3.2720     1.4940 C.ar  1 <1>  -0.1500 
  5 C        1.2640    -2.0460    -0.3650 C.ar  1 <1>  -0.1500 
  6 C       -0.7560    -2.2880     1.1310 C.3   1 <1>   0.0450 
  7 C        3.4450    -2.8410     0.2860 C.ar  1 <1>   0.0830 
  8 C        2.6060    -2.2330    -0.6500 C.ar  1 <1>   0.0830 
  9 C       -1.5500    -3.5770     1.3240 C.2   1 <1>   0.5690 
 10 O        4.7670    -3.0140     0.0350 O.3   1 <1>  -0.3630 
 11 O        3.0790    -1.8210    -1.8540 O.3   1 <1>  -0.3630 
 12 O       -2.3330    -3.6120     2.2430 O.2   1 <1>  -0.5700 
 13 N       -1.4180    -4.6480     0.4770 N.am  1 <1>  -0.6600 
 14 C        5.3170    -2.2720    -1.0370 C.3   1 <1>   0.1200 
 15 C        4.3600    -2.2870    -2.2380 C.3   1 <1>   0.1200 
 16 C       -0.6230    -4.7240    -0.7730 C.3   1 <1>   0.1400 
 17 C       -2.0910    -5.9470     0.7360 C.3   1 <1>   0.1400 
 18 C       -1.2090    -5.9190    -1.5180 C.3   1 <1>   0.2000 
 19 C       -1.6270    -6.8740    -0.3970 C.3   1 <1>  -0.0800 
 20 O       -2.3400    -5.4930    -2.1980 O.3   1 <1>  -0.6800 
 21 C       -2.6670    -7.9330    -0.8240 C.3   1 <1>  -0.0550 
 22 S       -3.0020    -9.1820     0.4200 S.o2  1 <1>   1.3330 
 23 O       -3.4660    -8.5130     1.6140 O.2   1 <1>  -0.6500 
 24 O       -3.8030   -10.2320    -0.1680 O.2   1 <1>  -0.6500 
 25 N       -1.4640    -9.8270     0.7430 N.am  1 <1>  -0.8490 
 26 C       -1.0610   -10.8700    -0.2060 C.3   1 <1>   0.1160 
 27 C       -1.3500   -10.3310     2.1150 C.3   1 <1>   0.1160 
 28 H        3.5700    -3.7410     2.2180 H     1 <1>   0.1500 
 29 H        0.6470    -1.5620    -1.1020 H     1 <1>   0.1500 
 30 H       -1.2200    -1.7370     0.3360 H     1 <1>   0.0800 
 31 H       -0.8560    -1.6970     2.0230 H     1 <1>   0.0800 
 32 H        5.4770    -1.2630    -0.6990 H     1 <1>   0.0800 
 33 H        6.2620    -2.7130    -1.2960 H     1 <1>   0.0800 
 34 H        4.2530    -3.2870    -2.6170 H     1 <1>   0.0800 
 35 H        4.7230    -1.6490    -3.0230 H     1 <1>   0.0800 
 36 H       -0.6920    -3.8220    -1.3560 H     1 <1>   0.0800 
 37 H        0.4060    -4.9200    -0.5240 H     1 <1>   0.0800 
 38 H       -1.8110    -6.3320     1.7030 H     1 <1>   0.0800 
 39 H       -3.1580    -5.8010     0.7130 H     1 <1>   0.0800 
 40 H       -0.5250    -6.3560    -2.2260 H     1 <1>   0.0800 
 41 H       -0.7390    -7.3760    -0.0560 H     1 <1>   0.0800 
 42 H       -2.8860    -4.9560    -1.5870 H     1 <1>   0.4000 
 43 H       -2.3090    -8.4200    -1.7100 H     1 <1>   0.0800 
 44 H       -3.5880    -7.4470    -1.0810 H     1 <1>   0.0800 
 45 H       -0.0470   -11.1760    -0.0120 H     1 <1>   0.0800 
 46 H       -1.1160   -10.4970    -1.2140 H     1 <1>   0.0800 
 47 H       -1.7090   -11.7280    -0.1200 H     1 <1>   0.0800 
 48 H       -0.3630   -10.7220     2.2900 H     1 <1>   0.0800 
 49 H       -2.0770   -11.1070     2.2900 H     1 <1>   0.0800 
 50 H       -1.5230    -9.5320     2.8170 H     1 <1>   0.0800 
@<TRIPOS>BOND
  1   1   2  1   
  2   2   3  ar  
  3   2   4  ar  
  4   3   5  ar  
  5   3   6  1   
  6   4   7  ar  
  7   4  28  1   
  8   5   8  ar  
  9   5  29  1   
 10   6   9  1   
 11   6  30  1   
 12   6  31  1   
 13   7   8  ar  
 14   7  10  1   
 15   8  11  1   
 16   9  12  2   
 17   9  13  am  
 18  10  14  1   
 19  11  15  1   
 20  13  16  1   
 21  13  17  1   
 22  14  15  1   
 23  14  32  1   
 24  14  33  1   
 25  15  34  1   
 26  15  35  1   
 27  16  18  1   
 28  16  36  1   
 29  16  37  1   
 30  17  19  1   
 31  17  38  1   
 32  17  39  1   
 33  18  19  1   
 34  18  20  1   
 35  18  40  1   
 36  19  21  1   
 37  19  41  1   
 38  20  42  1   
 39  21  22  1   
 40  21  43  1   
 41  21  44  1   
 42  22  23  2   
 43  22  24  2   
 44  22  25  am  
 45  25  26  1   
 46  25  27  1   
 47  26  45  1   
 48  26  46  1   
 49  26  47  1   
 50  27  48  1   
 51  27  49  1   
 52  27  50  1   
@<TRIPOS>SUBSTRUCTURE
  1 ****  16 GROUP 4 **** **** 0

# MOE 2024.06 (io_trps.svl 2023.06)
