@<TRIPOS>MOLECULE
NONAME
45 47 1 0 0 
SMALL
USER_CHARGES


@<TRIPOS>ATOM
  1 O       -3.0200     1.4520    -1.6600 O.2   1 <1>  -0.5700 
  2 C       -2.5250     1.2560    -0.5780 C.2   1 <1>   0.5690 
  3 N       -2.3540     0.0100    -0.0780 N.am  1 <1>  -0.7300 
  4 C       -2.0700     2.4380     0.2430 C.3   1 <1>  -0.0990 
  5 C       -2.7140    -1.2420    -0.7800 C.3   1 <1>   0.2200 
  6 C       -0.6660     2.8790    -0.1790 C.3   1 <1>   0.0200 
  7 C       -3.8990    -1.8820    -0.0770 C.3   1 <1>  -0.0800 
  8 C       -1.6230    -2.2790    -0.5490 C.3   1 <1>   0.1200 
  9 C       -0.2160     4.0800     0.6340 C.2   1 <1>  -0.3320 
 10 C       -3.2280    -2.6810     1.0490 C.3   1 <1>   0.1200 
 11 C       -4.7010    -2.7840    -1.0350 C.3   1 <1>  -0.0160 
 12 O       -1.8750    -2.8120     0.7150 O.3   1 <1>  -0.5600 
 13 N       -0.6300     5.3550     0.4440 N.pl3 1 <1>   0.3140 
 14 C        0.6560     4.1060     1.6650 C.2   1 <1>  -0.1500 
 15 C       -5.9000    -3.4110    -0.3390 C.ar  1 <1>  -0.1440 
 16 N       -0.0570     6.1910     1.3260 N.2   1 <1>  -0.7070 
 17 C       -1.5680     5.8620    -0.5680 C.3   1 <1>   0.0160 
 18 C        0.7110     5.4380     2.0510 C.2   1 <1>   0.1390 
 19 C       -5.9240    -4.7420     0.0280 C.ar  1 <1>  -0.1500 
 20 C       -7.0290    -2.6760    -0.0380 C.ar  1 <1>  -0.1500 
 21 C       -7.0410    -5.2570     0.6630 C.ar  1 <1>   0.1600 
 22 C       -8.0950    -3.2890     0.6000 C.ar  1 <1>   0.1600 
 23 N       -8.1270    -4.5610     0.9600 N.ar  1 <1>  -0.6200 
 24 H       -1.9300    -0.1360     0.8410 H     1 <1>   0.3700 
 25 H       -2.7670     3.2410     0.0970 H     1 <1>   0.0800 
 26 H       -2.0720     2.1820     1.2860 H     1 <1>   0.0800 
 27 H       -2.8860    -1.0530    -1.8260 H     1 <1>   0.0800 
 28 H       -0.6510     3.1150    -1.2300 H     1 <1>   0.0800 
 29 H        0.0220     2.0670    -0.0200 H     1 <1>   0.0800 
 30 H       -4.5610    -1.1350     0.3240 H     1 <1>   0.0800 
 31 H       -0.6340    -1.8570    -0.5750 H     1 <1>   0.0800 
 32 H       -1.6970    -3.0790    -1.2640 H     1 <1>   0.0800 
 33 H       -3.6480    -3.6620     1.1780 H     1 <1>   0.0800 
 34 H       -3.2820    -2.1470     1.9820 H     1 <1>   0.0800 
 35 H       -4.0710    -3.5580    -1.4360 H     1 <1>   0.0800 
 36 H       -5.0570    -2.1950    -1.8640 H     1 <1>   0.0800 
 37 H        1.2030     3.2970     2.1150 H     1 <1>   0.1500 
 38 H       -1.3750     5.3840    -1.5090 H     1 <1>   0.0800 
 39 H       -1.4310     6.9230    -0.6700 H     1 <1>   0.0800 
 40 H       -2.5720     5.6600    -0.2480 H     1 <1>   0.0800 
 41 H        1.3180     5.8160     2.8570 H     1 <1>   0.1500 
 42 H       -5.0860    -5.3840    -0.1740 H     1 <1>   0.1500 
 43 H       -7.0910    -1.6340    -0.2950 H     1 <1>   0.1500 
 44 H       -7.0420    -6.2970     0.9420 H     1 <1>   0.1500 
 45 H       -8.9670    -2.7000     0.8270 H     1 <1>   0.1500 
@<TRIPOS>BOND
  1   1   2  2   
  2   2   3  am  
  3   2   4  1   
  4   3   5  1   
  5   3  24  1   
  6   4   6  1   
  7   4  25  1   
  8   4  26  1   
  9   5   7  1   
 10   5   8  1   
 11   5  27  1   
 12   6   9  1   
 13   6  28  1   
 14   6  29  1   
 15   7  10  1   
 16   7  11  1   
 17   7  30  1   
 18   8  12  1   
 19   8  31  1   
 20   8  32  1   
 21   9  13  1   
 22   9  14  2   
 23  10  12  1   
 24  10  33  1   
 25  10  34  1   
 26  11  15  1   
 27  11  35  1   
 28  11  36  1   
 29  13  16  1   
 30  13  17  1   
 31  14  18  1   
 32  14  37  1   
 33  15  19  ar  
 34  15  20  ar  
 35  16  18  2   
 36  17  38  1   
 37  17  39  1   
 38  17  40  1   
 39  18  41  1   
 40  19  21  ar  
 41  19  42  1   
 42  20  22  ar  
 43  20  43  1   
 44  21  23  ar  
 45  21  44  1   
 46  22  23  ar  
 47  22  45  1   
@<TRIPOS>SUBSTRUCTURE
  1 ****   3 GROUP 4 **** **** 0

# MOE 2024.06 (io_trps.svl 2023.06)
