@<TRIPOS>MOLECULE
NONAME
47 50 1 0 0 
SMALL
USER_CHARGES


@<TRIPOS>ATOM
  1 S       -0.0410    -0.4520     0.0480 S.o2  1 <1>   1.0900 
  2 O        1.1420    -0.1750    -0.7310 O.2   1 <1>  -0.6500 
  3 O       -0.0780    -0.0760     1.4430 O.2   1 <1>  -0.6500 
  4 C       -0.3870    -2.2090    -0.0940 C.3   1 <1>   0.0890 
  5 C       -1.4200     0.3370    -0.7670 C.3   1 <1>  -0.1350 
  6 C       -1.8230    -2.5830     0.2500 C.ar  1 <1>  -0.1440 
  7 C       -2.6850    -3.0640    -0.7230 C.ar  1 <1>   0.1600 
  8 C       -2.3000    -2.4310     1.5380 C.ar  1 <1>  -0.1500 
  9 N       -3.9490    -3.3860    -0.5250 N.ar  1 <1>  -0.6200 
 10 C       -3.6140    -2.7680     1.7580 C.ar  1 <1>  -0.1500 
 11 C       -4.4060    -3.2400     0.7140 C.ar  1 <1>   0.4100 
 12 N       -5.7260    -3.5800     0.9520 N.pl3 1 <1>  -0.8380 
 13 C       -6.0520    -4.6170     1.9640 C.3   1 <1>   0.2090 
 14 C       -6.7580    -3.4100    -0.1070 C.3   1 <1>   0.2090 
 15 C       -6.2670    -5.9560     1.2630 C.3   1 <1>  -0.1600 
 16 C       -6.9990    -4.7430    -0.8140 C.3   1 <1>  -0.1600 
 17 C       -7.3460    -5.8570     0.1800 C.3   1 <1>   0.4610 
 18 O       -8.5500    -5.5280     0.8560 O.3   1 <1>  -0.5600 
 19 C       -7.5070    -7.2020    -0.5340 C.2   1 <1>  -0.1810 
 20 C       -9.7730    -5.7600     0.1990 C.3   1 <1>   0.1200 
 21 C       -8.7000    -7.8040    -0.6130 C.2   1 <1>  -0.1400 
 22 C       -6.4610    -7.9470    -1.1770 C.2   1 <1>  -0.1500 
 23 C       -9.9890    -7.2600    -0.0600 C.3   1 <1>   0.0200 
 24 S       -8.6060    -9.3340    -1.4600 S.3   1 <1>  -0.0800 
 25 C       -6.8820    -9.1070    -1.7180 C.2   1 <1>  -0.1100 
 26 H        0.2770    -2.7520     0.5520 H     1 <1>   0.0800 
 27 H       -0.1760    -2.5250    -1.0970 H     1 <1>   0.0800 
 28 H       -1.2890     1.4020    -0.7540 H     1 <1>   0.0800 
 29 H       -2.3400     0.1060    -0.2650 H     1 <1>   0.0800 
 30 H       -1.4900     0.0170    -1.7880 H     1 <1>   0.0800 
 31 H       -2.3220    -3.1910    -1.7280 H     1 <1>   0.1500 
 32 H       -1.6800    -2.0600     2.3390 H     1 <1>   0.1500 
 33 H       -4.0510    -2.6610     2.7320 H     1 <1>   0.1500 
 34 H       -6.9440    -4.3270     2.4940 H     1 <1>   0.0800 
 35 H       -5.2510    -4.7100     2.6760 H     1 <1>   0.0800 
 36 H       -6.4370    -2.6680    -0.8180 H     1 <1>   0.0800 
 37 H       -7.6710    -3.0650     0.3480 H     1 <1>   0.0800 
 38 H       -6.5510    -6.7050     1.9780 H     1 <1>   0.0800 
 39 H       -5.3370    -6.2590     0.8210 H     1 <1>   0.0800 
 40 H       -6.1010    -5.0100    -1.3400 H     1 <1>   0.0800 
 41 H       -7.7740    -4.6400    -1.5480 H     1 <1>   0.0800 
 42 H       -9.7710    -5.2160    -0.7290 H     1 <1>   0.0800 
 43 H      -10.5590    -5.3730     0.8230 H     1 <1>   0.0800 
 44 H       -5.4500    -7.5790    -1.2030 H     1 <1>   0.1500 
 45 H      -10.7890    -7.3980    -0.7630 H     1 <1>   0.0800 
 46 H      -10.2370    -7.7640     0.8560 H     1 <1>   0.0800 
 47 H       -6.3590    -9.8770    -2.2550 H     1 <1>   0.1500 
@<TRIPOS>BOND
  1   1   2  2   
  2   1   3  2   
  3   1   4  1   
  4   1   5  1   
  5   4   6  1   
  6   4  26  1   
  7   4  27  1   
  8   5  28  1   
  9   5  29  1   
 10   5  30  1   
 11   6   7  ar  
 12   6   8  ar  
 13   7   9  ar  
 14   7  31  1   
 15   8  10  ar  
 16   8  32  1   
 17   9  11  ar  
 18  10  11  ar  
 19  10  33  1   
 20  11  12  1   
 21  12  13  1   
 22  12  14  1   
 23  13  15  1   
 24  13  34  1   
 25  13  35  1   
 26  14  16  1   
 27  14  36  1   
 28  14  37  1   
 29  15  17  1   
 30  15  38  1   
 31  15  39  1   
 32  16  17  1   
 33  16  40  1   
 34  16  41  1   
 35  17  18  1   
 36  17  19  1   
 37  18  20  1   
 38  19  21  2   
 39  19  22  1   
 40  20  23  1   
 41  20  42  1   
 42  20  43  1   
 43  21  23  1   
 44  21  24  1   
 45  22  25  2   
 46  22  44  1   
 47  23  45  1   
 48  23  46  1   
 49  24  25  1   
 50  25  47  1   
@<TRIPOS>SUBSTRUCTURE
  1 ****  12 GROUP 4 **** **** 0

# MOE 2024.06 (io_trps.svl 2023.06)
