@<TRIPOS>MOLECULE
NONAME
47 50 1 0 0 
SMALL
USER_CHARGES


@<TRIPOS>ATOM
  1 O       -1.3690    -0.5170     2.0670 O.2   1 <1>  -0.5700 
  2 C       -2.0100     0.2760     1.4300 C.2   1 <1>   0.5690 
  3 N       -3.3300     0.0900     1.1890 N.am  1 <1>  -0.5470 
  4 C       -1.3570     1.5200     0.8720 C.3   1 <1>  -0.0990 
  5 C       -4.1420     0.9970     0.5050 C.ar  1 <1>   0.1170 
  6 C       -2.3420     2.7030     0.9200 C.3   1 <1>   0.1250 
  7 C       -3.6930     2.3020     0.3030 C.ar  1 <1>  -0.1430 
  8 C       -5.3800     0.6040     0.0140 C.ar  1 <1>  -0.1500 
  9 C       -1.7360     3.9740     0.3230 C.2   1 <1>   0.5690 
 10 C       -4.4850     3.1870    -0.4190 C.ar  1 <1>  -0.1500 
 11 C       -6.1650     1.4950    -0.6920 C.ar  1 <1>  -0.1500 
 12 O       -0.9880     3.8910    -0.6210 O.2   1 <1>  -0.5700 
 13 N       -2.0790     5.1710     0.8950 N.am  1 <1>  -0.4940 
 14 C       -5.7150     2.7840    -0.9130 C.ar  1 <1>  -0.1500 
 15 C       -1.7630     6.4950     0.5070 C.2   1 <1>  -0.0880 
 16 N       -0.5490     6.9940     0.1190 N.pl3 1 <1>   0.3140 
 17 C       -2.6340     7.5330     0.4780 C.2   1 <1>  -0.1810 
 18 N       -0.6440     8.3260    -0.1460 N.2   1 <1>  -0.7070 
 19 C        0.7570     6.2570     0.0770 C.3   1 <1>   0.1760 
 20 C       -1.8850     8.6260     0.0660 C.2   1 <1>   0.1390 
 21 C       -4.1170     7.5640     0.8030 C.3   1 <1>  -0.0590 
 22 C        1.9070     7.0530     0.7100 C.3   1 <1>  -0.1600 
 23 C        1.2270     6.0250    -1.3610 C.3   1 <1>  -0.1600 
 24 C        2.5760     7.8410    -0.4240 C.3   1 <1>  -0.1600 
 25 C        2.0410     7.2630    -1.7390 C.3   1 <1>  -0.1600 
 26 H       -3.7170    -0.7960     1.5130 H     1 <1>   0.3700 
 27 H       -1.0700     1.3190    -0.1440 H     1 <1>   0.0800 
 28 H       -0.4720     1.7470     1.4380 H     1 <1>   0.0800 
 29 H       -2.5300     2.9020     1.9600 H     1 <1>   0.0800 
 30 H       -5.7270    -0.4000     0.1770 H     1 <1>   0.1500 
 31 H       -4.1680     4.1960    -0.6150 H     1 <1>   0.1500 
 32 H       -7.1230     1.1860    -1.0750 H     1 <1>   0.1500 
 33 H       -2.8010     5.1180     1.6140 H     1 <1>   0.3700 
 34 H       -6.3220     3.4760    -1.4720 H     1 <1>   0.1500 
 35 H        0.6360     5.3250     0.5950 H     1 <1>   0.0800 
 36 H       -2.2770     9.6200    -0.0650 H     1 <1>   0.1500 
 37 H       -4.4960     6.5720     0.9640 H     1 <1>   0.0800 
 38 H       -4.6570     8.0090    -0.0130 H     1 <1>   0.0800 
 39 H       -4.2840     8.1500     1.6890 H     1 <1>   0.0800 
 40 H        2.6220     6.3590     1.1140 H     1 <1>   0.0800 
 41 H        1.5630     7.6960     1.5020 H     1 <1>   0.0800 
 42 H        0.4030     5.8530    -2.0330 H     1 <1>   0.0800 
 43 H        1.8700     5.1630    -1.3770 H     1 <1>   0.0800 
 44 H        3.6470     7.7510    -0.3680 H     1 <1>   0.0800 
 45 H        2.3090     8.8820    -0.3550 H     1 <1>   0.0800 
 46 H        1.3880     7.9860    -2.2000 H     1 <1>   0.0800 
 47 H        2.8330     7.0220    -2.4260 H     1 <1>   0.0800 
@<TRIPOS>BOND
  1   1   2  2   
  2   2   3  am  
  3   2   4  1   
  4   3   5  1   
  5   3  26  1   
  6   4   6  1   
  7   4  27  1   
  8   4  28  1   
  9   5   7  ar  
 10   5   8  ar  
 11   6   7  1   
 12   6   9  1   
 13   6  29  1   
 14   7  10  ar  
 15   8  11  ar  
 16   8  30  1   
 17   9  12  2   
 18   9  13  am  
 19  10  14  ar  
 20  10  31  1   
 21  11  14  ar  
 22  11  32  1   
 23  13  15  1   
 24  13  33  1   
 25  14  34  1   
 26  15  16  1   
 27  15  17  2   
 28  16  18  1   
 29  16  19  1   
 30  17  20  1   
 31  17  21  1   
 32  18  20  2   
 33  19  22  1   
 34  19  23  1   
 35  19  35  1   
 36  20  36  1   
 37  21  37  1   
 38  21  38  1   
 39  21  39  1   
 40  22  24  1   
 41  22  40  1   
 42  22  41  1   
 43  23  25  1   
 44  23  42  1   
 45  23  43  1   
 46  24  25  1   
 47  24  44  1   
 48  24  45  1   
 49  25  46  1   
 50  25  47  1   
@<TRIPOS>SUBSTRUCTURE
  1 ****   9 GROUP 4 **** **** 0

# MOE 2024.06 (io_trps.svl 2023.06)
