@<TRIPOS>MOLECULE
NONAME
64 67 1 0 0 
SMALL
USER_CHARGES


@<TRIPOS>ATOM
  1 O       -1.9300     0.3800    -3.4210 O.2   1 <1>  -0.5700 
  2 C       -2.1900     0.9220    -2.3630 C.2   1 <1>   0.5440 
  3 N       -2.7240     0.1220    -1.3610 N.am  1 <1>  -0.6600 
  4 C       -1.9050     2.3480    -2.2090 C.ar  1 <1>   0.3960 
  5 C       -2.5100    -1.3570    -1.3630 C.3   1 <1>   0.1400 
  6 C       -3.2220     0.6300    -0.0500 C.3   1 <1>   0.1400 
  7 N       -1.4020     2.8170    -1.0520 N.ar  1 <1>  -0.6200 
  8 C       -2.1590     3.1850    -3.2980 C.ar  1 <1>   0.1600 
  9 C       -1.4990    -1.7300    -0.2610 C.3   1 <1>   0.3430 
 10 C       -2.1940     0.2930     1.0460 C.3   1 <1>   0.3430 
 11 C       -1.1800     4.1230    -1.0670 C.ar  1 <1>   0.4100 
 12 N       -1.9610     4.4940    -3.3230 N.ar  1 <1>  -0.6200 
 13 N       -1.8940    -1.1890     1.0970 N.4   1 <1>  -0.9590 
 14 N       -0.6680     4.6830     0.0890 N.pl3 1 <1>  -0.8380 
 15 C       -1.4620     4.9270    -2.1830 C.ar  1 <1>   0.1600 
 16 C       -0.8380    -1.4860     2.1110 C.3   1 <1>   0.2630 
 17 C       -1.5850     5.4780     0.9380 C.3   1 <1>   0.4330 
 18 C        0.3400     3.9850     0.9240 C.3   1 <1>   0.2090 
 19 C       -1.6820     6.9230     0.4520 C.ar  1 <1>  -0.1430 
 20 C       -1.0100     5.3720     2.3500 C.3   1 <1>  -0.1600 
 21 C       -0.1990     4.0800     2.3450 C.3   1 <1>  -0.1600 
 22 C       -2.9190     7.5420     0.3520 C.ar  1 <1>  -0.1500 
 23 C       -0.5460     7.6330     0.0900 C.ar  1 <1>  -0.1500 
 24 C       -3.0180     8.8470    -0.0980 C.ar  1 <1>  -0.1500 
 25 C       -0.6410     8.9370    -0.3610 C.ar  1 <1>  -0.1500 
 26 C       -1.8800     9.5540    -0.4530 C.ar  1 <1>  -0.1430 
 27 C       -1.9850    10.9880    -0.9360 C.3   1 <1>   0.4860 
 28 N       -1.5200    11.8910     0.1570 N.4   1 <1>  -0.9590 
 29 C       -2.4350    11.8390     1.3400 C.3   1 <1>   0.2630 
 30 C       -1.3340    13.2920    -0.3280 C.3   1 <1>   0.2630 
 31 H       -2.1330    -1.6920    -2.3140 H     1 <1>   0.0800 
 32 H       -3.4480    -1.8570    -1.1940 H     1 <1>   0.0800 
 33 H       -4.1650     0.1640     0.1780 H     1 <1>   0.0800 
 34 H       -3.3960     1.6910    -0.0850 H     1 <1>   0.0800 
 35 H       -2.5490     2.7390    -4.1980 H     1 <1>   0.1500 
 36 H       -0.5390    -1.3290    -0.5430 H     1 <1>   0.0800 
 37 H       -1.4060    -2.8020    -0.2160 H     1 <1>   0.0800 
 38 H       -2.5710     0.6250     1.9990 H     1 <1>   0.0800 
 39 H       -1.2910     0.8440     0.8360 H     1 <1>   0.0800 
 40 H       -2.7610    -1.6700     1.3750 H     1 <1>   0.4500 
 41 H       -1.2490     5.9770    -2.1020 H     1 <1>   0.1500 
 42 H        0.0860    -0.9980     1.8440 H     1 <1>   0.0800 
 43 H       -0.6610    -2.5480     2.1690 H     1 <1>   0.0800 
 44 H       -1.1430    -1.1370     3.0840 H     1 <1>   0.0800 
 45 H       -2.5570     5.0150     0.9160 H     1 <1>   0.0800 
 46 H        1.2750     4.5140     0.8470 H     1 <1>   0.0800 
 47 H        0.4900     2.9640     0.6200 H     1 <1>   0.0800 
 48 H       -1.7870     5.3700     3.0930 H     1 <1>   0.0800 
 49 H       -0.3570     6.2060     2.5360 H     1 <1>   0.0800 
 50 H        0.5940     4.0920     3.0720 H     1 <1>   0.0800 
 51 H       -0.8420     3.2400     2.5350 H     1 <1>   0.0800 
 52 H       -3.8140     7.0070     0.6200 H     1 <1>   0.1500 
 53 H        0.4200     7.1580     0.1530 H     1 <1>   0.1500 
 54 H       -3.9950     9.2970    -0.1710 H     1 <1>   0.1500 
 55 H        0.2620     9.4520    -0.6430 H     1 <1>   0.1500 
 56 H       -3.0040    11.2150    -1.2040 H     1 <1>   0.0800 
 57 H       -1.3660    11.1110    -1.8090 H     1 <1>   0.0800 
 58 H       -0.6100    11.5120     0.4580 H     1 <1>   0.4500 
 59 H       -3.4200    12.1850     1.0700 H     1 <1>   0.0800 
 60 H       -2.0560    12.4620     2.1340 H     1 <1>   0.0800 
 61 H       -2.5130    10.8280     1.7080 H     1 <1>   0.0800 
 62 H       -2.2750    13.7030    -0.6580 H     1 <1>   0.0800 
 63 H       -0.6380    13.3150    -1.1510 H     1 <1>   0.0800 
 64 H       -0.9470    13.9120     0.4640 H     1 <1>   0.0800 
@<TRIPOS>BOND
  1   1   2  2   
  2   2   3  am  
  3   2   4  1   
  4   3   5  1   
  5   3   6  1   
  6   4   7  ar  
  7   4   8  ar  
  8   5   9  1   
  9   5  31  1   
 10   5  32  1   
 11   6  10  1   
 12   6  33  1   
 13   6  34  1   
 14   7  11  ar  
 15   8  12  ar  
 16   8  35  1   
 17   9  13  1   
 18   9  36  1   
 19   9  37  1   
 20  10  13  1   
 21  10  38  1   
 22  10  39  1   
 23  11  14  1   
 24  11  15  ar  
 25  12  15  ar  
 26  13  16  1   
 27  13  40  1   
 28  14  17  1   
 29  14  18  1   
 30  15  41  1   
 31  16  42  1   
 32  16  43  1   
 33  16  44  1   
 34  17  19  1   
 35  17  20  1   
 36  17  45  1   
 37  18  21  1   
 38  18  46  1   
 39  18  47  1   
 40  19  22  ar  
 41  19  23  ar  
 42  20  21  1   
 43  20  48  1   
 44  20  49  1   
 45  21  50  1   
 46  21  51  1   
 47  22  24  ar  
 48  22  52  1   
 49  23  25  ar  
 50  23  53  1   
 51  24  26  ar  
 52  24  54  1   
 53  25  26  ar  
 54  25  55  1   
 55  26  27  1   
 56  27  28  1   
 57  27  56  1   
 58  27  57  1   
 59  28  29  1   
 60  28  30  1   
 61  28  58  1   
 62  29  59  1   
 63  29  60  1   
 64  29  61  1   
 65  30  62  1   
 66  30  63  1   
 67  30  64  1   
@<TRIPOS>SUBSTRUCTURE
  1 ****  11 GROUP 4 **** **** 0

# MOE 2024.06 (io_trps.svl 2023.06)
