@<TRIPOS>MOLECULE
NONAME
47 50 1 0 0 
SMALL
USER_CHARGES


@<TRIPOS>ATOM
  1 O        1.1940    -0.0180    -1.5910 O.co2 1 <1>  -0.9030 
  2 C        1.8170    -1.0540    -1.3070 C.2   1 <1>   0.9770 
  3 O        1.2570    -2.1560    -1.3980 O.co2 1 <1>  -0.9030 
  4 C        3.2010    -0.9590    -0.8710 C.ar  1 <1>  -0.1870 
  5 C        3.8170     0.2820    -0.7570 C.ar  1 <1>  -0.1170 
  6 C        3.9580    -2.1030    -0.5550 C.ar  1 <1>  -0.1580 
  7 C        5.1350     0.3570    -0.3450 C.ar  1 <1>   0.3020 
  8 C        5.2730    -2.0250    -0.1440 C.ar  1 <1>  -0.1170 
  9 N        5.9710     1.4330    -0.1610 N.pl3 1 <1>  -0.7040 
 10 C        5.8660    -0.7710    -0.0380 C.ar  1 <1>   0.3020 
 11 C        7.1680     1.0030     0.2260 C.cat 1 <1>   1.0690 
 12 N        7.1410    -0.3440     0.3370 N.pl3 1 <1>  -0.7680 
 13 N        8.2010     1.8520     0.4320 N.pl3 1 <1>  -0.5970 
 14 C        8.1470    -1.2850     0.8950 C.3   1 <1>   0.2670 
 15 C        8.0320     3.3480     0.4300 C.3   1 <1>   0.1600 
 16 C        9.6430     1.4640     0.4890 C.3   1 <1>   0.1600 
 17 C        8.3880     3.9840    -0.9290 C.3   1 <1>   0.1320 
 18 C       10.1970     1.1780    -0.9160 C.3   1 <1>  -0.1680 
 19 N        9.7430     3.5720    -1.3970 N.am  1 <1>  -0.6650 
 20 C        9.8090     2.2080    -1.9870 C.3   1 <1>   0.1320 
 21 C       10.8770     4.3680    -1.3090 C.2   1 <1>   0.7110 
 22 O       11.8600     4.0250    -1.9430 O.2   1 <1>  -0.5750 
 23 C       10.9600     5.5640    -0.4920 C.2   1 <1>   0.0460 
 24 O       10.1700     5.7790     0.5610 O.3   1 <1>  -0.2870 
 25 C       11.8170     6.6190    -0.5970 C.2   1 <1>  -0.1580 
 26 C       10.4950     6.9270     1.1120 C.2   1 <1>  -0.0190 
 27 C       11.5120     7.5020     0.4390 C.2   1 <1>  -0.1580 
 28 H        3.2640     1.1760    -0.9920 H     1 <1>   0.1420 
 29 H        3.4740    -3.0650    -0.6450 H     1 <1>   0.1420 
 30 H        5.8190    -2.9200     0.0840 H     1 <1>   0.1420 
 31 H        5.7020     2.3930    -0.3370 H     1 <1>   0.4440 
 32 H        7.7100    -2.2540     1.0610 H     1 <1>   0.0710 
 33 H        8.5060    -0.9210     1.8420 H     1 <1>   0.0710 
 34 H        8.9700    -1.3960     0.2120 H     1 <1>   0.0710 
 35 H        8.6610     3.7780     1.1910 H     1 <1>   0.0710 
 36 H        7.0230     3.6150     0.6890 H     1 <1>   0.0710 
 37 H        9.8000     0.6230     1.1340 H     1 <1>   0.0710 
 38 H       10.2120     2.2730     0.9180 H     1 <1>   0.0710 
 39 H        8.3340     5.0560    -0.8530 H     1 <1>   0.0710 
 40 H        7.6590     3.6940    -1.6650 H     1 <1>   0.0710 
 41 H        9.8880     0.2040    -1.2470 H     1 <1>   0.0710 
 42 H       11.2710     1.1550    -0.8510 H     1 <1>   0.0710 
 43 H        8.8500     1.9540    -2.4060 H     1 <1>   0.0710 
 44 H       10.5240     2.1820    -2.7930 H     1 <1>   0.0710 
 45 H       12.5910     6.7540    -1.3320 H     1 <1>   0.1420 
 46 H        9.9570     7.2670     1.9810 H     1 <1>   0.1420 
 47 H       12.0070     8.4370     0.6350 H     1 <1>   0.1420 
@<TRIPOS>BOND
  1   1   2  ar  
  2   2   3  ar  
  3   2   4  1   
  4   4   5  ar  
  5   4   6  ar  
  6   5   7  ar  
  7   5  28  1   
  8   6   8  ar  
  9   6  29  1   
 10   7   9  1   
 11   7  10  ar  
 12   8  10  ar  
 13   8  30  1   
 14   9  11  ar  
 15   9  31  1   
 16  10  12  1   
 17  11  12  ar  
 18  11  13  ar  
 19  12  14  1   
 20  13  15  1   
 21  13  16  1   
 22  14  32  1   
 23  14  33  1   
 24  14  34  1   
 25  15  17  1   
 26  15  35  1   
 27  15  36  1   
 28  16  18  1   
 29  16  37  1   
 30  16  38  1   
 31  17  19  1   
 32  17  39  1   
 33  17  40  1   
 34  18  20  1   
 35  18  41  1   
 36  18  42  1   
 37  19  20  1   
 38  19  21  am  
 39  20  43  1   
 40  20  44  1   
 41  21  22  2   
 42  21  23  1   
 43  23  24  1   
 44  23  25  2   
 45  24  26  1   
 46  25  27  1   
 47  25  45  1   
 48  26  27  2   
 49  26  46  1   
 50  27  47  1   
@<TRIPOS>SUBSTRUCTURE
  1 ****  13 GROUP 4 **** **** 0

# MOE 2024.06 (io_trps.svl 2023.06)
