@<TRIPOS>MOLECULE
NONAME
42 44 1 0 0 
SMALL
USER_CHARGES


@<TRIPOS>ATOM
  1 O       -1.4040     0.5090    -1.1220 O.2   1 <1>  -0.5700 
  2 C       -1.3700     0.5420     0.0980 C.2   1 <1>   0.7160 
  3 N       -1.6560    -0.6080     0.7750 N.am  1 <1>  -0.7300 
  4 C       -1.0660     1.7610     0.8320 C.2   1 <1>   0.2030 
  5 C       -2.1090    -1.8810     0.1730 C.3   1 <1>   0.2200 
  6 N       -1.1120     1.8630     2.1280 N.2   1 <1>  -0.4100 
  7 C       -0.6980     3.0020     0.3130 C.2   1 <1>  -0.1810 
  8 C       -3.6280    -1.9210     0.1850 C.3   1 <1>  -0.0800 
  9 C       -1.7510    -3.0510     1.0860 C.3   1 <1>   0.1200 
 10 O       -0.8150     3.0800     2.5030 O.3   1 <1>  -0.0190 
 11 C       -0.5690     3.7630     1.4070 C.2   1 <1>  -0.0400 
 12 C       -0.4890     3.3730    -1.1460 C.3   1 <1>   0.3010 
 13 C       -3.9150    -2.4320     1.5990 C.3   1 <1>   0.1200 
 14 C       -4.1800    -2.8650    -0.8990 C.3   1 <1>  -0.0170 
 15 O       -2.8150    -3.2050     1.9790 O.3   1 <1>  -0.5600 
 16 C       -0.1980     5.2250     1.5650 C.3   1 <1>  -0.0600 
 17 O       -1.6570     3.1350    -1.8390 O.3   1 <1>  -0.6800 
 18 C       -5.7000    -2.8510    -0.9170 C.ar  1 <1>  -0.1440 
 19 C       -6.4520    -3.8940    -0.4140 C.ar  1 <1>  -0.1500 
 20 C       -6.4060    -1.7860    -1.4390 C.ar  1 <1>  -0.1500 
 21 C       -7.8350    -3.8200    -0.4520 C.ar  1 <1>   0.1600 
 22 C       -7.7910    -1.8120    -1.4290 C.ar  1 <1>   0.1600 
 23 N       -8.5220    -2.8030    -0.9460 N.ar  1 <1>  -0.6200 
 24 H       -1.7010    -0.5530     1.7980 H     1 <1>   0.3700 
 25 H       -1.6900    -1.9940    -0.8130 H     1 <1>   0.0800 
 26 H       -4.0470    -0.9410     0.0370 H     1 <1>   0.0800 
 27 H       -0.8400    -2.8850     1.6340 H     1 <1>   0.0800 
 28 H       -1.6720    -3.9620     0.5190 H     1 <1>   0.0800 
 29 H        0.2920     2.7780    -1.5860 H     1 <1>   0.0800 
 30 H       -0.2490     4.4150    -1.2560 H     1 <1>   0.0800 
 31 H       -4.8070    -3.0290     1.6640 H     1 <1>   0.0800 
 32 H       -3.9860    -1.6100     2.2900 H     1 <1>   0.0800 
 33 H       -3.8280    -3.8700    -0.7360 H     1 <1>   0.0800 
 34 H       -3.8240    -2.5490    -1.8640 H     1 <1>   0.0800 
 35 H       -0.0300     5.6880     0.6100 H     1 <1>   0.0800 
 36 H        0.6970     5.3100     2.1550 H     1 <1>   0.0800 
 37 H       -0.9940     5.7460     2.0650 H     1 <1>   0.0800 
 38 H       -1.8210     2.1610    -1.8360 H     1 <1>   0.4000 
 39 H       -5.9790    -4.7620     0.0080 H     1 <1>   0.1500 
 40 H       -5.8940    -0.9370    -1.8530 H     1 <1>   0.1500 
 41 H       -8.4060    -4.6420    -0.0550 H     1 <1>   0.1500 
 42 H       -8.3250    -0.9720    -1.8390 H     1 <1>   0.1500 
@<TRIPOS>BOND
  1   1   2  2   
  2   2   3  am  
  3   2   4  1   
  4   3   5  1   
  5   3  24  1   
  6   4   6  2   
  7   4   7  1   
  8   5   8  1   
  9   5   9  1   
 10   5  25  1   
 11   6  10  1   
 12   7  11  2   
 13   7  12  1   
 14   8  13  1   
 15   8  14  1   
 16   8  26  1   
 17   9  15  1   
 18   9  27  1   
 19   9  28  1   
 20  10  11  1   
 21  11  16  1   
 22  12  17  1   
 23  12  29  1   
 24  12  30  1   
 25  13  15  1   
 26  13  31  1   
 27  13  32  1   
 28  14  18  1   
 29  14  33  1   
 30  14  34  1   
 31  16  35  1   
 32  16  36  1   
 33  16  37  1   
 34  17  38  1   
 35  18  19  ar  
 36  18  20  ar  
 37  19  21  ar  
 38  19  39  1   
 39  20  22  ar  
 40  20  40  1   
 41  21  23  ar  
 42  21  41  1   
 43  22  23  ar  
 44  22  42  1   
@<TRIPOS>SUBSTRUCTURE
  1 ****   3 GROUP 4 **** **** 0

# MOE 2024.06 (io_trps.svl 2023.06)
