@<TRIPOS>MOLECULE
NONAME
47 49 1 0 0 
SMALL
USER_CHARGES


@<TRIPOS>ATOM
  1 O       -1.9220    -0.8140     2.2730 O.2   1 <1>  -0.5700 
  2 C       -2.3270    -1.2280     1.1990 C.2   1 <1>   0.5410 
  3 C       -2.9370    -0.4340     0.1570 C.2   1 <1>   0.0910 
  4 C       -2.2190    -2.6190     0.9120 C.2   1 <1>  -0.1360 
  5 O       -3.1360     0.9190     0.2470 O.3   1 <1>  -0.3570 
  6 C       -3.3600    -1.0420    -0.9780 C.2   1 <1>  -0.0730 
  7 C       -2.6750    -3.1440    -0.2520 C.2   1 <1>  -0.0620 
  8 C       -2.2600     1.7220     1.0130 C.3   1 <1>   0.0400 
  9 O       -3.2330    -2.3620    -1.1810 O.3   1 <1>  -0.1530 
 10 C       -2.6000    -4.6160    -0.6230 C.3   1 <1>   0.4810 
 11 N       -3.9230    -5.2750    -0.4030 N.4   1 <1>  -0.9590 
 12 C       -3.7850    -6.7590    -0.3650 C.3   1 <1>   0.3430 
 13 C       -4.9460    -4.8430    -1.4030 C.3   1 <1>   0.3430 
 14 C       -5.1180    -7.3900     0.0280 C.3   1 <1>  -0.1600 
 15 C       -6.3020    -5.4280    -1.0300 C.3   1 <1>  -0.1600 
 16 C       -6.2440    -6.9490    -0.9120 C.3   1 <1>   0.2000 
 17 O       -7.4480    -7.3410    -0.3570 O.3   1 <1>  -0.5600 
 18 C       -7.8900    -8.6310    -0.7020 C.3   1 <1>   0.2630 
 19 C       -9.0940    -9.0650     0.1280 C.ar  1 <1>   0.1660 
 20 N       -9.3290   -10.3710     0.1390 N.ar  1 <1>  -0.6200 
 21 C       -9.8740    -8.1380     0.8080 C.ar  1 <1>  -0.1500 
 22 C      -10.3720   -10.7640     0.8530 C.ar  1 <1>   0.1600 
 23 C      -10.9570    -8.5620     1.5480 C.ar  1 <1>  -0.1500 
 24 C      -11.2040    -9.9170     1.5650 C.ar  1 <1>  -0.1500 
 25 H       -1.7560    -3.2070     1.6830 H     1 <1>   0.1500 
 26 H       -3.8230    -0.5080    -1.7900 H     1 <1>   0.1500 
 27 H       -2.4190     2.7490     0.7380 H     1 <1>   0.0800 
 28 H       -1.2430     1.4400     0.8060 H     1 <1>   0.0800 
 29 H       -2.4860     1.5900     2.0570 H     1 <1>   0.0800 
 30 H       -1.8590    -5.0870     0.0030 H     1 <1>   0.0800 
 31 H       -2.2890    -4.7200    -1.6500 H     1 <1>   0.0800 
 32 H       -4.2630    -4.9680     0.5190 H     1 <1>   0.4500 
 33 H       -3.0330    -7.0440     0.3540 H     1 <1>   0.0800 
 34 H       -3.4840    -7.1240    -1.3340 H     1 <1>   0.0800 
 35 H       -4.6630    -5.1760    -2.3890 H     1 <1>   0.0800 
 36 H       -5.0250    -3.7680    -1.4200 H     1 <1>   0.0800 
 37 H       -5.3570    -7.1130     1.0390 H     1 <1>   0.0800 
 38 H       -5.0140    -8.4600    -0.0070 H     1 <1>   0.0800 
 39 H       -7.0200    -5.1600    -1.7860 H     1 <1>   0.0800 
 40 H       -6.6270    -4.9990    -0.0980 H     1 <1>   0.0800 
 41 H       -6.1360    -7.3900    -1.8910 H     1 <1>   0.0800 
 42 H       -7.0900    -9.3310    -0.5350 H     1 <1>   0.0800 
 43 H       -8.1560    -8.6370    -1.7440 H     1 <1>   0.0800 
 44 H       -9.6400    -7.0900     0.7610 H     1 <1>   0.1500 
 45 H      -10.5760   -11.8210     0.8730 H     1 <1>   0.1500 
 46 H      -11.5780    -7.8670     2.0860 H     1 <1>   0.1500 
 47 H      -12.0310   -10.3150     2.1220 H     1 <1>   0.1500 
@<TRIPOS>BOND
  1   1   2  2   
  2   2   3  1   
  3   2   4  1   
  4   3   5  1   
  5   3   6  2   
  6   4   7  2   
  7   4  25  1   
  8   5   8  1   
  9   6   9  1   
 10   6  26  1   
 11   7   9  1   
 12   7  10  1   
 13   8  27  1   
 14   8  28  1   
 15   8  29  1   
 16  10  11  1   
 17  10  30  1   
 18  10  31  1   
 19  11  12  1   
 20  11  13  1   
 21  11  32  1   
 22  12  14  1   
 23  12  33  1   
 24  12  34  1   
 25  13  15  1   
 26  13  35  1   
 27  13  36  1   
 28  14  16  1   
 29  14  37  1   
 30  14  38  1   
 31  15  16  1   
 32  15  39  1   
 33  15  40  1   
 34  16  17  1   
 35  16  41  1   
 36  17  18  1   
 37  18  19  1   
 38  18  42  1   
 39  18  43  1   
 40  19  20  ar  
 41  19  21  ar  
 42  20  22  ar  
 43  21  23  ar  
 44  21  44  1   
 45  22  24  ar  
 46  22  45  1   
 47  23  24  ar  
 48  23  46  1   
 49  24  47  1   
@<TRIPOS>SUBSTRUCTURE
  1 ****  15 GROUP 4 **** **** 0

# MOE 2024.06 (io_trps.svl 2023.06)
