@<TRIPOS>MOLECULE
NONAME
45 47 1 0 0 
SMALL
USER_CHARGES


@<TRIPOS>ATOM
  1 S       -2.5950     0.2540    -0.6770 S.3   1 <1>  -0.2860 
  2 C       -1.2130     1.3840    -0.6970 C.2   1 <1>   0.5340 
  3 C       -3.0790     0.0900     1.1110 C.3   1 <1>   0.2110 
  4 O       -0.7730     1.8560     0.4560 O.3   1 <1>  -0.2800 
  5 N       -0.6180     1.7760    -1.7560 N.2   1 <1>  -0.5650 
  6 C       -3.2980    -1.3910     1.4620 C.2   1 <1>   0.5690 
  7 C       -4.2680     1.0260     1.4150 C.3   1 <1>  -0.1600 
  8 C        0.2250     2.6470     0.1140 C.ar  1 <1>   0.1400 
  9 C        0.3350     2.6090    -1.2570 C.ar  1 <1>   0.2270 
 10 O       -2.4560    -1.8910     2.1750 O.2   1 <1>  -0.5700 
 11 N       -4.3610    -2.1530     1.0250 N.am  1 <1>  -0.6600 
 12 C       -3.8920     2.5140     1.3720 C.3   1 <1>  -0.2400 
 13 C        1.0660     3.4160     0.9060 C.ar  1 <1>  -0.1500 
 14 C        1.3170     3.3610    -1.8920 C.ar  1 <1>  -0.1500 
 15 C       -4.4790    -3.5730     1.4860 C.3   1 <1>   0.3200 
 16 C       -5.2970    -1.8140    -0.0910 C.3   1 <1>   0.1400 
 17 C        2.0420     4.1630     0.2720 C.ar  1 <1>  -0.1500 
 18 C        2.1660     4.1350    -1.1210 C.ar  1 <1>  -0.1500 
 19 C       -3.6170    -4.4800     0.6260 C.2   1 <1>   0.0070 
 20 C       -6.7040    -1.5220     0.4430 C.3   1 <1>   0.1200 
 21 N       -4.0600    -5.4420    -0.1190 N.2   1 <1>  -0.5650 
 22 N       -2.2760    -4.3360     0.5830 N.pl3 1 <1>   0.0330 
 23 O       -7.5010    -1.0420    -0.5860 O.3   1 <1>  -0.6800 
 24 C       -2.9450    -5.9520    -0.6800 C.2   1 <1>   0.0770 
 25 C       -1.8450    -5.2890    -0.2620 C.2   1 <1>  -0.3020 
 26 H       -2.2330     0.4160     1.6860 H     1 <1>   0.0800 
 27 H       -4.6360     0.7980     2.4000 H     1 <1>   0.0800 
 28 H       -5.0650     0.8530     0.7170 H     1 <1>   0.0800 
 29 H       -3.0840     2.7220     2.0530 H     1 <1>   0.0800 
 30 H       -4.7370     3.1150     1.6570 H     1 <1>   0.0800 
 31 H       -3.5920     2.8080     0.3810 H     1 <1>   0.0800 
 32 H        0.9500     3.4200     1.9750 H     1 <1>   0.1500 
 33 H        1.3940     3.3250    -2.9630 H     1 <1>   0.1500 
 34 H       -5.5020    -3.9000     1.4280 H     1 <1>   0.0800 
 35 H       -4.1680    -3.6550     2.5130 H     1 <1>   0.0800 
 36 H       -5.3430    -2.6460    -0.7760 H     1 <1>   0.0800 
 37 H       -4.9390    -0.9650    -0.6370 H     1 <1>   0.0800 
 38 H        2.7150     4.7730     0.8500 H     1 <1>   0.1500 
 39 H        2.9330     4.7240    -1.5940 H     1 <1>   0.1500 
 40 H       -6.6810    -0.7790     1.2210 H     1 <1>   0.0800 
 41 H       -7.1630    -2.4210     0.8160 H     1 <1>   0.0800 
 42 H       -1.7440    -3.6200     1.0960 H     1 <1>   0.2700 
 43 H       -7.1730    -0.1870    -0.9260 H     1 <1>   0.4000 
 44 H       -2.9950    -6.7810    -1.3650 H     1 <1>   0.1500 
 45 H       -0.8110    -5.4350    -0.5140 H     1 <1>   0.1500 
@<TRIPOS>BOND
  1   1   2  1   
  2   1   3  1   
  3   2   4  1   
  4   2   5  2   
  5   3   6  1   
  6   3   7  1   
  7   3  26  1   
  8   4   8  1   
  9   5   9  1   
 10   6  10  2   
 11   6  11  am  
 12   7  12  1   
 13   7  27  1   
 14   7  28  1   
 15   8   9  ar  
 16   8  13  ar  
 17   9  14  ar  
 18  11  15  1   
 19  11  16  1   
 20  12  29  1   
 21  12  30  1   
 22  12  31  1   
 23  13  17  ar  
 24  13  32  1   
 25  14  18  ar  
 26  14  33  1   
 27  15  19  1   
 28  15  34  1   
 29  15  35  1   
 30  16  20  1   
 31  16  36  1   
 32  16  37  1   
 33  17  18  ar  
 34  17  38  1   
 35  18  39  1   
 36  19  21  2   
 37  19  22  1   
 38  20  23  1   
 39  20  40  1   
 40  20  41  1   
 41  21  24  1   
 42  22  25  1   
 43  22  42  1   
 44  23  43  1   
 45  24  25  2   
 46  24  44  1   
 47  25  45  1   
@<TRIPOS>SUBSTRUCTURE
  1 ****   1 GROUP 4 **** **** 0

# MOE 2024.06 (io_trps.svl 2023.06)
