@<TRIPOS>MOLECULE
NONAME
47 49 1 0 0 
SMALL
USER_CHARGES


@<TRIPOS>ATOM
  1 S       -0.8090    -0.0850     0.9230 S.o2  1 <1>   1.0900 
  2 O       -2.0020     0.4540     0.3150 O.2   1 <1>  -0.6500 
  3 O       -0.5140     0.1930     2.3080 O.2   1 <1>  -0.6500 
  4 C       -0.8490    -1.8640     0.7220 C.3   1 <1>  -0.0550 
  5 C        0.5940     0.4380    -0.0460 C.3   1 <1>  -0.1350 
  6 C       -1.2020    -2.3160    -0.7040 C.3   1 <1>  -0.0990 
  7 C       -1.2810    -3.8250    -0.7640 C.2   1 <1>   0.5690 
  8 O       -0.2460    -4.4210    -0.9290 O.2   1 <1>  -0.5700 
  9 N       -2.4750    -4.4710    -0.6070 N.am  1 <1>  -0.6600 
 10 C       -3.8000    -3.8530    -0.3400 C.3   1 <1>   0.1400 
 11 C       -2.5870    -5.9490    -0.6240 C.3   1 <1>   0.1400 
 12 C       -4.7670    -5.0280    -0.1720 C.3   1 <1>   0.2000 
 13 C       -3.8960    -6.2520     0.1070 C.3   1 <1>  -0.0800 
 14 O       -5.6410    -4.8210     0.8830 O.3   1 <1>  -0.6800 
 15 C       -4.5640    -7.5670    -0.3290 C.3   1 <1>  -0.0170 
 16 C       -3.6680    -8.7610    -0.0510 C.ar  1 <1>   0.1670 
 17 N       -2.8140    -9.0940    -0.9710 N.ar  1 <1>  -0.6200 
 18 C       -3.7940    -9.4360     1.1740 C.ar  1 <1>  -0.1500 
 19 C       -1.9980   -10.1510    -0.7240 C.ar  1 <1>   0.3100 
 20 C       -2.9910   -10.5010     1.4460 C.ar  1 <1>  -0.1500 
 21 C       -2.0500   -10.8900     0.4780 C.ar  1 <1>   0.0000 
 22 C       -1.0600   -10.5260    -1.6990 C.ar  1 <1>  -0.1500 
 23 C       -1.1660   -11.9730     0.6550 C.ar  1 <1>  -0.1500 
 24 C       -0.2090   -11.5820    -1.5070 C.ar  1 <1>  -0.1500 
 25 C       -0.2630   -12.3130    -0.3160 C.ar  1 <1>  -0.1500 
 26 H        0.0990    -2.2850     1.0000 H     1 <1>   0.0800 
 27 H       -1.5830    -2.2670     1.3930 H     1 <1>   0.0800 
 28 H        0.4510     0.2050    -1.0830 H     1 <1>   0.0800 
 29 H        1.4900    -0.0400     0.2990 H     1 <1>   0.0800 
 30 H        0.7220     1.5000     0.0450 H     1 <1>   0.0800 
 31 H       -2.1310    -1.8780    -1.0180 H     1 <1>   0.0800 
 32 H       -0.4420    -1.9940    -1.3910 H     1 <1>   0.0800 
 33 H       -3.7510    -3.2620     0.5580 H     1 <1>   0.0800 
 34 H       -4.1000    -3.2410    -1.1730 H     1 <1>   0.0800 
 35 H       -2.6300    -6.2870    -1.6460 H     1 <1>   0.0800 
 36 H       -1.7450    -6.4120    -0.1370 H     1 <1>   0.0800 
 37 H       -5.3450    -5.1540    -1.0720 H     1 <1>   0.0800 
 38 H       -3.6660    -6.3010     1.1570 H     1 <1>   0.0800 
 39 H       -5.1490    -4.7320     1.7220 H     1 <1>   0.4000 
 40 H       -4.7850    -7.5350    -1.3820 H     1 <1>   0.0800 
 41 H       -5.4960    -7.6870     0.1930 H     1 <1>   0.0800 
 42 H       -4.5270    -9.1020     1.8860 H     1 <1>   0.1500 
 43 H       -3.0580   -11.0430     2.3720 H     1 <1>   0.1500 
 44 H       -1.0330    -9.9510    -2.6060 H     1 <1>   0.1500 
 45 H       -1.2120   -12.5300     1.5740 H     1 <1>   0.1500 
 46 H        0.5060   -11.8580    -2.2630 H     1 <1>   0.1500 
 47 H        0.4120   -13.1400    -0.1780 H     1 <1>   0.1500 
@<TRIPOS>BOND
  1   1   2  2   
  2   1   3  2   
  3   1   4  1   
  4   1   5  1   
  5   4   6  1   
  6   4  26  1   
  7   4  27  1   
  8   5  28  1   
  9   5  29  1   
 10   5  30  1   
 11   6   7  1   
 12   6  31  1   
 13   6  32  1   
 14   7   8  2   
 15   7   9  am  
 16   9  10  1   
 17   9  11  1   
 18  10  12  1   
 19  10  33  1   
 20  10  34  1   
 21  11  13  1   
 22  11  35  1   
 23  11  36  1   
 24  12  13  1   
 25  12  14  1   
 26  12  37  1   
 27  13  15  1   
 28  13  38  1   
 29  14  39  1   
 30  15  16  1   
 31  15  40  1   
 32  15  41  1   
 33  16  17  ar  
 34  16  18  ar  
 35  17  19  ar  
 36  18  20  ar  
 37  18  42  1   
 38  19  21  ar  
 39  19  22  ar  
 40  20  21  ar  
 41  20  43  1   
 42  21  23  ar  
 43  22  24  ar  
 44  22  44  1   
 45  23  25  ar  
 46  23  45  1   
 47  24  25  ar  
 48  24  46  1   
 49  25  47  1   
@<TRIPOS>SUBSTRUCTURE
  1 ****  11 GROUP 4 **** **** 0

# MOE 2024.06 (io_trps.svl 2023.06)
