@<TRIPOS>MOLECULE
NONAME
48 48 1 0 0 
SMALL
USER_CHARGES


@<TRIPOS>ATOM
  1 N        1.7610    -0.3970    -1.7850 N.pl3 1 <1>   0.0330 
  2 C        0.8800     0.6020    -1.5540 C.2   1 <1>   0.0060 
  3 C        2.7410    -0.2190    -0.8810 C.2   1 <1>  -0.3020 
  4 N        1.2250     1.3830    -0.5810 N.2   1 <1>  -0.5650 
  5 C       -0.3800     0.7630    -2.3810 C.3   1 <1>  -0.0600 
  6 C        2.4010     0.8660    -0.1530 C.2   1 <1>   0.0460 
  7 C        3.1700     1.5270     0.9820 C.3   1 <1>   0.5240 
  8 N        3.0070     2.9980     0.7810 N.4   1 <1>  -0.9590 
  9 C        4.2760     3.5920     0.2510 C.3   1 <1>   0.3430 
 10 C        2.4380     3.7350     1.9680 C.3   1 <1>   0.3430 
 11 C        4.0420     4.6090    -0.8930 C.3   1 <1>   0.0000 
 12 C        1.0310     3.2610     2.4470 C.3   1 <1>   0.3430 
 13 C        3.3540     5.8950    -0.4060 C.3   1 <1>  -0.2400 
 14 C        3.2100     3.9920    -2.0330 C.3   1 <1>  -0.2400 
 15 C        5.4170     4.9940    -1.4600 C.3   1 <1>  -0.2400 
 16 N       -0.0180     3.1080     1.3720 N.4   1 <1>  -0.9590 
 17 C       -0.3960     4.3930     0.7000 C.3   1 <1>   0.2630 
 18 C       -1.2500     2.4610     1.9290 C.3   1 <1>   0.2630 
 19 H        1.6930    -1.1300    -2.5020 H     1 <1>   0.2700 
 20 H        3.6000    -0.8660    -0.8230 H     1 <1>   0.1500 
 21 H       -0.1280     0.8920    -3.4180 H     1 <1>   0.0800 
 22 H       -0.9370     1.6220    -2.0560 H     1 <1>   0.0800 
 23 H       -1.0030    -0.1080    -2.2800 H     1 <1>   0.0800 
 24 H        4.2070     1.2360     0.9490 H     1 <1>   0.0800 
 25 H        2.7480     1.2170     1.9220 H     1 <1>   0.0800 
 26 H        2.3390     3.0230    -0.0110 H     1 <1>   0.4500 
 27 H        4.8940     2.8040    -0.1490 H     1 <1>   0.0800 
 28 H        4.8300     4.0640     1.0470 H     1 <1>   0.0800 
 29 H        2.3700     4.7830     1.7330 H     1 <1>   0.0800 
 30 H        3.1240     3.6510     2.7960 H     1 <1>   0.0800 
 31 H        0.6740     3.9560     3.1900 H     1 <1>   0.0800 
 32 H        1.1530     2.3130     2.9460 H     1 <1>   0.0800 
 33 H        2.3390     5.7170    -0.1120 H     1 <1>   0.0800 
 34 H        3.3330     6.6250    -1.1980 H     1 <1>   0.0800 
 35 H        3.8920     6.3280     0.4210 H     1 <1>   0.0800 
 36 H        2.1960     3.8020    -1.7370 H     1 <1>   0.0800 
 37 H        3.6480     3.0680    -2.3700 H     1 <1>   0.0800 
 38 H        3.1780     4.6640    -2.8750 H     1 <1>   0.0800 
 39 H        6.0340     5.4490    -0.7040 H     1 <1>   0.0800 
 40 H        5.3140     5.7000    -2.2680 H     1 <1>   0.0800 
 41 H        5.9330     4.1310    -1.8450 H     1 <1>   0.0800 
 42 H        0.3320     2.4500     0.6370 H     1 <1>   0.4500 
 43 H       -0.7820     5.0970     1.4190 H     1 <1>   0.0800 
 44 H       -1.1570     4.2120    -0.0430 H     1 <1>   0.0800 
 45 H        0.4560     4.8290     0.2060 H     1 <1>   0.0800 
 46 H       -1.6910     3.0800     2.6940 H     1 <1>   0.0800 
 47 H       -1.0110     1.5000     2.3560 H     1 <1>   0.0800 
 48 H       -1.9780     2.3100     1.1480 H     1 <1>   0.0800 
@<TRIPOS>BOND
  1   1   2  1   
  2   1   3  1   
  3   1  19  1   
  4   2   4  2   
  5   2   5  1   
  6   3   6  2   
  7   3  20  1   
  8   4   6  1   
  9   5  21  1   
 10   5  22  1   
 11   5  23  1   
 12   6   7  1   
 13   7   8  1   
 14   7  24  1   
 15   7  25  1   
 16   8   9  1   
 17   8  10  1   
 18   8  26  1   
 19   9  11  1   
 20   9  27  1   
 21   9  28  1   
 22  10  12  1   
 23  10  29  1   
 24  10  30  1   
 25  11  13  1   
 26  11  14  1   
 27  11  15  1   
 28  12  16  1   
 29  12  31  1   
 30  12  32  1   
 31  13  33  1   
 32  13  34  1   
 33  13  35  1   
 34  14  36  1   
 35  14  37  1   
 36  14  38  1   
 37  15  39  1   
 38  15  40  1   
 39  15  41  1   
 40  16  17  1   
 41  16  18  1   
 42  16  42  1   
 43  17  43  1   
 44  17  44  1   
 45  17  45  1   
 46  18  46  1   
 47  18  47  1   
 48  18  48  1   
@<TRIPOS>SUBSTRUCTURE
  1 ****   8 GROUP 4 **** **** 0

# MOE 2024.06 (io_trps.svl 2023.06)
