@<TRIPOS>MOLECULE
NONAME
36 37 1 0 0 
SMALL
USER_CHARGES


@<TRIPOS>ATOM
  1 O        0.0360     0.2080    -1.0300 O.3   1 <1>  -0.6800 
  2 C        0.9760    -0.4890    -0.2830 C.3   1 <1>   0.1200 
  3 C        2.3770    -0.0530    -0.7230 C.3   1 <1>   0.1100 
  4 N        3.4620    -0.7260     0.0340 N.3   1 <1>  -0.8100 
  5 C        4.7770    -0.0640    -0.1690 C.3   1 <1>   0.2530 
  6 C        3.5570    -2.1660    -0.2540 C.3   1 <1>   0.2900 
  7 C        4.8530     1.3800     0.3360 C.ar  1 <1>   0.1670 
  8 C        2.6600    -2.9520     0.6830 C.2   1 <1>  -0.3320 
  9 N        5.1350     1.5600     1.6210 N.ar  1 <1>  -0.6200 
 10 C        4.6560     2.4240    -0.5590 C.ar  1 <1>  -0.1500 
 11 N        2.1740    -4.1830     0.4280 N.pl3 1 <1>   0.0480 
 12 C        2.1920    -2.6040     1.9030 C.2   1 <1>   0.0770 
 13 C        5.2010     2.8170     2.0280 C.ar  1 <1>   0.1600 
 14 C        4.7340     3.7290    -0.1220 C.ar  1 <1>  -0.1500 
 15 C        1.4320    -4.4930     1.5150 C.2   1 <1>   0.0360 
 16 C        2.3890    -5.0200    -0.7650 C.3   1 <1>   0.0160 
 17 N        1.4130    -3.5720     2.4220 N.2   1 <1>  -0.5650 
 18 C        5.0130     3.9200     1.2130 C.ar  1 <1>  -0.1500 
 19 H       -0.8630     0.0170    -0.6970 H     1 <1>   0.4000 
 20 H        0.8170    -1.5380    -0.4560 H     1 <1>   0.0800 
 21 H        0.8260    -0.2580     0.7580 H     1 <1>   0.0800 
 22 H        2.4310     1.0060    -0.5520 H     1 <1>   0.0800 
 23 H        2.4970    -0.2370    -1.7770 H     1 <1>   0.0800 
 24 H        5.0320    -0.0890    -1.2130 H     1 <1>   0.0800 
 25 H        5.5310    -0.6180     0.3640 H     1 <1>   0.0800 
 26 H        4.5650    -2.5140    -0.1030 H     1 <1>   0.0800 
 27 H        3.2910    -2.3500    -1.2810 H     1 <1>   0.0800 
 28 H        4.4380     2.2180    -1.5910 H     1 <1>   0.1500 
 29 H        2.3850    -1.6840     2.4320 H     1 <1>   0.1500 
 30 H        5.4190     2.9750     3.0700 H     1 <1>   0.1500 
 31 H        4.5820     4.5580    -0.7910 H     1 <1>   0.1500 
 32 H        0.9080    -5.4280     1.6010 H     1 <1>   0.1500 
 33 H        3.4440    -5.1730    -0.9060 H     1 <1>   0.0800 
 34 H        1.9750    -4.5260    -1.6250 H     1 <1>   0.0800 
 35 H        1.9060    -5.9700    -0.6320 H     1 <1>   0.0800 
 36 H        5.0850     4.9110     1.6220 H     1 <1>   0.1500 
@<TRIPOS>BOND
  1   1   2  1   
  2   1  19  1   
  3   2   3  1   
  4   2  20  1   
  5   2  21  1   
  6   3   4  1   
  7   3  22  1   
  8   3  23  1   
  9   4   5  1   
 10   4   6  1   
 11   5   7  1   
 12   5  24  1   
 13   5  25  1   
 14   6   8  1   
 15   6  26  1   
 16   6  27  1   
 17   7   9  ar  
 18   7  10  ar  
 19   8  11  1   
 20   8  12  2   
 21   9  13  ar  
 22  10  14  ar  
 23  10  28  1   
 24  11  15  1   
 25  11  16  1   
 26  12  17  1   
 27  12  29  1   
 28  13  18  ar  
 29  13  30  1   
 30  14  18  ar  
 31  14  31  1   
 32  15  17  2   
 33  15  32  1   
 34  16  33  1   
 35  16  34  1   
 36  16  35  1   
 37  18  36  1   
@<TRIPOS>SUBSTRUCTURE
  1 ****   4 GROUP 4 **** **** 0

# MOE 2024.06 (io_trps.svl 2023.06)
