@<TRIPOS>MOLECULE
NONAME
50 53 1 0 0 
SMALL
USER_CHARGES


@<TRIPOS>ATOM
  1 O        2.7070     0.7930    -0.6830 O.2   1 <1>  -0.5700 
  2 C        2.8760    -0.3420    -0.3180 C.2   1 <1>   0.5690 
  3 N        2.2490    -0.8300     0.7710 N.am  1 <1>  -0.7300 
  4 C        3.8390    -1.2500    -1.0490 C.3   1 <1>  -0.0990 
  5 C        2.5430    -2.1590     1.3420 C.3   1 <1>   0.1400 
  6 C        3.3380    -2.7080    -1.0920 C.3   1 <1>  -0.0800 
  7 C        2.6910    -3.2080     0.2210 C.3   1 <1>  -0.0800 
  8 C        4.4570    -3.6910    -1.4650 C.3   1 <1>  -0.1600 
  9 C        3.4870    -4.4340     0.6890 C.3   1 <1>  -0.1600 
 10 C        4.3900    -4.8500    -0.4680 C.3   1 <1>   0.2200 
 11 N        5.7200    -5.3350     0.0090 N.am  1 <1>  -0.6600 
 12 C        6.8200    -4.5500     0.3570 C.2   1 <1>   0.7160 
 13 C        5.8400    -6.8230     0.0040 C.3   1 <1>   0.0600 
 14 O        7.9210    -5.0780     0.2830 O.2   1 <1>  -0.5700 
 15 C        6.7520    -3.1450     0.7650 C.2   1 <1>   0.2030 
 16 N        6.0390    -2.6410     1.7610 N.2   1 <1>  -0.7070 
 17 C        7.4750    -2.1180     0.1380 C.2   1 <1>  -0.1810 
 18 N        6.3110    -1.3310     1.7620 N.pl3 1 <1>   0.3000 
 19 C        7.1660    -0.9670     0.7850 C.2   1 <1>  -0.2050 
 20 C        8.4140    -2.2790    -1.0460 C.3   1 <1>  -0.0590 
 21 C        7.5800     0.3940     0.5720 C.ar  1 <1>   0.0530 
 22 C        8.9230     0.7490     0.6380 C.ar  1 <1>  -0.1500 
 23 C        6.6500     1.3930     0.2970 C.ar  1 <1>  -0.1500 
 24 C        9.3270     2.0570     0.4410 C.ar  1 <1>  -0.1500 
 25 C        7.0470     2.7020     0.1000 C.ar  1 <1>  -0.1500 
 26 C        8.3880     3.0370     0.1720 C.ar  1 <1>  -0.1500 
 27 H        1.6250    -0.2010     1.2800 H     1 <1>   0.3700 
 28 H        3.9870    -0.8820    -2.0480 H     1 <1>   0.0800 
 29 H        4.7760    -1.1960    -0.5360 H     1 <1>   0.0800 
 30 H        3.4560    -2.0860     1.9060 H     1 <1>   0.0800 
 31 H        1.7550    -2.4510     2.0150 H     1 <1>   0.0800 
 32 H        2.5780    -2.7560    -1.8550 H     1 <1>   0.0800 
 33 H        1.6980    -3.5440    -0.0260 H     1 <1>   0.0800 
 34 H        5.4110    -3.2050    -1.4580 H     1 <1>   0.0800 
 35 H        4.2950    -4.0650    -2.4600 H     1 <1>   0.0800 
 36 H        2.8220    -5.2380     0.9460 H     1 <1>   0.0800 
 37 H        4.0750    -4.2070     1.5570 H     1 <1>   0.0800 
 38 H        3.8940    -5.6580    -0.9790 H     1 <1>   0.0800 
 39 H        4.9650    -7.2640     0.4470 H     1 <1>   0.0800 
 40 H        6.6990    -7.1390     0.5710 H     1 <1>   0.0800 
 41 H        5.9450    -7.1730    -1.0080 H     1 <1>   0.0800 
 42 H        5.9090    -0.6780     2.4450 H     1 <1>   0.2700 
 43 H        7.9240    -2.8170    -1.8380 H     1 <1>   0.0800 
 44 H        9.2880    -2.8300    -0.7450 H     1 <1>   0.0800 
 45 H        8.7210    -1.3200    -1.4220 H     1 <1>   0.0800 
 46 H        9.6530    -0.0130     0.8490 H     1 <1>   0.1500 
 47 H        5.6050     1.1450     0.2280 H     1 <1>   0.1500 
 48 H       10.3710     2.3130     0.4970 H     1 <1>   0.1500 
 49 H        6.3130     3.4600    -0.1140 H     1 <1>   0.1500 
 50 H        8.6990     4.0570     0.0180 H     1 <1>   0.1500 
@<TRIPOS>BOND
  1   1   2  2   
  2   2   3  am  
  3   2   4  1   
  4   3   5  1   
  5   3  27  1   
  6   4   6  1   
  7   4  28  1   
  8   4  29  1   
  9   5   7  1   
 10   5  30  1   
 11   5  31  1   
 12   6   7  1   
 13   6   8  1   
 14   6  32  1   
 15   7   9  1   
 16   7  33  1   
 17   8  10  1   
 18   8  34  1   
 19   8  35  1   
 20   9  10  1   
 21   9  36  1   
 22   9  37  1   
 23  10  11  1   
 24  10  38  1   
 25  11  12  am  
 26  11  13  1   
 27  12  14  2   
 28  12  15  1   
 29  13  39  1   
 30  13  40  1   
 31  13  41  1   
 32  15  16  2   
 33  15  17  1   
 34  16  18  1   
 35  17  19  2   
 36  17  20  1   
 37  18  19  1   
 38  18  42  1   
 39  19  21  1   
 40  20  43  1   
 41  20  44  1   
 42  20  45  1   
 43  21  22  ar  
 44  21  23  ar  
 45  22  24  ar  
 46  22  46  1   
 47  23  25  ar  
 48  23  47  1   
 49  24  26  ar  
 50  24  48  1   
 51  25  26  ar  
 52  25  49  1   
 53  26  50  1   
@<TRIPOS>SUBSTRUCTURE
  1 ****  18 GROUP 4 **** **** 0

# MOE 2024.06 (io_trps.svl 2023.06)
