@<TRIPOS>MOLECULE
NONAME
45 48 1 0 0 
SMALL
USER_CHARGES


@<TRIPOS>ATOM
  1 O        1.7460    -1.3190    -1.7330 O.3   1 <1>  -0.0190 
  2 N        2.7530    -0.7400    -2.3210 N.2   1 <1>  -0.4100 
  3 C        1.5600    -0.9010    -0.4990 C.2   1 <1>   0.0870 
  4 C        3.2390     0.0780    -1.4560 C.2   1 <1>   0.1080 
  5 C        0.4910    -1.4190     0.3230 C.ar  1 <1>   0.0530 
  6 C        2.5210     0.0200    -0.2700 C.2   1 <1>  -0.1500 
  7 C        4.4430     0.9770    -1.7100 C.3   1 <1>   0.2910 
  8 C        0.2880    -0.9490     1.6200 C.ar  1 <1>  -0.1500 
  9 C       -0.3770    -2.4060    -0.1450 C.ar  1 <1>  -0.1500 
 10 N        4.2990     2.3030    -1.0700 N.3   1 <1>  -0.8100 
 11 C       -0.7330    -1.4390     2.4150 C.ar  1 <1>  -0.1500 
 12 C       -1.4000    -2.9010     0.6440 C.ar  1 <1>  -0.1500 
 13 C        5.5940     3.0370    -1.0860 C.3   1 <1>   0.2910 
 14 C        3.2250     3.0880    -1.7060 C.3   1 <1>   0.0300 
 15 C       -1.5800    -2.4180     1.9270 C.ar  1 <1>  -0.1500 
 16 C        5.6010     4.3350    -0.2740 C.2   1 <1>   0.3350 
 17 N        5.9500     4.4260     0.9480 N.2   1 <1>  -0.4100 
 18 N        5.2580     5.5020    -0.8120 N.2   1 <1>  -0.5650 
 19 O        5.8480     5.6750     1.2860 O.3   1 <1>  -0.0190 
 20 C        5.4310     6.2680     0.1940 C.2   1 <1>   0.2980 
 21 C        5.1780     7.7760     0.2290 C.3   1 <1>   0.3800 
 22 O        6.2930     8.4640     0.7300 O.3   1 <1>  -0.5600 
 23 C        3.9950     8.1700     1.1210 C.3   1 <1>  -0.1600 
 24 C        6.0390     8.9820     1.9940 C.3   1 <1>   0.1200 
 25 C        4.5490     9.2730     2.0050 C.3   1 <1>  -0.1600 
 26 H        2.7220     0.6060     0.6070 H     1 <1>   0.1500 
 27 H        4.5810     1.0940    -2.7720 H     1 <1>   0.0800 
 28 H        5.3080     0.4780    -1.3120 H     1 <1>   0.0800 
 29 H        0.9360    -0.1880     2.0160 H     1 <1>   0.1500 
 30 H       -0.2510    -2.7930    -1.1410 H     1 <1>   0.1500 
 31 H       -0.8700    -1.0600     3.4130 H     1 <1>   0.1500 
 32 H       -2.0570    -3.6620     0.2590 H     1 <1>   0.1500 
 33 H        5.8700     3.2660    -2.1000 H     1 <1>   0.0800 
 34 H        6.3570     2.4020    -0.6710 H     1 <1>   0.0800 
 35 H        2.3010     2.5360    -1.7020 H     1 <1>   0.0800 
 36 H        3.4820     3.3300    -2.7230 H     1 <1>   0.0800 
 37 H        3.0620     4.0020    -1.1600 H     1 <1>   0.0800 
 38 H       -2.3760    -2.8010     2.5430 H     1 <1>   0.1500 
 39 H        5.0180     8.1290    -0.7750 H     1 <1>   0.0800 
 40 H        3.6880     7.3310     1.7210 H     1 <1>   0.0800 
 41 H        3.1560     8.5000     0.5350 H     1 <1>   0.0800 
 42 H        6.6390     9.8620     2.1450 H     1 <1>   0.0800 
 43 H        6.2950     8.2280     2.7200 H     1 <1>   0.0800 
 44 H        4.1410     9.2570     3.0000 H     1 <1>   0.0800 
 45 H        4.3740    10.2380     1.5610 H     1 <1>   0.0800 
@<TRIPOS>BOND
  1   1   2  1   
  2   1   3  1   
  3   2   4  2   
  4   3   5  1   
  5   3   6  2   
  6   4   6  1   
  7   4   7  1   
  8   5   8  ar  
  9   5   9  ar  
 10   6  26  1   
 11   7  10  1   
 12   7  27  1   
 13   7  28  1   
 14   8  11  ar  
 15   8  29  1   
 16   9  12  ar  
 17   9  30  1   
 18  10  13  1   
 19  10  14  1   
 20  11  15  ar  
 21  11  31  1   
 22  12  15  ar  
 23  12  32  1   
 24  13  16  1   
 25  13  33  1   
 26  13  34  1   
 27  14  35  1   
 28  14  36  1   
 29  14  37  1   
 30  15  38  1   
 31  16  17  2   
 32  16  18  1   
 33  17  19  1   
 34  18  20  2   
 35  19  20  1   
 36  20  21  1   
 37  21  22  1   
 38  21  23  1   
 39  21  39  1   
 40  22  24  1   
 41  23  25  1   
 42  23  40  1   
 43  23  41  1   
 44  24  25  1   
 45  24  42  1   
 46  24  43  1   
 47  25  44  1   
 48  25  45  1   
@<TRIPOS>SUBSTRUCTURE
  1 ****  10 GROUP 4 **** **** 0

# MOE 2024.06 (io_trps.svl 2023.06)
