@<TRIPOS>MOLECULE
NONAME
49 51 1 0 0 
SMALL
USER_CHARGES


@<TRIPOS>ATOM
  1 O        1.5280     1.2730    -2.1180 O.co2 1 <1>  -0.9000 
  2 C        2.0550     1.7100    -1.0750 C.2   1 <1>   0.9790 
  3 O        1.3120     2.3350    -0.2880 O.co2 1 <1>  -0.9000 
  4 C        3.4770     1.5280    -0.7540 C.ar  1 <1>   0.1310 
  5 N        4.3470     0.8780    -1.5660 N.ar  1 <1>  -0.6200 
  6 C        3.9270     2.0680     0.4570 C.ar  1 <1>   0.1600 
  7 C        5.5690     0.8250    -1.0940 C.ar  1 <1>   0.1600 
  8 N        5.1660     2.0280     0.9240 N.ar  1 <1>  -0.6200 
  9 C        5.9970     1.3840     0.1190 C.ar  1 <1>   0.4100 
 10 N        7.3250     1.2880     0.5190 N.pl3 1 <1>  -0.8380 
 11 C        7.9330     2.3880     1.3190 C.3   1 <1>   0.2090 
 12 C        7.8080    -0.0690     0.8900 C.3   1 <1>   0.1290 
 13 C        7.8920     3.7240     0.5500 C.3   1 <1>  -0.0800 
 14 C        8.5410     3.6290    -0.8430 C.3   1 <1>  -0.1600 
 15 C        8.5620     4.8480     1.3550 C.3   1 <1>  -0.1600 
 16 C        8.4910     4.9700    -1.5680 C.3   1 <1>   0.3430 
 17 C        8.5200     6.1740     0.5940 C.3   1 <1>   0.3430 
 18 N        9.1670     6.0110    -0.7430 N.4   1 <1>  -0.9590 
 19 C        9.2590     7.3060    -1.4680 C.3   1 <1>   0.4860 
 20 C       10.1650     8.2350    -0.6850 C.ar  1 <1>  -0.1430 
 21 C       11.5400     8.0380    -0.6860 C.ar  1 <1>  -0.1500 
 22 C        9.6260     9.2860     0.0440 C.ar  1 <1>  -0.1500 
 23 C       12.3630     8.8760     0.0460 C.ar  1 <1>  -0.1500 
 24 C       10.4520    10.1230     0.7750 C.ar  1 <1>  -0.1500 
 25 C       11.8190     9.9160     0.7770 C.ar  1 <1>  -0.1500 
 26 H        3.2020     2.5700     1.0760 H     1 <1>   0.1500 
 27 H        6.3040     0.3180    -1.6870 H     1 <1>   0.1500 
 28 H        8.9550     2.1360     1.5450 H     1 <1>   0.0800 
 29 H        7.3980     2.4830     2.2500 H     1 <1>   0.0800 
 30 H        7.2090    -0.8270     0.4130 H     1 <1>   0.0800 
 31 H        7.7390    -0.2030     1.9560 H     1 <1>   0.0800 
 32 H        8.8310    -0.1910     0.5800 H     1 <1>   0.0800 
 33 H        6.8570     3.9940     0.4230 H     1 <1>   0.0800 
 34 H        8.0080     2.9080    -1.4400 H     1 <1>   0.0800 
 35 H        9.5580     3.2900    -0.7630 H     1 <1>   0.0800 
 36 H        9.5840     4.5960     1.5800 H     1 <1>   0.0800 
 37 H        8.0440     4.9730     2.2910 H     1 <1>   0.0800 
 38 H        7.4610     5.2450    -1.7350 H     1 <1>   0.0800 
 39 H        8.9780     4.8770    -2.5260 H     1 <1>   0.0800 
 40 H        9.0360     6.9290     1.1670 H     1 <1>   0.0800 
 41 H        7.4950     6.4820     0.4690 H     1 <1>   0.0800 
 42 H       10.1320     5.7090    -0.5650 H     1 <1>   0.4500 
 43 H        8.2810     7.7470    -1.5750 H     1 <1>   0.0800 
 44 H        9.6740     7.1540    -2.4510 H     1 <1>   0.0800 
 45 H       11.9890     7.2420    -1.2540 H     1 <1>   0.1500 
 46 H        8.5650     9.4710     0.0530 H     1 <1>   0.1500 
 47 H       13.4300     8.7250     0.0460 H     1 <1>   0.1500 
 48 H       10.0350    10.9390     1.3400 H     1 <1>   0.1500 
 49 H       12.4610    10.5680     1.3460 H     1 <1>   0.1500 
@<TRIPOS>BOND
  1   1   2  ar  
  2   2   3  ar  
  3   2   4  1   
  4   4   5  ar  
  5   4   6  ar  
  6   5   7  ar  
  7   6   8  ar  
  8   6  26  1   
  9   7   9  ar  
 10   7  27  1   
 11   8   9  ar  
 12   9  10  1   
 13  10  11  1   
 14  10  12  1   
 15  11  13  1   
 16  11  28  1   
 17  11  29  1   
 18  12  30  1   
 19  12  31  1   
 20  12  32  1   
 21  13  14  1   
 22  13  15  1   
 23  13  33  1   
 24  14  16  1   
 25  14  34  1   
 26  14  35  1   
 27  15  17  1   
 28  15  36  1   
 29  15  37  1   
 30  16  18  1   
 31  16  38  1   
 32  16  39  1   
 33  17  18  1   
 34  17  40  1   
 35  17  41  1   
 36  18  19  1   
 37  18  42  1   
 38  19  20  1   
 39  19  43  1   
 40  19  44  1   
 41  20  21  ar  
 42  20  22  ar  
 43  21  23  ar  
 44  21  45  1   
 45  22  24  ar  
 46  22  46  1   
 47  23  25  ar  
 48  23  47  1   
 49  24  25  ar  
 50  24  48  1   
 51  25  49  1   
@<TRIPOS>SUBSTRUCTURE
  1 ****  13 GROUP 4 **** **** 0

# MOE 2024.06 (io_trps.svl 2023.06)
