@<TRIPOS>MOLECULE
NONAME
58 61 1 0 0 
SMALL
USER_CHARGES


@<TRIPOS>ATOM
  1 O       -1.2890    -1.1250    -2.3840 O.2   1 <1>  -0.5700 
  2 C       -1.6950    -1.4410    -1.2950 C.2   1 <1>   0.5690 
  3 N       -1.6320    -0.6010    -0.2190 N.am  1 <1>  -0.6600 
  4 C       -2.3320    -2.8010    -1.1640 C.3   1 <1>  -0.0190 
  5 C       -2.1950    -0.9490     1.1160 C.3   1 <1>   0.2200 
  6 C       -0.9380     0.7220    -0.3090 C.3   1 <1>   0.0600 
  7 C       -1.6020    -3.6930    -0.1370 C.3   1 <1>   0.1200 
  8 C       -3.8430    -2.6180    -0.9810 C.3   1 <1>   0.3430 
  9 C       -1.4800    -2.1860     1.7130 C.3   1 <1>   0.1200 
 10 C       -3.7430    -1.0780     1.0490 C.3   1 <1>   0.3430 
 11 O       -1.9500    -3.4020     1.1890 O.3   1 <1>  -0.5600 
 12 N       -4.2490    -2.3580     0.4400 N.4   1 <1>  -0.9590 
 13 C       -5.6950    -2.5920     0.6780 C.3   1 <1>   0.4860 
 14 C       -5.9750    -4.0550     0.3970 C.ar  1 <1>  -0.1430 
 15 C       -6.7790    -4.4240    -0.6720 C.ar  1 <1>  -0.1500 
 16 C       -5.4030    -5.0380     1.1940 C.ar  1 <1>  -0.1500 
 17 C       -6.9940    -5.7610    -0.9570 C.ar  1 <1>  -0.1500 
 18 C       -5.6170    -6.3730     0.9080 C.ar  1 <1>  -0.1500 
 19 C       -6.4030    -6.7430    -0.1690 C.ar  1 <1>   0.0820 
 20 O       -6.5380    -8.0710    -0.3870 O.3   1 <1>  -0.3630 
 21 C       -7.2570    -8.5740    -1.5040 C.3   1 <1>   0.1810 
 22 C       -7.1360   -10.0900    -1.6050 C.2   1 <1>   0.5690 
 23 O       -6.6050   -10.5450    -2.5930 O.2   1 <1>  -0.5700 
 24 N       -7.6450   -10.9070    -0.6300 N.am  1 <1>  -0.6600 
 25 C       -8.2790   -10.4740     0.6360 C.3   1 <1>   0.1400 
 26 C       -7.5640   -12.3800    -0.7100 C.3   1 <1>   0.1400 
 27 C       -8.4170   -11.7510     1.4580 C.3   1 <1>  -0.1600 
 28 C       -8.4460   -12.8780     0.4290 C.3   1 <1>  -0.1600 
 29 H       -2.1990    -3.2760    -2.1190 H     1 <1>   0.0800 
 30 H       -1.9810    -0.1230     1.7730 H     1 <1>   0.0800 
 31 H       -0.1260     0.7600     0.3960 H     1 <1>   0.0800 
 32 H       -1.6300     1.5180    -0.0980 H     1 <1>   0.0800 
 33 H       -0.5330     0.8800    -1.2950 H     1 <1>   0.0800 
 34 H       -0.5320    -3.6070    -0.2440 H     1 <1>   0.0800 
 35 H       -1.8690    -4.7230    -0.3070 H     1 <1>   0.0800 
 36 H       -4.3180    -3.5250    -1.3170 H     1 <1>   0.0800 
 37 H       -4.1850    -1.8160    -1.6160 H     1 <1>   0.0800 
 38 H       -1.6600    -2.2210     2.7730 H     1 <1>   0.0800 
 39 H       -0.4150    -2.1240     1.5620 H     1 <1>   0.0800 
 40 H       -4.1360    -0.2330     0.5080 H     1 <1>   0.0800 
 41 H       -4.1130    -1.0170     2.0590 H     1 <1>   0.0800 
 42 H       -3.7440    -3.1060     0.9580 H     1 <1>   0.4500 
 43 H       -5.9460    -2.3750     1.7040 H     1 <1>   0.0800 
 44 H       -6.2900    -1.9640     0.0350 H     1 <1>   0.0800 
 45 H       -7.2440    -3.6790    -1.2970 H     1 <1>   0.1500 
 46 H       -4.7850    -4.7860     2.0400 H     1 <1>   0.1500 
 47 H       -7.6210    -6.0170    -1.7910 H     1 <1>   0.1500 
 48 H       -5.1720    -7.1410     1.5160 H     1 <1>   0.1500 
 49 H       -8.2890    -8.2990    -1.3970 H     1 <1>   0.0800 
 50 H       -6.8480    -8.1320    -2.3940 H     1 <1>   0.0800 
 51 H       -7.6730    -9.7470     1.1490 H     1 <1>   0.0800 
 52 H       -9.2500   -10.0600     0.4220 H     1 <1>   0.0800 
 53 H       -7.9060   -12.7320    -1.6680 H     1 <1>   0.0800 
 54 H       -6.5410   -12.6810    -0.5590 H     1 <1>   0.0800 
 55 H       -7.5490   -11.8550     2.0860 H     1 <1>   0.0800 
 56 H       -9.2960   -11.7360     2.0770 H     1 <1>   0.0800 
 57 H       -9.4480   -13.0120     0.0600 H     1 <1>   0.0800 
 58 H       -8.0920   -13.8110     0.8290 H     1 <1>   0.0800 
@<TRIPOS>BOND
  1   1   2  2   
  2   2   3  am  
  3   2   4  1   
  4   3   5  1   
  5   3   6  1   
  6   4   7  1   
  7   4   8  1   
  8   4  29  1   
  9   5   9  1   
 10   5  10  1   
 11   5  30  1   
 12   6  31  1   
 13   6  32  1   
 14   6  33  1   
 15   7  11  1   
 16   7  34  1   
 17   7  35  1   
 18   8  12  1   
 19   8  36  1   
 20   8  37  1   
 21   9  11  1   
 22   9  38  1   
 23   9  39  1   
 24  10  12  1   
 25  10  40  1   
 26  10  41  1   
 27  12  13  1   
 28  12  42  1   
 29  13  14  1   
 30  13  43  1   
 31  13  44  1   
 32  14  15  ar  
 33  14  16  ar  
 34  15  17  ar  
 35  15  45  1   
 36  16  18  ar  
 37  16  46  1   
 38  17  19  ar  
 39  17  47  1   
 40  18  19  ar  
 41  18  48  1   
 42  19  20  1   
 43  20  21  1   
 44  21  22  1   
 45  21  49  1   
 46  21  50  1   
 47  22  23  2   
 48  22  24  am  
 49  24  25  1   
 50  24  26  1   
 51  25  27  1   
 52  25  51  1   
 53  25  52  1   
 54  26  28  1   
 55  26  53  1   
 56  26  54  1   
 57  27  28  1   
 58  27  55  1   
 59  27  56  1   
 60  28  57  1   
 61  28  58  1   
@<TRIPOS>SUBSTRUCTURE
  1 ****  16 GROUP 4 **** **** 0

# MOE 2024.06 (io_trps.svl 2023.06)
