@<TRIPOS>MOLECULE
NONAME
25 25 1 0 0 
SMALL
USER_CHARGES


@<TRIPOS>ATOM
  1 S       -0.0510    -0.1110     0.3600 S.3   1 <1>  -0.3710 
  2 C       -1.5960     0.7650     0.4800 C.2   1 <1>   0.6410 
  3 C        1.2110     1.0830    -0.2750 C.3   1 <1>  -0.0100 
  4 N       -2.6180     0.1300     0.9070 N.2   1 <1>  -0.6610 
  5 N       -1.5800     2.0690     0.1000 N.pl3 1 <1>  -0.5500 
  6 C       -3.7780     0.8420     0.9830 C.2   1 <1>   0.7670 
  7 C       -2.7100     2.8340     0.1540 C.2   1 <1>  -0.0380 
  8 O       -4.7770     0.2500     1.3670 O.2   1 <1>  -0.5700 
  9 C       -3.8370     2.2300     0.6160 C.2   1 <1>  -0.1240 
 10 C       -2.5510     4.2710    -0.3200 C.3   1 <1>  -0.1020 
 11 C       -5.1830     2.9420     0.7720 C.3   1 <1>  -0.0220 
 12 C       -6.0920     2.6290    -0.4170 C.3   1 <1>   0.1200 
 13 O       -7.2820     3.3180    -0.2630 O.3   1 <1>  -0.6800 
 14 H        2.1460     0.5540    -0.3420 H     1 <1>   0.0800 
 15 H        1.2880     1.8960     0.4250 H     1 <1>   0.0800 
 16 H        0.8980     1.4180    -1.2480 H     1 <1>   0.0800 
 17 H       -0.6940     2.4500    -0.2260 H     1 <1>   0.4000 
 18 H       -2.0280     4.2910    -1.2590 H     1 <1>   0.0800 
 19 H       -1.9880     4.8350     0.4020 H     1 <1>   0.0800 
 20 H       -3.4970     4.7550    -0.4700 H     1 <1>   0.0800 
 21 H       -5.0490     4.0040     0.8490 H     1 <1>   0.0800 
 22 H       -5.6560     2.6150     1.6810 H     1 <1>   0.0800 
 23 H       -6.3110     1.5750    -0.4770 H     1 <1>   0.0800 
 24 H       -5.6380     2.9530    -1.3380 H     1 <1>   0.0800 
 25 H       -7.8030     2.9360     0.4720 H     1 <1>   0.4000 
@<TRIPOS>BOND
  1   1   2  1   
  2   1   3  1   
  3   2   4  2   
  4   2   5  1   
  5   3  14  1   
  6   3  15  1   
  7   3  16  1   
  8   4   6  1   
  9   5   7  1   
 10   5  17  1   
 11   6   8  2   
 12   6   9  1   
 13   7   9  2   
 14   7  10  1   
 15   9  11  1   
 16  10  18  1   
 17  10  19  1   
 18  10  20  1   
 19  11  12  1   
 20  11  21  1   
 21  11  22  1   
 22  12  13  1   
 23  12  23  1   
 24  12  24  1   
 25  13  25  1   
@<TRIPOS>SUBSTRUCTURE
  1 ****   9 GROUP 4 **** **** 0

# MOE 2024.06 (io_trps.svl 2023.06)
