@<TRIPOS>MOLECULE
NONAME
48 50 1 0 0 
SMALL
USER_CHARGES


@<TRIPOS>ATOM
  1 CL       1.8410     3.5600     2.3890 Cl    1 <1>  -0.1770 
  2 C        0.8620     2.4960     1.4050 C.ar  1 <1>   0.1770 
  3 C        1.4220     1.7750     0.3560 C.ar  1 <1>  -0.1440 
  4 C       -0.4830     2.4020     1.7110 C.ar  1 <1>  -0.1500 
  5 C        0.5880     0.9470    -0.3880 C.ar  1 <1>  -0.1500 
  6 C        2.9060     1.8960     0.0170 C.3   1 <1>   0.3640 
  7 C       -1.2980     1.5730     0.9610 C.ar  1 <1>  -0.1500 
  8 C       -0.7600     0.8470    -0.0870 C.ar  1 <1>  -0.1500 
  9 N        3.4660     0.5360    -0.1870 N.am  1 <1>  -0.7300 
 10 C        3.1440     2.7890    -1.2240 C.3   1 <1>   0.2610 
 11 C        4.3500     0.2340    -1.1640 C.2   1 <1>   0.5690 
 12 O        4.4750     2.6300    -1.6990 O.3   1 <1>  -0.5600 
 13 C        2.8570     4.2490    -0.8750 C.2   1 <1>   0.5690 
 14 O        4.7890    -0.8820    -1.2700 O.2   1 <1>  -0.5700 
 15 C        4.7700     1.3250    -2.1560 C.3   1 <1>   0.1810 
 16 O        1.7300     4.6690    -0.9930 O.2   1 <1>  -0.5700 
 17 N        3.8710     5.0410    -0.4340 N.am  1 <1>  -0.7300 
 18 C        3.7320     6.4380     0.0010 C.3   1 <1>   0.2200 
 19 C        4.4180     7.3500    -1.0160 C.3   1 <1>  -0.1600 
 20 C        4.3510     6.5970     1.3900 C.3   1 <1>  -0.1600 
 21 C        4.3660     8.8070    -0.5520 C.3   1 <1>   0.1400 
 22 C        4.3080     8.0600     1.8360 C.3   1 <1>   0.1400 
 23 N        4.9660     8.9170     0.8080 N.am  1 <1>  -0.6600 
 24 C        6.0200     9.7310     1.1420 C.2   1 <1>   0.5690 
 25 O        6.4580     9.7920     2.2660 O.2   1 <1>  -0.5700 
 26 C        6.6870    10.5980     0.0990 C.3   1 <1>  -0.1790 
 27 H       -0.8850     2.9750     2.5260 H     1 <1>   0.1500 
 28 H        0.9810     0.3730    -1.2110 H     1 <1>   0.1500 
 29 H        3.4350     2.3330     0.8440 H     1 <1>   0.0800 
 30 H       -2.3470     1.4950     1.1910 H     1 <1>   0.1500 
 31 H       -1.3940     0.2020    -0.6720 H     1 <1>   0.1500 
 32 H        3.1950    -0.1920     0.4760 H     1 <1>   0.3700 
 33 H        2.4740     2.5010    -2.0140 H     1 <1>   0.0800 
 34 H        4.2650     1.1710    -3.0920 H     1 <1>   0.0800 
 35 H        5.8310     1.2670    -2.3210 H     1 <1>   0.0800 
 36 H        4.8240     4.6720    -0.4790 H     1 <1>   0.3700 
 37 H        2.6860     6.6960     0.0550 H     1 <1>   0.0800 
 38 H        5.4450     7.0610    -1.1420 H     1 <1>   0.0800 
 39 H        3.9170     7.2650    -1.9640 H     1 <1>   0.0800 
 40 H        3.8060     5.9990     2.0970 H     1 <1>   0.0800 
 41 H        5.3760     6.2710     1.3820 H     1 <1>   0.0800 
 42 H        3.3420     9.1380    -0.5070 H     1 <1>   0.0800 
 43 H        4.8830     9.4260    -1.2620 H     1 <1>   0.0800 
 44 H        4.7990     8.1590     2.7890 H     1 <1>   0.0800 
 45 H        3.2870     8.3790     1.9560 H     1 <1>   0.0800 
 46 H        5.9750    11.2880    -0.3110 H     1 <1>   0.0800 
 47 H        7.0960     9.9830    -0.6790 H     1 <1>   0.0800 
 48 H        7.4860    11.1570     0.5510 H     1 <1>   0.0800 
@<TRIPOS>BOND
  1   1   2  1   
  2   2   3  ar  
  3   2   4  ar  
  4   3   5  ar  
  5   3   6  1   
  6   4   7  ar  
  7   4  27  1   
  8   5   8  ar  
  9   5  28  1   
 10   6   9  1   
 11   6  10  1   
 12   6  29  1   
 13   7   8  ar  
 14   7  30  1   
 15   8  31  1   
 16   9  11  am  
 17   9  32  1   
 18  10  12  1   
 19  10  13  1   
 20  10  33  1   
 21  11  14  2   
 22  11  15  1   
 23  12  15  1   
 24  13  16  2   
 25  13  17  am  
 26  15  34  1   
 27  15  35  1   
 28  17  18  1   
 29  17  36  1   
 30  18  19  1   
 31  18  20  1   
 32  18  37  1   
 33  19  21  1   
 34  19  38  1   
 35  19  39  1   
 36  20  22  1   
 37  20  40  1   
 38  20  41  1   
 39  21  23  1   
 40  21  42  1   
 41  21  43  1   
 42  22  23  1   
 43  22  44  1   
 44  22  45  1   
 45  23  24  am  
 46  24  25  2   
 47  24  26  1   
 48  26  46  1   
 49  26  47  1   
 50  26  48  1   
@<TRIPOS>SUBSTRUCTURE
  1 ****  13 GROUP 4 **** **** 0

# MOE 2024.06 (io_trps.svl 2023.06)
