@<TRIPOS>MOLECULE
NONAME
55 58 1 0 0 
SMALL
USER_CHARGES


@<TRIPOS>ATOM
  1 O       -0.0360     0.1070    -0.8280 O.3   1 <1>  -0.6800 
  2 C        1.1560    -0.1800    -1.4830 C.3   1 <1>   0.2000 
  3 C        1.6920    -1.4980    -0.9250 C.3   1 <1>  -0.0800 
  4 C        2.2060     0.8530    -1.0440 C.3   1 <1>   0.3430 
  5 C        2.2450    -1.0330     0.4250 C.3   1 <1>   0.3430 
  6 C        2.7670    -2.1030    -1.8680 C.3   1 <1>   0.0210 
  7 N        2.9380     0.2370     0.1100 N.4   1 <1>  -0.9590 
  8 C        4.0680    -2.4900    -1.1840 C.2   1 <1>   0.1080 
  9 C        3.1230     1.1410     1.2650 C.3   1 <1>   0.5240 
 10 N        4.9620    -1.6210    -0.8100 N.2   1 <1>  -0.7070 
 11 C        4.4470    -3.7950    -0.8980 C.2   1 <1>  -0.1500 
 12 C        3.7940     2.4060     0.7740 C.2   1 <1>  -0.1810 
 13 N        5.9640    -2.3730    -0.2960 N.pl3 1 <1>   0.3000 
 14 C        5.6640    -3.6870    -0.3270 C.2   1 <1>  -0.3320 
 15 C        3.1960     3.6600     0.7060 C.2   1 <1>   0.1080 
 16 C        5.0500     2.5960     0.3080 C.2   1 <1>  -0.3320 
 17 C        6.5820    -4.7830     0.1850 C.3   1 <1>  -0.0600 
 18 N        3.9980     4.5510     0.2290 N.2   1 <1>  -0.7070 
 19 C        1.7850     4.0150     1.1260 C.3   1 <1>  -0.0590 
 20 N        5.1650     3.9140    -0.0290 N.pl3 1 <1>   0.5930 
 21 C        6.1890     1.5940     0.1680 C.3   1 <1>  -0.0600 
 22 C        6.3130     4.5840    -0.5350 C.ar  1 <1>  -0.0230 
 23 C        6.9020     5.6130     0.1920 C.ar  1 <1>  -0.1500 
 24 C        6.8720     4.2280    -1.7600 C.ar  1 <1>  -0.1500 
 25 C        8.0290     6.2600    -0.2820 C.ar  1 <1>  -0.1500 
 26 C        8.0000     4.8730    -2.2360 C.ar  1 <1>  -0.1500 
 27 C        8.5810     5.8880    -1.4960 C.ar  1 <1>  -0.1500 
 28 H       -0.7860    -0.3920    -1.2160 H     1 <1>   0.4000 
 29 H        0.9790    -0.1740    -2.5460 H     1 <1>   0.0800 
 30 H        0.9080    -2.2200    -0.7770 H     1 <1>   0.0800 
 31 H        1.7240     1.7760    -0.7690 H     1 <1>   0.0800 
 32 H        2.9010     1.0430    -1.8440 H     1 <1>   0.0800 
 33 H        2.9150    -1.7560     0.8630 H     1 <1>   0.0800 
 34 H        1.4230    -0.8460     1.0970 H     1 <1>   0.0800 
 35 H        3.0220    -1.4130    -2.6530 H     1 <1>   0.0800 
 36 H        2.3590    -2.9740    -2.3510 H     1 <1>   0.0800 
 37 H        3.8770    -0.0480    -0.2370 H     1 <1>   0.4500 
 38 H        2.1700     1.3790     1.7070 H     1 <1>   0.0800 
 39 H        3.7430     0.6680     2.0090 H     1 <1>   0.0800 
 40 H        3.8830    -4.6890    -1.1030 H     1 <1>   0.1500 
 41 H        6.8450    -1.9750     0.0550 H     1 <1>   0.2700 
 42 H        6.1240    -5.7460     0.0430 H     1 <1>   0.0800 
 43 H        6.7780    -4.6500     1.2340 H     1 <1>   0.0800 
 44 H        7.5150    -4.7700    -0.3510 H     1 <1>   0.0800 
 45 H        1.0870     3.2640     0.8070 H     1 <1>   0.0800 
 46 H        1.5020     4.9540     0.6840 H     1 <1>   0.0800 
 47 H        1.7400     4.1170     2.1950 H     1 <1>   0.0800 
 48 H        5.9490     0.6700     0.6600 H     1 <1>   0.0800 
 49 H        7.0860     1.9900     0.6130 H     1 <1>   0.0800 
 50 H        6.3830     1.3900    -0.8700 H     1 <1>   0.0800 
 51 H        6.4690     5.9100     1.1330 H     1 <1>   0.1500 
 52 H        6.4220     3.4470    -2.3470 H     1 <1>   0.1500 
 53 H        8.4760     7.0540     0.2920 H     1 <1>   0.1500 
 54 H        8.4260     4.5910    -3.1830 H     1 <1>   0.1500 
 55 H        9.4570     6.3920    -1.8650 H     1 <1>   0.1500 
@<TRIPOS>BOND
  1   1   2  1   
  2   1  28  1   
  3   2   3  1   
  4   2   4  1   
  5   2  29  1   
  6   3   5  1   
  7   3   6  1   
  8   3  30  1   
  9   4   7  1   
 10   4  31  1   
 11   4  32  1   
 12   5   7  1   
 13   5  33  1   
 14   5  34  1   
 15   6   8  1   
 16   6  35  1   
 17   6  36  1   
 18   7   9  1   
 19   7  37  1   
 20   8  10  2   
 21   8  11  1   
 22   9  12  1   
 23   9  38  1   
 24   9  39  1   
 25  10  13  1   
 26  11  14  2   
 27  11  40  1   
 28  12  15  1   
 29  12  16  2   
 30  13  14  1   
 31  13  41  1   
 32  14  17  1   
 33  15  18  2   
 34  15  19  1   
 35  16  20  1   
 36  16  21  1   
 37  17  42  1   
 38  17  43  1   
 39  17  44  1   
 40  18  20  1   
 41  19  45  1   
 42  19  46  1   
 43  19  47  1   
 44  20  22  1   
 45  21  48  1   
 46  21  49  1   
 47  21  50  1   
 48  22  23  ar  
 49  22  24  ar  
 50  23  25  ar  
 51  23  51  1   
 52  24  26  ar  
 53  24  52  1   
 54  25  27  ar  
 55  25  53  1   
 56  26  27  ar  
 57  26  54  1   
 58  27  55  1   
@<TRIPOS>SUBSTRUCTURE
  1 ****  16 GROUP 4 **** **** 0

# MOE 2024.06 (io_trps.svl 2023.06)
