@<TRIPOS>MOLECULE
NONAME
56 58 1 0 0 
SMALL
USER_CHARGES


@<TRIPOS>ATOM
  1 O        0.0150     0.0390     1.6380 O.2   1 <1>  -0.5700 
  2 C        1.0550    -0.5110     1.3720 C.2   1 <1>   0.5690 
  3 N        2.1300     0.1160     0.8040 N.am  1 <1>  -0.4940 
  4 C        1.1610    -1.9950     1.6790 C.3   1 <1>  -0.0990 
  5 C        2.2460     1.4630     0.3730 C.2   1 <1>  -0.0880 
  6 C       -0.0240    -2.7740     1.0690 C.3   1 <1>  -0.1600 
  7 N        3.3700     2.0370    -0.1450 N.pl3 1 <1>   0.3140 
  8 C        1.2980     2.4300     0.3750 C.2   1 <1>  -0.1500 
  9 C        0.0240    -4.2870     1.3210 C.3   1 <1>   0.4230 
 10 N        3.1500     3.3350    -0.4750 N.2   1 <1>  -0.7070 
 11 C        4.6950     1.3820    -0.3520 C.3   1 <1>   0.1760 
 12 C        1.9130     3.5540    -0.1570 C.2   1 <1>   0.1390 
 13 N       -1.0170    -4.9430     0.4940 N.4   1 <1>  -0.9590 
 14 C       -0.1620    -4.6420     2.7990 C.3   1 <1>  -0.2400 
 15 C        5.8590     2.1360     0.2930 C.3   1 <1>  -0.1600 
 16 C        5.0930     1.2860    -1.8260 C.3   1 <1>  -0.1600 
 17 C       -2.4490    -4.6270     0.8350 C.3   1 <1>   0.3430 
 18 C       -0.8380    -6.4260     0.3360 C.3   1 <1>   0.3430 
 19 C        7.1000     1.6280    -0.4430 C.3   1 <1>  -0.1600 
 20 C        6.6220     1.1660    -1.8260 C.3   1 <1>  -0.1600 
 21 C       -3.4100    -5.2020    -0.2350 C.3   1 <1>   0.1100 
 22 C       -1.8320    -6.9980    -0.7060 C.3   1 <1>   0.1100 
 23 N       -2.6890    -5.9450    -1.2960 N.3   1 <1>  -0.8100 
 24 C       -3.6220    -6.5040    -2.2850 C.3   1 <1>   0.0300 
 25 H        2.9560    -0.4640     0.6730 H     1 <1>   0.3700 
 26 H        1.1640    -2.0960     2.7490 H     1 <1>   0.0800 
 27 H        2.0890    -2.3810     1.2990 H     1 <1>   0.0800 
 28 H       -0.0250    -2.5940     0.0080 H     1 <1>   0.0800 
 29 H       -0.9350    -2.3700     1.4750 H     1 <1>   0.0800 
 30 H        0.2790     2.3710     0.7100 H     1 <1>   0.1500 
 31 H        0.9890    -4.6490     1.0010 H     1 <1>   0.0800 
 32 H        4.6670     0.3930     0.0610 H     1 <1>   0.0800 
 33 H        1.4260     4.5050    -0.2940 H     1 <1>   0.1500 
 34 H       -0.9430    -4.6050    -0.4780 H     1 <1>   0.4500 
 35 H       -1.0560    -4.1990     3.2000 H     1 <1>   0.0800 
 36 H        0.6700    -4.2720     3.3710 H     1 <1>   0.0800 
 37 H       -0.1940    -5.7060     2.9430 H     1 <1>   0.0800 
 38 H        5.9180     1.9580     1.3520 H     1 <1>   0.0800 
 39 H        5.7550     3.1930     0.1110 H     1 <1>   0.0800 
 40 H        4.8170     2.1960    -2.3330 H     1 <1>   0.0800 
 41 H        4.6260     0.4490    -2.3140 H     1 <1>   0.0800 
 42 H       -2.5920    -3.5610     0.8890 H     1 <1>   0.0800 
 43 H       -2.7000    -5.0410     1.7970 H     1 <1>   0.0800 
 44 H       -0.9930    -6.9210     1.2800 H     1 <1>   0.0800 
 45 H        0.1660    -6.6420     0.0120 H     1 <1>   0.0800 
 46 H        7.5230     0.7930     0.0890 H     1 <1>   0.0800 
 47 H        7.8460     2.4010    -0.5210 H     1 <1>   0.0800 
 48 H        7.0440     1.7800    -2.6040 H     1 <1>   0.0800 
 49 H        6.9200     0.1450    -1.9940 H     1 <1>   0.0800 
 50 H       -3.9590    -4.3900    -0.6810 H     1 <1>   0.0800 
 51 H       -4.1260    -5.8490     0.2460 H     1 <1>   0.0800 
 52 H       -2.4450    -7.7480    -0.2340 H     1 <1>   0.0800 
 53 H       -1.2740    -7.4830    -1.4890 H     1 <1>   0.0800 
 54 H       -4.2030    -5.7140    -2.7300 H     1 <1>   0.0800 
 55 H       -4.2900    -7.2120    -1.8230 H     1 <1>   0.0800 
 56 H       -3.0740    -6.9990    -3.0690 H     1 <1>   0.0800 
@<TRIPOS>BOND
  1   1   2  2   
  2   2   3  am  
  3   2   4  1   
  4   3   5  1   
  5   3  25  1   
  6   4   6  1   
  7   4  26  1   
  8   4  27  1   
  9   5   7  1   
 10   5   8  2   
 11   6   9  1   
 12   6  28  1   
 13   6  29  1   
 14   7  10  1   
 15   7  11  1   
 16   8  12  1   
 17   8  30  1   
 18   9  13  1   
 19   9  14  1   
 20   9  31  1   
 21  10  12  2   
 22  11  15  1   
 23  11  16  1   
 24  11  32  1   
 25  12  33  1   
 26  13  17  1   
 27  13  18  1   
 28  13  34  1   
 29  14  35  1   
 30  14  36  1   
 31  14  37  1   
 32  15  19  1   
 33  15  38  1   
 34  15  39  1   
 35  16  20  1   
 36  16  40  1   
 37  16  41  1   
 38  17  21  1   
 39  17  42  1   
 40  17  43  1   
 41  18  22  1   
 42  18  44  1   
 43  18  45  1   
 44  19  20  1   
 45  19  46  1   
 46  19  47  1   
 47  20  48  1   
 48  20  49  1   
 49  21  23  1   
 50  21  50  1   
 51  21  51  1   
 52  22  23  1   
 53  22  52  1   
 54  22  53  1   
 55  23  24  1   
 56  24  54  1   
 57  24  55  1   
 58  24  56  1   
@<TRIPOS>SUBSTRUCTURE
  1 ****   2 GROUP 4 **** **** 0

# MOE 2024.06 (io_trps.svl 2023.06)
