@<TRIPOS>MOLECULE
NONAME
48 50 1 0 0 
SMALL
USER_CHARGES


@<TRIPOS>ATOM
  1 S        0.6950     0.6890    -0.8810 S.o2  1 <1>   1.3330 
  2 O        1.4850    -0.4560    -1.2570 O.2   1 <1>  -0.6500 
  3 O        0.0160     1.4790    -1.8780 O.2   1 <1>  -0.6500 
  4 N        1.8260     1.6910    -0.0610 N.am  1 <1>  -0.7570 
  5 C       -0.4460     0.1780     0.4140 C.3   1 <1>  -0.0550 
  6 C        1.7940     3.0360     0.2720 C.ar  1 <1>   0.1990 
  7 C       -1.2710     1.3020     1.0690 C.3   1 <1>  -0.2400 
  8 C        2.8570     3.5660     0.9930 C.ar  1 <1>  -0.1500 
  9 C        0.7530     3.8960    -0.0680 C.ar  1 <1>  -0.1500 
 10 C        2.8820     4.8980     1.3580 C.ar  1 <1>  -0.1500 
 11 C        0.7790     5.2280     0.2980 C.ar  1 <1>  -0.1500 
 12 C        1.8480     5.7700     1.0150 C.ar  1 <1>   0.0860 
 13 C        1.8940     7.1680     1.3950 C.2   1 <1>   0.5440 
 14 O        2.3950     7.4950     2.4560 O.2   1 <1>  -0.5700 
 15 N        1.3840     8.1450     0.5790 N.am  1 <1>  -0.5100 
 16 C        1.7670     9.6010     0.6240 C.3   1 <1>   0.2250 
 17 C        1.4870     8.1850    -0.9220 C.3   1 <1>   0.2250 
 18 C        2.3840     9.4370    -0.7870 C.3   1 <1>   0.2580 
 19 O        3.7520     9.0710    -0.7400 O.3   1 <1>  -0.3400 
 20 C        4.6500    10.0530    -0.4990 C.ar  1 <1>   0.0820 
 21 C        5.4900     9.9580     0.6060 C.ar  1 <1>  -0.1440 
 22 C        4.7390    11.1440    -1.3550 C.ar  1 <1>  -0.1500 
 23 C        6.4020    10.9730     0.8490 C.ar  1 <1>  -0.1500 
 24 C        5.4180     8.7720     1.5570 C.3   1 <1>  -0.0970 
 25 C        5.6530    12.1500    -1.1030 C.ar  1 <1>  -0.1500 
 26 C        6.4840    12.0650     0.0010 C.ar  1 <1>  -0.1500 
 27 H        2.7080     1.1950     0.0220 H     1 <1>   0.4200 
 28 H        0.1070    -0.3290     1.1810 H     1 <1>   0.0800 
 29 H       -1.1290    -0.5350    -0.0050 H     1 <1>   0.0800 
 30 H       -0.6260     1.9930     1.5830 H     1 <1>   0.0800 
 31 H       -1.9600     0.8860     1.7820 H     1 <1>   0.0800 
 32 H       -1.8300     1.8370     0.3210 H     1 <1>   0.0800 
 33 H        3.6750     2.9280     1.2750 H     1 <1>   0.1500 
 34 H       -0.0890     3.5350    -0.6270 H     1 <1>   0.1500 
 35 H        3.7160     5.2850     1.9210 H     1 <1>   0.1500 
 36 H       -0.0460     5.8630     0.0270 H     1 <1>   0.1500 
 37 H        2.4810     9.8330     1.3940 H     1 <1>   0.0000 
 38 H        0.8910    10.2260     0.6390 H     1 <1>   0.0000 
 39 H        0.5280     8.3870    -1.3660 H     1 <1>   0.0000 
 40 H        1.9910     7.3290    -1.3340 H     1 <1>   0.0000 
 41 H        2.1890    10.2220    -1.4950 H     1 <1>   0.0000 
 42 H        4.1050    11.2050    -2.2200 H     1 <1>   0.1500 
 43 H        7.0540    10.9180     1.7030 H     1 <1>   0.1500 
 44 H        5.2040     7.8660     1.0200 H     1 <1>   0.0800 
 45 H        4.6400     8.9340     2.2810 H     1 <1>   0.0800 
 46 H        6.3490     8.6420     2.0770 H     1 <1>   0.0800 
 47 H        5.7220    12.9960    -1.7640 H     1 <1>   0.1500 
 48 H        7.1960    12.8470     0.2000 H     1 <1>   0.1500 
@<TRIPOS>BOND
  1   1   2  2   
  2   1   3  2   
  3   1   4  am  
  4   1   5  1   
  5   4   6  1   
  6   4  27  1   
  7   5   7  1   
  8   5  28  1   
  9   5  29  1   
 10   6   8  ar  
 11   6   9  ar  
 12   7  30  1   
 13   7  31  1   
 14   7  32  1   
 15   8  10  ar  
 16   8  33  1   
 17   9  11  ar  
 18   9  34  1   
 19  10  12  ar  
 20  10  35  1   
 21  11  12  ar  
 22  11  36  1   
 23  12  13  1   
 24  13  14  2   
 25  13  15  am  
 26  15  16  1   
 27  15  17  1   
 28  16  18  1   
 29  16  37  1   
 30  16  38  1   
 31  17  18  1   
 32  17  39  1   
 33  17  40  1   
 34  18  19  1   
 35  18  41  1   
 36  19  20  1   
 37  20  21  ar  
 38  20  22  ar  
 39  21  23  ar  
 40  21  24  1   
 41  22  25  ar  
 42  22  42  1   
 43  23  26  ar  
 44  23  43  1   
 45  24  44  1   
 46  24  45  1   
 47  24  46  1   
 48  25  26  ar  
 49  25  47  1   
 50  26  48  1   
@<TRIPOS>SUBSTRUCTURE
  1 ****  12 GROUP 4 **** **** 0

# MOE 2024.06 (io_trps.svl 2023.06)
