@<TRIPOS>MOLECULE
NONAME
45 46 1 0 0 
SMALL
USER_CHARGES


@<TRIPOS>ATOM
  1 S        0.0770     0.3730     0.0900 S.o2  1 <1>   1.3330 
  2 O       -0.0050    -0.4060     1.3050 O.2   1 <1>  -0.6500 
  3 O       -0.3380     1.7570     0.1000 O.2   1 <1>  -0.6500 
  4 N       -0.8010    -0.4410    -1.1130 N.am  1 <1>  -0.8490 
  5 C        1.7530     0.3180    -0.5470 C.3   1 <1>  -0.0550 
  6 C       -2.1770     0.0510    -1.2280 C.3   1 <1>   0.1160 
  7 C       -0.8040    -1.8990    -0.9460 C.3   1 <1>   0.1160 
  8 C        2.7700     1.0720     0.3340 C.3   1 <1>  -0.0800 
  9 C        4.1130     1.1990    -0.3670 C.3   1 <1>   0.2200 
 10 C        3.1300     0.2860     1.6030 C.3   1 <1>   0.1200 
 11 N        4.8370     2.3670     0.1820 N.am  1 <1>  -0.7300 
 12 C        4.8110    -0.0800     0.0740 C.3   1 <1>   0.1200 
 13 O        4.3730    -0.3120     1.3770 O.3   1 <1>  -0.5600 
 14 C        5.1180     3.4950    -0.5090 C.2   1 <1>   0.5690 
 15 O        4.7750     3.6500    -1.6540 O.2   1 <1>  -0.5700 
 16 C        5.8750     4.6080     0.1710 C.3   1 <1>  -0.0990 
 17 C        5.0300     5.8850     0.1690 C.3   1 <1>   0.0960 
 18 N        5.7940     7.0060     0.7440 N.pl3 1 <1>   0.3140 
 19 N        5.9350     7.1760     2.0400 N.2   1 <1>  -0.4180 
 20 C        6.4650     7.9730     0.1380 C.2   1 <1>   0.0070 
 21 N        6.6670     8.2210     2.1900 N.2   1 <1>   0.0000 
 22 N        7.0080     8.7300     1.0110 N.2   1 <1>  -0.3380 
 23 C        6.5840     8.1630    -1.3630 C.3   1 <1>  -0.0600 
 24 H        2.0600    -0.7030    -0.6620 H     1 <1>   0.0800 
 25 H        1.7460     0.7690    -1.5210 H     1 <1>   0.0800 
 26 H       -2.6980    -0.4750    -2.0090 H     1 <1>   0.0800 
 27 H       -2.1740     1.1000    -1.4750 H     1 <1>   0.0800 
 28 H       -2.7020    -0.0830    -0.2960 H     1 <1>   0.0800 
 29 H       -1.2930    -2.3660    -1.7840 H     1 <1>   0.0800 
 30 H       -1.3220    -2.1730    -0.0410 H     1 <1>   0.0800 
 31 H        0.2050    -2.2690    -0.8910 H     1 <1>   0.0800 
 32 H        2.3670     2.0420     0.5740 H     1 <1>   0.0800 
 33 H        4.0340     1.2720    -1.4390 H     1 <1>   0.0800 
 34 H        2.4190    -0.4850     1.8450 H     1 <1>   0.0800 
 35 H        3.2360     0.9470     2.4470 H     1 <1>   0.0800 
 36 H        5.1530     2.2410     1.1470 H     1 <1>   0.3700 
 37 H        5.8840     0.0030     0.0600 H     1 <1>   0.0800 
 38 H        4.5020    -0.9150    -0.5310 H     1 <1>   0.0800 
 39 H        6.1130     4.3280     1.1810 H     1 <1>   0.0800 
 40 H        6.7890     4.7700    -0.3710 H     1 <1>   0.0800 
 41 H        4.1400     5.7410     0.7560 H     1 <1>   0.0800 
 42 H        4.7370     6.1390    -0.8340 H     1 <1>   0.0800 
 43 H        7.2280     8.9990    -1.5740 H     1 <1>   0.0800 
 44 H        5.6180     8.3600    -1.7900 H     1 <1>   0.0800 
 45 H        7.0040     7.2840    -1.8180 H     1 <1>   0.0800 
@<TRIPOS>BOND
  1   1   2  2   
  2   1   3  2   
  3   1   4  am  
  4   1   5  1   
  5   4   6  1   
  6   4   7  1   
  7   5   8  1   
  8   5  24  1   
  9   5  25  1   
 10   6  26  1   
 11   6  27  1   
 12   6  28  1   
 13   7  29  1   
 14   7  30  1   
 15   7  31  1   
 16   8   9  1   
 17   8  10  1   
 18   8  32  1   
 19   9  11  1   
 20   9  12  1   
 21   9  33  1   
 22  10  13  1   
 23  10  34  1   
 24  10  35  1   
 25  11  14  am  
 26  11  36  1   
 27  12  13  1   
 28  12  37  1   
 29  12  38  1   
 30  14  15  2   
 31  14  16  1   
 32  16  17  1   
 33  16  39  1   
 34  16  40  1   
 35  17  18  1   
 36  17  41  1   
 37  17  42  1   
 38  18  19  1   
 39  18  20  1   
 40  19  21  2   
 41  20  22  2   
 42  20  23  1   
 43  21  22  1   
 44  23  43  1   
 45  23  44  1   
 46  23  45  1   
@<TRIPOS>SUBSTRUCTURE
  1 ****  11 GROUP 4 **** **** 0

# MOE 2024.06 (io_trps.svl 2023.06)
