@<TRIPOS>MOLECULE
NONAME
48 49 1 0 0 
SMALL
USER_CHARGES


@<TRIPOS>ATOM
  1 S        1.5010     0.4800    -1.6980 S.o2  1 <1>   1.3330 
  2 O        1.9510     1.2680    -2.8180 O.2   1 <1>  -0.6500 
  3 O        2.2320    -0.6830    -1.2540 O.2   1 <1>  -0.6500 
  4 N        1.3300     1.5240    -0.3200 N.am  1 <1>  -0.6930 
  5 C       -0.1830    -0.0140    -1.9970 C.3   1 <1>  -0.1350 
  6 C        1.3320     2.9140    -0.4250 C.ar  1 <1>   0.1990 
  7 C        1.4550     0.8760     1.0100 C.3   1 <1>   0.1160 
  8 C        2.1560     3.6960     0.3800 C.ar  1 <1>  -0.1500 
  9 C        0.5110     3.5780    -1.3320 C.ar  1 <1>  -0.1500 
 10 C        2.1470     5.0750     0.2970 C.ar  1 <1>  -0.1500 
 11 C        0.5020     4.9570    -1.4140 C.ar  1 <1>  -0.1500 
 12 C        1.3110     5.7510    -0.5970 C.ar  1 <1>   0.0860 
 13 C        1.2730     7.2000    -0.6910 C.2   1 <1>   0.5440 
 14 O        0.7900     7.7550    -1.6600 O.2   1 <1>  -0.5700 
 15 N        1.7710     7.9860     0.3060 N.am  1 <1>  -0.7300 
 16 C        1.8860     9.4510     0.2640 C.3   1 <1>   0.4000 
 17 C        3.3490     9.8050     0.5090 C.2   1 <1>   0.0060 
 18 C        0.9790    10.0730     1.3370 C.3   1 <1>  -0.1600 
 19 N        4.0000     9.5550     1.5940 N.2   1 <1>  -0.5650 
 20 N        4.1320    10.4080    -0.3980 N.pl3 1 <1>   0.3140 
 21 C       -0.5180     9.8100     1.1000 C.3   1 <1>  -0.2400 
 22 C        5.2090    10.0470     1.3010 C.2   1 <1>   0.3660 
 23 N        5.3400    10.5670     0.1270 N.2   1 <1>  -0.7070 
 24 C        3.8240    10.8610    -1.7740 C.3   1 <1>   0.0960 
 25 C        3.8550     9.6920    -2.7670 C.3   1 <1>  -0.2400 
 26 H       -0.2210    -0.6940    -2.8250 H     1 <1>   0.0800 
 27 H       -0.7900     0.8380    -2.2260 H     1 <1>   0.0800 
 28 H       -0.5850    -0.5040    -1.1320 H     1 <1>   0.0800 
 29 H        0.8360    -0.0040     1.0490 H     1 <1>   0.0800 
 30 H        1.1450     1.5510     1.7880 H     1 <1>   0.0800 
 31 H        2.4790     0.5860     1.1740 H     1 <1>   0.0800 
 32 H        2.8230     3.2150     1.0710 H     1 <1>   0.1500 
 33 H       -0.1260     3.0130    -1.9830 H     1 <1>   0.1500 
 34 H        2.8100     5.6340     0.9320 H     1 <1>   0.1500 
 35 H       -0.1450     5.4390    -2.1270 H     1 <1>   0.1500 
 36 H        2.2650     7.5830     1.1010 H     1 <1>   0.3700 
 37 H        1.5740     9.8130    -0.7000 H     1 <1>   0.0800 
 38 H        1.1440    11.1350     1.3430 H     1 <1>   0.0800 
 39 H        1.2650     9.7000     2.3050 H     1 <1>   0.0800 
 40 H       -0.8150    10.1680     0.1300 H     1 <1>   0.0800 
 41 H       -1.1040    10.3130     1.8480 H     1 <1>   0.0800 
 42 H       -0.7310     8.7560     1.1540 H     1 <1>   0.0800 
 43 H        6.0120    10.0000     2.0190 H     1 <1>   0.1500 
 44 H        4.5610    11.5920    -2.0560 H     1 <1>   0.0800 
 45 H        2.8600    11.3340    -1.7800 H     1 <1>   0.0800 
 46 H        4.8220     9.2200    -2.7550 H     1 <1>   0.0800 
 47 H        3.6640    10.0530    -3.7610 H     1 <1>   0.0800 
 48 H        3.1030     8.9620    -2.5230 H     1 <1>   0.0800 
@<TRIPOS>BOND
  1   1   2  2   
  2   1   3  2   
  3   1   4  am  
  4   1   5  1   
  5   4   6  1   
  6   4   7  1   
  7   5  26  1   
  8   5  27  1   
  9   5  28  1   
 10   6   8  ar  
 11   6   9  ar  
 12   7  29  1   
 13   7  30  1   
 14   7  31  1   
 15   8  10  ar  
 16   8  32  1   
 17   9  11  ar  
 18   9  33  1   
 19  10  12  ar  
 20  10  34  1   
 21  11  12  ar  
 22  11  35  1   
 23  12  13  1   
 24  13  14  2   
 25  13  15  am  
 26  15  16  1   
 27  15  36  1   
 28  16  17  1   
 29  16  18  1   
 30  16  37  1   
 31  17  19  2   
 32  17  20  1   
 33  18  21  1   
 34  18  38  1   
 35  18  39  1   
 36  19  22  1   
 37  20  23  1   
 38  20  24  1   
 39  21  40  1   
 40  21  41  1   
 41  21  42  1   
 42  22  23  2   
 43  22  43  1   
 44  24  25  1   
 45  24  44  1   
 46  24  45  1   
 47  25  46  1   
 48  25  47  1   
 49  25  48  1   
@<TRIPOS>SUBSTRUCTURE
  1 ****  12 GROUP 4 **** **** 0

# MOE 2024.06 (io_trps.svl 2023.06)
