@<TRIPOS>MOLECULE
NONAME
50 53 1 0 0 
SMALL
USER_CHARGES


@<TRIPOS>ATOM
  1 O       -0.4460    -0.6430    -0.8580 O.2   1 <1>  -0.5700 
  2 C       -1.5070    -0.2440    -0.4480 C.2   1 <1>   0.5690 
  3 N       -2.6190    -0.9950    -0.1860 N.am  1 <1>  -0.4770 
  4 C       -1.7470     1.2140    -0.1650 C.3   1 <1>  -0.0990 
  5 C       -2.8030    -2.3640    -0.4360 C.ar  1 <1>   0.1170 
  6 C       -3.7340    -0.1410     0.2730 C.3   1 <1>   0.1400 
  7 C       -3.1040     1.2290     0.5500 C.3   1 <1>  -0.1600 
  8 C       -3.5040    -3.1740     0.4530 C.ar  1 <1>  -0.1500 
  9 C       -2.2970    -2.9590    -1.5870 C.ar  1 <1>  -0.1500 
 10 C       -3.6950    -4.5190     0.1980 C.ar  1 <1>  -0.1500 
 11 C       -2.4890    -4.3040    -1.8400 C.ar  1 <1>  -0.1500 
 12 C       -3.1880    -5.1250    -0.9550 C.ar  1 <1>   0.0860 
 13 C       -3.3700    -6.5380    -1.2300 C.2   1 <1>   0.5440 
 14 O       -3.3780    -6.9590    -2.3710 O.2   1 <1>  -0.5700 
 15 N       -3.5320    -7.4360    -0.2140 N.am  1 <1>  -0.7300 
 16 C       -3.7020    -8.8960    -0.3840 C.3   1 <1>   0.2200 
 17 C       -5.1580    -9.2570    -0.1500 C.3   1 <1>  -0.0800 
 18 C       -3.0140    -9.6270     0.7620 C.3   1 <1>   0.1200 
 19 C       -5.2210    -9.3870     1.3760 C.3   1 <1>   0.1200 
 20 C       -5.5380   -10.5670    -0.8660 C.3   1 <1>  -0.0170 
 21 O       -3.9150    -9.6020     1.8290 O.3   1 <1>  -0.5600 
 22 C       -7.0060   -10.9070    -0.6600 C.ar  1 <1>  -0.1430 
 23 C       -7.4160   -11.9110     0.1950 C.ar  1 <1>  -0.1500 
 24 C       -8.0060   -10.2250    -1.3230 C.ar  1 <1>  -0.1500 
 25 C       -8.7680   -12.1710     0.3460 C.ar  1 <1>   0.1600 
 26 C       -9.3300   -10.5650    -1.1000 C.ar  1 <1>   0.1600 
 27 N       -9.7350   -11.5200    -0.2800 N.ar  1 <1>  -0.6200 
 28 H       -0.9630     1.6160     0.4510 H     1 <1>   0.0800 
 29 H       -1.7920     1.7460    -1.0970 H     1 <1>   0.0800 
 30 H       -4.4680    -0.0730    -0.5120 H     1 <1>   0.0800 
 31 H       -4.1890    -0.5400     1.1620 H     1 <1>   0.0800 
 32 H       -3.7340     2.0310     0.2080 H     1 <1>   0.0800 
 33 H       -2.9530     1.3370     1.6100 H     1 <1>   0.0800 
 34 H       -3.8980    -2.7490     1.3580 H     1 <1>   0.1500 
 35 H       -1.7460    -2.3600    -2.2900 H     1 <1>   0.1500 
 36 H       -4.2510    -5.1080     0.9050 H     1 <1>   0.1500 
 37 H       -2.0870    -4.7360    -2.7410 H     1 <1>   0.1500 
 38 H       -3.4690    -7.1320     0.7590 H     1 <1>   0.3700 
 39 H       -3.3330    -9.2090    -1.3470 H     1 <1>   0.0800 
 40 H       -5.8100    -8.4750    -0.4980 H     1 <1>   0.0800 
 41 H       -2.0890    -9.1610     1.0560 H     1 <1>   0.0800 
 42 H       -2.8380   -10.6560     0.5070 H     1 <1>   0.0800 
 43 H       -5.8430   -10.2000     1.7060 H     1 <1>   0.0800 
 44 H       -5.5700    -8.4700     1.8200 H     1 <1>   0.0800 
 45 H       -4.9250   -11.3780    -0.5120 H     1 <1>   0.0800 
 46 H       -5.3560   -10.4610    -1.9220 H     1 <1>   0.0800 
 47 H       -6.7000   -12.4920     0.7470 H     1 <1>   0.1500 
 48 H       -7.7680    -9.4330    -2.0090 H     1 <1>   0.1500 
 49 H       -9.0690   -12.9560     1.0180 H     1 <1>   0.1500 
 50 H      -10.0960   -10.0210    -1.6260 H     1 <1>   0.1500 
@<TRIPOS>BOND
  1   1   2  2   
  2   2   3  am  
  3   2   4  1   
  4   3   5  1   
  5   3   6  1   
  6   4   7  1   
  7   4  28  1   
  8   4  29  1   
  9   5   8  ar  
 10   5   9  ar  
 11   6   7  1   
 12   6  30  1   
 13   6  31  1   
 14   7  32  1   
 15   7  33  1   
 16   8  10  ar  
 17   8  34  1   
 18   9  11  ar  
 19   9  35  1   
 20  10  12  ar  
 21  10  36  1   
 22  11  12  ar  
 23  11  37  1   
 24  12  13  1   
 25  13  14  2   
 26  13  15  am  
 27  15  16  1   
 28  15  38  1   
 29  16  17  1   
 30  16  18  1   
 31  16  39  1   
 32  17  19  1   
 33  17  20  1   
 34  17  40  1   
 35  18  21  1   
 36  18  41  1   
 37  18  42  1   
 38  19  21  1   
 39  19  43  1   
 40  19  44  1   
 41  20  22  1   
 42  20  45  1   
 43  20  46  1   
 44  22  23  ar  
 45  22  24  ar  
 46  23  25  ar  
 47  23  47  1   
 48  24  26  ar  
 49  24  48  1   
 50  25  27  ar  
 51  25  49  1   
 52  26  27  ar  
 53  26  50  1   
@<TRIPOS>SUBSTRUCTURE
  1 ****  13 GROUP 4 **** **** 0

# MOE 2024.06 (io_trps.svl 2023.06)
