@<TRIPOS>MOLECULE
NONAME
45 48 1 0 0 
SMALL
USER_CHARGES


@<TRIPOS>ATOM
  1 O       -0.4260     0.8890    -0.3910 O.2   1 <1>  -0.5700 
  2 C       -0.5350     2.0860    -0.2630 C.2   1 <1>   0.5690 
  3 N       -1.5500     2.6860     0.4380 N.am  1 <1>  -0.5090 
  4 C        0.5280     2.9600    -0.9160 C.3   1 <1>   0.1810 
  5 C       -1.5950     4.1780     0.6130 C.3   1 <1>   0.3640 
  6 C       -2.3900     1.9050     1.3870 C.3   1 <1>   0.0490 
  7 O        0.7400     4.1460    -0.1960 O.3   1 <1>  -0.5600 
  8 C       -2.9060     4.7280     0.0530 C.ar  1 <1>  -0.1440 
  9 C       -0.4190     4.9480    -0.0600 C.3   1 <1>   0.2610 
 10 C       -3.1680     0.7330     0.8760 C.3   1 <1>  -0.2000 
 11 C       -3.8870     1.9610     1.3280 C.3   1 <1>  -0.2000 
 12 C       -3.6550     5.6290     0.7980 C.ar  1 <1>   0.1600 
 13 C       -3.3740     4.3530    -1.1950 C.ar  1 <1>  -0.1500 
 14 C       -0.0900     6.2650     0.6750 C.2   1 <1>   0.5690 
 15 N       -4.8010     6.1660     0.4090 N.ar  1 <1>  -0.6200 
 16 C       -4.5650     4.9050    -1.6130 C.ar  1 <1>  -0.1500 
 17 O       -0.7190     6.5420     1.6720 O.2   1 <1>  -0.5700 
 18 N        0.8850     7.1210     0.2140 N.am  1 <1>  -0.6600 
 19 C       -5.2290     5.7920    -0.7840 C.ar  1 <1>   0.1600 
 20 C        1.3540     8.2840     1.0580 C.3   1 <1>   0.2010 
 21 C        1.7440     6.8940    -0.9880 C.3   1 <1>   0.1400 
 22 C        2.8810     8.3620     1.2010 C.2   1 <1>   0.5690 
 23 C        3.1920     6.5910    -0.5640 C.3   1 <1>   0.1400 
 24 O        3.3680     9.1160     2.0040 O.2   1 <1>  -0.5700 
 25 N        3.6830     7.5940     0.4180 N.am  1 <1>  -0.7300 
 26 H        0.2380     3.2050    -1.9210 H     1 <1>   0.0800 
 27 H        1.4590     2.4230    -0.9420 H     1 <1>   0.0800 
 28 H       -1.5670     4.3560     1.6740 H     1 <1>   0.0800 
 29 H       -1.9220     1.8060     2.3520 H     1 <1>   0.1000 
 30 H       -0.7230     5.2210    -1.0540 H     1 <1>   0.0800 
 31 H       -3.1270     0.5090    -0.1760 H     1 <1>   0.1000 
 32 H       -3.2200    -0.1520     1.4850 H     1 <1>   0.1000 
 33 H       -4.4420     1.9110     2.2480 H     1 <1>   0.1000 
 34 H       -4.4000     2.5300     0.5750 H     1 <1>   0.1000 
 35 H       -3.2930     5.9310     1.7680 H     1 <1>   0.1500 
 36 H       -2.8450     3.6510    -1.8170 H     1 <1>   0.1500 
 37 H       -4.9820     4.6500    -2.5710 H     1 <1>   0.1500 
 38 H       -6.1610     6.2160    -1.1200 H     1 <1>   0.1500 
 39 H        1.0110     9.1990     0.6120 H     1 <1>   0.0800 
 40 H        0.9370     8.2260     2.0470 H     1 <1>   0.0800 
 41 H        1.3710     6.0920    -1.5960 H     1 <1>   0.0800 
 42 H        1.7360     7.7840    -1.5940 H     1 <1>   0.0800 
 43 H        3.8290     6.5970    -1.4310 H     1 <1>   0.0800 
 44 H        3.2350     5.6110    -0.1190 H     1 <1>   0.0800 
 45 H        4.6880     7.6440     0.6010 H     1 <1>   0.3700 
@<TRIPOS>BOND
  1   1   2  2   
  2   2   3  am  
  3   2   4  1   
  4   3   5  1   
  5   3   6  1   
  6   4   7  1   
  7   4  26  1   
  8   4  27  1   
  9   5   8  1   
 10   5   9  1   
 11   5  28  1   
 12   6  10  1   
 13   6  11  1   
 14   6  29  1   
 15   7   9  1   
 16   8  12  ar  
 17   8  13  ar  
 18   9  14  1   
 19   9  30  1   
 20  10  11  1   
 21  10  31  1   
 22  10  32  1   
 23  11  33  1   
 24  11  34  1   
 25  12  15  ar  
 26  12  35  1   
 27  13  16  ar  
 28  13  36  1   
 29  14  17  2   
 30  14  18  am  
 31  15  19  ar  
 32  16  19  ar  
 33  16  37  1   
 34  18  20  1   
 35  18  21  1   
 36  19  38  1   
 37  20  22  1   
 38  20  39  1   
 39  20  40  1   
 40  21  23  1   
 41  21  41  1   
 42  21  42  1   
 43  22  24  2   
 44  22  25  am  
 45  23  25  1   
 46  23  43  1   
 47  23  44  1   
 48  25  45  1   
@<TRIPOS>SUBSTRUCTURE
  1 ****   9 GROUP 4 **** **** 0

# MOE 2024.06 (io_trps.svl 2023.06)
