@<TRIPOS>MOLECULE
NONAME
49 51 1 0 0 
SMALL
USER_CHARGES


@<TRIPOS>ATOM
  1 F        0.0100    -1.0290     0.6530 F     1 <1>  -0.1900 
  2 C       -0.6930    -2.1050     0.4040 C.ar  1 <1>   0.1900 
  3 C       -0.1530    -3.3900     0.5340 C.ar  1 <1>   0.0820 
  4 C       -1.9990    -1.9070    -0.0010 C.ar  1 <1>  -0.1500 
  5 O        1.1140    -3.7130     0.9240 O.3   1 <1>  -0.3630 
  6 C       -0.9770    -4.4650     0.2390 C.ar  1 <1>  -0.1500 
  7 C       -2.7900    -3.0030    -0.2880 C.ar  1 <1>  -0.1500 
  8 C        2.0490    -2.7540     1.3640 C.3   1 <1>   0.0400 
  9 C       -2.3020    -4.3050    -0.1730 C.ar  1 <1>   0.0530 
 10 C       -3.1130    -5.4570    -0.4870 C.2   1 <1>   0.0870 
 11 O       -2.5500    -6.4690    -1.1080 O.3   1 <1>  -0.0190 
 12 C       -4.4170    -5.7930    -0.2890 C.2   1 <1>  -0.2330 
 13 N       -3.3810    -7.4450    -1.3500 N.2   1 <1>  -0.4100 
 14 C       -4.5100    -7.0530    -0.8790 C.2   1 <1>   0.3720 
 15 C       -5.4960    -5.1270     0.3830 C.2   1 <1>   1.0330 
 16 N       -5.6720    -7.8040    -0.9450 N.pl3 1 <1>  -0.8520 
 17 O       -5.3460    -4.0030     0.8870 O.co2 1 <1>  -0.9000 
 18 O       -6.6140    -5.6690     0.4930 O.co2 1 <1>  -0.9000 
 19 C       -5.5970    -9.1090    -0.2440 C.3   1 <1>   0.2090 
 20 C       -6.9780    -9.7830    -0.0510 C.3   1 <1>   0.0000 
 21 C       -7.6590   -10.1480    -1.3800 C.3   1 <1>  -0.1600 
 22 C       -8.0300    -8.8760     0.6120 C.3   1 <1>  -0.1600 
 23 C       -6.7910   -11.0420     0.8270 C.3   1 <1>   0.1200 
 24 C       -9.1570   -10.2550    -1.0720 C.3   1 <1>  -0.1600 
 25 C       -9.3890    -9.4680     0.2240 C.3   1 <1>  -0.1600 
 26 O       -5.8640   -11.9130     0.2510 O.3   1 <1>  -0.5600 
 27 C       -5.6560   -13.0780     0.9780 C.3   1 <1>   0.0400 
 28 H       -2.3940    -0.9120    -0.0870 H     1 <1>   0.1500 
 29 H       -0.5790    -5.4590     0.3340 H     1 <1>   0.1500 
 30 H       -3.8090    -2.8530    -0.6030 H     1 <1>   0.1500 
 31 H        2.9410    -3.2710     1.6680 H     1 <1>   0.0800 
 32 H        1.6350    -2.2190     2.2010 H     1 <1>   0.0800 
 33 H        2.2750    -2.0870     0.5520 H     1 <1>   0.0800 
 34 H       -6.4020    -7.2190    -0.4840 H     1 <1>   0.4000 
 35 H       -5.1410    -8.9550     0.7190 H     1 <1>   0.0800 
 36 H       -4.9570    -9.7640    -0.8110 H     1 <1>   0.0800 
 37 H       -7.2650   -11.0540    -1.8060 H     1 <1>   0.0800 
 38 H       -7.5090    -9.3500    -2.0870 H     1 <1>   0.0800 
 39 H       -7.9810    -7.8830     0.2020 H     1 <1>   0.0800 
 40 H       -7.9040    -8.7990     1.6770 H     1 <1>   0.0800 
 41 H       -7.7230   -11.5670     0.9390 H     1 <1>   0.0800 
 42 H       -6.4260   -10.7580     1.7990 H     1 <1>   0.0800 
 43 H       -9.4300   -11.2850    -0.9270 H     1 <1>   0.0800 
 44 H       -9.7370    -9.8500    -1.8830 H     1 <1>   0.0800 
 45 H      -10.1150    -8.6850     0.0840 H     1 <1>   0.0800 
 46 H       -9.7370   -10.1300     0.9970 H     1 <1>   0.0800 
 47 H       -4.9280   -13.6730     0.4550 H     1 <1>   0.0800 
 48 H       -6.5820   -13.6210     1.0530 H     1 <1>   0.0800 
 49 H       -5.2820   -12.8250     1.9550 H     1 <1>   0.0800 
@<TRIPOS>BOND
  1   1   2  1   
  2   2   3  ar  
  3   2   4  ar  
  4   3   5  1   
  5   3   6  ar  
  6   4   7  ar  
  7   4  28  1   
  8   5   8  1   
  9   6   9  ar  
 10   6  29  1   
 11   7   9  ar  
 12   7  30  1   
 13   8  31  1   
 14   8  32  1   
 15   8  33  1   
 16   9  10  1   
 17  10  11  1   
 18  10  12  2   
 19  11  13  1   
 20  12  14  1   
 21  12  15  1   
 22  13  14  2   
 23  14  16  1   
 24  15  17  ar  
 25  15  18  ar  
 26  16  19  1   
 27  16  34  1   
 28  19  20  1   
 29  19  35  1   
 30  19  36  1   
 31  20  21  1   
 32  20  22  1   
 33  20  23  1   
 34  21  24  1   
 35  21  37  1   
 36  21  38  1   
 37  22  25  1   
 38  22  39  1   
 39  22  40  1   
 40  23  26  1   
 41  23  41  1   
 42  23  42  1   
 43  24  25  1   
 44  24  43  1   
 45  24  44  1   
 46  25  45  1   
 47  25  46  1   
 48  26  27  1   
 49  27  47  1   
 50  27  48  1   
 51  27  49  1   
@<TRIPOS>SUBSTRUCTURE
  1 ****  12 GROUP 4 **** **** 0

# MOE 2024.06 (io_trps.svl 2023.06)
