@<TRIPOS>MOLECULE
NONAME
45 47 1 0 0 
SMALL
USER_CHARGES


@<TRIPOS>ATOM
  1 CL       2.1300     0.8030    -2.2960 Cl    1 <1>  -0.1770 
  2 C        1.0440     1.9360    -1.5210 C.ar  1 <1>   0.1770 
  3 C        1.2910     2.4290    -0.2420 C.ar  1 <1>  -0.1440 
  4 C       -0.0680     2.3270    -2.2440 C.ar  1 <1>  -0.1500 
  5 C        0.3870     3.3410     0.2890 C.ar  1 <1>  -0.1500 
  6 C        2.5000     2.0240     0.6020 C.3   1 <1>   0.3640 
  7 C       -0.9600     3.2320    -1.6960 C.ar  1 <1>  -0.1500 
  8 C       -0.7280     3.7380    -0.4300 C.ar  1 <1>  -0.1500 
  9 N        2.4790     0.5550     0.8040 N.am  1 <1>  -0.7300 
 10 C        3.8410     2.5270    -0.0040 C.3   1 <1>   0.2610 
 11 C        3.5760    -0.2250     0.7010 C.2   1 <1>   0.5690 
 12 O        4.9450     1.8050     0.5250 O.3   1 <1>  -0.5600 
 13 C        4.0250     4.0440     0.1950 C.2   1 <1>   0.5690 
 14 O        3.5130    -1.4090     0.9150 O.2   1 <1>  -0.5700 
 15 C        4.9040     0.4130     0.2860 C.3   1 <1>   0.1810 
 16 O        3.2930     4.6160     0.9750 O.2   1 <1>  -0.5700 
 17 N        4.9860     4.7400    -0.5060 N.am  1 <1>  -0.6600 
 18 C        5.1900     6.2010    -0.2980 C.3   1 <1>   0.1400 
 19 C        6.0220     4.1210    -1.3780 C.3   1 <1>   0.1400 
 20 C        6.5590     6.4340     0.3470 C.3   1 <1>  -0.1600 
 21 C        7.3980     4.3150    -0.7350 C.3   1 <1>  -0.1600 
 22 C        7.7010     5.8020    -0.4760 C.3   1 <1>  -0.0800 
 23 C        9.0590     5.9470     0.2290 C.3   1 <1>   0.1200 
 24 O        9.3660     7.2870     0.3860 O.3   1 <1>  -0.6800 
 25 H       -0.2320     1.9270    -3.2280 H     1 <1>   0.1500 
 26 H        0.5490     3.7580     1.2700 H     1 <1>   0.1500 
 27 H        2.3980     2.4640     1.5790 H     1 <1>   0.0800 
 28 H       -1.8280     3.5420    -2.2520 H     1 <1>   0.1500 
 29 H       -1.4160     4.4470    -0.0010 H     1 <1>   0.1500 
 30 H        1.5910     0.1230     1.0610 H     1 <1>   0.3700 
 31 H        3.8270     2.3510    -1.0610 H     1 <1>   0.0800 
 32 H        5.0700     0.2420    -0.7620 H     1 <1>   0.0800 
 33 H        5.7040    -0.0380     0.8440 H     1 <1>   0.0800 
 34 H        5.1400     6.7030    -1.2480 H     1 <1>   0.0800 
 35 H        4.4200     6.6110     0.3340 H     1 <1>   0.0800 
 36 H        5.8430     3.0710    -1.5230 H     1 <1>   0.0800 
 37 H        5.9980     4.5970    -2.3430 H     1 <1>   0.0800 
 38 H        6.7200     7.4930     0.4460 H     1 <1>   0.0800 
 39 H        6.5460     6.0160     1.3380 H     1 <1>   0.0800 
 40 H        7.4210     3.7670     0.1910 H     1 <1>   0.0800 
 41 H        8.1480     3.8980    -1.3830 H     1 <1>   0.0800 
 42 H        7.7580     6.2980    -1.4300 H     1 <1>   0.0800 
 43 H        9.8450     5.4890    -0.3470 H     1 <1>   0.0800 
 44 H        9.0310     5.4970     1.2080 H     1 <1>   0.0800 
 45 H        9.4180     7.7330    -0.4800 H     1 <1>   0.4000 
@<TRIPOS>BOND
  1   1   2  1   
  2   2   3  ar  
  3   2   4  ar  
  4   3   5  ar  
  5   3   6  1   
  6   4   7  ar  
  7   4  25  1   
  8   5   8  ar  
  9   5  26  1   
 10   6   9  1   
 11   6  10  1   
 12   6  27  1   
 13   7   8  ar  
 14   7  28  1   
 15   8  29  1   
 16   9  11  am  
 17   9  30  1   
 18  10  12  1   
 19  10  13  1   
 20  10  31  1   
 21  11  14  2   
 22  11  15  1   
 23  12  15  1   
 24  13  16  2   
 25  13  17  am  
 26  15  32  1   
 27  15  33  1   
 28  17  18  1   
 29  17  19  1   
 30  18  20  1   
 31  18  34  1   
 32  18  35  1   
 33  19  21  1   
 34  19  36  1   
 35  19  37  1   
 36  20  22  1   
 37  20  38  1   
 38  20  39  1   
 39  21  22  1   
 40  21  40  1   
 41  21  41  1   
 42  22  23  1   
 43  22  42  1   
 44  23  24  1   
 45  23  43  1   
 46  23  44  1   
 47  24  45  1   
@<TRIPOS>SUBSTRUCTURE
  1 ****  10 GROUP 4 **** **** 0

# MOE 2024.06 (io_trps.svl 2023.06)
