@<TRIPOS>MOLECULE
NONAME
46 48 1 0 0 
SMALL
USER_CHARGES


@<TRIPOS>ATOM
  1 S       -0.9850     0.3170     1.1030 S.o2  1 <1>   1.0900 
  2 O       -1.4400     1.3830     1.9630 O.2   1 <1>  -0.6500 
  3 O        0.4190     0.0600     0.8820 O.2   1 <1>  -0.6500 
  4 C       -1.7440    -1.2170     1.5580 C.3   1 <1>  -0.0550 
  5 C       -1.7840     0.4140    -0.4930 C.3   1 <1>  -0.0550 
  6 C       -1.9180    -1.9590     0.2360 C.3   1 <1>   0.1760 
  7 C       -2.4580    -0.9380    -0.7850 C.3   1 <1>  -0.1600 
  8 N       -2.8260    -3.1260     0.3710 N.pl3 1 <1>   0.3140 
  9 N       -4.0070    -3.0230     1.0120 N.2   1 <1>  -0.7070 
 10 C       -2.6460    -4.3690    -0.1430 C.2   1 <1>  -0.3320 
 11 C       -4.5580    -4.1880     0.8810 C.2   1 <1>   0.1080 
 12 C       -3.7570    -5.0760     0.1630 C.2   1 <1>   0.0630 
 13 C       -1.4080    -4.8160    -0.9100 C.3   1 <1>  -0.0600 
 14 C       -5.9220    -4.5030     1.4530 C.3   1 <1>  -0.0590 
 15 N       -4.0770    -6.4220    -0.1470 N.am  1 <1>  -0.4930 
 16 C       -4.0550    -7.0560    -1.3540 C.2   1 <1>   0.5690 
 17 O       -3.6760    -6.5330    -2.3770 O.2   1 <1>  -0.5700 
 18 C       -4.5400    -8.4960    -1.4240 C.3   1 <1>   0.1810 
 19 O       -5.0540    -8.9300    -0.1700 O.3   1 <1>  -0.3630 
 20 C       -5.5440   -10.1840    -0.0110 C.ar  1 <1>   0.0820 
 21 C       -5.6060   -11.1280    -1.0340 C.ar  1 <1>  -0.1500 
 22 C       -6.0030   -10.5200     1.2530 C.ar  1 <1>  -0.1500 
 23 C       -6.1220   -12.3880    -0.7830 C.ar  1 <1>  -0.1500 
 24 C       -6.5190   -11.7790     1.5020 C.ar  1 <1>  -0.1500 
 25 C       -6.5780   -12.7140     0.4830 C.ar  1 <1>  -0.1500 
 26 H       -2.7050    -1.0230     1.9990 H     1 <1>   0.0800 
 27 H       -1.1340    -1.7710     2.2450 H     1 <1>   0.0800 
 28 H       -1.0530     0.6370    -1.2490 H     1 <1>   0.0800 
 29 H       -2.5220     1.1950    -0.4960 H     1 <1>   0.0800 
 30 H       -0.9520    -2.3030    -0.0890 H     1 <1>   0.0800 
 31 H       -2.2640    -1.2610    -1.7930 H     1 <1>   0.0800 
 32 H       -3.5220    -0.8290    -0.6520 H     1 <1>   0.0800 
 33 H       -0.5190    -4.6260    -0.3360 H     1 <1>   0.0800 
 34 H       -1.3470    -4.2950    -1.8480 H     1 <1>   0.0800 
 35 H       -1.4510    -5.8700    -1.1130 H     1 <1>   0.0800 
 36 H       -6.4530    -3.5890     1.6480 H     1 <1>   0.0800 
 37 H       -5.8130    -5.0460     2.3730 H     1 <1>   0.0800 
 38 H       -6.4890    -5.0900     0.7540 H     1 <1>   0.0800 
 39 H       -4.4790    -6.9700     0.6150 H     1 <1>   0.3700 
 40 H       -3.7190    -9.1340    -1.6960 H     1 <1>   0.0800 
 41 H       -5.3220    -8.5690    -2.1570 H     1 <1>   0.0800 
 42 H       -5.2610   -10.9080    -2.0260 H     1 <1>   0.1500 
 43 H       -5.9550    -9.7920     2.0420 H     1 <1>   0.1500 
 44 H       -6.1700   -13.1180    -1.5730 H     1 <1>   0.1500 
 45 H       -6.8730   -12.0330     2.4860 H     1 <1>   0.1500 
 46 H       -6.9790   -13.6940     0.6750 H     1 <1>   0.1500 
@<TRIPOS>BOND
  1   1   2  2   
  2   1   3  2   
  3   1   4  1   
  4   1   5  1   
  5   4   6  1   
  6   4  26  1   
  7   4  27  1   
  8   5   7  1   
  9   5  28  1   
 10   5  29  1   
 11   6   7  1   
 12   6   8  1   
 13   6  30  1   
 14   7  31  1   
 15   7  32  1   
 16   8   9  1   
 17   8  10  1   
 18   9  11  2   
 19  10  12  2   
 20  10  13  1   
 21  11  12  1   
 22  11  14  1   
 23  12  15  1   
 24  13  33  1   
 25  13  34  1   
 26  13  35  1   
 27  14  36  1   
 28  14  37  1   
 29  14  38  1   
 30  15  16  am  
 31  15  39  1   
 32  16  17  2   
 33  16  18  1   
 34  18  19  1   
 35  18  40  1   
 36  18  41  1   
 37  19  20  1   
 38  20  21  ar  
 39  20  22  ar  
 40  21  23  ar  
 41  21  42  1   
 42  22  24  ar  
 43  22  43  1   
 44  23  25  ar  
 45  23  44  1   
 46  24  25  ar  
 47  24  45  1   
 48  25  46  1   
@<TRIPOS>SUBSTRUCTURE
  1 ****  12 GROUP 4 **** **** 0

# MOE 2024.06 (io_trps.svl 2023.06)
