@<TRIPOS>MOLECULE
NONAME
54 57 1 0 0 
SMALL
USER_CHARGES


@<TRIPOS>ATOM
  1 O        2.8590    -1.4560     2.5270 O.2   1 <1>  -0.5700 
  2 C        2.3200    -1.5820     1.4440 C.2   1 <1>   0.5440 
  3 N        1.9800    -0.4510     0.7330 N.am  1 <1>  -0.6600 
  4 C        2.0480    -2.9150     0.9440 C.ar  1 <1>   0.0860 
  5 C        2.4520     0.9070     1.1350 C.3   1 <1>   0.1400 
  6 C        1.0380    -0.4180    -0.4250 C.3   1 <1>   0.1400 
  7 C        1.2900    -3.8190     1.6840 C.ar  1 <1>  -0.1500 
  8 C        2.5360    -3.3510    -0.2860 C.ar  1 <1>  -0.1500 
  9 C        2.9500     1.6890    -0.0930 C.3   1 <1>   0.1200 
 10 C        1.6270     0.4230    -1.5690 C.3   1 <1>   0.1200 
 11 C        1.0170    -5.0890     1.2130 C.ar  1 <1>  -0.1500 
 12 C        2.2620    -4.6210    -0.7590 C.ar  1 <1>  -0.1500 
 13 O        1.9840     1.6960    -1.1090 O.3   1 <1>  -0.5600 
 14 C        1.4970    -5.5270    -0.0240 C.ar  1 <1>   0.0860 
 15 C        1.2240    -6.8580    -0.5370 C.2   1 <1>   0.5440 
 16 O        1.2530    -7.0850    -1.7310 O.2   1 <1>  -0.5700 
 17 N        0.9260    -7.8900     0.3040 N.am  1 <1>  -0.7300 
 18 C        0.7060    -9.2970    -0.1050 C.3   1 <1>   0.2200 
 19 C       -0.7690    -9.6690    -0.0330 C.3   1 <1>  -0.0800 
 20 C        1.2730   -10.2100     0.9730 C.3   1 <1>   0.1200 
 21 C       -0.9610   -10.0530     1.4390 C.3   1 <1>   0.1200 
 22 C       -1.7570    -8.6060    -0.5470 C.3   1 <1>  -0.0170 
 23 O        0.3180   -10.1960     1.9890 O.3   1 <1>  -0.5600 
 24 C       -3.1810    -9.1390    -0.5370 C.ar  1 <1>  -0.1430 
 25 C       -4.0620    -8.8700     0.4920 C.ar  1 <1>  -0.1500 
 26 C       -3.6650    -9.9260    -1.5630 C.ar  1 <1>  -0.1500 
 27 C       -5.3440    -9.3910     0.4490 C.ar  1 <1>   0.1600 
 28 C       -4.9670   -10.3960    -1.5090 C.ar  1 <1>   0.1600 
 29 N       -5.8170   -10.1500    -0.5260 N.ar  1 <1>  -0.6200 
 30 H        1.6410     1.4430     1.5950 H     1 <1>   0.0800 
 31 H        3.2500     0.8330     1.8530 H     1 <1>   0.0800 
 32 H        0.8210    -1.4080    -0.7810 H     1 <1>   0.0800 
 33 H        0.1110     0.0270    -0.1080 H     1 <1>   0.0800 
 34 H        0.9160    -3.5070     2.6450 H     1 <1>   0.1500 
 35 H        3.1400    -2.6810    -0.8730 H     1 <1>   0.1500 
 36 H        3.8530     1.2490    -0.4790 H     1 <1>   0.0800 
 37 H        3.1520     2.7110     0.1760 H     1 <1>   0.0800 
 38 H        0.8990     0.5500    -2.3500 H     1 <1>   0.0800 
 39 H        2.5000    -0.0520    -1.9810 H     1 <1>   0.0800 
 40 H        0.4180    -5.7470     1.8160 H     1 <1>   0.1500 
 41 H        2.6490    -4.9280    -1.7160 H     1 <1>   0.1500 
 42 H        0.9350    -7.7590     1.3180 H     1 <1>   0.3700 
 43 H        1.1380    -9.4890    -1.0730 H     1 <1>   0.0800 
 44 H       -0.9080   -10.5620    -0.6170 H     1 <1>   0.0800 
 45 H        2.2200    -9.8700     1.3550 H     1 <1>   0.0800 
 46 H        1.3620   -11.2200     0.6130 H     1 <1>   0.0800 
 47 H       -1.4920   -10.9840     1.5410 H     1 <1>   0.0800 
 48 H       -1.4680    -9.2820     1.9920 H     1 <1>   0.0800 
 49 H       -1.4880    -8.3260    -1.5520 H     1 <1>   0.0800 
 50 H       -1.7040    -7.7180     0.0580 H     1 <1>   0.0800 
 51 H       -3.7650    -8.2620     1.3260 H     1 <1>   0.1500 
 52 H       -3.0430   -10.1750    -2.4020 H     1 <1>   0.1500 
 53 H       -6.0170    -9.1710     1.2600 H     1 <1>   0.1500 
 54 H       -5.3270   -11.0080    -2.3190 H     1 <1>   0.1500 
@<TRIPOS>BOND
  1   1   2  2   
  2   2   3  am  
  3   2   4  1   
  4   3   5  1   
  5   3   6  1   
  6   4   7  ar  
  7   4   8  ar  
  8   5   9  1   
  9   5  30  1   
 10   5  31  1   
 11   6  10  1   
 12   6  32  1   
 13   6  33  1   
 14   7  11  ar  
 15   7  34  1   
 16   8  12  ar  
 17   8  35  1   
 18   9  13  1   
 19   9  36  1   
 20   9  37  1   
 21  10  13  1   
 22  10  38  1   
 23  10  39  1   
 24  11  14  ar  
 25  11  40  1   
 26  12  14  ar  
 27  12  41  1   
 28  14  15  1   
 29  15  16  2   
 30  15  17  am  
 31  17  18  1   
 32  17  42  1   
 33  18  19  1   
 34  18  20  1   
 35  18  43  1   
 36  19  21  1   
 37  19  22  1   
 38  19  44  1   
 39  20  23  1   
 40  20  45  1   
 41  20  46  1   
 42  21  23  1   
 43  21  47  1   
 44  21  48  1   
 45  22  24  1   
 46  22  49  1   
 47  22  50  1   
 48  24  25  ar  
 49  24  26  ar  
 50  25  27  ar  
 51  25  51  1   
 52  26  28  ar  
 53  26  52  1   
 54  27  29  ar  
 55  27  53  1   
 56  28  29  ar  
 57  28  54  1   
@<TRIPOS>SUBSTRUCTURE
  1 ****  14 GROUP 4 **** **** 0

# MOE 2024.06 (io_trps.svl 2023.06)
