@<TRIPOS>MOLECULE
NONAME
45 47 1 0 0 
SMALL
USER_CHARGES


@<TRIPOS>ATOM
  1 O       -0.4050     0.5820     1.1930 O.2   1 <1>  -0.5700 
  2 C        0.6640     0.0230     1.2770 C.2   1 <1>   0.5690 
  3 N        1.8560     0.6710     1.0770 N.am  1 <1>  -0.4940 
  4 C        0.7010    -1.4670     1.6160 C.3   1 <1>   0.2370 
  5 C        2.1610     1.9790     0.6420 C.2   1 <1>  -0.0880 
  6 N        1.6960    -2.1110     0.7320 N.pl3 1 <1>   0.3140 
  7 C       -0.6660    -2.1850     1.5450 C.3   1 <1>  -0.2400 
  8 N        1.5010     3.1400     0.9000 N.pl3 1 <1>   0.3140 
  9 C        3.2410     2.3030    -0.1220 C.2   1 <1>  -0.0540 
 10 N        2.9920    -2.1090     1.0280 N.2   1 <1>  -0.7070 
 11 C        1.5410    -2.6790    -0.4700 C.2   1 <1>   0.0360 
 12 N        2.1190     4.1960     0.3300 N.2   1 <1>  -0.7070 
 13 C        0.3140     3.3610     1.7360 C.3   1 <1>   0.0160 
 14 C        4.2340     1.4080    -0.6690 C.ar  1 <1>   0.0540 
 15 C        3.1470     3.6910    -0.2700 C.2   1 <1>   0.1080 
 16 C        3.5180    -2.6850    -0.0030 C.2   1 <1>   0.3660 
 17 N        2.6630    -3.0580    -0.9630 N.2   1 <1>  -0.5650 
 18 C        5.5840     1.4560    -0.2980 C.ar  1 <1>   0.0820 
 19 C        3.8390     0.4470    -1.5940 C.ar  1 <1>  -0.1500 
 20 C        4.1240     4.5460    -1.0440 C.3   1 <1>  -0.0590 
 21 O        5.9510     2.3940     0.6180 O.3   1 <1>  -0.3630 
 22 C        6.4940     0.5610    -0.8540 C.ar  1 <1>  -0.1500 
 23 C        4.7430    -0.4420    -2.1430 C.ar  1 <1>  -0.1500 
 24 C        7.2570     2.4550     1.1450 C.3   1 <1>   0.0400 
 25 C        6.0740    -0.3850    -1.7730 C.ar  1 <1>  -0.1500 
 26 H        2.6760     0.0440     1.0740 H     1 <1>   0.3700 
 27 H        1.0700    -1.5550     2.6210 H     1 <1>   0.0800 
 28 H       -1.1110    -2.0660     0.5730 H     1 <1>   0.0800 
 29 H       -1.3360    -1.7530     2.2680 H     1 <1>   0.0800 
 30 H       -0.5560    -3.2310     1.7700 H     1 <1>   0.0800 
 31 H        0.5870    -2.7900    -0.9530 H     1 <1>   0.1500 
 32 H        0.3450     2.7020     2.5820 H     1 <1>   0.0800 
 33 H       -0.5650     3.1670     1.1510 H     1 <1>   0.0800 
 34 H        0.3060     4.3810     2.0720 H     1 <1>   0.0800 
 35 H        4.5780    -2.8590    -0.1100 H     1 <1>   0.1500 
 36 H        2.8040     0.3980    -1.8840 H     1 <1>   0.1500 
 37 H        4.5360     3.9900    -1.8660 H     1 <1>   0.0800 
 38 H        4.9190     4.8560    -0.3930 H     1 <1>   0.0800 
 39 H        3.6220     5.4160    -1.4260 H     1 <1>   0.0800 
 40 H        7.5320     0.5820    -0.5870 H     1 <1>   0.1500 
 41 H        4.4090    -1.1790    -2.8530 H     1 <1>   0.1500 
 42 H        7.2830     3.2420     1.8760 H     1 <1>   0.0800 
 43 H        7.9460     2.6730     0.3480 H     1 <1>   0.0800 
 44 H        7.4890     1.5140     1.6120 H     1 <1>   0.0800 
 45 H        6.7800    -1.0750    -2.2010 H     1 <1>   0.1500 
@<TRIPOS>BOND
  1   1   2  2   
  2   2   3  am  
  3   2   4  1   
  4   3   5  1   
  5   3  26  1   
  6   4   6  1   
  7   4   7  1   
  8   4  27  1   
  9   5   8  1   
 10   5   9  2   
 11   6  10  1   
 12   6  11  1   
 13   7  28  1   
 14   7  29  1   
 15   7  30  1   
 16   8  12  1   
 17   8  13  1   
 18   9  14  1   
 19   9  15  1   
 20  10  16  2   
 21  11  17  2   
 22  11  31  1   
 23  12  15  2   
 24  13  32  1   
 25  13  33  1   
 26  13  34  1   
 27  14  18  ar  
 28  14  19  ar  
 29  15  20  1   
 30  16  17  1   
 31  16  35  1   
 32  18  21  1   
 33  18  22  ar  
 34  19  23  ar  
 35  19  36  1   
 36  20  37  1   
 37  20  38  1   
 38  20  39  1   
 39  21  24  1   
 40  22  25  ar  
 41  22  40  1   
 42  23  25  ar  
 43  23  41  1   
 44  24  42  1   
 45  24  43  1   
 46  24  44  1   
 47  25  45  1   
@<TRIPOS>SUBSTRUCTURE
  1 ****   3 GROUP 4 **** **** 0

# MOE 2024.06 (io_trps.svl 2023.06)
