@<TRIPOS>MOLECULE
NONAME
50 52 1 0 0 
SMALL
USER_CHARGES


@<TRIPOS>ATOM
  1 O       -1.1010     0.6970    -2.6940 O.co2 1 <1>  -0.9000 
  2 C        0.0520     0.7290    -2.2600 C.2   1 <1>   0.9060 
  3 O        0.6780    -0.2740    -1.9140 O.co2 1 <1>  -0.9000 
  4 C        0.7330     2.0530    -2.1610 C.3   1 <1>  -0.2660 
  5 C       -0.0990     2.9830    -1.2920 C.3   1 <1>   0.4330 
  6 N        0.4040     4.3630    -1.5390 N.pl3 1 <1>  -0.8690 
  7 C       -0.1280     2.7220     0.2280 C.ar  1 <1>  -0.1430 
  8 C        1.4120     5.0290    -0.9580 C.ar  1 <1>   0.4100 
  9 C        0.4840     1.6290     0.8350 C.ar  1 <1>  -0.1500 
 10 C       -0.7950     3.6320     1.0410 C.ar  1 <1>  -0.1500 
 11 N        1.4080     6.3300    -1.1480 N.ar  1 <1>  -0.6200 
 12 C        2.4040     4.3940    -0.1890 C.ar  1 <1>  -0.1500 
 13 C        0.4460     1.4660     2.2090 C.ar  1 <1>  -0.1500 
 14 C       -0.8360     3.4730     2.4150 C.ar  1 <1>  -0.1500 
 15 C        2.3390     7.0520    -0.5410 C.ar  1 <1>   0.7710 
 16 C        3.3530     5.1420     0.4140 C.ar  1 <1>   0.2180 
 17 C       -0.2110     2.3890     3.0020 C.ar  1 <1>  -0.1500 
 18 N        3.2910     6.4800     0.2200 N.ar  1 <1>  -0.1790 
 19 N        2.3370     8.4060    -0.6890 N.pl3 1 <1>  -0.8380 
 20 C        4.4590     4.5560     1.2810 C.3   1 <1>  -0.0170 
 21 C        3.1570     9.4150     0.0700 C.3   1 <1>   0.2090 
 22 C        1.4010     9.0990    -1.6510 C.3   1 <1>   0.2090 
 23 C        4.3510     5.0170     2.7410 C.3   1 <1>  -0.2400 
 24 C        2.2590    10.5060     0.6870 C.3   1 <1>   0.1200 
 25 C        0.6010    10.2080    -0.9460 C.3   1 <1>   0.1200 
 26 O        1.4640    11.0980    -0.2960 O.3   1 <1>  -0.5600 
 27 H        0.7970     2.4400    -3.1580 H     1 <1>   0.0800 
 28 H        1.7200     1.9150    -1.7710 H     1 <1>   0.0800 
 29 H       -1.1190     2.9410    -1.6410 H     1 <1>   0.0800 
 30 H       -0.2000     4.8890    -2.1730 H     1 <1>   0.4000 
 31 H        0.9940     0.8810     0.2530 H     1 <1>   0.1500 
 32 H       -1.2880     4.4780     0.5950 H     1 <1>   0.1500 
 33 H        2.3880     3.3260    -0.0920 H     1 <1>   0.1500 
 34 H        0.9220     0.6100     2.6540 H     1 <1>   0.1500 
 35 H       -1.3590     4.1880     3.0240 H     1 <1>   0.1500 
 36 H       -0.2440     2.2560     4.0690 H     1 <1>   0.1500 
 37 H        3.9740     7.1030     0.6230 H     1 <1>   0.4570 
 38 H        5.4210     4.8290     0.8800 H     1 <1>   0.0800 
 39 H        4.3960     3.4810     1.2560 H     1 <1>   0.0800 
 40 H        3.8520     9.8880    -0.6050 H     1 <1>   0.0800 
 41 H        3.7210     8.9570     0.8610 H     1 <1>   0.0800 
 42 H        0.7050     8.4160    -2.1050 H     1 <1>   0.0800 
 43 H        1.9760     9.5430    -2.4460 H     1 <1>   0.0800 
 44 H        4.4770     6.0800     2.8330 H     1 <1>   0.0800 
 45 H        5.1130     4.5360     3.3310 H     1 <1>   0.0800 
 46 H        3.3920     4.7420     3.1480 H     1 <1>   0.0800 
 47 H        2.8620    11.2810     1.1270 H     1 <1>   0.0800 
 48 H        1.6180    10.0930     1.4460 H     1 <1>   0.0800 
 49 H       -0.0770     9.7880    -0.2230 H     1 <1>   0.0800 
 50 H        0.0330    10.7700    -1.6660 H     1 <1>   0.0800 
@<TRIPOS>BOND
  1   1   2  ar  
  2   2   3  ar  
  3   2   4  1   
  4   4   5  1   
  5   4  27  1   
  6   4  28  1   
  7   5   6  1   
  8   5   7  1   
  9   5  29  1   
 10   6   8  1   
 11   6  30  1   
 12   7   9  ar  
 13   7  10  ar  
 14   8  11  ar  
 15   8  12  ar  
 16   9  13  ar  
 17   9  31  1   
 18  10  14  ar  
 19  10  32  1   
 20  11  15  ar  
 21  12  16  ar  
 22  12  33  1   
 23  13  17  ar  
 24  13  34  1   
 25  14  17  ar  
 26  14  35  1   
 27  15  18  ar  
 28  15  19  1   
 29  16  18  ar  
 30  16  20  1   
 31  17  36  1   
 32  18  37  1   
 33  19  21  1   
 34  19  22  1   
 35  20  23  1   
 36  20  38  1   
 37  20  39  1   
 38  21  24  1   
 39  21  40  1   
 40  21  41  1   
 41  22  25  1   
 42  22  42  1   
 43  22  43  1   
 44  23  44  1   
 45  23  45  1   
 46  23  46  1   
 47  24  26  1   
 48  24  47  1   
 49  24  48  1   
 50  25  26  1   
 51  25  49  1   
 52  25  50  1   
@<TRIPOS>SUBSTRUCTURE
  1 ****   8 GROUP 4 **** **** 0

# MOE 2024.06 (io_trps.svl 2023.06)
