@<TRIPOS>MOLECULE
NONAME
50 52 1 0 0 
SMALL
USER_CHARGES


@<TRIPOS>ATOM
  1 O       -0.3510     0.0330     0.0760 O.2   1 <1>  -0.5700 
  2 C       -0.2660     1.2410    -0.0490 C.2   1 <1>   0.6900 
  3 N       -1.4000     2.0150    -0.0380 N.am  1 <1>  -0.6600 
  4 N        0.9420     1.8600    -0.1840 N.am  1 <1>  -0.5470 
  5 C       -1.4290     3.4250    -0.5340 C.3   1 <1>   0.1400 
  6 C       -2.7000     1.4150     0.3820 C.3   1 <1>   0.1400 
  7 C        2.2690     1.4130    -0.3030 C.ar  1 <1>   0.1170 
  8 C       -2.7990     3.7380    -1.1320 C.3   1 <1>  -0.1600 
  9 C       -3.6320     2.4930     0.9380 C.3   1 <1>  -0.1600 
 10 C        3.2910     2.3660    -0.2220 C.ar  1 <1>   0.0830 
 11 C        2.6110     0.0810    -0.5060 C.ar  1 <1>  -0.1500 
 12 C       -3.9070     3.6230    -0.0710 C.3   1 <1>   0.4180 
 13 O        2.9140     3.6680    -0.0320 O.3   1 <1>  -0.3620 
 14 C        4.6220     1.9740    -0.3360 C.ar  1 <1>  -0.1500 
 15 C        3.9350    -0.3040    -0.6180 C.ar  1 <1>  -0.1500 
 16 O       -3.9210     4.8050     0.6930 O.3   1 <1>  -0.5600 
 17 C       -5.2620     3.3980    -0.7410 C.2   1 <1>  -0.2880 
 18 C        3.8690     4.6850     0.1640 C.3   1 <1>   0.1200 
 19 C        4.9410     0.6420    -0.5320 C.ar  1 <1>  -0.1500 
 20 C       -4.6180     5.9100     0.1850 C.3   1 <1>   0.1200 
 21 C       -6.2770     4.2650    -0.6980 C.2   1 <1>  -0.2760 
 22 C        3.1200     5.9920     0.4030 C.3   1 <1>  -0.2400 
 23 C       -6.1090     5.5880     0.0240 C.3   1 <1>  -0.0220 
 24 C       -7.6400     4.0280    -1.3230 C.3   1 <1>  -0.1020 
 25 H        0.8890     2.8680    -0.0730 H     1 <1>   0.3700 
 26 H       -0.6750     3.5650    -1.2900 H     1 <1>   0.0800 
 27 H       -1.2290     4.0950     0.2860 H     1 <1>   0.0800 
 28 H       -2.5250     0.6680     1.1390 H     1 <1>   0.0800 
 29 H       -3.1540     0.9310    -0.4660 H     1 <1>   0.0800 
 30 H       -2.9830     3.0360    -1.9250 H     1 <1>   0.0800 
 31 H       -2.7950     4.7150    -1.5720 H     1 <1>   0.0800 
 32 H       -3.1700     2.8960     1.8220 H     1 <1>   0.0800 
 33 H       -4.5590     2.0410     1.2390 H     1 <1>   0.0800 
 34 H        1.8440    -0.6680    -0.5790 H     1 <1>   0.1500 
 35 H        5.4250     2.6840    -0.2770 H     1 <1>   0.1500 
 36 H        4.1790    -1.3410    -0.7720 H     1 <1>   0.1500 
 37 H       -5.3210     2.4510    -1.2460 H     1 <1>   0.1500 
 38 H        4.4820     4.7540    -0.7180 H     1 <1>   0.0800 
 39 H        4.4700     4.4280     1.0200 H     1 <1>   0.0800 
 40 H        5.9700     0.3390    -0.6190 H     1 <1>   0.1500 
 41 H       -4.1910     6.1830    -0.7630 H     1 <1>   0.0800 
 42 H       -4.4850     6.7260     0.8720 H     1 <1>   0.0800 
 43 H        2.5130     6.2330    -0.4510 H     1 <1>   0.0800 
 44 H        3.8230     6.7900     0.5600 H     1 <1>   0.0800 
 45 H        2.4980     5.9080     1.2760 H     1 <1>   0.0800 
 46 H       -6.5710     6.3800    -0.5370 H     1 <1>   0.0800 
 47 H       -6.5790     5.5400     0.9900 H     1 <1>   0.0800 
 48 H       -7.8450     4.7800    -2.0640 H     1 <1>   0.0800 
 49 H       -8.4040     4.0640    -0.5680 H     1 <1>   0.0800 
 50 H       -7.6740     3.0640    -1.7980 H     1 <1>   0.0800 
@<TRIPOS>BOND
  1   1   2  2   
  2   2   3  am  
  3   2   4  am  
  4   3   5  1   
  5   3   6  1   
  6   4   7  1   
  7   4  25  1   
  8   5   8  1   
  9   5  26  1   
 10   5  27  1   
 11   6   9  1   
 12   6  28  1   
 13   6  29  1   
 14   7  10  ar  
 15   7  11  ar  
 16   8  12  1   
 17   8  30  1   
 18   8  31  1   
 19   9  12  1   
 20   9  32  1   
 21   9  33  1   
 22  10  13  1   
 23  10  14  ar  
 24  11  15  ar  
 25  11  34  1   
 26  12  16  1   
 27  12  17  1   
 28  13  18  1   
 29  14  19  ar  
 30  14  35  1   
 31  15  19  ar  
 32  15  36  1   
 33  16  20  1   
 34  17  21  2   
 35  17  37  1   
 36  18  22  1   
 37  18  38  1   
 38  18  39  1   
 39  19  40  1   
 40  20  23  1   
 41  20  41  1   
 42  20  42  1   
 43  21  23  1   
 44  21  24  1   
 45  22  43  1   
 46  22  44  1   
 47  22  45  1   
 48  23  46  1   
 49  23  47  1   
 50  24  48  1   
 51  24  49  1   
 52  24  50  1   
@<TRIPOS>SUBSTRUCTURE
  1 ****   5 GROUP 4 **** **** 0

# MOE 2024.06 (io_trps.svl 2023.06)
