@<TRIPOS>MOLECULE
NONAME
48 51 1 0 0 
SMALL
USER_CHARGES


@<TRIPOS>ATOM
  1 CL      -1.3960     0.7140     1.2730 Cl    1 <1>  -0.1770 
  2 C       -1.8830     1.3450    -0.2840 C.ar  1 <1>   0.1770 
  3 C       -1.0910     2.2780    -0.9580 C.ar  1 <1>   0.0540 
  4 C       -3.0680     0.8670    -0.8130 C.ar  1 <1>  -0.1500 
  5 C        0.1430     2.8090    -0.4160 C.2   1 <1>   0.2350 
  6 C       -1.5380     2.6920    -2.2130 C.ar  1 <1>  -0.1500 
  7 C       -3.4920     1.3080    -2.0530 C.ar  1 <1>  -0.1500 
  8 N        1.2340     2.9940    -1.0980 N.2   1 <1>  -0.4100 
  9 C        0.3540     3.2460     0.8980 C.2   1 <1>  -0.1500 
 10 C       -2.7210     2.2190    -2.7530 C.ar  1 <1>  -0.1500 
 11 O        2.1280     3.4300    -0.2700 O.3   1 <1>  -0.0190 
 12 C        1.6330     3.6400     0.9150 C.2   1 <1>  -0.0400 
 13 C        2.5040     4.2670     1.9840 C.3   1 <1>   0.3890 
 14 N        2.7010     5.7310     1.7560 N.pl3 1 <1>  -0.8690 
 15 C        2.4800     6.5960     0.7550 C.ar  1 <1>   0.7710 
 16 N        2.7860     7.8450     1.0330 N.ar  1 <1>  -0.6200 
 17 N        1.9870     6.2220    -0.4430 N.ar  1 <1>  -0.1790 
 18 C        2.6160     8.7590     0.0940 C.ar  1 <1>   0.4100 
 19 C        1.7790     7.1260    -1.4280 C.ar  1 <1>   0.2110 
 20 N        2.9660    10.0390     0.3860 N.pl3 1 <1>  -0.8380 
 21 C        2.0890     8.4170    -1.1680 C.ar  1 <1>  -0.1500 
 22 C        3.4720    11.0340    -0.6170 C.3   1 <1>   0.2090 
 23 C        2.9700    10.5750     1.7830 C.3   1 <1>   0.2090 
 24 C        2.6160    12.3110    -0.5780 C.3   1 <1>   0.2000 
 25 C        2.1080    11.8440     1.8470 C.3   1 <1>  -0.1600 
 26 O        3.1530    13.2580    -1.4330 O.3   1 <1>  -0.6800 
 27 C        2.5550    12.9090     0.8310 C.3   1 <1>  -0.1600 
 28 H       -3.6510     0.1520    -0.2590 H     1 <1>   0.1500 
 29 H       -0.9500     3.3930    -2.7780 H     1 <1>   0.1500 
 30 H       -4.4140     0.9410    -2.4730 H     1 <1>   0.1500 
 31 H       -0.3830     3.2570     1.6830 H     1 <1>   0.1500 
 32 H       -3.0460     2.5570    -3.7230 H     1 <1>   0.1500 
 33 H        3.4600     3.7710     2.0100 H     1 <1>   0.0800 
 34 H        2.0310     4.1280     2.9420 H     1 <1>   0.0800 
 35 H        3.1110     6.1970     2.5740 H     1 <1>   0.4000 
 36 H        1.7900     5.2280    -0.5730 H     1 <1>   0.4570 
 37 H        1.3760     6.7930    -2.3720 H     1 <1>   0.1500 
 38 H        1.9280     9.1860    -1.9000 H     1 <1>   0.1500 
 39 H        3.4690    10.6270    -1.6100 H     1 <1>   0.0800 
 40 H        4.4880    11.2820    -0.3630 H     1 <1>   0.0800 
 41 H        3.9820    10.8000     2.0730 H     1 <1>   0.0800 
 42 H        2.5780     9.8510     2.4760 H     1 <1>   0.0800 
 43 H        1.6250    12.0840    -0.9320 H     1 <1>   0.0800 
 44 H        2.1570    12.2530     2.8410 H     1 <1>   0.0800 
 45 H        1.0840    11.5720     1.6590 H     1 <1>   0.0800 
 46 H        3.9440    13.6690    -1.0350 H     1 <1>   0.4000 
 47 H        1.8610    13.7320     0.8450 H     1 <1>   0.0800 
 48 H        3.5280    13.2710     1.1160 H     1 <1>   0.0800 
@<TRIPOS>BOND
  1   1   2  1   
  2   2   3  ar  
  3   2   4  ar  
  4   3   5  1   
  5   3   6  ar  
  6   4   7  ar  
  7   4  28  1   
  8   5   8  2   
  9   5   9  1   
 10   6  10  ar  
 11   6  29  1   
 12   7  10  ar  
 13   7  30  1   
 14   8  11  1   
 15   9  12  2   
 16   9  31  1   
 17  10  32  1   
 18  11  12  1   
 19  12  13  1   
 20  13  14  1   
 21  13  33  1   
 22  13  34  1   
 23  14  15  1   
 24  14  35  1   
 25  15  16  ar  
 26  15  17  ar  
 27  16  18  ar  
 28  17  19  ar  
 29  17  36  1   
 30  18  20  1   
 31  18  21  ar  
 32  19  21  ar  
 33  19  37  1   
 34  20  22  1   
 35  20  23  1   
 36  21  38  1   
 37  22  24  1   
 38  22  39  1   
 39  22  40  1   
 40  23  25  1   
 41  23  41  1   
 42  23  42  1   
 43  24  26  1   
 44  24  27  1   
 45  24  43  1   
 46  25  27  1   
 47  25  44  1   
 48  25  45  1   
 49  26  46  1   
 50  27  47  1   
 51  27  48  1   
@<TRIPOS>SUBSTRUCTURE
  1 ****  17 GROUP 4 **** **** 0

# MOE 2024.06 (io_trps.svl 2023.06)
