@<TRIPOS>MOLECULE
NONAME
40 42 1 0 0 
SMALL
USER_CHARGES


@<TRIPOS>ATOM
  1 F        1.7090    -0.1530     0.6970 F     1 <1>  -0.1900 
  2 C        2.3000     0.8250     0.0640 C.ar  1 <1>   0.1900 
  3 C        3.0900     0.5440    -1.0370 C.ar  1 <1>   0.1600 
  4 C        2.1260     2.1130     0.5090 C.ar  1 <1>  -0.1500 
  5 N        3.7220     1.4790    -1.7360 N.ar  1 <1>  -0.6200 
  6 C        2.7830     3.1120    -0.1980 C.ar  1 <1>   0.0860 
  7 C        3.5440     2.7230    -1.3040 C.ar  1 <1>   0.1600 
  8 C        2.6750     4.5040     0.1820 C.2   1 <1>   0.5440 
  9 O        1.5750     4.9550     0.4370 O.2   1 <1>  -0.5700 
 10 N        3.7770     5.3310     0.2750 N.am  1 <1>  -0.6600 
 11 C        5.1440     4.7680     0.5470 C.3   1 <1>   0.1400 
 12 C        3.5700     6.8100     0.3210 C.3   1 <1>   0.1400 
 13 C        6.0000     5.6150     1.4980 C.3   1 <1>   0.1400 
 14 C        4.6640     7.6000    -0.4030 C.3   1 <1>  -0.1600 
 15 N        6.6860     6.7240     0.7710 N.am  1 <1>  -0.6600 
 16 C        5.8690     7.9310     0.4830 C.3   1 <1>   0.1400 
 17 C        7.9390     6.5140     0.2270 C.2   1 <1>   0.6160 
 18 O        8.2610     5.3660    -0.0350 O.2   1 <1>  -0.5700 
 19 C        8.8770     7.5870    -0.0380 C.2   1 <1>   0.1230 
 20 N        9.9240     7.4760    -0.9650 N.am  1 <1>  -0.5390 
 21 C        8.9990     8.8280     0.4970 C.2   1 <1>  -0.0410 
 22 C       10.6340     8.6200    -0.9680 C.2   1 <1>   0.6900 
 23 N       10.0730     9.4700    -0.0840 N.am  1 <1>  -0.5390 
 24 O       11.6220     8.8520    -1.6440 O.2   1 <1>  -0.5700 
 25 H        3.2020    -0.4790    -1.3500 H     1 <1>   0.1500 
 26 H        1.5080     2.3400     1.3600 H     1 <1>   0.1500 
 27 H        4.0350     3.4990    -1.8670 H     1 <1>   0.1500 
 28 H        5.6740     4.6380    -0.3810 H     1 <1>   0.0800 
 29 H        5.0340     3.7970     0.9960 H     1 <1>   0.0800 
 30 H        3.4870     7.1280     1.3460 H     1 <1>   0.0800 
 31 H        2.6320     7.0400    -0.1580 H     1 <1>   0.0800 
 32 H        6.7530     4.9770     1.9300 H     1 <1>   0.0800 
 33 H        5.4030     5.9990     2.3050 H     1 <1>   0.0800 
 34 H        4.2310     8.5380    -0.7020 H     1 <1>   0.0800 
 35 H        4.9720     7.0940    -1.3010 H     1 <1>   0.0800 
 36 H        5.5400     8.3690     1.4100 H     1 <1>   0.0800 
 37 H        6.4630     8.6620    -0.0350 H     1 <1>   0.0800 
 38 H       10.1820     6.6360    -1.4830 H     1 <1>   0.3700 
 39 H        8.3990     9.2930     1.2620 H     1 <1>   0.1500 
 40 H       10.4680    10.3950     0.0910 H     1 <1>   0.3700 
@<TRIPOS>BOND
  1   1   2  1   
  2   2   3  ar  
  3   2   4  ar  
  4   3   5  ar  
  5   3  25  1   
  6   4   6  ar  
  7   4  26  1   
  8   5   7  ar  
  9   6   7  ar  
 10   6   8  1   
 11   7  27  1   
 12   8   9  2   
 13   8  10  am  
 14  10  11  1   
 15  10  12  1   
 16  11  13  1   
 17  11  28  1   
 18  11  29  1   
 19  12  14  1   
 20  12  30  1   
 21  12  31  1   
 22  13  15  1   
 23  13  32  1   
 24  13  33  1   
 25  14  16  1   
 26  14  34  1   
 27  14  35  1   
 28  15  16  1   
 29  15  17  am  
 30  16  36  1   
 31  16  37  1   
 32  17  18  2   
 33  17  19  1   
 34  19  20  1   
 35  19  21  2   
 36  20  22  am  
 37  20  38  1   
 38  21  23  1   
 39  21  39  1   
 40  22  23  am  
 41  22  24  2   
 42  23  40  1   
@<TRIPOS>SUBSTRUCTURE
  1 ****  11 GROUP 4 **** **** 0

# MOE 2024.06 (io_trps.svl 2023.06)
