@<TRIPOS>MOLECULE
NONAME
57 59 1 0 0 
SMALL
USER_CHARGES


@<TRIPOS>ATOM
  1 S       -0.2700     0.7680    -0.8630 S.3   1 <1>  -0.4600 
  2 C       -0.5960    -0.8530    -1.6140 C.3   1 <1>   0.2140 
  3 C        0.6390     1.6720    -2.1710 C.3   1 <1>   0.1310 
  4 C       -1.3670    -1.6930    -0.6120 C.ar  1 <1>  -0.1440 
  5 C        1.0180     3.0800    -1.7230 C.2   1 <1>   0.5690 
  6 C       -2.7430    -1.5600    -0.5040 C.ar  1 <1>  -0.1500 
  7 C       -0.7050    -2.6010     0.1990 C.ar  1 <1>  -0.1500 
  8 O        1.6410     3.7810    -2.4840 O.2   1 <1>  -0.5700 
  9 N        0.6470     3.5100    -0.4840 N.am  1 <1>  -0.7300 
 10 C       -3.4550    -2.3290     0.4010 C.ar  1 <1>  -0.1430 
 11 C       -1.4070    -3.3780     1.1050 C.ar  1 <1>  -0.1430 
 12 C        0.9210     4.8060     0.1590 C.3   1 <1>   0.2200 
 13 C       -2.7820    -3.2370     1.2010 C.ar  1 <1>  -0.1500 
 14 C       -4.9610    -2.1800     0.5180 C.3   1 <1>  -0.0970 
 15 C       -0.6810    -4.3720     1.9930 C.3   1 <1>  -0.0970 
 16 C        0.2760     5.9380    -0.6490 C.3   1 <1>  -0.1600 
 17 C        2.4330     4.9930     0.3270 C.3   1 <1>  -0.1600 
 18 C        0.6900     7.3090    -0.1270 C.3   1 <1>   0.3430 
 19 C        2.7740     6.3930     0.8200 C.3   1 <1>   0.3430 
 20 N        2.1750     7.3980    -0.1060 N.4   1 <1>  -0.9590 
 21 C        2.6380     8.7860     0.1830 C.3   1 <1>   0.4860 
 22 C        4.1460     8.8530     0.0660 C.ar  1 <1>  -0.1430 
 23 C        4.7480     8.8610    -1.1840 C.ar  1 <1>   0.1600 
 24 C        4.9460     8.9030     1.1920 C.ar  1 <1>  -0.1500 
 25 N        6.0510     8.8910    -1.3900 N.ar  1 <1>  -0.6200 
 26 C        6.3090     8.9420     0.9890 C.ar  1 <1>  -0.1500 
 27 C        6.8040     8.9320    -0.3030 C.ar  1 <1>   0.1600 
 28 H        0.3530    -1.2970    -1.8560 H     1 <1>   0.0800 
 29 H       -1.1680    -0.6890    -2.5100 H     1 <1>   0.0800 
 30 H        0.0020     1.7180    -3.0340 H     1 <1>   0.0800 
 31 H        1.5250     1.1070    -2.3970 H     1 <1>   0.0800 
 32 H       -3.2600    -0.8520    -1.1260 H     1 <1>   0.1500 
 33 H        0.3630    -2.7020     0.1280 H     1 <1>   0.1500 
 34 H        0.1290     2.8240     0.0830 H     1 <1>   0.3700 
 35 H        0.4710     4.7910     1.1390 H     1 <1>   0.0800 
 36 H       -3.3310    -3.8370     1.9050 H     1 <1>   0.1500 
 37 H       -5.2710    -1.2030     0.1940 H     1 <1>   0.0800 
 38 H       -5.2700    -2.3120     1.5390 H     1 <1>   0.0800 
 39 H       -5.4470    -2.9200    -0.0920 H     1 <1>   0.0800 
 40 H        0.2530    -4.6650     1.5500 H     1 <1>   0.0800 
 41 H       -1.2810    -5.2530     2.1340 H     1 <1>   0.0800 
 42 H       -0.4870    -3.9260     2.9520 H     1 <1>   0.0800 
 43 H       -0.7940     5.8480    -0.5930 H     1 <1>   0.0800 
 44 H        0.5550     5.8780    -1.6850 H     1 <1>   0.0800 
 45 H        2.9450     4.8320    -0.6040 H     1 <1>   0.0800 
 46 H        2.8030     4.2710     1.0330 H     1 <1>   0.0800 
 47 H        0.2980     7.4540     0.8670 H     1 <1>   0.0800 
 48 H        0.2800     8.0710    -0.7710 H     1 <1>   0.0800 
 49 H        3.8480     6.5010     0.8470 H     1 <1>   0.0800 
 50 H        2.3920     6.5340     1.8180 H     1 <1>   0.0800 
 51 H        2.5130     7.1490    -1.0480 H     1 <1>   0.4500 
 52 H        2.3390     9.0770     1.1770 H     1 <1>   0.0800 
 53 H        2.1970     9.4760    -0.5190 H     1 <1>   0.0800 
 54 H        4.1370     8.8390    -2.0710 H     1 <1>   0.1500 
 55 H        4.5450     8.9140     2.1920 H     1 <1>   0.1500 
 56 H        6.9890     8.9810     1.8220 H     1 <1>   0.1500 
 57 H        7.8710     8.9610    -0.4510 H     1 <1>   0.1500 
@<TRIPOS>BOND
  1   1   2  1   
  2   1   3  1   
  3   2   4  1   
  4   2  28  1   
  5   2  29  1   
  6   3   5  1   
  7   3  30  1   
  8   3  31  1   
  9   4   6  ar  
 10   4   7  ar  
 11   5   8  2   
 12   5   9  am  
 13   6  10  ar  
 14   6  32  1   
 15   7  11  ar  
 16   7  33  1   
 17   9  12  1   
 18   9  34  1   
 19  10  13  ar  
 20  10  14  1   
 21  11  13  ar  
 22  11  15  1   
 23  12  16  1   
 24  12  17  1   
 25  12  35  1   
 26  13  36  1   
 27  14  37  1   
 28  14  38  1   
 29  14  39  1   
 30  15  40  1   
 31  15  41  1   
 32  15  42  1   
 33  16  18  1   
 34  16  43  1   
 35  16  44  1   
 36  17  19  1   
 37  17  45  1   
 38  17  46  1   
 39  18  20  1   
 40  18  47  1   
 41  18  48  1   
 42  19  20  1   
 43  19  49  1   
 44  19  50  1   
 45  20  21  1   
 46  20  51  1   
 47  21  22  1   
 48  21  52  1   
 49  21  53  1   
 50  22  23  ar  
 51  22  24  ar  
 52  23  25  ar  
 53  23  54  1   
 54  24  26  ar  
 55  24  55  1   
 56  25  27  ar  
 57  26  27  ar  
 58  26  56  1   
 59  27  57  1   
@<TRIPOS>SUBSTRUCTURE
  1 ****   9 GROUP 4 **** **** 0

# MOE 2024.06 (io_trps.svl 2023.06)
