@<TRIPOS>MOLECULE
NONAME
39 40 1 0 0 
SMALL
USER_CHARGES


@<TRIPOS>ATOM
  1 O       -0.0410     1.5080    -1.5230 O.3   1 <1>  -0.6800 
  2 C        0.1080     1.6510    -0.1480 C.3   1 <1>   0.2000 
  3 C       -1.0990     2.4190     0.4230 C.3   1 <1>  -0.0800 
  4 C        1.4180     2.4370     0.1120 C.3   1 <1>   0.3430 
  5 C       -1.1930     3.8400    -0.1950 C.3   1 <1>  -0.1600 
  6 C       -2.4130     1.6360     0.2700 C.3   1 <1>   0.1200 
  7 N        1.2720     3.9460     0.0660 N.4   1 <1>  -0.9590 
  8 C        0.1200     4.3560    -0.7970 C.3   1 <1>   0.3430 
  9 O       -3.4400     2.3640     0.8430 O.3   1 <1>  -0.6800 
 10 C        2.5530     4.5720    -0.3640 C.3   1 <1>   0.3430 
 11 C        2.5580     6.0670    -0.0390 C.3   1 <1>  -0.1600 
 12 C        3.9140     6.7040    -0.3770 C.3   1 <1>   0.0960 
 13 N        3.8770     8.1420    -0.0590 N.pl3 1 <1>   0.0480 
 14 C        4.2310     8.7460     1.0980 C.2   1 <1>   0.0360 
 15 C        3.4390     9.1410    -0.8460 C.2   1 <1>  -0.3020 
 16 N        4.0480    10.0250     1.1000 N.2   1 <1>  -0.5650 
 17 C        3.5520    10.2780    -0.1250 C.2   1 <1>   0.0770 
 18 H       -0.7810     0.9030    -1.7440 H     1 <1>   0.4000 
 19 H        0.1850     0.6630     0.2760 H     1 <1>   0.0800 
 20 H       -0.9200     2.5260     1.4790 H     1 <1>   0.0800 
 21 H        2.1390     2.1130    -0.6210 H     1 <1>   0.0800 
 22 H        1.7950     2.1590     1.0820 H     1 <1>   0.0800 
 23 H       -1.5490     4.5310     0.5480 H     1 <1>   0.0800 
 24 H       -1.9230     3.8410    -0.9860 H     1 <1>   0.0800 
 25 H       -2.3680     0.6740     0.7520 H     1 <1>   0.0800 
 26 H       -2.6600     1.4990    -0.7700 H     1 <1>   0.0800 
 27 H        1.0490     4.2690     1.0170 H     1 <1>   0.4500 
 28 H        0.0700     5.4280    -0.8940 H     1 <1>   0.0800 
 29 H        0.2470     3.9330    -1.7810 H     1 <1>   0.0800 
 30 H       -3.4820     2.2320     1.8110 H     1 <1>   0.4000 
 31 H        3.3720     4.1010     0.1570 H     1 <1>   0.0800 
 32 H        2.6970     4.4210    -1.4220 H     1 <1>   0.0800 
 33 H        2.3640     6.2070     1.0100 H     1 <1>   0.0800 
 34 H        1.7980     6.5710    -0.6100 H     1 <1>   0.0800 
 35 H        4.1370     6.5940    -1.4240 H     1 <1>   0.0800 
 36 H        4.7040     6.2480     0.1940 H     1 <1>   0.0800 
 37 H        4.6260     8.1990     1.9360 H     1 <1>   0.1500 
 38 H        3.0820     9.0050    -1.8500 H     1 <1>   0.1500 
 39 H        3.2990    11.2820    -0.4270 H     1 <1>   0.1500 
@<TRIPOS>BOND
  1   1   2  1   
  2   1  18  1   
  3   2   3  1   
  4   2   4  1   
  5   2  19  1   
  6   3   5  1   
  7   3   6  1   
  8   3  20  1   
  9   4   7  1   
 10   4  21  1   
 11   4  22  1   
 12   5   8  1   
 13   5  23  1   
 14   5  24  1   
 15   6   9  1   
 16   6  25  1   
 17   6  26  1   
 18   7   8  1   
 19   7  10  1   
 20   7  27  1   
 21   8  28  1   
 22   8  29  1   
 23   9  30  1   
 24  10  11  1   
 25  10  31  1   
 26  10  32  1   
 27  11  12  1   
 28  11  33  1   
 29  11  34  1   
 30  12  13  1   
 31  12  35  1   
 32  12  36  1   
 33  13  14  1   
 34  13  15  1   
 35  14  16  2   
 36  14  37  1   
 37  15  17  2   
 38  15  38  1   
 39  16  17  1   
 40  17  39  1   
@<TRIPOS>SUBSTRUCTURE
  1 ****   7 GROUP 4 **** **** 0

# MOE 2024.06 (io_trps.svl 2023.06)
