@<TRIPOS>MOLECULE
NONAME
55 58 1 0 0 
SMALL
USER_CHARGES


@<TRIPOS>ATOM
  1 O       -4.4350     1.4560    -2.5360 O.2   1 <1>  -0.5700 
  2 C       -3.7770     1.2110    -1.5420 C.2   1 <1>   0.5440 
  3 N       -3.7930    -0.0720    -1.0350 N.am  1 <1>  -0.6600 
  4 C       -3.0170     2.2750    -0.9200 C.ar  1 <1>   0.0860 
  5 C       -2.9510    -0.4680     0.1530 C.3   1 <1>   0.3640 
  6 C       -4.7640    -1.0640    -1.5880 C.3   1 <1>   0.1400 
  7 C       -3.4600     2.8950     0.2490 C.ar  1 <1>  -0.1500 
  8 C       -1.8030     2.7030    -1.4530 C.ar  1 <1>  -0.1500 
  9 C       -1.4720    -0.2790    -0.1950 C.ar  1 <1>  -0.1430 
 10 C       -3.1560    -1.9200     0.6920 C.3   1 <1>   0.2000 
 11 C       -4.4610    -2.5000    -1.1620 C.3   1 <1>   0.1200 
 12 C       -2.7070     3.8710     0.8730 C.ar  1 <1>  -0.1500 
 13 C       -1.0470     3.6750    -0.8280 C.ar  1 <1>  -0.1500 
 14 C       -0.9300    -0.8310    -1.3490 C.ar  1 <1>  -0.1500 
 15 C       -0.6520     0.4690     0.6390 C.ar  1 <1>  -0.1500 
 16 O       -4.3190    -2.5450     0.2200 O.3   1 <1>  -0.5600 
 17 C       -3.2310    -1.9700     2.2260 C.3   1 <1>   0.1200 
 18 C       -1.4810     4.2680     0.3530 C.ar  1 <1>   0.1170 
 19 C        0.4040    -0.6400    -1.6620 C.ar  1 <1>  -0.1500 
 20 C        0.6810     0.6680     0.3240 C.ar  1 <1>  -0.1500 
 21 O       -2.1380    -1.3360     2.8120 O.3   1 <1>  -0.6800 
 22 N       -0.7380     5.2460     1.0170 N.am  1 <1>  -0.5470 
 23 C        1.2100     0.1120    -0.8260 C.ar  1 <1>  -0.1500 
 24 C        0.6210     5.4030     1.1050 C.2   1 <1>   0.5770 
 25 O        1.4060     4.6180     0.6320 O.2   1 <1>  -0.5700 
 26 C        1.1480     6.6070     1.8750 C.3   1 <1>   0.0530 
 27 C        0.4760     7.9630     1.5220 C.3   1 <1>   0.0000 
 28 C        2.4710     7.2210     1.3380 C.3   1 <1>   0.0000 
 29 C        1.8760     8.6090     1.6880 C.3   1 <1>   0.0000 
 30 H       -3.1970     0.2080     0.9530 H     1 <1>   0.0800 
 31 H       -5.7530    -0.8010    -1.2550 H     1 <1>   0.0800 
 32 H       -4.7580    -1.0090    -2.6640 H     1 <1>   0.0800 
 33 H       -4.4060     2.5950     0.6650 H     1 <1>   0.1500 
 34 H       -1.4470     2.2470    -2.3600 H     1 <1>   0.1500 
 35 H       -2.3310    -2.5340     0.3770 H     1 <1>   0.0800 
 36 H       -3.5610    -2.8640    -1.6270 H     1 <1>   0.0800 
 37 H       -5.2780    -3.1450    -1.4330 H     1 <1>   0.0800 
 38 H       -3.0720     4.3240     1.7770 H     1 <1>   0.1500 
 39 H       -0.1070     3.9700    -1.2600 H     1 <1>   0.1500 
 40 H       -1.5510    -1.4040    -2.0150 H     1 <1>   0.1500 
 41 H       -1.0470     0.9140     1.5370 H     1 <1>   0.1500 
 42 H       -3.2490    -2.9910     2.5660 H     1 <1>   0.0800 
 43 H       -4.1180    -1.4650     2.5660 H     1 <1>   0.0800 
 44 H        0.8140    -1.0700    -2.5590 H     1 <1>   0.1500 
 45 H        1.3020     1.2660     0.9690 H     1 <1>   0.1500 
 46 H       -1.3000    -1.7790     2.5690 H     1 <1>   0.4000 
 47 H       -1.2860     5.9160     1.5530 H     1 <1>   0.3700 
 48 H        2.2460     0.2700    -1.0700 H     1 <1>   0.1500 
 49 H        1.1840     6.4410     2.9390 H     1 <1>   0.0000 
 50 H        0.1210     8.0100     0.5060 H     1 <1>   0.0000 
 51 H       -0.2460     8.2940     2.2470 H     1 <1>   0.0000 
 52 H        3.3390     6.9610     1.9180 H     1 <1>   0.0000 
 53 H        2.6040     7.0890     0.2780 H     1 <1>   0.0000 
 54 H        2.0790     8.9060     2.7030 H     1 <1>   0.0000 
 55 H        2.0930     9.3720     0.9620 H     1 <1>   0.0000 
@<TRIPOS>BOND
  1   1   2  2   
  2   2   3  am  
  3   2   4  1   
  4   3   5  1   
  5   3   6  1   
  6   4   7  ar  
  7   4   8  ar  
  8   5   9  1   
  9   5  10  1   
 10   5  30  1   
 11   6  11  1   
 12   6  31  1   
 13   6  32  1   
 14   7  12  ar  
 15   7  33  1   
 16   8  13  ar  
 17   8  34  1   
 18   9  14  ar  
 19   9  15  ar  
 20  10  16  1   
 21  10  17  1   
 22  10  35  1   
 23  11  16  1   
 24  11  36  1   
 25  11  37  1   
 26  12  18  ar  
 27  12  38  1   
 28  13  18  ar  
 29  13  39  1   
 30  14  19  ar  
 31  14  40  1   
 32  15  20  ar  
 33  15  41  1   
 34  17  21  1   
 35  17  42  1   
 36  17  43  1   
 37  18  22  1   
 38  19  23  ar  
 39  19  44  1   
 40  20  23  ar  
 41  20  45  1   
 42  21  46  1   
 43  22  24  am  
 44  22  47  1   
 45  23  48  1   
 46  24  25  2   
 47  24  26  1   
 48  26  27  1   
 49  26  28  1   
 50  26  49  1   
 51  27  29  1   
 52  27  50  1   
 53  27  51  1   
 54  28  29  1   
 55  28  52  1   
 56  28  53  1   
 57  29  54  1   
 58  29  55  1   
@<TRIPOS>SUBSTRUCTURE
  1 ****   8 GROUP 4 **** **** 0

# MOE 2024.06 (io_trps.svl 2023.06)
