@<TRIPOS>MOLECULE
NONAME
45 47 1 0 0 
SMALL
USER_CHARGES


@<TRIPOS>ATOM
  1 O       -3.5650    -1.2720    -3.4210 O.co2 1 <1>  -0.9000 
  2 C       -3.5070    -0.3060    -2.6370 C.2   1 <1>   0.9790 
  3 O       -3.3230     0.8310    -3.1110 O.co2 1 <1>  -0.9000 
  4 C       -3.6570    -0.4970    -1.1980 C.ar  1 <1>  -0.1790 
  5 C       -3.8210    -1.7670    -0.6410 C.ar  1 <1>  -0.1500 
  6 C       -3.6500     0.5840    -0.3160 C.ar  1 <1>  -0.1500 
  7 C       -3.9800    -1.9610     0.7230 C.ar  1 <1>  -0.1440 
  8 C       -3.8030     0.4080     1.0470 C.ar  1 <1>  -0.1500 
  9 C       -3.9690    -0.8620     1.5680 C.ar  1 <1>  -0.1500 
 10 C       -4.1660    -3.3650     1.2860 C.3   1 <1>   0.2540 
 11 N       -5.2340    -4.1010     0.5880 N.3   1 <1>  -0.8100 
 12 C       -5.3870    -5.4740     1.1070 C.3   1 <1>   0.1100 
 13 C       -6.5300    -3.3980     0.6280 C.3   1 <1>   0.1100 
 14 C       -6.5060    -6.2380     0.3640 C.3   1 <1>   0.3800 
 15 C       -7.6090    -4.2130    -0.1050 C.3   1 <1>   0.1200 
 16 O       -7.7080    -5.5070     0.4290 O.3   1 <1>  -0.5600 
 17 C       -6.7410    -7.6290     0.9450 C.2   1 <1>   0.0060 
 18 N       -5.9320    -8.2630     1.7120 N.2   1 <1>  -0.3380 
 19 N       -7.8140    -8.3730     0.7190 N.pl3 1 <1>   0.3140 
 20 N       -6.5170    -9.4240     1.9740 N.2   1 <1>   0.0000 
 21 N       -7.6520    -9.5020     1.3810 N.2   1 <1>  -0.4180 
 22 C       -9.0080    -8.0750    -0.1050 C.3   1 <1>   0.0960 
 23 C       -9.6970    -9.3500    -0.5890 C.3   1 <1>   0.1200 
 24 O      -10.7270    -8.9810    -1.4480 O.3   1 <1>  -0.5600 
 25 C      -11.4610   -10.0560    -1.9410 C.3   1 <1>   0.0400 
 26 H       -3.8310    -2.6160    -1.3040 H     1 <1>   0.1500 
 27 H       -3.5220     1.5740    -0.7220 H     1 <1>   0.1500 
 28 H       -3.7920     1.2630     1.6980 H     1 <1>   0.1500 
 29 H       -4.0890    -0.9880     2.6280 H     1 <1>   0.1500 
 30 H       -4.3940    -3.3100     2.3370 H     1 <1>   0.0800 
 31 H       -3.2390    -3.9000     1.1720 H     1 <1>   0.0800 
 32 H       -5.6190    -5.4510     2.1580 H     1 <1>   0.0800 
 33 H       -4.4610    -6.0070     0.9800 H     1 <1>   0.0800 
 34 H       -6.4410    -2.4390     0.1450 H     1 <1>   0.0800 
 35 H       -6.8350    -3.2340     1.6480 H     1 <1>   0.0800 
 36 H       -6.2330    -6.3370    -0.6720 H     1 <1>   0.0800 
 37 H       -7.3690    -4.2840    -1.1530 H     1 <1>   0.0800 
 38 H       -8.5670    -3.7370    -0.0010 H     1 <1>   0.0800 
 39 H       -8.7000    -7.4980    -0.9570 H     1 <1>   0.0800 
 40 H       -9.6900    -7.4940     0.4870 H     1 <1>   0.0800 
 41 H      -10.1170    -9.8910     0.2430 H     1 <1>   0.0800 
 42 H       -9.0060    -9.9730    -1.1310 H     1 <1>   0.0800 
 43 H      -12.2260    -9.6690    -2.5920 H     1 <1>   0.0800 
 44 H      -11.9170   -10.5820    -1.1210 H     1 <1>   0.0800 
 45 H      -10.8090   -10.7090    -2.4960 H     1 <1>   0.0800 
@<TRIPOS>BOND
  1   1   2  ar  
  2   2   3  ar  
  3   2   4  1   
  4   4   5  ar  
  5   4   6  ar  
  6   5   7  ar  
  7   5  26  1   
  8   6   8  ar  
  9   6  27  1   
 10   7   9  ar  
 11   7  10  1   
 12   8   9  ar  
 13   8  28  1   
 14   9  29  1   
 15  10  11  1   
 16  10  30  1   
 17  10  31  1   
 18  11  12  1   
 19  11  13  1   
 20  12  14  1   
 21  12  32  1   
 22  12  33  1   
 23  13  15  1   
 24  13  34  1   
 25  13  35  1   
 26  14  16  1   
 27  14  17  1   
 28  14  36  1   
 29  15  16  1   
 30  15  37  1   
 31  15  38  1   
 32  17  18  2   
 33  17  19  1   
 34  18  20  1   
 35  19  21  1   
 36  19  22  1   
 37  20  21  2   
 38  22  23  1   
 39  22  39  1   
 40  22  40  1   
 41  23  24  1   
 42  23  41  1   
 43  23  42  1   
 44  24  25  1   
 45  25  43  1   
 46  25  44  1   
 47  25  45  1   
@<TRIPOS>SUBSTRUCTURE
  1 ****  11 GROUP 4 **** **** 0

# MOE 2024.06 (io_trps.svl 2023.06)
