@<TRIPOS>MOLECULE
NONAME
52 55 1 0 0 
SMALL
USER_CHARGES


@<TRIPOS>ATOM
  1 O        1.5710     1.0670    -1.9400 O.2   1 <1>  -0.5700 
  2 C        1.7070    -0.0590    -1.5180 C.2   1 <1>   0.9370 
  3 N        2.5990    -0.2960    -0.4590 N.pl3 1 <1>  -0.5760 
  4 C        0.9770    -1.1380    -2.0790 C.2   1 <1>  -0.1360 
  5 C        2.7360    -1.5570     0.0230 C.cat 1 <1>   0.7390 
  6 C        3.3300     0.7230     0.1070 C.2   1 <1>   0.1910 
  7 C        1.1420    -2.3790    -1.5890 C.2   1 <1>   0.2030 
  8 N        2.0160    -2.5400    -0.5440 N.pl3 1 <1>  -0.6450 
  9 C        3.6090    -1.8100     1.0880 C.2   1 <1>  -0.1800 
 10 C        4.1910     0.4980     1.1490 C.2   1 <1>  -0.1380 
 11 C        0.4560    -3.6640    -2.0590 C.3   1 <1>   0.2480 
 12 C        4.3370    -0.7990     1.6560 C.2   1 <1>  -0.1500 
 13 C        5.0010     1.6210     1.7770 C.3   1 <1>  -0.1020 
 14 N        0.4820    -4.6300    -0.9410 N.3   1 <1>  -0.8100 
 15 C        0.7160    -6.0190    -1.4050 C.3   1 <1>   0.1100 
 16 C       -0.7230    -4.5570    -0.1000 C.3   1 <1>   0.1100 
 17 C        1.0340    -6.9440    -0.2140 C.3   1 <1>  -0.1060 
 18 C       -0.5310    -5.4210     1.1470 C.3   1 <1>  -0.1600 
 19 C        1.1000    -8.3910    -0.7000 C.2   1 <1>   0.9060 
 20 C       -0.1650    -6.8540     0.7540 C.3   1 <1>   0.2000 
 21 C        2.3810    -6.5460     0.4620 C.3   1 <1>  -0.0650 
 22 O        1.1410    -9.2950     0.1480 O.co2 1 <1>  -0.9000 
 23 O        1.0750    -8.6310    -1.9130 O.co2 1 <1>  -0.9000 
 24 O        0.1000    -7.5620     1.9060 O.3   1 <1>  -0.6800 
 25 C        3.6120    -6.6480    -0.4550 C.3   1 <1>  -0.1950 
 26 C        4.8630    -5.9100    -0.0990 C.3   1 <1>  -0.2000 
 27 C        4.0890    -5.5320    -1.3290 C.3   1 <1>  -0.2000 
 28 H        0.3150    -0.9050    -2.8910 H     1 <1>   0.1500 
 29 H        3.2110     1.7210    -0.2900 H     1 <1>   0.1500 
 30 H        2.0190    -3.5100    -0.1750 H     1 <1>   0.4500 
 31 H        3.6990    -2.8170     1.4530 H     1 <1>   0.1500 
 32 H        1.0190    -4.0570    -2.8890 H     1 <1>   0.0800 
 33 H       -0.5520    -3.4790    -2.3900 H     1 <1>   0.0800 
 34 H        5.0130    -0.9820     2.4770 H     1 <1>   0.1500 
 35 H        6.0530     1.4130     1.6870 H     1 <1>   0.0800 
 36 H        4.7570     1.7120     2.8210 H     1 <1>   0.0800 
 37 H        4.7990     2.5630     1.2980 H     1 <1>   0.0800 
 38 H       -0.1560    -6.3850    -1.9220 H     1 <1>   0.0800 
 39 H        1.5360    -6.0560    -2.1020 H     1 <1>   0.0800 
 40 H       -0.9050    -3.5400     0.2010 H     1 <1>   0.0800 
 41 H       -1.5780    -4.9090    -0.6550 H     1 <1>   0.0800 
 42 H       -1.4440    -5.4360     1.7130 H     1 <1>   0.0800 
 43 H        0.2410    -4.9970     1.7620 H     1 <1>   0.0800 
 44 H       -1.0190    -7.3200     0.2890 H     1 <1>   0.0800 
 45 H        2.3130    -5.5520     0.8590 H     1 <1>   0.0800 
 46 H        2.5550    -7.2060     1.2940 H     1 <1>   0.0800 
 47 H        0.4840    -8.4330     1.5940 H     1 <1>   0.4000 
 48 H        3.7370    -7.6480    -0.8400 H     1 <1>   0.1000 
 49 H        4.8530    -5.2560     0.7550 H     1 <1>   0.1000 
 50 H        5.8000    -6.4300    -0.2070 H     1 <1>   0.1000 
 51 H        4.4830    -5.7940    -2.2960 H     1 <1>   0.1000 
 52 H        3.5360    -4.6150    -1.3480 H     1 <1>   0.1000 
@<TRIPOS>BOND
  1   1   2  2   
  2   2   3  1   
  3   2   4  1   
  4   3   5  ar  
  5   3   6  1   
  6   4   7  2   
  7   4  28  1   
  8   5   8  ar  
  9   5   9  1   
 10   6  10  2   
 11   6  29  1   
 12   7   8  1   
 13   7  11  1   
 14   8  30  1   
 15   9  12  2   
 16   9  31  1   
 17  10  12  1   
 18  10  13  1   
 19  11  14  1   
 20  11  32  1   
 21  11  33  1   
 22  12  34  1   
 23  13  35  1   
 24  13  36  1   
 25  13  37  1   
 26  14  15  1   
 27  14  16  1   
 28  15  17  1   
 29  15  38  1   
 30  15  39  1   
 31  16  18  1   
 32  16  40  1   
 33  16  41  1   
 34  17  19  1   
 35  17  20  1   
 36  17  21  1   
 37  18  20  1   
 38  18  42  1   
 39  18  43  1   
 40  19  22  ar  
 41  19  23  ar  
 42  20  24  1   
 43  20  44  1   
 44  21  25  1   
 45  21  45  1   
 46  21  46  1   
 47  24  47  1   
 48  25  26  1   
 49  25  27  1   
 50  25  48  1   
 51  26  27  1   
 52  26  49  1   
 53  26  50  1   
 54  27  51  1   
 55  27  52  1   
@<TRIPOS>SUBSTRUCTURE
  1 ****   8 GROUP 4 **** **** 0

# MOE 2024.06 (io_trps.svl 2023.06)
