@<TRIPOS>MOLECULE
NONAME
53 56 1 0 0 
SMALL
USER_CHARGES


@<TRIPOS>ATOM
  1 O        0.1210    -0.3160     1.0500 O.2   1 <1>  -0.5700 
  2 C        1.0670    -0.9700     0.6540 C.2   1 <1>   0.5440 
  3 N        2.1750    -0.3090     0.1740 N.am  1 <1>  -0.6600 
  4 C        0.9970    -2.4170     0.6840 C.ar  1 <1>   0.0860 
  5 C        2.2550     1.1690     0.1530 C.3   1 <1>   0.1400 
  6 C        3.2010    -0.9030    -0.7130 C.3   1 <1>   0.1400 
  7 C       -0.1120    -3.1050     0.2300 C.ar  1 <1>  -0.1500 
  8 C        2.0220    -3.2160     1.1740 C.ar  1 <1>  -0.1500 
  9 C        3.5210     1.4850    -0.6360 C.3   1 <1>  -0.1600 
 10 C        3.7310     0.2680    -1.5310 C.3   1 <1>  -0.1600 
 11 C       -0.1540    -4.4910     0.2500 C.ar  1 <1>   0.4100 
 12 C        1.8950    -4.5890     1.1580 C.ar  1 <1>   0.1600 
 13 N        0.8420    -5.2400     0.7010 N.ar  1 <1>  -0.6200 
 14 N       -1.2790    -5.1340    -0.2140 N.pl3 1 <1>  -0.8690 
 15 C       -1.3270    -6.5900    -0.5110 C.3   1 <1>   0.2090 
 16 C       -1.8070    -7.3610     0.7180 C.3   1 <1>  -0.0170 
 17 C       -2.1610    -8.8040     0.3360 C.ar  1 <1>  -0.1430 
 18 C       -1.2220    -9.8010     0.5010 C.ar  1 <1>   0.0830 
 19 C       -3.4460    -9.1030    -0.1970 C.ar  1 <1>   0.0000 
 20 O        0.0090    -9.4710     0.9740 O.3   1 <1>  -0.3630 
 21 C       -1.5410   -11.1310     0.1720 C.ar  1 <1>  -0.1500 
 22 C       -3.7500   -10.4460    -0.5210 C.ar  1 <1>   0.0000 
 23 C       -4.4580    -8.1400    -0.4370 C.ar  1 <1>  -0.1500 
 24 C        1.0720   -10.3940     1.0490 C.3   1 <1>   0.0400 
 25 C       -2.7730   -11.4390    -0.3230 C.ar  1 <1>  -0.1500 
 26 C       -5.0190   -10.7700    -1.0410 C.ar  1 <1>  -0.1500 
 27 C       -5.6810    -8.4790    -0.9450 C.ar  1 <1>  -0.1500 
 28 C       -5.9690    -9.8110    -1.2500 C.ar  1 <1>  -0.1500 
 29 H        2.2980     1.5610     1.1550 H     1 <1>   0.0800 
 30 H        1.3870     1.5620    -0.3490 H     1 <1>   0.0800 
 31 H        2.7800    -1.6670    -1.3450 H     1 <1>   0.0800 
 32 H        3.9890    -1.3190    -0.1090 H     1 <1>   0.0800 
 33 H       -0.9560    -2.5560    -0.1400 H     1 <1>   0.1500 
 34 H        2.9090    -2.7590     1.5720 H     1 <1>   0.1500 
 35 H        4.3440     1.5830     0.0510 H     1 <1>   0.0800 
 36 H        3.4230     2.3970    -1.1970 H     1 <1>   0.0800 
 37 H        3.1390     0.3660    -2.4240 H     1 <1>   0.0800 
 38 H        4.7620     0.1320    -1.8060 H     1 <1>   0.0800 
 39 H        2.7010    -5.1900     1.5430 H     1 <1>   0.1500 
 40 H       -1.9470    -4.5670    -0.7370 H     1 <1>   0.4000 
 41 H       -0.3530    -6.9490    -0.8020 H     1 <1>   0.0800 
 42 H       -2.0020    -6.7580    -1.3320 H     1 <1>   0.0800 
 43 H       -2.6520    -6.8730     1.1630 H     1 <1>   0.0800 
 44 H       -1.0260    -7.3370     1.4570 H     1 <1>   0.0800 
 45 H       -0.8230   -11.9160     0.3070 H     1 <1>   0.1500 
 46 H       -4.2700    -7.1070    -0.2200 H     1 <1>   0.1500 
 47 H        1.9430    -9.8690     1.3980 H     1 <1>   0.0800 
 48 H        1.2560   -10.7960     0.0690 H     1 <1>   0.0800 
 49 H        0.8120   -11.1700     1.7460 H     1 <1>   0.0800 
 50 H       -3.0190   -12.4550    -0.5720 H     1 <1>   0.1500 
 51 H       -5.2310   -11.7970    -1.2740 H     1 <1>   0.1500 
 52 H       -6.4350    -7.7300    -1.1170 H     1 <1>   0.1500 
 53 H       -6.9370   -10.0630    -1.6470 H     1 <1>   0.1500 
@<TRIPOS>BOND
  1   1   2  2   
  2   2   3  am  
  3   2   4  1   
  4   3   5  1   
  5   3   6  1   
  6   4   7  ar  
  7   4   8  ar  
  8   5   9  1   
  9   5  29  1   
 10   5  30  1   
 11   6  10  1   
 12   6  31  1   
 13   6  32  1   
 14   7  11  ar  
 15   7  33  1   
 16   8  12  ar  
 17   8  34  1   
 18   9  10  1   
 19   9  35  1   
 20   9  36  1   
 21  10  37  1   
 22  10  38  1   
 23  11  13  ar  
 24  11  14  1   
 25  12  13  ar  
 26  12  39  1   
 27  14  15  1   
 28  14  40  1   
 29  15  16  1   
 30  15  41  1   
 31  15  42  1   
 32  16  17  1   
 33  16  43  1   
 34  16  44  1   
 35  17  18  ar  
 36  17  19  ar  
 37  18  20  1   
 38  18  21  ar  
 39  19  22  ar  
 40  19  23  ar  
 41  20  24  1   
 42  21  25  ar  
 43  21  45  1   
 44  22  25  ar  
 45  22  26  ar  
 46  23  27  ar  
 47  23  46  1   
 48  24  47  1   
 49  24  48  1   
 50  24  49  1   
 51  25  50  1   
 52  26  28  ar  
 53  26  51  1   
 54  27  28  ar  
 55  27  52  1   
 56  28  53  1   
@<TRIPOS>SUBSTRUCTURE
  1 ****  14 GROUP 4 **** **** 0

# MOE 2024.06 (io_trps.svl 2023.06)
