@<TRIPOS>MOLECULE
NONAME
43 46 1 0 0 
SMALL
USER_CHARGES


@<TRIPOS>ATOM
  1 O       -3.3400     1.0680    -0.7740 O.co2 1 <1>  -0.9000 
  2 C       -4.2270     0.2100    -0.9220 C.2   1 <1>   1.0330 
  3 O       -5.0800     0.3640    -1.8190 O.co2 1 <1>  -0.9000 
  4 C       -4.2810    -0.9370    -0.0180 C.2   1 <1>  -0.0060 
  5 N       -5.1790    -1.9690    -0.0900 N.2   1 <1>  -0.5650 
  6 C       -3.5060    -1.1710     1.0630 C.2   1 <1>  -0.0100 
  7 C       -4.9170    -2.6870     0.9350 C.2   1 <1>   0.2980 
  8 O       -3.9080    -2.2650     1.6550 O.3   1 <1>  -0.2800 
  9 C       -5.7400    -3.9100     1.3290 C.3   1 <1>   0.5230 
 10 N       -6.9870    -3.9190     0.4870 N.4   1 <1>  -0.9590 
 11 C       -7.9130    -2.7950     0.8660 C.3   1 <1>   0.3430 
 12 C       -7.6970    -5.2140     0.3510 C.3   1 <1>   0.3430 
 13 C       -8.9750    -2.5760    -0.2190 C.3   1 <1>   0.1430 
 14 C       -8.7880    -5.0740    -0.7220 C.3   1 <1>  -0.1600 
 15 C       -9.8360    -1.4370     0.2740 C.ar  1 <1>   0.1670 
 16 C       -9.7450    -3.8950    -0.4500 C.3   1 <1>  -0.1600 
 17 C       -8.3720    -1.9920    -1.5270 C.3   1 <1>  -0.1600 
 18 N      -10.7200    -1.5250     1.2370 N.ar  1 <1>  -0.6200 
 19 C       -9.5420    -0.2730    -0.3720 C.ar  1 <1>  -0.1430 
 20 C       -8.4570    -0.4600    -1.4050 C.3   1 <1>  -0.0170 
 21 C      -11.3140    -0.3730     1.5180 C.ar  1 <1>   0.7200 
 22 C      -10.2270     0.8570     0.0040 C.ar  1 <1>   0.1600 
 23 N      -11.1330     0.8130     0.9560 N.ar  1 <1>  -0.6200 
 24 N      -12.2300    -0.4150     2.4860 N.pl3 1 <1>  -0.9000 
 25 H       -2.6840    -0.5960     1.4530 H     1 <1>   0.1500 
 26 H       -5.9890    -3.8610     2.3750 H     1 <1>   0.0800 
 27 H       -5.1530    -4.7940     1.1450 H     1 <1>   0.0800 
 28 H       -6.6260    -3.6290    -0.4400 H     1 <1>   0.4500 
 29 H       -7.3620    -1.8760     0.9880 H     1 <1>   0.0800 
 30 H       -8.4050    -3.0170     1.7980 H     1 <1>   0.0800 
 31 H       -8.1480    -5.4850     1.2920 H     1 <1>   0.0800 
 32 H       -7.0060    -5.9910     0.0630 H     1 <1>   0.0800 
 33 H       -9.3560    -5.9870    -0.7620 H     1 <1>   0.0800 
 34 H       -8.3210    -4.9500    -1.6840 H     1 <1>   0.0800 
 35 H      -10.4390    -3.7800    -1.2660 H     1 <1>   0.0800 
 36 H      -10.3270    -4.1180     0.4290 H     1 <1>   0.0800 
 37 H       -8.9810    -2.2840    -2.3640 H     1 <1>   0.0800 
 38 H       -7.3620    -2.3010    -1.7240 H     1 <1>   0.0800 
 39 H       -8.7020     0.0040    -2.3450 H     1 <1>   0.0800 
 40 H       -7.5280    -0.0530    -1.0400 H     1 <1>   0.0800 
 41 H      -10.0270     1.8000    -0.4770 H     1 <1>   0.1500 
 42 H      -12.8580     0.3830     2.5080 H     1 <1>   0.4000 
 43 H      -12.6460    -1.3240     2.6600 H     1 <1>   0.4000 
@<TRIPOS>BOND
  1   1   2  ar  
  2   2   3  ar  
  3   2   4  1   
  4   4   5  1   
  5   4   6  2   
  6   5   7  2   
  7   6   8  1   
  8   6  25  1   
  9   7   8  1   
 10   7   9  1   
 11   9  10  1   
 12   9  26  1   
 13   9  27  1   
 14  10  11  1   
 15  10  12  1   
 16  10  28  1   
 17  11  13  1   
 18  11  29  1   
 19  11  30  1   
 20  12  14  1   
 21  12  31  1   
 22  12  32  1   
 23  13  15  1   
 24  13  16  1   
 25  13  17  1   
 26  14  16  1   
 27  14  33  1   
 28  14  34  1   
 29  15  18  ar  
 30  15  19  ar  
 31  16  35  1   
 32  16  36  1   
 33  17  20  1   
 34  17  37  1   
 35  17  38  1   
 36  18  21  ar  
 37  19  20  1   
 38  19  22  ar  
 39  20  39  1   
 40  20  40  1   
 41  21  23  ar  
 42  21  24  1   
 43  22  23  ar  
 44  22  41  1   
 45  24  42  1   
 46  24  43  1   
@<TRIPOS>SUBSTRUCTURE
  1 ****  11 GROUP 4 **** **** 0

# MOE 2024.06 (io_trps.svl 2023.06)
