@<TRIPOS>MOLECULE
NONAME
52 54 1 0 0 
SMALL
USER_CHARGES


@<TRIPOS>ATOM
  1 CL      -2.3360    -0.5970    -2.6830 Cl    1 <1>  -0.1770 
  2 C       -2.8230     0.6020    -1.5120 C.ar  1 <1>   0.1770 
  3 C       -2.3780     1.9030    -1.6550 C.ar  1 <1>  -0.1500 
  4 C       -3.6410     0.2320    -0.4630 C.ar  1 <1>  -0.1500 
  5 C       -2.7490     2.8740    -0.7340 C.ar  1 <1>  -0.1440 
  6 C       -4.0170     1.1910     0.4600 C.ar  1 <1>  -0.1500 
  7 C       -3.5810     2.5020     0.3270 C.ar  1 <1>   0.0830 
  8 C       -2.2320     4.2920    -0.9620 C.3   1 <1>   0.4870 
  9 O       -3.9580     3.3600     1.2970 O.3   1 <1>  -0.3630 
 10 N       -1.5380     4.8750     0.2200 N.4   1 <1>  -0.9590 
 11 C       -4.9870     4.3160     1.0230 C.3   1 <1>   0.0140 
 12 C       -1.0650     6.2460    -0.1210 C.3   1 <1>   0.3430 
 13 C       -0.5720     3.9620     0.8820 C.3   1 <1>   0.2630 
 14 C       -4.3890     5.6820     0.7500 C.2   1 <1>   0.9060 
 15 C       -0.5590     7.0260     1.1010 C.3   1 <1>  -0.0800 
 16 O       -3.5750     6.1470     1.5570 O.co2 1 <1>  -0.9000 
 17 O       -4.5200     6.1930    -0.3640 O.co2 1 <1>  -0.9000 
 18 C       -0.6890     8.5020     0.7690 C.3   1 <1>   0.2090 
 19 C        0.9480     6.8750     1.3430 C.3   1 <1>  -0.1600 
 20 N        0.5250     8.7900    -0.0370 N.pl3 1 <1>  -0.8380 
 21 C        1.6100     7.8780     0.4000 C.3   1 <1>   0.2090 
 22 C        0.8510    10.1010    -0.4200 C.ar  1 <1>   0.1000 
 23 C        2.0030    10.3440    -1.1650 C.ar  1 <1>  -0.1500 
 24 C        0.0510    11.1970    -0.0960 C.ar  1 <1>  -0.1500 
 25 C        2.3570    11.6240    -1.5520 C.ar  1 <1>  -0.1500 
 26 C        0.3980    12.4790    -0.4810 C.ar  1 <1>  -0.1500 
 27 C        1.5550    12.6980    -1.2080 C.ar  1 <1>  -0.1500 
 28 H       -1.7470     2.1370    -2.4940 H     1 <1>   0.1500 
 29 H       -3.9750    -0.7860    -0.3720 H     1 <1>   0.1500 
 30 H       -4.6490     0.9300     1.2900 H     1 <1>   0.1500 
 31 H       -3.0510     4.9230    -1.2570 H     1 <1>   0.0800 
 32 H       -1.5430     4.2720    -1.7890 H     1 <1>   0.0800 
 33 H       -2.3110     5.0800     0.9040 H     1 <1>   0.4500 
 34 H       -5.6150     4.3820     1.8900 H     1 <1>   0.0800 
 35 H       -5.5640     3.9900     0.1780 H     1 <1>   0.0800 
 36 H       -1.9070     6.7870    -0.5270 H     1 <1>   0.0800 
 37 H       -0.2980     6.2150    -0.8760 H     1 <1>   0.0800 
 38 H        0.2550     3.7510     0.2260 H     1 <1>   0.0800 
 39 H       -1.0600     3.0370     1.1440 H     1 <1>   0.0800 
 40 H       -0.2020     4.4140     1.7870 H     1 <1>   0.0800 
 41 H       -1.1510     6.7980     1.9700 H     1 <1>   0.0800 
 42 H       -0.6700     9.0860     1.6740 H     1 <1>   0.0800 
 43 H       -1.5890     8.7220     0.2190 H     1 <1>   0.0800 
 44 H        1.3220     5.8830     1.1750 H     1 <1>   0.0800 
 45 H        1.1760     7.1590     2.3550 H     1 <1>   0.0800 
 46 H        2.0180     7.3780    -0.4620 H     1 <1>   0.0800 
 47 H        2.3900     8.4270     0.9020 H     1 <1>   0.0800 
 48 H        2.6290     9.5230    -1.4550 H     1 <1>   0.1500 
 49 H       -0.8550    11.0600     0.4600 H     1 <1>   0.1500 
 50 H        3.2540    11.7860    -2.1230 H     1 <1>   0.1500 
 51 H       -0.2340    13.3080    -0.2160 H     1 <1>   0.1500 
 52 H        1.8270    13.6950    -1.5060 H     1 <1>   0.1500 
@<TRIPOS>BOND
  1   1   2  1   
  2   2   3  ar  
  3   2   4  ar  
  4   3   5  ar  
  5   3  28  1   
  6   4   6  ar  
  7   4  29  1   
  8   5   7  ar  
  9   5   8  1   
 10   6   7  ar  
 11   6  30  1   
 12   7   9  1   
 13   8  10  1   
 14   8  31  1   
 15   8  32  1   
 16   9  11  1   
 17  10  12  1   
 18  10  13  1   
 19  10  33  1   
 20  11  14  1   
 21  11  34  1   
 22  11  35  1   
 23  12  15  1   
 24  12  36  1   
 25  12  37  1   
 26  13  38  1   
 27  13  39  1   
 28  13  40  1   
 29  14  16  ar  
 30  14  17  ar  
 31  15  18  1   
 32  15  19  1   
 33  15  41  1   
 34  18  20  1   
 35  18  42  1   
 36  18  43  1   
 37  19  21  1   
 38  19  44  1   
 39  19  45  1   
 40  20  21  1   
 41  20  22  1   
 42  21  46  1   
 43  21  47  1   
 44  22  23  ar  
 45  22  24  ar  
 46  23  25  ar  
 47  23  48  1   
 48  24  26  ar  
 49  24  49  1   
 50  25  27  ar  
 51  25  50  1   
 52  26  27  ar  
 53  26  51  1   
 54  27  52  1   
@<TRIPOS>SUBSTRUCTURE
  1 ****  12 GROUP 4 **** **** 0

# MOE 2024.06 (io_trps.svl 2023.06)
