@<TRIPOS>MOLECULE
NONAME
51 55 1 0 0 
SMALL
USER_CHARGES


@<TRIPOS>ATOM
  1 S        0.7360     0.9080     0.8150 S.3   1 <1>   0.1810 
  2 N        2.1460     1.7650     0.3110 N.2   1 <1>  -0.5100 
  3 C        1.2900    -0.6480     0.2290 C.ar  1 <1>   0.0400 
  4 C        2.9490     0.9260    -0.2320 C.2   1 <1>   0.3720 
  5 C        2.5290    -0.4550    -0.3350 C.ar  1 <1>   0.0000 
  6 C        0.6450    -1.8710     0.2830 C.ar  1 <1>  -0.1500 
  7 N        4.1990     1.3180    -0.7010 N.pl3 1 <1>  -0.8210 
  8 C        3.1550    -1.5620    -0.9070 C.ar  1 <1>  -0.1500 
  9 C        1.2900    -2.9610    -0.2760 C.ar  1 <1>  -0.1500 
 10 C        4.3830     2.7460    -1.1240 C.3   1 <1>   0.2090 
 11 C        5.3980     0.7980     0.0380 C.3   1 <1>   0.2090 
 12 C        2.5390    -2.8020    -0.8710 C.ar  1 <1>  -0.1500 
 13 C        4.8160     3.6660     0.0360 C.3   1 <1>   0.2090 
 14 C        5.8120     1.7160     1.2040 C.3   1 <1>   0.2090 
 15 N        6.0120     3.1250     0.7490 N.pl3 1 <1>  -0.8380 
 16 C        7.2820     3.6270     0.5310 C.ar  1 <1>   0.4100 
 17 N        8.1330     2.7640    -0.0290 N.ar  1 <1>  -0.6200 
 18 C        7.6360     4.9480     0.8730 C.ar  1 <1>   0.0860 
 19 C        9.3590     3.1920    -0.2480 C.ar  1 <1>   0.1600 
 20 C        6.6950     5.8680     1.4530 C.2   1 <1>   0.5440 
 21 C        8.9390     5.3600     0.6280 C.ar  1 <1>  -0.1500 
 22 C        9.8110     4.4630     0.0580 C.ar  1 <1>  -0.1500 
 23 O        6.4200     5.8170     2.6380 O.2   1 <1>  -0.5700 
 24 N        6.1240     6.8640     0.6900 N.am  1 <1>  -0.6600 
 25 C        6.3710     7.1000    -0.7480 C.3   1 <1>   0.1400 
 26 C        5.0510     7.7420     1.2030 C.3   1 <1>   0.1400 
 27 C        5.1580     7.8990    -1.2110 C.3   1 <1>  -0.1600 
 28 C        4.7020     8.6580     0.0330 C.3   1 <1>  -0.1600 
 29 H       -0.3230    -1.9640     0.7420 H     1 <1>   0.1500 
 30 H        4.1130    -1.4370    -1.3780 H     1 <1>   0.1500 
 31 H        0.8260    -3.9320    -0.2560 H     1 <1>   0.1500 
 32 H        3.4650     3.1170    -1.5470 H     1 <1>   0.0800 
 33 H        5.1350     2.7830    -1.8920 H     1 <1>   0.0800 
 34 H        6.2240     0.7170    -0.6470 H     1 <1>   0.0800 
 35 H        5.1930    -0.1830     0.4270 H     1 <1>   0.0800 
 36 H        3.0280    -3.6550    -1.3110 H     1 <1>   0.1500 
 37 H        4.0040     3.7620     0.7360 H     1 <1>   0.0800 
 38 H        5.0250     4.6420    -0.3570 H     1 <1>   0.0800 
 39 H        6.7180     1.3440     1.6500 H     1 <1>   0.0800 
 40 H        5.0440     1.6980     1.9570 H     1 <1>   0.0800 
 41 H       10.0460     2.4940    -0.6950 H     1 <1>   0.1500 
 42 H        9.2480     6.3570     0.8870 H     1 <1>   0.1500 
 43 H       10.8300     4.7380    -0.1470 H     1 <1>   0.1500 
 44 H        6.4710     6.1770    -1.2930 H     1 <1>   0.0800 
 45 H        7.2670     7.6860    -0.8570 H     1 <1>   0.0800 
 46 H        5.3930     8.2970     2.0600 H     1 <1>   0.0800 
 47 H        4.2060     7.1350     1.4820 H     1 <1>   0.0800 
 48 H        4.3880     7.2160    -1.5250 H     1 <1>   0.0800 
 49 H        5.3990     8.5560    -2.0280 H     1 <1>   0.0800 
 50 H        5.2610     9.5720     0.1300 H     1 <1>   0.0800 
 51 H        3.6520     8.8910     0.0110 H     1 <1>   0.0800 
@<TRIPOS>BOND
  1   1   2  1   
  2   1   3  1   
  3   2   4  2   
  4   3   5  ar  
  5   3   6  ar  
  6   4   5  1   
  7   4   7  1   
  8   5   8  ar  
  9   6   9  ar  
 10   6  29  1   
 11   7  10  1   
 12   7  11  1   
 13   8  12  ar  
 14   8  30  1   
 15   9  12  ar  
 16   9  31  1   
 17  10  13  1   
 18  10  32  1   
 19  10  33  1   
 20  11  14  1   
 21  11  34  1   
 22  11  35  1   
 23  12  36  1   
 24  13  15  1   
 25  13  37  1   
 26  13  38  1   
 27  14  15  1   
 28  14  39  1   
 29  14  40  1   
 30  15  16  1   
 31  16  17  ar  
 32  16  18  ar  
 33  17  19  ar  
 34  18  20  1   
 35  18  21  ar  
 36  19  22  ar  
 37  19  41  1   
 38  20  23  2   
 39  20  24  am  
 40  21  22  ar  
 41  21  42  1   
 42  22  43  1   
 43  24  25  1   
 44  24  26  1   
 45  25  27  1   
 46  25  44  1   
 47  25  45  1   
 48  26  28  1   
 49  26  46  1   
 50  26  47  1   
 51  27  28  1   
 52  27  48  1   
 53  27  49  1   
 54  28  50  1   
 55  28  51  1   
@<TRIPOS>SUBSTRUCTURE
  1 ****  13 GROUP 4 **** **** 0

# MOE 2024.06 (io_trps.svl 2023.06)
