@<TRIPOS>MOLECULE
NONAME
56 58 1 0 0 
SMALL
USER_CHARGES


@<TRIPOS>ATOM
  1 O       -1.0310    -1.1710    -0.1920 O.2   1 <1>  -0.5700 
  2 C       -0.1220    -1.9100     0.0950 C.2   1 <1>   0.5690 
  3 N       -0.2970    -3.1440     0.6590 N.am  1 <1>  -0.6600 
  4 C        1.3000    -1.4600    -0.1720 C.3   1 <1>  -0.0990 
  5 C        0.8690    -3.9920     1.0030 C.3   1 <1>   0.1400 
  6 C       -1.6420    -3.6770     1.0070 C.3   1 <1>   0.0600 
  7 C        2.1120    -2.5980    -0.8180 C.3   1 <1>  -0.0800 
  8 C        1.8920    -3.9770    -0.1520 C.3   1 <1>  -0.0800 
  9 C        3.6250    -2.3420    -0.8120 C.3   1 <1>  -0.1600 
 10 C        3.2840    -4.4730     0.2660 C.3   1 <1>  -0.1600 
 11 C        4.2420    -3.7280    -0.6620 C.3   1 <1>   0.4230 
 12 N        5.6550    -3.6960    -0.1910 N.4   1 <1>  -0.9590 
 13 C        5.8970    -3.0580     1.1340 C.3   1 <1>   0.4860 
 14 C        6.2990    -5.0420    -0.2730 C.3   1 <1>   0.2630 
 15 C        6.7340    -1.8250     0.8690 C.ar  1 <1>  -0.1440 
 16 C        7.9880    -1.9550     0.2930 C.ar  1 <1>  -0.1500 
 17 C        6.2580    -0.5600     1.1770 C.ar  1 <1>  -0.1500 
 18 C        8.7560    -0.8420    -0.0140 C.ar  1 <1>  -0.1440 
 19 C        7.0230     0.5580     0.8960 C.ar  1 <1>  -0.1500 
 20 C        8.2730     0.4250     0.2980 C.ar  1 <1>   0.0820 
 21 C       10.1240    -0.9830    -0.6810 C.3   1 <1>   0.2640 
 22 O        9.0660     1.4890     0.0040 O.3   1 <1>  -0.3630 
 23 O       10.1980    -2.1730    -1.3990 O.3   1 <1>  -0.6800 
 24 C        8.6930     2.8110     0.3170 C.3   1 <1>   0.1200 
 25 C        9.8200     3.7360    -0.1310 C.3   1 <1>  -0.2400 
 26 H        1.2860    -0.6010    -0.8190 H     1 <1>   0.0800 
 27 H        1.7270    -1.1660     0.7680 H     1 <1>   0.0800 
 28 H        1.3090    -3.6030     1.9050 H     1 <1>   0.0800 
 29 H        0.5480    -5.0030     1.1920 H     1 <1>   0.0800 
 30 H       -1.8210    -4.5940     0.4720 H     1 <1>   0.0800 
 31 H       -2.4100    -2.9710     0.7400 H     1 <1>   0.0800 
 32 H       -1.6990    -3.8630     2.0650 H     1 <1>   0.0800 
 33 H        1.7830    -2.6840    -1.8420 H     1 <1>   0.0800 
 34 H        1.5160    -4.6430    -0.9120 H     1 <1>   0.0800 
 35 H        3.8730    -1.7140     0.0220 H     1 <1>   0.0800 
 36 H        3.9400    -1.8650    -1.7240 H     1 <1>   0.0800 
 37 H        3.3620    -5.5390     0.1460 H     1 <1>   0.0800 
 38 H        3.4620    -4.2120     1.2920 H     1 <1>   0.0800 
 39 H        4.2030    -4.2050    -1.6300 H     1 <1>   0.0800 
 40 H        6.1610    -3.0730    -0.8420 H     1 <1>   0.4500 
 41 H        4.9700    -2.7780     1.6030 H     1 <1>   0.0800 
 42 H        6.4320    -3.7260     1.7900 H     1 <1>   0.0800 
 43 H        5.8280    -5.7260     0.4140 H     1 <1>   0.0800 
 44 H        7.3470    -4.9710    -0.0270 H     1 <1>   0.0800 
 45 H        6.2100    -5.4380    -1.2710 H     1 <1>   0.0800 
 46 H        8.3850    -2.9300     0.0720 H     1 <1>   0.1500 
 47 H        5.2940    -0.4260     1.6370 H     1 <1>   0.1500 
 48 H        6.6280     1.5240     1.1490 H     1 <1>   0.1500 
 49 H       10.9010    -0.9830     0.0630 H     1 <1>   0.0800 
 50 H       10.2930    -0.1730    -1.3710 H     1 <1>   0.0800 
 51 H       11.0490    -2.2150    -1.8770 H     1 <1>   0.4000 
 52 H        7.7820     3.0430    -0.2060 H     1 <1>   0.0800 
 53 H        8.5440     2.8820     1.3810 H     1 <1>   0.0800 
 54 H        9.9720     3.6470    -1.1920 H     1 <1>   0.0800 
 55 H       10.7300     3.4870     0.3850 H     1 <1>   0.0800 
 56 H        9.5660     4.7560     0.0950 H     1 <1>   0.0800 
@<TRIPOS>BOND
  1   1   2  2   
  2   2   3  am  
  3   2   4  1   
  4   3   5  1   
  5   3   6  1   
  6   4   7  1   
  7   4  26  1   
  8   4  27  1   
  9   5   8  1   
 10   5  28  1   
 11   5  29  1   
 12   6  30  1   
 13   6  31  1   
 14   6  32  1   
 15   7   8  1   
 16   7   9  1   
 17   7  33  1   
 18   8  10  1   
 19   8  34  1   
 20   9  11  1   
 21   9  35  1   
 22   9  36  1   
 23  10  11  1   
 24  10  37  1   
 25  10  38  1   
 26  11  12  1   
 27  11  39  1   
 28  12  13  1   
 29  12  14  1   
 30  12  40  1   
 31  13  15  1   
 32  13  41  1   
 33  13  42  1   
 34  14  43  1   
 35  14  44  1   
 36  14  45  1   
 37  15  16  ar  
 38  15  17  ar  
 39  16  18  ar  
 40  16  46  1   
 41  17  19  ar  
 42  17  47  1   
 43  18  20  ar  
 44  18  21  1   
 45  19  20  ar  
 46  19  48  1   
 47  20  22  1   
 48  21  23  1   
 49  21  49  1   
 50  21  50  1   
 51  22  24  1   
 52  23  51  1   
 53  24  25  1   
 54  24  52  1   
 55  24  53  1   
 56  25  54  1   
 57  25  55  1   
 58  25  56  1   
@<TRIPOS>SUBSTRUCTURE
  1 ****   9 GROUP 4 **** **** 0

# MOE 2024.06 (io_trps.svl 2023.06)
