@<TRIPOS>MOLECULE
NONAME
48 49 1 0 0 
SMALL
USER_CHARGES


@<TRIPOS>ATOM
  1 O       -0.7890     0.4740     0.7100 O.co2 1 <1>  -0.9000 
  2 C       -1.5400     1.2520     0.1180 C.2   1 <1>   0.9060 
  3 O       -2.7540     1.3210     0.3050 O.co2 1 <1>  -0.9000 
  4 C       -0.9050     2.2330    -0.8330 C.3   1 <1>  -0.2660 
  5 C       -0.1040     3.2780    -0.0450 C.3   1 <1>  -0.1600 
  6 C        0.6610     4.1980    -0.9830 C.3   1 <1>   0.3430 
  7 N        1.4340     5.1930    -0.1850 N.4   1 <1>  -0.9590 
  8 C        1.8270     6.3680    -1.0220 C.3   1 <1>   0.3430 
  9 C        2.6090     4.5470     0.4750 C.3   1 <1>   0.3430 
 10 C        2.5140     7.4730    -0.1810 C.3   1 <1>   0.0000 
 11 C        3.3460     5.5720     1.3390 C.3   1 <1>  -0.1600 
 12 C        3.0100     8.5860    -1.1380 C.3   1 <1>   0.3430 
 13 C        3.7250     6.8430     0.5580 C.3   1 <1>  -0.1600 
 14 C        1.4860     8.0950     0.8000 C.3   1 <1>  -0.1600 
 15 N        3.5760     9.7570    -0.3920 N.4   1 <1>  -0.9590 
 16 C        2.0180     9.3620     1.4910 C.3   1 <1>  -0.1600 
 17 C        2.5530    10.3930     0.4940 C.3   1 <1>   0.3430 
 18 C        4.1750    10.7450    -1.3320 C.3   1 <1>   0.3430 
 19 C        5.1190    11.6680    -0.5720 C.3   1 <1>  -0.2400 
 20 H       -1.6840     2.6940    -1.4110 H     1 <1>   0.0800 
 21 H       -0.2670     1.6710    -1.4890 H     1 <1>   0.0800 
 22 H        0.5700     2.7440     0.6020 H     1 <1>   0.0800 
 23 H       -0.7910     3.8400     0.5640 H     1 <1>   0.0800 
 24 H       -0.0490     4.7010    -1.6200 H     1 <1>   0.0800 
 25 H        1.3230     3.6160    -1.6050 H     1 <1>   0.0800 
 26 H        0.7990     5.5040     0.5640 H     1 <1>   0.4500 
 27 H        0.9500     6.7750    -1.5000 H     1 <1>   0.0800 
 28 H        2.5020     6.0350    -1.7940 H     1 <1>   0.0800 
 29 H        3.2780     4.1560    -0.2750 H     1 <1>   0.0800 
 30 H        2.2870     3.7240     1.0950 H     1 <1>   0.0800 
 31 H        4.2410     5.1120     1.7220 H     1 <1>   0.0800 
 32 H        2.7380     5.8170     2.1930 H     1 <1>   0.0800 
 33 H        2.1870     8.9250    -1.7470 H     1 <1>   0.0800 
 34 H        3.7640     8.1810    -1.7940 H     1 <1>   0.0800 
 35 H        4.1800     7.5420     1.2370 H     1 <1>   0.0800 
 36 H        4.4790     6.5720    -0.1640 H     1 <1>   0.0800 
 37 H        1.1860     7.3900     1.5560 H     1 <1>   0.0800 
 38 H        0.5950     8.3650     0.2560 H     1 <1>   0.0800 
 39 H        4.3370     9.4200     0.2130 H     1 <1>   0.4500 
 40 H        2.7920     9.1140     2.1970 H     1 <1>   0.0800 
 41 H        1.2220     9.8170     2.0560 H     1 <1>   0.0800 
 42 H        1.7390    10.7730    -0.1020 H     1 <1>   0.0800 
 43 H        2.9870    11.2190     1.0350 H     1 <1>   0.0800 
 44 H        3.4010    11.3210    -1.8170 H     1 <1>   0.0800 
 45 H        4.7380    10.2290    -2.0940 H     1 <1>   0.0800 
 46 H        4.5920    12.2790     0.1390 H     1 <1>   0.0800 
 47 H        5.5990    12.3300    -1.2720 H     1 <1>   0.0800 
 48 H        5.8880    11.1070    -0.0710 H     1 <1>   0.0800 
@<TRIPOS>BOND
  1   1   2  ar  
  2   2   3  ar  
  3   2   4  1   
  4   4   5  1   
  5   4  20  1   
  6   4  21  1   
  7   5   6  1   
  8   5  22  1   
  9   5  23  1   
 10   6   7  1   
 11   6  24  1   
 12   6  25  1   
 13   7   8  1   
 14   7   9  1   
 15   7  26  1   
 16   8  10  1   
 17   8  27  1   
 18   8  28  1   
 19   9  11  1   
 20   9  29  1   
 21   9  30  1   
 22  10  12  1   
 23  10  13  1   
 24  10  14  1   
 25  11  13  1   
 26  11  31  1   
 27  11  32  1   
 28  12  15  1   
 29  12  33  1   
 30  12  34  1   
 31  13  35  1   
 32  13  36  1   
 33  14  16  1   
 34  14  37  1   
 35  14  38  1   
 36  15  17  1   
 37  15  18  1   
 38  15  39  1   
 39  16  17  1   
 40  16  40  1   
 41  16  41  1   
 42  17  42  1   
 43  17  43  1   
 44  18  19  1   
 45  18  44  1   
 46  18  45  1   
 47  19  46  1   
 48  19  47  1   
 49  19  48  1   
@<TRIPOS>SUBSTRUCTURE
  1 ****   7 GROUP 4 **** **** 0

# MOE 2024.06 (io_trps.svl 2023.06)
