@<TRIPOS>MOLECULE
NONAME
53 55 1 0 0 
SMALL
USER_CHARGES


@<TRIPOS>ATOM
  1 O       -0.4350    -0.2730    -1.9320 O.2   1 <1>  -0.5700 
  2 C       -0.2770     0.7900    -1.3750 C.2   1 <1>   0.5690 
  3 N       -1.2480     1.7660    -1.3970 N.am  1 <1>  -0.6600 
  4 C        1.0310     0.9830    -0.6110 C.3   1 <1>   0.1810 
  5 C       -2.5100     1.5960    -2.1650 C.3   1 <1>   0.1400 
  6 C       -1.1480     3.0920    -0.7330 C.3   1 <1>   0.1400 
  7 O        1.8190     2.0200    -1.1840 O.3   1 <1>  -0.3620 
  8 C       -3.7010     1.7480    -1.2150 C.3   1 <1>  -0.1600 
  9 C       -2.3200     3.2550     0.2390 C.3   1 <1>  -0.1600 
 10 C        2.6370     2.7390    -0.3710 C.ar  1 <1>   0.0820 
 11 C       -3.6870     3.0880    -0.4600 C.3   1 <1>   0.2800 
 12 C        3.4620     2.1750     0.6110 C.ar  1 <1>   0.0820 
 13 C        2.6290     4.1140    -0.5430 C.ar  1 <1>  -0.1500 
 14 O       -3.8060     4.0730    -1.4460 O.3   1 <1>  -0.5600 
 15 C       -4.8820     3.1340     0.5330 C.3   1 <1>  -0.1600 
 16 O        3.5660     0.8380     0.7940 O.3   1 <1>  -0.3630 
 17 C        4.2200     2.9960     1.4300 C.ar  1 <1>  -0.1500 
 18 C        3.4000     4.9280     0.2700 C.ar  1 <1>  -0.1500 
 19 C       -4.0410     5.4200    -1.1070 C.3   1 <1>   0.1200 
 20 C       -5.8050     4.3580     0.3990 C.3   1 <1>   0.2800 
 21 C        4.3820     0.1650    -0.1390 C.3   1 <1>   0.0400 
 22 C        4.1900     4.3700     1.2610 C.ar  1 <1>  -0.1500 
 23 C       -4.9580     5.6190     0.1160 C.3   1 <1>   0.2000 
 24 O       -6.6570     4.1480    -0.6690 O.3   1 <1>  -0.6800 
 25 C       -6.7170     4.5090     1.6210 C.3   1 <1>  -0.2400 
 26 O       -4.1640     5.9320     1.2230 O.3   1 <1>  -0.6800 
 27 H        1.5990     0.0730    -0.6470 H     1 <1>   0.0800 
 28 H        0.8170     1.2270     0.4130 H     1 <1>   0.0800 
 29 H       -2.5570     2.3450    -2.9370 H     1 <1>   0.0800 
 30 H       -2.5440     0.6290    -2.6370 H     1 <1>   0.0800 
 31 H       -0.2230     3.1950    -0.1970 H     1 <1>   0.0800 
 32 H       -1.1830     3.8630    -1.4850 H     1 <1>   0.0800 
 33 H       -3.6760     0.9330    -0.5150 H     1 <1>   0.0800 
 34 H       -4.6130     1.6670    -1.7790 H     1 <1>   0.0800 
 35 H       -2.2440     4.2130     0.7120 H     1 <1>   0.0800 
 36 H       -2.2190     2.5100     1.0080 H     1 <1>   0.0800 
 37 H        2.0130     4.5430    -1.3130 H     1 <1>   0.1500 
 38 H       -5.4740     2.2400     0.4580 H     1 <1>   0.0800 
 39 H       -4.4830     3.1230     1.5310 H     1 <1>   0.0800 
 40 H        4.8370     2.5550     2.1920 H     1 <1>   0.1500 
 41 H        3.3840     5.9960     0.1320 H     1 <1>   0.1500 
 42 H       -3.0950     5.9100    -0.9640 H     1 <1>   0.0800 
 43 H       -4.5190     5.8580    -1.9650 H     1 <1>   0.0800 
 44 H        4.3730    -0.8840     0.0980 H     1 <1>   0.0800 
 45 H        5.3830     0.5520    -0.0670 H     1 <1>   0.0800 
 46 H        3.9920     0.3240    -1.1290 H     1 <1>   0.0800 
 47 H        4.7850     5.0030     1.8960 H     1 <1>   0.1500 
 48 H       -5.6020     6.4660    -0.0450 H     1 <1>   0.0800 
 49 H       -7.1680     3.3310    -0.5300 H     1 <1>   0.4000 
 50 H       -6.1320     4.6790     2.5070 H     1 <1>   0.0800 
 51 H       -7.3060     3.6230     1.7730 H     1 <1>   0.0800 
 52 H       -7.3700     5.3530     1.4910 H     1 <1>   0.0800 
 53 H       -3.5680     5.1860     1.4190 H     1 <1>   0.4000 
@<TRIPOS>BOND
  1   1   2  2   
  2   2   3  am  
  3   2   4  1   
  4   3   5  1   
  5   3   6  1   
  6   4   7  1   
  7   4  27  1   
  8   4  28  1   
  9   5   8  1   
 10   5  29  1   
 11   5  30  1   
 12   6   9  1   
 13   6  31  1   
 14   6  32  1   
 15   7  10  1   
 16   8  11  1   
 17   8  33  1   
 18   8  34  1   
 19   9  11  1   
 20   9  35  1   
 21   9  36  1   
 22  10  12  ar  
 23  10  13  ar  
 24  11  14  1   
 25  11  15  1   
 26  12  16  1   
 27  12  17  ar  
 28  13  18  ar  
 29  13  37  1   
 30  14  19  1   
 31  15  20  1   
 32  15  38  1   
 33  15  39  1   
 34  16  21  1   
 35  17  22  ar  
 36  17  40  1   
 37  18  22  ar  
 38  18  41  1   
 39  19  23  1   
 40  19  42  1   
 41  19  43  1   
 42  20  23  1   
 43  20  24  1   
 44  20  25  1   
 45  21  44  1   
 46  21  45  1   
 47  21  46  1   
 48  22  47  1   
 49  23  26  1   
 50  23  48  1   
 51  24  49  1   
 52  25  50  1   
 53  25  51  1   
 54  25  52  1   
 55  26  53  1   
@<TRIPOS>SUBSTRUCTURE
  1 ****   6 GROUP 4 **** **** 0

# MOE 2024.06 (io_trps.svl 2023.06)
