@<TRIPOS>MOLECULE
NONAME
39 39 1 0 0 
SMALL
USER_CHARGES


@<TRIPOS>ATOM
  1 O       -1.4560    -0.4080    -0.1300 O.2   1 <1>  -0.5700 
  2 C       -2.3170     0.4040     0.1370 C.2   1 <1>   0.5690 
  3 N       -3.4890     0.0030     0.7290 N.am  1 <1>  -0.6600 
  4 C       -2.0760     1.8920    -0.2200 C.3   1 <1>   0.2610 
  5 C       -3.6540    -1.4020     1.2050 C.3   1 <1>   0.3200 
  6 C       -4.7540     0.7960     0.6880 C.3   1 <1>   0.1400 
  7 O       -2.6140     2.1970    -1.4710 O.3   1 <1>  -0.6800 
  8 C       -0.5870     2.2950    -0.2170 C.3   1 <1>  -0.1600 
  9 C       -4.0760    -2.3060     0.0600 C.2   1 <1>   0.0060 
 10 C       -4.9660     1.5410     2.0100 C.3   1 <1>   0.1200 
 11 C       -0.3090     3.7850    -0.5090 C.3   1 <1>  -0.0800 
 12 N       -5.1950    -2.9550    -0.0070 N.2   1 <1>  -0.5650 
 13 N       -3.2740    -2.4990    -1.0070 N.pl3 1 <1>   0.0330 
 14 O       -6.0930     2.3440     1.9140 O.3   1 <1>  -0.6800 
 15 C        1.2040     4.0250    -0.5640 C.3   1 <1>  -0.2400 
 16 C       -0.9340     4.7080     0.5460 C.3   1 <1>  -0.2400 
 17 C       -5.1160    -3.6070    -1.1840 C.2   1 <1>   0.0770 
 18 C       -3.9490    -3.3410    -1.8090 C.2   1 <1>  -0.3020 
 19 H       -2.5970     2.4930     0.5000 H     1 <1>   0.0800 
 20 H       -4.3970    -1.4420     1.9830 H     1 <1>   0.0800 
 21 H       -2.7260    -1.7600     1.6160 H     1 <1>   0.0800 
 22 H       -5.5850     0.1320     0.5130 H     1 <1>   0.0800 
 23 H       -4.7180     1.4990    -0.1250 H     1 <1>   0.0800 
 24 H       -2.1390     1.6890    -2.1570 H     1 <1>   0.4000 
 25 H       -0.0670     1.6890    -0.9380 H     1 <1>   0.0800 
 26 H       -0.1770     2.0500     0.7470 H     1 <1>   0.0800 
 27 H       -4.1260     2.1720     2.2420 H     1 <1>   0.0800 
 28 H       -5.1290     0.8440     2.8140 H     1 <1>   0.0800 
 29 H       -0.7200     4.0390    -1.4730 H     1 <1>   0.0800 
 30 H       -2.3540    -2.0550    -1.1370 H     1 <1>   0.2700 
 31 H       -5.9790     3.0360     1.2330 H     1 <1>   0.4000 
 32 H        1.6610     3.7940     0.3820 H     1 <1>   0.0800 
 33 H        1.4100     5.0530    -0.8020 H     1 <1>   0.0800 
 34 H        1.6540     3.4090    -1.3220 H     1 <1>   0.0800 
 35 H       -0.5940     4.4460     1.5320 H     1 <1>   0.0800 
 36 H       -2.0070     4.6490     0.5170 H     1 <1>   0.0800 
 37 H       -0.6600     5.7300     0.3510 H     1 <1>   0.0800 
 38 H       -5.9170    -4.2430    -1.5240 H     1 <1>   0.1500 
 39 H       -3.5730    -3.6920    -2.7530 H     1 <1>   0.1500 
@<TRIPOS>BOND
  1   1   2  2   
  2   2   3  am  
  3   2   4  1   
  4   3   5  1   
  5   3   6  1   
  6   4   7  1   
  7   4   8  1   
  8   4  19  1   
  9   5   9  1   
 10   5  20  1   
 11   5  21  1   
 12   6  10  1   
 13   6  22  1   
 14   6  23  1   
 15   7  24  1   
 16   8  11  1   
 17   8  25  1   
 18   8  26  1   
 19   9  12  2   
 20   9  13  1   
 21  10  14  1   
 22  10  27  1   
 23  10  28  1   
 24  11  15  1   
 25  11  16  1   
 26  11  29  1   
 27  12  17  1   
 28  13  18  1   
 29  13  30  1   
 30  14  31  1   
 31  15  32  1   
 32  15  33  1   
 33  15  34  1   
 34  16  35  1   
 35  16  36  1   
 36  16  37  1   
 37  17  18  2   
 38  17  38  1   
 39  18  39  1   
@<TRIPOS>SUBSTRUCTURE
  1 ****   2 GROUP 4 **** **** 0

# MOE 2024.06 (io_trps.svl 2023.06)
