@<TRIPOS>MOLECULE
NONAME
40 42 1 0 0 
SMALL
USER_CHARGES


@<TRIPOS>ATOM
  1 CL      -1.4790    -2.7410    -0.9620 Cl    1 <1>  -0.1770 
  2 C       -2.1550    -1.1320    -0.9120 C.ar  1 <1>   0.1770 
  3 C       -3.0830    -0.8070     0.0700 C.ar  1 <1>  -0.1440 
  4 C       -1.7460    -0.2140    -1.8600 C.ar  1 <1>  -0.1500 
  5 C       -3.6070     0.4820     0.1060 C.ar  1 <1>  -0.1500 
  6 C       -3.5050    -1.8470     1.0900 C.3   1 <1>   0.4870 
  7 C       -2.2900     1.0530    -1.8000 C.ar  1 <1>   0.1900 
  8 C       -3.2110     1.4190    -0.8360 C.ar  1 <1>  -0.1500 
  9 N       -4.5030    -2.7630     0.4860 N.4   1 <1>  -0.9590 
 10 F       -1.9220     1.9370    -2.6860 F     1 <1>  -0.1900 
 11 C       -5.7680    -2.0900     0.0430 C.3   1 <1>   0.3430 
 12 C       -4.9060    -3.8650     1.3970 C.3   1 <1>   0.3430 
 13 C       -6.9230    -2.8680     0.6940 C.3   1 <1>   0.2000 
 14 C       -6.3220    -4.2480     0.9550 C.3   1 <1>  -0.0800 
 15 O       -7.1990    -2.2820     1.9230 O.3   1 <1>  -0.6800 
 16 C       -6.3890    -5.1350    -0.3200 C.3   1 <1>  -0.0160 
 17 C       -5.0810    -5.8190    -0.6980 C.ar  1 <1>   0.1670 
 18 N       -4.1760    -5.0570    -1.2990 N.ar  1 <1>  -0.6200 
 19 C       -4.8890    -7.1710    -0.4160 C.ar  1 <1>   0.1600 
 20 C       -3.0870    -5.7450    -1.6200 C.ar  1 <1>   0.1600 
 21 N       -3.7910    -7.8430    -0.7090 N.ar  1 <1>  -0.6200 
 22 C       -2.9000    -7.0910    -1.3310 C.ar  1 <1>   0.1600 
 23 H       -1.0290    -0.4710    -2.6180 H     1 <1>   0.1500 
 24 H       -4.3190     0.7710     0.8630 H     1 <1>   0.1500 
 25 H       -3.9320    -1.3590     1.9520 H     1 <1>   0.0800 
 26 H       -2.6410    -2.4060     1.4100 H     1 <1>   0.0800 
 27 H       -3.6040     2.4220    -0.8260 H     1 <1>   0.1500 
 28 H       -4.0820    -3.2300    -0.3440 H     1 <1>   0.4500 
 29 H       -5.8030    -1.0570     0.3430 H     1 <1>   0.0800 
 30 H       -5.8450    -2.1510    -1.0300 H     1 <1>   0.0800 
 31 H       -4.2200    -4.6960     1.3450 H     1 <1>   0.0800 
 32 H       -4.9470    -3.5000     2.4110 H     1 <1>   0.0800 
 33 H       -7.8210    -2.8660     0.0980 H     1 <1>   0.0800 
 34 H       -6.8310    -4.7550     1.7560 H     1 <1>   0.0800 
 35 H       -8.0560    -2.5930     2.2860 H     1 <1>   0.4000 
 36 H       -6.6960    -4.5540    -1.1730 H     1 <1>   0.0800 
 37 H       -7.1520    -5.8810    -0.1820 H     1 <1>   0.0800 
 38 H       -5.6730    -7.7230     0.0730 H     1 <1>   0.1500 
 39 H       -2.3000    -5.2230    -2.1370 H     1 <1>   0.1500 
 40 H       -1.9790    -7.5630    -1.6260 H     1 <1>   0.1500 
@<TRIPOS>BOND
  1   1   2  1   
  2   2   3  ar  
  3   2   4  ar  
  4   3   5  ar  
  5   3   6  1   
  6   4   7  ar  
  7   4  23  1   
  8   5   8  ar  
  9   5  24  1   
 10   6   9  1   
 11   6  25  1   
 12   6  26  1   
 13   7   8  ar  
 14   7  10  1   
 15   8  27  1   
 16   9  11  1   
 17   9  12  1   
 18   9  28  1   
 19  11  13  1   
 20  11  29  1   
 21  11  30  1   
 22  12  14  1   
 23  12  31  1   
 24  12  32  1   
 25  13  14  1   
 26  13  15  1   
 27  13  33  1   
 28  14  16  1   
 29  14  34  1   
 30  15  35  1   
 31  16  17  1   
 32  16  36  1   
 33  16  37  1   
 34  17  18  ar  
 35  17  19  ar  
 36  18  20  ar  
 37  19  21  ar  
 38  19  38  1   
 39  20  22  ar  
 40  20  39  1   
 41  21  22  ar  
 42  22  40  1   
@<TRIPOS>SUBSTRUCTURE
  1 ****   9 GROUP 4 **** **** 0

# MOE 2024.06 (io_trps.svl 2023.06)
