@<TRIPOS>MOLECULE
NONAME
53 54 1 0 0 
SMALL
USER_CHARGES


@<TRIPOS>ATOM
  1 S        0.1470    -0.1160     0.8200 S.o2  1 <1>   1.3330 
  2 O       -0.7930    -1.1960     1.0180 O.2   1 <1>  -0.6500 
  3 O        1.1180     0.1820     1.8480 O.2   1 <1>  -0.6500 
  4 N        0.9880    -0.4230    -0.6250 N.am  1 <1>  -0.8490 
  5 C       -0.7590     1.3880     0.4540 C.3   1 <1>  -0.0550 
  6 C        2.2490    -1.1330    -0.3920 C.3   1 <1>   0.1160 
  7 C        0.1860    -1.1440    -1.6200 C.3   1 <1>   0.1160 
  8 C        0.1210     2.5700    -0.0070 C.3   1 <1>  -0.0800 
  9 C       -0.6720     3.7900    -0.4830 C.3   1 <1>   0.2000 
 10 C        1.0600     3.1260     1.0740 C.3   1 <1>   0.1400 
 11 O       -1.7020     4.0380     0.4110 O.3   1 <1>  -0.6800 
 12 C        0.3280     4.9380    -0.3830 C.3   1 <1>   0.1400 
 13 N        1.1770     4.5790     0.7810 N.am  1 <1>  -0.6600 
 14 C        2.1890     5.3620     1.2900 C.2   1 <1>   0.5440 
 15 O        3.0030     4.8500     2.0330 O.2   1 <1>  -0.5700 
 16 C        2.3070     6.7660     0.9450 C.ar  1 <1>   0.0860 
 17 C        3.4710     7.2660     0.3710 C.ar  1 <1>  -0.1500 
 18 C        1.2720     7.6690     1.1720 C.ar  1 <1>  -0.1500 
 19 C        3.5860     8.5980     0.0210 C.ar  1 <1>  -0.1500 
 20 C        1.3840     9.0020     0.8220 C.ar  1 <1>  -0.1500 
 21 C        2.5450     9.4960     0.2330 C.ar  1 <1>  -0.1430 
 22 C        2.7200    10.9750    -0.1770 C.3   1 <1>   0.1430 
 23 C        2.9970    11.0600    -1.6860 C.3   1 <1>  -0.2400 
 24 C        3.9010    11.5850     0.5930 C.3   1 <1>  -0.2400 
 25 C        1.4800    11.8360     0.1150 C.3   1 <1>  -0.2400 
 26 H       -1.4740     1.1780    -0.3170 H     1 <1>   0.0800 
 27 H       -1.3130     1.6750     1.3280 H     1 <1>   0.0800 
 28 H        2.7600    -1.3040    -1.3240 H     1 <1>   0.0800 
 29 H        2.0630    -2.0790     0.0900 H     1 <1>   0.0800 
 30 H        2.8930    -0.5440     0.2400 H     1 <1>   0.0800 
 31 H        0.7330    -1.2300    -2.5430 H     1 <1>   0.0800 
 32 H       -0.7300    -0.6140    -1.8150 H     1 <1>   0.0800 
 33 H       -0.0570    -2.1320    -1.2630 H     1 <1>   0.0800 
 34 H        0.7360     2.2450    -0.8280 H     1 <1>   0.0800 
 35 H       -1.0910     3.6760    -1.4680 H     1 <1>   0.0800 
 36 H        2.0260     2.6480     1.0400 H     1 <1>   0.0800 
 37 H        0.6430     3.0000     2.0580 H     1 <1>   0.0800 
 38 H       -1.3100     4.3100     1.2670 H     1 <1>   0.4000 
 39 H       -0.1690     5.8830    -0.2530 H     1 <1>   0.0800 
 40 H        0.9420     4.9710    -1.2660 H     1 <1>   0.0800 
 41 H        4.2940     6.5930     0.2040 H     1 <1>   0.1500 
 42 H        0.3680     7.3160     1.6360 H     1 <1>   0.1500 
 43 H        4.5080     8.9310    -0.4220 H     1 <1>   0.1500 
 44 H        0.5450     9.6400     1.0240 H     1 <1>   0.1500 
 45 H        3.0860    12.0850    -1.9980 H     1 <1>   0.0800 
 46 H        2.1920    10.6040    -2.2340 H     1 <1>   0.0800 
 47 H        3.9090    10.5550    -1.9430 H     1 <1>   0.0800 
 48 H        4.0180    12.6250     0.3480 H     1 <1>   0.0800 
 49 H        4.8200    11.0820     0.3580 H     1 <1>   0.0800 
 50 H        3.7320    11.4990     1.6520 H     1 <1>   0.0800 
 51 H        1.6460    12.8540    -0.1890 H     1 <1>   0.0800 
 52 H        1.2600    11.8360     1.1680 H     1 <1>   0.0800 
 53 H        0.6260    11.4640    -0.4220 H     1 <1>   0.0800 
@<TRIPOS>BOND
  1   1   2  2   
  2   1   3  2   
  3   1   4  am  
  4   1   5  1   
  5   4   6  1   
  6   4   7  1   
  7   5   8  1   
  8   5  26  1   
  9   5  27  1   
 10   6  28  1   
 11   6  29  1   
 12   6  30  1   
 13   7  31  1   
 14   7  32  1   
 15   7  33  1   
 16   8   9  1   
 17   8  10  1   
 18   8  34  1   
 19   9  11  1   
 20   9  12  1   
 21   9  35  1   
 22  10  13  1   
 23  10  36  1   
 24  10  37  1   
 25  11  38  1   
 26  12  13  1   
 27  12  39  1   
 28  12  40  1   
 29  13  14  am  
 30  14  15  2   
 31  14  16  1   
 32  16  17  ar  
 33  16  18  ar  
 34  17  19  ar  
 35  17  41  1   
 36  18  20  ar  
 37  18  42  1   
 38  19  21  ar  
 39  19  43  1   
 40  20  21  ar  
 41  20  44  1   
 42  21  22  1   
 43  22  23  1   
 44  22  24  1   
 45  22  25  1   
 46  23  45  1   
 47  23  46  1   
 48  23  47  1   
 49  24  48  1   
 50  24  49  1   
 51  24  50  1   
 52  25  51  1   
 53  25  52  1   
 54  25  53  1   
@<TRIPOS>SUBSTRUCTURE
  1 ****  13 GROUP 4 **** **** 0

# MOE 2024.06 (io_trps.svl 2023.06)
