@<TRIPOS>MOLECULE
NONAME
34 35 1 0 0 
SMALL
USER_CHARGES


@<TRIPOS>ATOM
  1 O       -0.3980     0.3550    -0.2930 O.co2 1 <1>  -0.9000 
  2 C       -1.2000     1.0190     0.3700 C.2   1 <1>   0.9060 
  3 O       -2.1350     0.4900     0.9880 O.co2 1 <1>  -0.9000 
  4 C       -1.0940     2.5270     0.4090 C.3   1 <1>  -0.1860 
  5 C       -2.3770     3.1450    -0.1440 C.3   1 <1>   0.2000 
  6 C        0.1250     3.0130    -0.3810 C.3   1 <1>   0.2090 
  7 O       -3.4300     2.7810     0.6670 O.3   1 <1>  -0.6800 
  8 C       -2.3050     4.6680    -0.1820 C.3   1 <1>  -0.1600 
  9 N        0.1410     4.5140    -0.4580 N.pl3 1 <1>  -0.8380 
 10 C       -1.1040     5.1160    -1.0100 C.3   1 <1>   0.2090 
 11 C        1.2730     5.2610    -0.1920 C.ar  1 <1>   0.7200 
 12 N        2.4290     4.6070    -0.0830 N.ar  1 <1>  -0.6200 
 13 N        1.1210     6.5820    -0.0730 N.ar  1 <1>  -0.6200 
 14 C        3.4940     5.3220     0.1700 C.ar  1 <1>   0.1670 
 15 C        2.1980     7.2800     0.1800 C.ar  1 <1>   0.1670 
 16 C        3.4300     6.6860     0.3130 C.ar  1 <1>  -0.1500 
 17 C        4.8020     4.5730     0.2970 C.3   1 <1>  -0.0970 
 18 C        2.0270     8.7770     0.3200 C.3   1 <1>  -0.0970 
 19 H       -0.9640     2.8210     1.4320 H     1 <1>   0.0800 
 20 H       -2.5720     2.7520    -1.1280 H     1 <1>   0.0800 
 21 H        0.0950     2.6130    -1.3810 H     1 <1>   0.0800 
 22 H        1.0130     2.6320     0.0930 H     1 <1>   0.0800 
 23 H       -3.2450     1.8340     0.9380 H     1 <1>   0.4000 
 24 H       -3.2060     5.0600    -0.6160 H     1 <1>   0.0800 
 25 H       -2.2010     5.0550     0.8160 H     1 <1>   0.0800 
 26 H       -1.0590     6.1900    -1.0140 H     1 <1>   0.0800 
 27 H       -1.2220     4.7870    -2.0280 H     1 <1>   0.0800 
 28 H        4.3080     7.2650     0.5210 H     1 <1>   0.1500 
 29 H        5.6160     5.2440     0.5010 H     1 <1>   0.0800 
 30 H        5.0020     4.0460    -0.6180 H     1 <1>   0.0800 
 31 H        4.7270     3.8590     1.0970 H     1 <1>   0.0800 
 32 H        2.9640     9.2560     0.5330 H     1 <1>   0.0800 
 33 H        1.3390     8.9850     1.1200 H     1 <1>   0.0800 
 34 H        1.6270     9.1790    -0.5930 H     1 <1>   0.0800 
@<TRIPOS>BOND
  1   1   2  ar  
  2   2   3  ar  
  3   2   4  1   
  4   4   5  1   
  5   4   6  1   
  6   4  19  1   
  7   5   7  1   
  8   5   8  1   
  9   5  20  1   
 10   6   9  1   
 11   6  21  1   
 12   6  22  1   
 13   7  23  1   
 14   8  10  1   
 15   8  24  1   
 16   8  25  1   
 17   9  10  1   
 18   9  11  1   
 19  10  26  1   
 20  10  27  1   
 21  11  12  ar  
 22  11  13  ar  
 23  12  14  ar  
 24  13  15  ar  
 25  14  16  ar  
 26  14  17  1   
 27  15  16  ar  
 28  15  18  1   
 29  16  28  1   
 30  17  29  1   
 31  17  30  1   
 32  17  31  1   
 33  18  32  1   
 34  18  33  1   
 35  18  34  1   
@<TRIPOS>SUBSTRUCTURE
  1 ****   9 GROUP 4 **** **** 0

# MOE 2024.06 (io_trps.svl 2023.06)
