@<TRIPOS>MOLECULE
NONAME
53 56 1 0 0 
SMALL
USER_CHARGES


@<TRIPOS>ATOM
  1 O       -0.0290     0.9180    -0.3950 O.2   1 <1>  -0.5700 
  2 C       -1.1630     1.3580    -0.4510 C.2   1 <1>   0.5440 
  3 N       -2.2270     0.4860    -0.3870 N.am  1 <1>  -0.6600 
  4 C       -1.3580     2.7890    -0.5870 C.ar  1 <1>   0.0860 
  5 C       -2.0510    -0.9550    -0.7720 C.3   1 <1>   0.1400 
  6 C       -3.6190     0.9050    -0.0690 C.3   1 <1>   0.1400 
  7 C       -0.7440     3.6830     0.2860 C.ar  1 <1>  -0.1500 
  8 C       -2.1600     3.3180    -1.6000 C.ar  1 <1>  -0.1500 
  9 C       -3.2220    -1.8790    -0.3510 C.3   1 <1>  -0.1060 
 10 C       -4.1850     0.0480     1.0680 C.3   1 <1>  -0.1600 
 11 C       -0.9280     5.0490     0.1640 C.ar  1 <1>   0.0820 
 12 C       -2.3550     4.6820    -1.7270 C.ar  1 <1>  -0.1500 
 13 C       -4.3790    -1.7840    -1.3560 C.2   1 <1>   0.9060 
 14 C       -3.6850    -1.4070     1.0480 C.3   1 <1>   0.2000 
 15 C       -2.7600    -3.3630    -0.3580 C.3   1 <1>  -0.0650 
 16 O       -0.3090     5.8610     1.0560 O.3   1 <1>  -0.1650 
 17 C       -1.7440     5.5520    -0.8430 C.ar  1 <1>  -0.1500 
 18 O       -5.5250    -2.0860    -0.9840 O.co2 1 <1>  -0.9000 
 19 O       -4.1640    -1.4350    -2.5220 O.co2 1 <1>  -0.9000 
 20 O       -4.7130    -2.2100     1.5020 O.3   1 <1>  -0.6800 
 21 C       -1.6390    -3.7320     0.6300 C.3   1 <1>  -0.1950 
 22 C        0.1950     7.0660     0.6900 C.ar  1 <1>   0.0820 
 23 C       -0.1930    -3.6620     0.2530 C.3   1 <1>  -0.2000 
 24 C       -0.8630    -4.9930     0.4260 C.3   1 <1>  -0.2000 
 25 C        0.8540     7.2480    -0.5210 C.ar  1 <1>  -0.1500 
 26 C        0.0530     8.1320     1.5650 C.ar  1 <1>  -0.1500 
 27 C        1.3520     8.4950    -0.8560 C.ar  1 <1>  -0.1500 
 28 C        0.5520     9.3780     1.2280 C.ar  1 <1>  -0.1500 
 29 C        1.1990     9.5590     0.0170 C.ar  1 <1>  -0.1500 
 30 H       -1.8880    -1.0200    -1.8340 H     1 <1>   0.0800 
 31 H       -1.1510    -1.2960    -0.2960 H     1 <1>   0.0800 
 32 H       -3.6580     1.9400     0.2190 H     1 <1>   0.0800 
 33 H       -4.2240     0.7860    -0.9540 H     1 <1>   0.0800 
 34 H       -0.1120     3.2990     1.0670 H     1 <1>   0.1500 
 35 H       -2.6320     2.6400    -2.2920 H     1 <1>   0.1500 
 36 H       -5.2580     0.0730     0.9900 H     1 <1>   0.0800 
 37 H       -3.9120     0.4890     2.0080 H     1 <1>   0.0800 
 38 H       -2.9830     5.0650    -2.5140 H     1 <1>   0.1500 
 39 H       -2.8710    -1.4970     1.7450 H     1 <1>   0.0800 
 40 H       -3.6110    -3.9840    -0.1350 H     1 <1>   0.0800 
 41 H       -2.4500    -3.6170    -1.3570 H     1 <1>   0.0800 
 42 H       -1.9020     6.6120    -0.9340 H     1 <1>   0.1500 
 43 H       -5.3210    -2.3150     0.7130 H     1 <1>   0.4000 
 44 H       -1.9070    -3.5190     1.6510 H     1 <1>   0.1000 
 45 H        0.0720    -3.3430    -0.7410 H     1 <1>   0.1000 
 46 H        0.5080    -3.3210     0.9940 H     1 <1>   0.1000 
 47 H       -0.6190    -5.5910     1.2870 H     1 <1>   0.1000 
 48 H       -1.0600    -5.5900    -0.4480 H     1 <1>   0.1000 
 49 H        0.9820     6.4190    -1.1950 H     1 <1>   0.1500 
 50 H       -0.4490     7.9810     2.5040 H     1 <1>   0.1500 
 51 H        1.8600     8.6370    -1.7940 H     1 <1>   0.1500 
 52 H        0.4380    10.2050     1.9070 H     1 <1>   0.1500 
 53 H        1.5870    10.5290    -0.2440 H     1 <1>   0.1500 
@<TRIPOS>BOND
  1   1   2  2   
  2   2   3  am  
  3   2   4  1   
  4   3   5  1   
  5   3   6  1   
  6   4   7  ar  
  7   4   8  ar  
  8   5   9  1   
  9   5  30  1   
 10   5  31  1   
 11   6  10  1   
 12   6  32  1   
 13   6  33  1   
 14   7  11  ar  
 15   7  34  1   
 16   8  12  ar  
 17   8  35  1   
 18   9  13  1   
 19   9  14  1   
 20   9  15  1   
 21  10  14  1   
 22  10  36  1   
 23  10  37  1   
 24  11  16  1   
 25  11  17  ar  
 26  12  17  ar  
 27  12  38  1   
 28  13  18  ar  
 29  13  19  ar  
 30  14  20  1   
 31  14  39  1   
 32  15  21  1   
 33  15  40  1   
 34  15  41  1   
 35  16  22  1   
 36  17  42  1   
 37  20  43  1   
 38  21  23  1   
 39  21  24  1   
 40  21  44  1   
 41  22  25  ar  
 42  22  26  ar  
 43  23  24  1   
 44  23  45  1   
 45  23  46  1   
 46  24  47  1   
 47  24  48  1   
 48  25  27  ar  
 49  25  49  1   
 50  26  28  ar  
 51  26  50  1   
 52  27  29  ar  
 53  27  51  1   
 54  28  29  ar  
 55  28  52  1   
 56  29  53  1   
@<TRIPOS>SUBSTRUCTURE
  1 ****   2 GROUP 4 **** **** 0

# MOE 2024.06 (io_trps.svl 2023.06)
