@<TRIPOS>MOLECULE
NONAME
37 39 1 0 0 
SMALL
USER_CHARGES


@<TRIPOS>ATOM
  1 S        1.2020    -0.6580     0.8830 S.o2  1 <1>   1.5000 
  2 O        2.2860    -1.5740     0.6030 O.2   1 <1>  -0.6500 
  3 O        1.1920     0.0710     2.1280 O.2   1 <1>  -0.6500 
  4 N       -0.2050    -1.5670     0.9170 N.am  1 <1>  -0.9140 
  5 C        0.9700     0.4630    -0.5190 C.2   1 <1>  -0.0220 
  6 C       -0.1680    -2.7980     0.1400 C.3   1 <1>   0.2760 
  7 S       -0.6480     1.0940    -0.8290 S.3   1 <1>  -0.0800 
  8 C        1.8270     0.9730    -1.4300 C.2   1 <1>  -0.1500 
  9 C       -1.5850    -3.3030    -0.0970 C.3   1 <1>  -0.0800 
 10 C        0.3790    -3.9390     0.9970 C.3   1 <1>   0.1200 
 11 C       -0.0920     2.0270    -2.2050 C.2   1 <1>  -0.1100 
 12 C        1.2290     1.8540    -2.3870 C.2   1 <1>  -0.1500 
 13 C       -1.8990    -4.0680     1.1940 C.3   1 <1>   0.1200 
 14 C       -2.6300    -2.2310    -0.4670 C.3   1 <1>  -0.0160 
 15 O       -0.6770    -4.2900     1.8370 O.3   1 <1>  -0.5600 
 16 C       -3.9840    -2.8670    -0.7340 C.ar  1 <1>  -0.1440 
 17 C       -4.9900    -2.8660     0.2120 C.ar  1 <1>  -0.1500 
 18 C       -4.2760    -3.4790    -1.9360 C.ar  1 <1>  -0.1500 
 19 C       -6.2030    -3.4670    -0.0800 C.ar  1 <1>   0.1600 
 20 C       -5.5230    -4.0510    -2.1270 C.ar  1 <1>   0.1600 
 21 N       -6.4910    -4.0620    -1.2260 N.ar  1 <1>  -0.6200 
 22 H       -0.3010    -1.8530     1.8920 H     1 <1>   0.4200 
 23 H        0.3720    -2.6670    -0.7840 H     1 <1>   0.0800 
 24 H        2.8820     0.7590    -1.4670 H     1 <1>   0.1500 
 25 H       -1.5490    -4.0240    -0.8940 H     1 <1>   0.0800 
 26 H        1.2360    -3.6660     1.5870 H     1 <1>   0.0800 
 27 H        0.6160    -4.7940     0.3880 H     1 <1>   0.0800 
 28 H       -0.8210     2.6130    -2.7370 H     1 <1>   0.1500 
 29 H        1.8190     2.3150    -3.1610 H     1 <1>   0.1500 
 30 H       -2.3690    -5.0160     0.9940 H     1 <1>   0.0800 
 31 H       -2.5160    -3.4900     1.8610 H     1 <1>   0.0800 
 32 H       -2.3060    -1.7020    -1.3460 H     1 <1>   0.0800 
 33 H       -2.7280    -1.5090     0.3250 H     1 <1>   0.0800 
 34 H       -4.8440    -2.4050     1.1710 H     1 <1>   0.1500 
 35 H       -3.5480    -3.5160    -2.7250 H     1 <1>   0.1500 
 36 H       -6.9770    -3.4580     0.6680 H     1 <1>   0.1500 
 37 H       -5.7350    -4.5250    -3.0700 H     1 <1>   0.1500 
@<TRIPOS>BOND
  1   1   2  2   
  2   1   3  2   
  3   1   4  am  
  4   1   5  1   
  5   4   6  1   
  6   4  22  1   
  7   5   7  1   
  8   5   8  2   
  9   6   9  1   
 10   6  10  1   
 11   6  23  1   
 12   7  11  1   
 13   8  12  1   
 14   8  24  1   
 15   9  13  1   
 16   9  14  1   
 17   9  25  1   
 18  10  15  1   
 19  10  26  1   
 20  10  27  1   
 21  11  12  2   
 22  11  28  1   
 23  12  29  1   
 24  13  15  1   
 25  13  30  1   
 26  13  31  1   
 27  14  16  1   
 28  14  32  1   
 29  14  33  1   
 30  16  17  ar  
 31  16  18  ar  
 32  17  19  ar  
 33  17  34  1   
 34  18  20  ar  
 35  18  35  1   
 36  19  21  ar  
 37  19  36  1   
 38  20  21  ar  
 39  20  37  1   
@<TRIPOS>SUBSTRUCTURE
  1 ****  14 GROUP 4 **** **** 0

# MOE 2024.06 (io_trps.svl 2023.06)
