@<TRIPOS>MOLECULE
Untitled Document
63 67 1 0 0 
SMALL
USER_CHARGES


@<TRIPOS>ATOM
  1 F        0.3720    -0.0470    -1.5770 F     1 <1>  -0.1900 
  2 C        1.2770     0.0110    -0.6390 C.ar  1 <1>   0.1900 
  3 C        2.3650     0.8410    -0.8160 C.ar  1 <1>  -0.1500 
  4 C        1.1040    -0.7530     0.4990 C.ar  1 <1>  -0.1500 
  5 C        3.3250     0.9400     0.1910 C.ar  1 <1>   0.0280 
  6 C        2.0550    -0.6640     1.5000 C.ar  1 <1>  -0.1500 
  7 C        4.4630     1.8080     0.0400 C.2   1 <1>  -0.0190 
  8 C        3.1470     0.1740     1.3470 C.ar  1 <1>  -0.1500 
  9 C        4.3040     3.1730     0.2220 C.2   1 <1>  -0.0140 
 10 C        5.6710     1.0960    -0.3230 C.cat 1 <1>   0.7910 
 11 C        5.2560     4.2390     0.0090 C.2   1 <1>   0.6160 
 12 C        3.1060     3.8800     0.6380 C.ar  1 <1>   0.0280 
 13 N        5.7410    -0.2270    -0.5230 N.pl3 1 <1>  -0.7000 
 14 N        6.9000     1.5680    -0.5230 N.pl3 1 <1>  -0.7000 
 15 O        6.4310     4.1600    -0.2890 O.2   1 <1>  -0.5700 
 16 N        4.6670     5.4380     0.1910 N.am  1 <1>  -0.5470 
 17 C        3.3600     5.2470     0.5770 C.ar  1 <1>   0.1170 
 18 C        1.8370     3.4850     1.0680 C.ar  1 <1>  -0.1500 
 19 C        7.0230    -0.5770    -0.8510 C.2   1 <1>   0.2000 
 20 C        7.7510     0.5580    -0.8500 C.2   1 <1>   0.1820 
 21 C        2.4040     6.2010     0.8830 C.ar  1 <1>  -0.1500 
 22 C        0.8580     4.4190     1.3650 C.ar  1 <1>   0.1000 
 23 C        9.2180     0.8030    -1.1390 C.3   1 <1>  -0.0720 
 24 C        1.1500     5.7780     1.2740 C.ar  1 <1>  -0.1500 
 25 N       -0.4060     3.9970     1.7600 N.pl3 1 <1>  -0.8690 
 26 C       -1.5100     4.2100     0.8170 C.3   1 <1>   0.2890 
 27 C       -2.6550     4.8780     1.5680 C.3   1 <1>  -0.1600 
 28 C       -1.9440     2.8640     0.2420 C.3   1 <1>  -0.1600 
 29 C       -3.8790     5.0150     0.6700 C.3   1 <1>   0.3430 
 30 C       -3.1830     3.0300    -0.6350 C.3   1 <1>   0.3430 
 31 N       -4.2820     3.6750     0.1490 N.4   1 <1>  -0.9590 
 32 C       -5.5400     3.7860    -0.6370 C.3   1 <1>   0.3430 
 33 C       -6.1720     2.4080    -0.7970 C.3   1 <1>  -0.2400 
 34 H        2.4520     1.4120    -1.7240 H     1 <1>   0.1500 
 35 H        0.2470    -1.3970     0.5970 H     1 <1>   0.1500 
 36 H        1.9390    -1.2470     2.4010 H     1 <1>   0.1500 
 37 H        3.8670     0.2400     2.1470 H     1 <1>   0.1500 
 38 H        4.9410    -0.8620    -0.4410 H     1 <1>   0.4500 
 39 H        7.1330     2.5760    -0.4570 H     1 <1>   0.4500 
 40 H        5.1680     6.3250     0.1210 H     1 <1>   0.3700 
 41 H        1.5830     2.4530     1.1840 H     1 <1>   0.1500 
 42 H        7.3350    -1.5890    -1.0620 H     1 <1>   0.1500 
 43 H        2.6410     7.2480     0.8210 H     1 <1>   0.1500 
 44 H        9.7140    -0.1210    -1.3780 H     1 <1>   0.0800 
 45 H        9.6950     1.2380    -0.2780 H     1 <1>   0.0800 
 46 H        9.3220     1.4760    -1.9700 H     1 <1>   0.0800 
 47 H        0.3900     6.4960     1.5260 H     1 <1>   0.1500 
 48 H       -0.4100     3.0470     2.1490 H     1 <1>   0.4000 
 49 H       -1.1820     4.8540     0.0150 H     1 <1>   0.0800 
 50 H       -2.9110     4.3080     2.4440 H     1 <1>   0.0800 
 51 H       -2.3410     5.8560     1.8880 H     1 <1>   0.0800 
 52 H       -1.1470     2.4590    -0.3550 H     1 <1>   0.0800 
 53 H       -2.1610     2.1680     1.0330 H     1 <1>   0.0800 
 54 H       -3.6500     5.6740    -0.1530 H     1 <1>   0.0800 
 55 H       -4.6880     5.4510     1.2360 H     1 <1>   0.0800 
 56 H       -3.4970     2.0620    -0.9890 H     1 <1>   0.0800 
 57 H       -2.9410     3.6390    -1.4910 H     1 <1>   0.0800 
 58 H       -4.4810     3.0760     0.9620 H     1 <1>   0.4500 
 59 H       -6.2360     4.4270    -0.1190 H     1 <1>   0.0800 
 60 H       -5.3410     4.2180    -1.6050 H     1 <1>   0.0800 
 61 H       -6.3570     1.9570     0.1620 H     1 <1>   0.0800 
 62 H       -5.5590     1.7570    -1.3930 H     1 <1>   0.0800 
 63 H       -7.1170     2.5120    -1.2990 H     1 <1>   0.0800 
@<TRIPOS>BOND
  1   1   2  1   
  2   2   3  ar  
  3   2   4  ar  
  4   3   5  ar  
  5   3  34  1   
  6   4   6  ar  
  7   4  35  1   
  8   5   7  1   
  9   5   8  ar  
 10   6   8  ar  
 11   6  36  1   
 12   7   9  2   
 13   7  10  1   
 14   8  37  1   
 15   9  11  1   
 16   9  12  1   
 17  10  13  ar  
 18  10  14  ar  
 19  11  15  2   
 20  11  16  am  
 21  12  17  ar  
 22  12  18  ar  
 23  13  19  1   
 24  13  38  1   
 25  14  20  1   
 26  14  39  1   
 27  16  17  1   
 28  16  40  1   
 29  17  21  ar  
 30  18  22  ar  
 31  18  41  1   
 32  19  20  2   
 33  19  42  1   
 34  20  23  1   
 35  21  24  ar  
 36  21  43  1   
 37  22  24  ar  
 38  22  25  1   
 39  23  44  1   
 40  23  45  1   
 41  23  46  1   
 42  24  47  1   
 43  25  26  1   
 44  25  48  1   
 45  26  27  1   
 46  26  28  1   
 47  26  49  1   
 48  27  29  1   
 49  27  50  1   
 50  27  51  1   
 51  28  30  1   
 52  28  52  1   
 53  28  53  1   
 54  29  31  1   
 55  29  54  1   
 56  29  55  1   
 57  30  31  1   
 58  30  56  1   
 59  30  57  1   
 60  31  32  1   
 61  31  58  1   
 62  32  33  1   
 63  32  59  1   
 64  32  60  1   
 65  33  61  1   
 66  33  62  1   
 67  33  63  1   
@<TRIPOS>SUBSTRUCTURE
  1 ****  18 GROUP 4 **** **** 0

# MOE 2024.06 (io_trps.svl 2023.06)
