@<TRIPOS>MOLECULE
NONAME
60 62 1 0 0 
SMALL
USER_CHARGES


@<TRIPOS>ATOM
  1 O        0.1360     1.4470    -0.9570 O.2   1 <1>  -0.5700 
  2 C        0.7280     1.6710     0.0680 C.2   1 <1>   0.5950 
  3 C        2.1310     1.3940     0.2330 C.2   1 <1>  -0.0860 
  4 C       -0.0490     2.2570     1.2250 C.3   1 <1>  -0.1790 
  5 C        2.9430     1.4970     1.3360 C.2   1 <1>  -0.3020 
  6 C        2.9770     0.9350    -0.7920 C.2   1 <1>  -0.1500 
  7 N        4.2070     1.1270     1.0430 N.pl3 1 <1>   0.0480 
  8 C        4.2210     0.7670    -0.2750 C.2   1 <1>  -0.3320 
  9 C        5.3320     1.1890     1.9990 C.3   1 <1>   0.0160 
 10 C        5.4310     0.2720    -1.0240 C.3   1 <1>   0.5230 
 11 N        5.5640    -1.1710    -0.6950 N.4   1 <1>  -0.9590 
 12 C        6.8980    -1.8030    -1.0180 C.3   1 <1>   0.4230 
 13 C        4.4410    -1.9260    -1.3460 C.3   1 <1>   0.3430 
 14 C        6.9680    -3.2420    -0.4260 C.3   1 <1>   0.0000 
 15 C        8.1550    -0.9440    -0.6520 C.3   1 <1>   0.3430 
 16 C        4.4480    -3.3950    -0.9160 C.3   1 <1>  -0.1600 
 17 C        8.3250    -3.9180    -0.7990 C.3   1 <1>  -0.1600 
 18 C        5.8260    -4.0640    -1.0740 C.3   1 <1>  -0.1600 
 19 C        6.7590    -3.2910     1.1210 C.3   1 <1>   0.1200 
 20 N        9.3600    -1.7460    -0.2370 N.4   1 <1>  -0.9590 
 21 C        9.5220    -2.9840    -1.0360 C.3   1 <1>   0.3430 
 22 O        7.6320    -2.4500     1.8000 O.3   1 <1>  -0.6800 
 23 C       10.6260    -0.9600    -0.1720 C.3   1 <1>   0.3430 
 24 C       10.5410     0.0960     0.9320 C.3   1 <1>  -0.1600 
 25 C       11.8810     0.8200     1.0960 C.3   1 <1>  -0.2400 
 26 H        0.4300     3.1540     1.5680 H     1 <1>   0.0800 
 27 H       -0.0950     1.5450     2.0270 H     1 <1>   0.0800 
 28 H       -1.0490     2.4950     0.9110 H     1 <1>   0.0800 
 29 H        2.6550     1.8300     2.3180 H     1 <1>   0.1500 
 30 H        2.6250     0.7680    -1.7980 H     1 <1>   0.1500 
 31 H        4.9700     1.5310     2.9530 H     1 <1>   0.0800 
 32 H        6.0690     1.8840     1.6410 H     1 <1>   0.0800 
 33 H        5.7660     0.2150     2.1200 H     1 <1>   0.0800 
 34 H        6.2950     0.8350    -0.7120 H     1 <1>   0.0800 
 35 H        5.2890     0.4060    -2.0850 H     1 <1>   0.0800 
 36 H        5.3920    -1.2320     0.3160 H     1 <1>   0.4500 
 37 H        6.9370    -1.9180    -2.0890 H     1 <1>   0.0800 
 38 H        3.4910    -1.4900    -1.0780 H     1 <1>   0.0800 
 39 H        4.5390    -1.8690    -2.4180 H     1 <1>   0.0800 
 40 H        7.8950    -0.2940     0.1660 H     1 <1>   0.0800 
 41 H        8.4130    -0.3340    -1.5010 H     1 <1>   0.0800 
 42 H        4.0960    -3.4690     0.0980 H     1 <1>   0.0800 
 43 H        3.7310    -3.9270    -1.5190 H     1 <1>   0.0800 
 44 H        8.2210    -4.5030    -1.6980 H     1 <1>   0.0800 
 45 H        8.6000    -4.6250    -0.0350 H     1 <1>   0.0800 
 46 H        6.0130    -4.1810    -2.1290 H     1 <1>   0.0800 
 47 H        5.7900    -5.0550    -0.6510 H     1 <1>   0.0800 
 48 H        6.9170    -4.2940     1.4850 H     1 <1>   0.0800 
 49 H        5.7630    -2.9990     1.4020 H     1 <1>   0.0800 
 50 H        9.1470    -2.0700     0.7310 H     1 <1>   0.4500 
 51 H        9.5890    -2.7300    -2.0820 H     1 <1>   0.0800 
 52 H       10.4330    -3.4930    -0.7590 H     1 <1>   0.0800 
 53 H        7.5890    -2.6400     2.7690 H     1 <1>   0.4000 
 54 H       11.4490    -1.6210     0.0500 H     1 <1>   0.0800 
 55 H       10.8250    -0.4860    -1.1200 H     1 <1>   0.0800 
 56 H        9.7910     0.8300     0.6980 H     1 <1>   0.0800 
 57 H       10.2920    -0.3740     1.8680 H     1 <1>   0.0800 
 58 H       12.1630     1.3240     0.1870 H     1 <1>   0.0800 
 59 H       12.6620     0.1280     1.3630 H     1 <1>   0.0800 
 60 H       11.8090     1.5580     1.8780 H     1 <1>   0.0800 
@<TRIPOS>BOND
  1   1   2  2   
  2   2   3  1   
  3   2   4  1   
  4   3   5  2   
  5   3   6  1   
  6   4  26  1   
  7   4  27  1   
  8   4  28  1   
  9   5   7  1   
 10   5  29  1   
 11   6   8  2   
 12   6  30  1   
 13   7   8  1   
 14   7   9  1   
 15   8  10  1   
 16   9  31  1   
 17   9  32  1   
 18   9  33  1   
 19  10  11  1   
 20  10  34  1   
 21  10  35  1   
 22  11  12  1   
 23  11  13  1   
 24  11  36  1   
 25  12  14  1   
 26  12  15  1   
 27  12  37  1   
 28  13  16  1   
 29  13  38  1   
 30  13  39  1   
 31  14  17  1   
 32  14  18  1   
 33  14  19  1   
 34  15  20  1   
 35  15  40  1   
 36  15  41  1   
 37  16  18  1   
 38  16  42  1   
 39  16  43  1   
 40  17  21  1   
 41  17  44  1   
 42  17  45  1   
 43  18  46  1   
 44  18  47  1   
 45  19  22  1   
 46  19  48  1   
 47  19  49  1   
 48  20  21  1   
 49  20  23  1   
 50  20  50  1   
 51  21  51  1   
 52  21  52  1   
 53  22  53  1   
 54  23  24  1   
 55  23  54  1   
 56  23  55  1   
 57  24  25  1   
 58  24  56  1   
 59  24  57  1   
 60  25  58  1   
 61  25  59  1   
 62  25  60  1   
@<TRIPOS>SUBSTRUCTURE
  1 ****  11 GROUP 4 **** **** 0

# MOE 2024.06 (io_trps.svl 2023.06)
