@<TRIPOS>MOLECULE
NONAME
52 55 1 0 0 
SMALL
USER_CHARGES


@<TRIPOS>ATOM
  1 O       -0.0160    -1.4080     2.0960 O.3   1 <1>  -0.5600 
  2 C       -0.7160    -2.4710     2.6750 C.3   1 <1>   0.1200 
  3 C        0.9180    -1.7980     1.1350 C.3   1 <1>   0.1200 
  4 C       -1.5030    -3.2470     1.6040 C.3   1 <1>   0.2090 
  5 C        0.2200    -2.5280    -0.0290 C.3   1 <1>   0.2090 
  6 N       -0.6040    -3.6860     0.4700 N.pl3 1 <1>  -0.8380 
  7 C       -0.5810    -4.9750     0.0340 C.ar  1 <1>   0.7710 
  8 N       -1.2750    -5.8970     0.6880 N.ar  1 <1>  -0.6200 
  9 N        0.1440    -5.2870    -1.0570 N.ar  1 <1>  -0.1790 
 10 C       -1.2220    -7.1360     0.2620 C.ar  1 <1>   0.4100 
 11 C        0.2140    -6.5520    -1.5390 C.ar  1 <1>   0.2180 
 12 N       -1.9310    -8.0090     0.9920 N.pl3 1 <1>  -0.8690 
 13 C       -0.4790    -7.5060    -0.8730 C.ar  1 <1>  -0.1500 
 14 C        1.0490    -6.8240    -2.7780 C.3   1 <1>  -0.0970 
 15 C       -1.9790    -9.4940     0.9870 C.3   1 <1>   0.2890 
 16 C       -3.3850    -9.9980     0.6860 C.3   1 <1>  -0.0800 
 17 C       -1.8080    -9.9910     2.4180 C.3   1 <1>   0.1200 
 18 C       -4.0710    -9.9570     2.0570 C.3   1 <1>   0.1200 
 19 C       -4.1560    -9.2500    -0.4180 C.3   1 <1>  -0.0170 
 20 O       -3.0600    -9.8360     3.0130 O.3   1 <1>  -0.5600 
 21 C       -5.5100    -9.8990    -0.6660 C.ar  1 <1>  -0.1430 
 22 C       -5.6420   -11.0400    -1.4320 C.ar  1 <1>  -0.1500 
 23 C       -6.6770    -9.3840    -0.1370 C.ar  1 <1>  -0.1500 
 24 C       -6.8950   -11.5980    -1.6220 C.ar  1 <1>   0.1600 
 25 C       -7.8820   -10.0200    -0.3880 C.ar  1 <1>   0.1600 
 26 N       -8.0190   -11.1160    -1.1160 N.ar  1 <1>  -0.6200 
 27 H       -0.0170    -3.1170     3.1780 H     1 <1>   0.0800 
 28 H       -1.3910    -2.0590     3.4050 H     1 <1>   0.0800 
 29 H        1.4070    -0.9080     0.7790 H     1 <1>   0.0800 
 30 H        1.6510    -2.4310     1.6050 H     1 <1>   0.0800 
 31 H       -2.2760    -2.6060     1.2150 H     1 <1>   0.0800 
 32 H       -1.9900    -4.0780     2.0820 H     1 <1>   0.0800 
 33 H        0.9730    -2.8460    -0.7250 H     1 <1>   0.0800 
 34 H       -0.4240    -1.8250    -0.5330 H     1 <1>   0.0800 
 35 H        0.6130    -4.5150    -1.5090 H     1 <1>   0.4570 
 36 H       -2.4360    -7.6230     1.7990 H     1 <1>   0.4000 
 37 H       -0.4820    -8.5310    -1.1890 H     1 <1>   0.1500 
 38 H        1.0090    -7.8690    -3.0370 H     1 <1>   0.0800 
 39 H        2.0780    -6.5620    -2.6050 H     1 <1>   0.0800 
 40 H        0.6770    -6.2590    -3.6150 H     1 <1>   0.0800 
 41 H       -1.2370    -9.9130     0.3310 H     1 <1>   0.0800 
 42 H       -3.3100   -11.0320     0.4010 H     1 <1>   0.0800 
 43 H       -1.0730    -9.4330     2.9690 H     1 <1>   0.0800 
 44 H       -1.5650   -11.0390     2.4350 H     1 <1>   0.0800 
 45 H       -4.6320   -10.8560     2.2510 H     1 <1>   0.0800 
 46 H       -4.7150    -9.1010     2.1570 H     1 <1>   0.0800 
 47 H       -3.5860    -9.2650    -1.3290 H     1 <1>   0.0800 
 48 H       -4.3010    -8.2200    -0.1420 H     1 <1>   0.0800 
 49 H       -4.7840   -11.5030    -1.8840 H     1 <1>   0.1500 
 50 H       -6.6640    -8.4960     0.4670 H     1 <1>   0.1500 
 51 H       -6.9790   -12.4880    -2.2220 H     1 <1>   0.1500 
 52 H       -8.7810    -9.6030     0.0340 H     1 <1>   0.1500 
@<TRIPOS>BOND
  1   1   2  1   
  2   1   3  1   
  3   2   4  1   
  4   2  27  1   
  5   2  28  1   
  6   3   5  1   
  7   3  29  1   
  8   3  30  1   
  9   4   6  1   
 10   4  31  1   
 11   4  32  1   
 12   5   6  1   
 13   5  33  1   
 14   5  34  1   
 15   6   7  1   
 16   7   8  ar  
 17   7   9  ar  
 18   8  10  ar  
 19   9  11  ar  
 20   9  35  1   
 21  10  12  1   
 22  10  13  ar  
 23  11  13  ar  
 24  11  14  1   
 25  12  15  1   
 26  12  36  1   
 27  13  37  1   
 28  14  38  1   
 29  14  39  1   
 30  14  40  1   
 31  15  16  1   
 32  15  17  1   
 33  15  41  1   
 34  16  18  1   
 35  16  19  1   
 36  16  42  1   
 37  17  20  1   
 38  17  43  1   
 39  17  44  1   
 40  18  20  1   
 41  18  45  1   
 42  18  46  1   
 43  19  21  1   
 44  19  47  1   
 45  19  48  1   
 46  21  22  ar  
 47  21  23  ar  
 48  22  24  ar  
 49  22  49  1   
 50  23  25  ar  
 51  23  50  1   
 52  24  26  ar  
 53  24  51  1   
 54  25  26  ar  
 55  25  52  1   
@<TRIPOS>SUBSTRUCTURE
  1 ****  12 GROUP 4 **** **** 0

# MOE 2024.06 (io_trps.svl 2023.06)
