@<TRIPOS>MOLECULE
NONAME
33 34 1 0 0 
SMALL
USER_CHARGES


@<TRIPOS>ATOM
  1 O       -0.7230    -0.2800     0.0570 O.2   1 <1>  -0.5700 
  2 C       -1.1760    -1.3740     0.3110 C.2   1 <1>   0.7800 
  3 O       -0.4320    -2.4790     0.2910 O.3   1 <1>  -0.4300 
  4 N       -2.5020    -1.5400     0.5700 N.am  1 <1>  -0.6600 
  5 C        0.9630    -2.5580     0.0810 C.3   1 <1>   0.2800 
  6 C       -3.2200    -2.8390     0.5910 C.3   1 <1>   0.2350 
  7 C       -3.4770    -0.4180     0.5760 C.3   1 <1>   0.2350 
  8 C        1.3040    -4.0430     0.2110 C.3   1 <1>  -0.2400 
  9 C        1.7070    -1.7720     1.1670 C.3   1 <1>  -0.2400 
 10 C        1.3160    -2.0790    -1.3320 C.3   1 <1>  -0.2400 
 11 C       -4.5340    -2.4140    -0.0710 C.3   1 <1>   0.3010 
 12 C       -4.8090    -1.1590     0.7400 C.3   1 <1>  -0.1950 
 13 N       -4.3120    -2.2850    -1.5240 N.4   1 <1>  -0.7460 
 14 C       -5.9190    -2.0400     0.2580 C.3   1 <1>  -0.2000 
 15 H       -2.6960    -3.5980     0.0350 H     1 <1>   0.0800 
 16 H       -3.3740    -3.1650     1.6060 H     1 <1>   0.0800 
 17 H       -3.2820     0.2490     1.4010 H     1 <1>   0.0800 
 18 H       -3.4250     0.1340    -0.3480 H     1 <1>   0.0800 
 19 H        2.3590    -4.1960     0.0690 H     1 <1>   0.0800 
 20 H        0.7780    -4.6170    -0.5290 H     1 <1>   0.0800 
 21 H        1.0420    -4.4030     1.1900 H     1 <1>   0.0800 
 22 H        2.7650    -1.9460     1.0850 H     1 <1>   0.0800 
 23 H        1.3880    -2.0850     2.1450 H     1 <1>   0.0800 
 24 H        1.5470    -0.7140     1.0640 H     1 <1>   0.0800 
 25 H        2.3570    -2.2630    -1.5270 H     1 <1>   0.0800 
 26 H        1.1530    -1.0230    -1.4380 H     1 <1>   0.0800 
 27 H        0.7370    -2.6070    -2.0660 H     1 <1>   0.0800 
 28 H       -4.9440    -1.1370     1.8100 H     1 <1>   0.1000 
 29 H       -4.4050    -3.1870    -2.0000 H     1 <1>   0.4500 
 30 H       -3.3650    -1.9160    -1.6830 H     1 <1>   0.4500 
 31 H       -4.9850    -1.6270    -1.9270 H     1 <1>   0.4500 
 32 H       -6.5870    -1.6470    -0.4890 H     1 <1>   0.1000 
 33 H       -6.4540    -2.6190     0.9930 H     1 <1>   0.1000 
@<TRIPOS>BOND
  1   1   2  2   
  2   2   3  1   
  3   2   4  am  
  4   3   5  1   
  5   4   6  1   
  6   4   7  1   
  7   5   8  1   
  8   5   9  1   
  9   5  10  1   
 10   6  11  1   
 11   6  15  1   
 12   6  16  1   
 13   7  12  1   
 14   7  17  1   
 15   7  18  1   
 16   8  19  1   
 17   8  20  1   
 18   8  21  1   
 19   9  22  1   
 20   9  23  1   
 21   9  24  1   
 22  10  25  1   
 23  10  26  1   
 24  10  27  1   
 25  11  12  1   
 26  11  13  1   
 27  11  14  1   
 28  12  14  1   
 29  12  28  1   
 30  13  29  1   
 31  13  30  1   
 32  13  31  1   
 33  14  32  1   
 34  14  33  1   
@<TRIPOS>SUBSTRUCTURE
  1 ****   4 GROUP 4 **** **** 0

# MOE 2024.06 (io_trps.svl 2023.06)
