@<TRIPOS>MOLECULE
NONAME
47 49 1 0 0 
SMALL
USER_CHARGES


@<TRIPOS>ATOM
  1 O        1.2600     1.8190    -1.5090 O.3   1 <1>  -0.0190 
  2 N        2.1850     0.9280    -1.7050 N.2   1 <1>  -0.4100 
  3 C        0.8430     1.8220    -0.2710 C.2   1 <1>  -0.0400 
  4 C        2.3510     0.3290    -0.5800 C.2   1 <1>   0.1080 
  5 C        1.5130     0.8680     0.3920 C.2   1 <1>  -0.1500 
  6 C       -0.2080     2.8230     0.1710 C.3   1 <1>   0.0200 
  7 C        3.3260    -0.8060    -0.3570 C.3   1 <1>  -0.0590 
  8 C        0.1380     4.2330    -0.3510 C.3   1 <1>  -0.0800 
  9 C       -0.6860     5.3890     0.2140 C.3   1 <1>   0.2000 
 10 C        1.5830     4.6530    -0.0900 C.3   1 <1>   0.3430 
 11 O       -0.8330     5.2430     1.5900 O.3   1 <1>  -0.6800 
 12 C        0.1730     6.6260    -0.0810 C.3   1 <1>   0.3430 
 13 N        1.5880     6.1360    -0.2250 N.4   1 <1>  -0.9590 
 14 C        2.5390     6.8490     0.6790 C.3   1 <1>   0.5240 
 15 C        2.8020     8.2490     0.1380 C.2   1 <1>   0.0460 
 16 N        1.7840     9.1110    -0.0670 N.2   1 <1>  -0.5650 
 17 C        3.9850     8.8150    -0.2020 C.2   1 <1>  -0.3320 
 18 C        2.3570    10.1800    -0.5140 C.2   1 <1>   0.0060 
 19 N        3.6970    10.0630    -0.6200 N.pl3 1 <1>   0.0330 
 20 C        5.4100     8.2860    -0.1660 C.3   1 <1>  -0.0600 
 21 C        1.6160    11.4520    -0.8860 C.3   1 <1>   0.0200 
 22 C        1.9370    12.5900     0.0880 C.3   1 <1>  -0.2400 
 23 H        1.4500     0.5590     1.4200 H     1 <1>   0.1500 
 24 H       -1.1660     2.5220    -0.2170 H     1 <1>   0.0800 
 25 H       -0.2660     2.8010     1.2450 H     1 <1>   0.0800 
 26 H        4.0220    -0.5470     0.4190 H     1 <1>   0.0800 
 27 H        3.8720    -1.0060    -1.2610 H     1 <1>   0.0800 
 28 H        2.7920    -1.6940    -0.0730 H     1 <1>   0.0800 
 29 H        0.0040     4.2240    -1.4190 H     1 <1>   0.0800 
 30 H       -1.6690     5.4580    -0.2200 H     1 <1>   0.0800 
 31 H        2.2590     4.1840    -0.7890 H     1 <1>   0.0800 
 32 H        1.8580     4.3710     0.9130 H     1 <1>   0.0800 
 33 H        0.0080     5.3240     2.0780 H     1 <1>   0.4000 
 34 H        0.0740     7.3610     0.7020 H     1 <1>   0.0800 
 35 H       -0.1430     7.0720    -1.0090 H     1 <1>   0.0800 
 36 H        1.8870     6.4030    -1.1740 H     1 <1>   0.4500 
 37 H        2.1300     6.9210     1.6720 H     1 <1>   0.0800 
 38 H        3.4730     6.3160     0.7270 H     1 <1>   0.0800 
 39 H        4.3480    10.7860    -0.9430 H     1 <1>   0.2700 
 40 H        5.4410     7.2760     0.2000 H     1 <1>   0.0800 
 41 H        6.0150     8.8990     0.4800 H     1 <1>   0.0800 
 42 H        5.8370     8.3030    -1.1530 H     1 <1>   0.0800 
 43 H        1.8780    11.7420    -1.8880 H     1 <1>   0.0800 
 44 H        0.5580    11.2590    -0.8650 H     1 <1>   0.0800 
 45 H        2.9830    12.8350     0.0590 H     1 <1>   0.0800 
 46 H        1.6770    12.2990     1.0910 H     1 <1>   0.0800 
 47 H        1.3710    13.4680    -0.1710 H     1 <1>   0.0800 
@<TRIPOS>BOND
  1   1   2  1   
  2   1   3  1   
  3   2   4  2   
  4   3   5  2   
  5   3   6  1   
  6   4   5  1   
  7   4   7  1   
  8   5  23  1   
  9   6   8  1   
 10   6  24  1   
 11   6  25  1   
 12   7  26  1   
 13   7  27  1   
 14   7  28  1   
 15   8   9  1   
 16   8  10  1   
 17   8  29  1   
 18   9  11  1   
 19   9  12  1   
 20   9  30  1   
 21  10  13  1   
 22  10  31  1   
 23  10  32  1   
 24  11  33  1   
 25  12  13  1   
 26  12  34  1   
 27  12  35  1   
 28  13  14  1   
 29  13  36  1   
 30  14  15  1   
 31  14  37  1   
 32  14  38  1   
 33  15  16  1   
 34  15  17  2   
 35  16  18  2   
 36  17  19  1   
 37  17  20  1   
 38  18  19  1   
 39  18  21  1   
 40  19  39  1   
 41  20  40  1   
 42  20  41  1   
 43  20  42  1   
 44  21  22  1   
 45  21  43  1   
 46  21  44  1   
 47  22  45  1   
 48  22  46  1   
 49  22  47  1   
@<TRIPOS>SUBSTRUCTURE
  1 ****  13 GROUP 4 **** **** 0

# MOE 2024.06 (io_trps.svl 2023.06)
