@<TRIPOS>MOLECULE
NONAME
50 53 1 0 0 
SMALL
USER_CHARGES


@<TRIPOS>ATOM
  1 O       -0.0900     0.2940     0.5290 O.2   1 <1>  -0.5700 
  2 C       -1.1250     0.9040     0.3340 C.2   1 <1>   0.7030 
  3 N       -2.2620     0.1860     0.0340 N.am  1 <1>  -0.6600 
  4 C       -1.1190     2.3530     0.4110 C.2   1 <1>   0.2770 
  5 C       -3.4480     0.7000    -0.7060 C.3   1 <1>   0.1400 
  6 C       -2.3000    -1.3050     0.0470 C.3   1 <1>   0.1400 
  7 N       -0.2070     3.1860    -0.2440 N.pl3 1 <1>  -0.6290 
  8 C       -1.9430     3.1780     1.1140 C.2   1 <1>   0.1820 
  9 C       -4.4690    -0.4310    -0.6110 C.3   1 <1>   0.2000 
 10 C       -3.6000    -1.6890    -0.6740 C.3   1 <1>  -0.0800 
 11 C       -0.5100     4.4630     0.0610 C.cat 1 <1>   0.7910 
 12 C        0.8790     2.8960    -1.0380 C.2   1 <1>   0.2290 
 13 N       -1.5740     4.4670     0.8810 N.pl3 1 <1>  -0.7000 
 14 C       -3.0910     2.8600     2.0570 C.3   1 <1>  -0.0720 
 15 O       -5.0820    -0.3430     0.6310 O.3   1 <1>  -0.6800 
 16 C       -4.2490    -2.9840    -0.1490 C.3   1 <1>   0.0210 
 17 C        0.2490     5.5230    -0.4570 C.2   1 <1>  -0.1410 
 18 C        1.6350     3.9130    -1.5490 C.2   1 <1>  -0.1500 
 19 C       -3.2720    -4.1440    -0.1920 C.2   1 <1>   0.1080 
 20 C        1.3230     5.2590    -1.2660 C.2   1 <1>  -0.1380 
 21 N       -2.5410    -4.4160    -1.2290 N.2   1 <1>  -0.7070 
 22 C       -3.0430    -5.0270     0.8580 C.2   1 <1>  -0.1500 
 23 C        2.1860     6.3600    -1.8590 C.3   1 <1>  -0.1020 
 24 N       -1.8200    -5.4930    -0.8640 N.pl3 1 <1>   0.3000 
 25 C       -2.1050    -5.8800     0.3970 C.2   1 <1>  -0.3320 
 26 C       -1.4540    -7.0610     1.0930 C.3   1 <1>  -0.0600 
 27 H       -3.8410     1.6120    -0.2950 H     1 <1>   0.0800 
 28 H       -3.1800     0.8540    -1.7370 H     1 <1>   0.0800 
 29 H       -1.4440    -1.7220    -0.4600 H     1 <1>   0.0800 
 30 H       -2.3060    -1.6530     1.0660 H     1 <1>   0.0800 
 31 H       -5.2250    -0.3870    -1.3760 H     1 <1>   0.0800 
 32 H       -3.3450    -1.8520    -1.7070 H     1 <1>   0.0800 
 33 H        1.1100     1.8590    -1.2350 H     1 <1>   0.1500 
 34 H       -1.9930     5.3130     1.2750 H     1 <1>   0.4500 
 35 H       -3.2010     1.7980     2.1850 H     1 <1>   0.0800 
 36 H       -4.0130     3.2550     1.6680 H     1 <1>   0.0800 
 37 H       -2.9070     3.2970     3.0220 H     1 <1>   0.0800 
 38 H       -4.4160    -0.4930     1.3290 H     1 <1>   0.4000 
 39 H       -5.1000    -3.2300    -0.7580 H     1 <1>   0.0800 
 40 H       -4.5900    -2.8580     0.8620 H     1 <1>   0.0800 
 41 H       -0.0320     6.5270    -0.2010 H     1 <1>   0.1500 
 42 H        2.4840     3.6950    -2.1750 H     1 <1>   0.1500 
 43 H       -3.5240    -5.0120     1.8190 H     1 <1>   0.1500 
 44 H        2.1670     6.3070    -2.9330 H     1 <1>   0.0800 
 45 H        3.2040     6.2510    -1.5270 H     1 <1>   0.0800 
 46 H        1.8340     7.3320    -1.5610 H     1 <1>   0.0800 
 47 H       -1.1460    -5.9410    -1.4970 H     1 <1>   0.2700 
 48 H       -1.8490    -7.1680     2.0880 H     1 <1>   0.0800 
 49 H       -0.3910    -6.9140     1.1600 H     1 <1>   0.0800 
 50 H       -1.6500    -7.9680     0.5480 H     1 <1>   0.0800 
@<TRIPOS>BOND
  1   1   2  2   
  2   2   3  am  
  3   2   4  1   
  4   3   5  1   
  5   3   6  1   
  6   4   7  1   
  7   4   8  2   
  8   5   9  1   
  9   5  27  1   
 10   5  28  1   
 11   6  10  1   
 12   6  29  1   
 13   6  30  1   
 14   7  11  ar  
 15   7  12  1   
 16   8  13  1   
 17   8  14  1   
 18   9  10  1   
 19   9  15  1   
 20   9  31  1   
 21  10  16  1   
 22  10  32  1   
 23  11  13  ar  
 24  11  17  1   
 25  12  18  2   
 26  12  33  1   
 27  13  34  1   
 28  14  35  1   
 29  14  36  1   
 30  14  37  1   
 31  15  38  1   
 32  16  19  1   
 33  16  39  1   
 34  16  40  1   
 35  17  20  2   
 36  17  41  1   
 37  18  20  1   
 38  18  42  1   
 39  19  21  2   
 40  19  22  1   
 41  20  23  1   
 42  21  24  1   
 43  22  25  2   
 44  22  43  1   
 45  23  44  1   
 46  23  45  1   
 47  23  46  1   
 48  24  25  1   
 49  24  47  1   
 50  25  26  1   
 51  26  48  1   
 52  26  49  1   
 53  26  50  1   
@<TRIPOS>SUBSTRUCTURE
  1 ****   3 GROUP 4 **** **** 0

# MOE 2024.06 (io_trps.svl 2023.06)
