@<TRIPOS>MOLECULE
NONAME
52 54 1 0 0 
SMALL
USER_CHARGES


@<TRIPOS>ATOM
  1 O        0.0590     1.0390     1.7850 O.2   1 <1>  -0.5700 
  2 C        0.0840     2.2000     1.4670 C.2   1 <1>   0.5690 
  3 N       -1.0270     2.9630     1.5520 N.am  1 <1>  -0.7300 
  4 C        1.3730     2.8190     0.9220 C.3   1 <1>   0.1810 
  5 C       -1.0800     4.3930     1.1600 C.3   1 <1>   0.3640 
  6 O        1.3680     4.2310     0.9610 O.3   1 <1>  -0.5600 
  7 C       -2.3140     4.6020     0.2830 C.ar  1 <1>  -0.1440 
  8 C        0.2080     4.8440     0.4160 C.3   1 <1>   0.2610 
  9 C       -2.6300     3.7200    -0.7440 C.ar  1 <1>  -0.1500 
 10 C       -3.1390     5.6960     0.5030 C.ar  1 <1>  -0.1500 
 11 C        0.3640     6.3780     0.3990 C.2   1 <1>   0.5690 
 12 C       -3.7480     3.9280    -1.5330 C.ar  1 <1>  -0.1500 
 13 C       -4.2570     5.9060    -0.2840 C.ar  1 <1>  -0.1500 
 14 O       -0.3370     7.0370     1.1360 O.2   1 <1>  -0.5700 
 15 N        1.2700     6.9970    -0.4350 N.am  1 <1>  -0.6600 
 16 C       -4.5630     5.0220    -1.3030 C.ar  1 <1>  -0.1500 
 17 C        2.2400     6.2780    -1.3260 C.3   1 <1>   0.2840 
 18 C        1.3060     8.4840    -0.5470 C.3   1 <1>   0.1400 
 19 C        3.6950     6.5500    -0.9570 C.ar  1 <1>   0.1670 
 20 C        2.1310     9.1030     0.5870 C.3   1 <1>  -0.1600 
 21 N        4.4450     7.1370    -1.8810 N.ar  1 <1>  -0.6200 
 22 C        4.1620     6.1800     0.2970 C.ar  1 <1>  -0.1500 
 23 C        2.1010    10.6350     0.5190 C.3   1 <1>  -0.1600 
 24 C        5.7030     7.3670    -1.5390 C.ar  1 <1>   0.1600 
 25 C        5.4750     6.4240     0.6380 C.ar  1 <1>  -0.1500 
 26 C        2.9350    11.2510     1.6460 C.3   1 <1>  -0.2400 
 27 C        6.2590     7.0360    -0.3150 C.ar  1 <1>  -0.1500 
 28 H       -1.8900     2.5450     1.9000 H     1 <1>   0.3700 
 29 H        1.5160     2.5070    -0.0960 H     1 <1>   0.0800 
 30 H        2.2060     2.4790     1.5100 H     1 <1>   0.0800 
 31 H       -1.1850     4.9690     2.0640 H     1 <1>   0.0800 
 32 H        0.1240     4.5190    -0.6040 H     1 <1>   0.0800 
 33 H       -2.0100     2.8610    -0.9370 H     1 <1>   0.1500 
 34 H       -2.9130     6.3990     1.2890 H     1 <1>   0.1500 
 35 H       -3.9870     3.2390    -2.3240 H     1 <1>   0.1500 
 36 H       -4.8890     6.7580    -0.1040 H     1 <1>   0.1500 
 37 H       -5.4330     5.1850    -1.9150 H     1 <1>   0.1500 
 38 H        2.0870     5.2170    -1.2960 H     1 <1>   0.0800 
 39 H        2.0740     6.5940    -2.3410 H     1 <1>   0.0800 
 40 H        1.7230     8.7710    -1.4980 H     1 <1>   0.0800 
 41 H        0.2980     8.8640    -0.5010 H     1 <1>   0.0800 
 42 H        1.7300     8.7830     1.5330 H     1 <1>   0.0800 
 43 H        3.1500     8.7730     0.5150 H     1 <1>   0.0800 
 44 H        3.5000     5.7130     1.0030 H     1 <1>   0.1500 
 45 H        2.4920    10.9620    -0.4300 H     1 <1>   0.0800 
 46 H        1.0850    10.9810     0.6010 H     1 <1>   0.0800 
 47 H        6.3270     7.8450    -2.2750 H     1 <1>   0.1500 
 48 H        5.8660     6.1520     1.6030 H     1 <1>   0.1500 
 49 H        3.9610    10.9340     1.5700 H     1 <1>   0.0800 
 50 H        2.5500    10.9500     2.6040 H     1 <1>   0.0800 
 51 H        2.9030    12.3240     1.5840 H     1 <1>   0.0800 
 52 H        7.2920     7.2580    -0.1140 H     1 <1>   0.1500 
@<TRIPOS>BOND
  1   1   2  2   
  2   2   3  am  
  3   2   4  1   
  4   3   5  1   
  5   3  28  1   
  6   4   6  1   
  7   4  29  1   
  8   4  30  1   
  9   5   7  1   
 10   5   8  1   
 11   5  31  1   
 12   6   8  1   
 13   7   9  ar  
 14   7  10  ar  
 15   8  11  1   
 16   8  32  1   
 17   9  12  ar  
 18   9  33  1   
 19  10  13  ar  
 20  10  34  1   
 21  11  14  2   
 22  11  15  am  
 23  12  16  ar  
 24  12  35  1   
 25  13  16  ar  
 26  13  36  1   
 27  15  17  1   
 28  15  18  1   
 29  16  37  1   
 30  17  19  1   
 31  17  38  1   
 32  17  39  1   
 33  18  20  1   
 34  18  40  1   
 35  18  41  1   
 36  19  21  ar  
 37  19  22  ar  
 38  20  23  1   
 39  20  42  1   
 40  20  43  1   
 41  21  24  ar  
 42  22  25  ar  
 43  22  44  1   
 44  23  26  1   
 45  23  45  1   
 46  23  46  1   
 47  24  27  ar  
 48  24  47  1   
 49  25  27  ar  
 50  25  48  1   
 51  26  49  1   
 52  26  50  1   
 53  26  51  1   
 54  27  52  1   
@<TRIPOS>SUBSTRUCTURE
  1 ****  11 GROUP 4 **** **** 0

# MOE 2024.06 (io_trps.svl 2023.06)
