@<TRIPOS>MOLECULE
NONAME
40 42 1 0 0 
SMALL
USER_CHARGES


@<TRIPOS>ATOM
  1 O       -1.3490    -1.3050     0.0300 O.3   1 <1>  -0.5600 
  2 C       -1.3790    -0.3880     1.0760 C.3   1 <1>   0.1200 
  3 C       -1.2140    -0.8050    -1.2580 C.3   1 <1>   0.1200 
  4 C       -2.6320     0.5160     1.0710 C.3   1 <1>   0.4230 
  5 C       -2.5140    -0.1450    -1.7460 C.3   1 <1>  -0.0800 
  6 N       -2.4860     1.6710     0.0970 N.4   1 <1>  -0.9590 
  7 C       -3.9560    -0.2970     0.9480 C.3   1 <1>   0.1100 
  8 C       -3.7870    -0.9420    -1.4040 C.3   1 <1>   0.1100 
  9 C       -2.6400     1.3350    -1.3630 C.3   1 <1>   0.3430 
 10 C       -3.4750     2.7370     0.4330 C.3   1 <1>   0.2630 
 11 N       -4.6130    -0.2660    -0.3810 N.3   1 <1>  -0.8100 
 12 C       -5.9780    -0.8690    -0.3370 C.3   1 <1>   0.2530 
 13 C       -6.0310    -2.3290     0.1290 C.ar  1 <1>   0.1670 
 14 N       -5.7780    -3.2650    -0.7770 N.ar  1 <1>  -0.6200 
 15 C       -6.3490    -2.6060     1.4520 C.ar  1 <1>  -0.1500 
 16 C       -5.8310    -4.5160    -0.3470 C.ar  1 <1>   0.1600 
 17 C       -6.4010    -3.9130     1.8860 C.ar  1 <1>  -0.1500 
 18 C       -6.1300    -4.8880     0.9510 C.ar  1 <1>  -0.1500 
 19 H       -1.3800    -0.9710     1.9810 H     1 <1>   0.0800 
 20 H       -0.4730     0.1910     1.0590 H     1 <1>   0.0800 
 21 H       -0.3740    -0.1320    -1.2960 H     1 <1>   0.0800 
 22 H       -0.9930    -1.6520    -1.8870 H     1 <1>   0.0800 
 23 H       -2.6490     0.9460     2.0570 H     1 <1>   0.0800 
 24 H       -2.4460    -0.1560    -2.8190 H     1 <1>   0.0800 
 25 H       -1.5400     2.0470     0.2230 H     1 <1>   0.4500 
 26 H       -4.6430     0.1030     1.6730 H     1 <1>   0.0800 
 27 H       -3.7660    -1.3200     1.2330 H     1 <1>   0.0800 
 28 H       -3.5320    -1.9400    -1.0830 H     1 <1>   0.0800 
 29 H       -4.3730    -1.0440    -2.3030 H     1 <1>   0.0800 
 30 H       -3.6160     1.6550    -1.6910 H     1 <1>   0.0800 
 31 H       -1.9160     1.8990    -1.9270 H     1 <1>   0.0800 
 32 H       -4.4770     2.3630     0.2920 H     1 <1>   0.0800 
 33 H       -3.3360     3.5940    -0.2060 H     1 <1>   0.0800 
 34 H       -3.3620     3.0490     1.4590 H     1 <1>   0.0800 
 35 H       -6.5960    -0.2750     0.3130 H     1 <1>   0.0800 
 36 H       -6.4190    -0.8130    -1.3170 H     1 <1>   0.0800 
 37 H       -6.5580    -1.8090     2.1410 H     1 <1>   0.1500 
 38 H       -5.6240    -5.2870    -1.0700 H     1 <1>   0.1500 
 39 H       -6.6430    -4.1640     2.9050 H     1 <1>   0.1500 
 40 H       -6.1520    -5.9280     1.2220 H     1 <1>   0.1500 
@<TRIPOS>BOND
  1   1   2  1   
  2   1   3  1   
  3   2   4  1   
  4   2  19  1   
  5   2  20  1   
  6   3   5  1   
  7   3  21  1   
  8   3  22  1   
  9   4   6  1   
 10   4   7  1   
 11   4  23  1   
 12   5   8  1   
 13   5   9  1   
 14   5  24  1   
 15   6   9  1   
 16   6  10  1   
 17   6  25  1   
 18   7  11  1   
 19   7  26  1   
 20   7  27  1   
 21   8  11  1   
 22   8  28  1   
 23   8  29  1   
 24   9  30  1   
 25   9  31  1   
 26  10  32  1   
 27  10  33  1   
 28  10  34  1   
 29  11  12  1   
 30  12  13  1   
 31  12  35  1   
 32  12  36  1   
 33  13  14  ar  
 34  13  15  ar  
 35  14  16  ar  
 36  15  17  ar  
 37  15  37  1   
 38  16  18  ar  
 39  16  38  1   
 40  17  18  ar  
 41  17  39  1   
 42  18  40  1   
@<TRIPOS>SUBSTRUCTURE
  1 ****  11 GROUP 4 **** **** 0

# MOE 2024.06 (io_trps.svl 2023.06)
