@<TRIPOS>MOLECULE
NONAME
43 45 1 0 0 
SMALL
USER_CHARGES


@<TRIPOS>ATOM
  1 O        0.0950     0.0290    -0.0160 O.2   1 <1>  -0.5700 
  2 C        1.1600    -0.5390    -0.1550 C.2   1 <1>   0.5440 
  3 N        2.2790     0.2290    -0.2650 N.am  1 <1>  -0.7300 
  4 C        1.2320    -1.9840    -0.1860 C.ar  1 <1>   0.0860 
  5 C        2.3070     1.7160    -0.1670 C.3   1 <1>   0.2840 
  6 C        2.3010    -2.6550    -0.7770 C.ar  1 <1>   0.1600 
  7 C        0.2340    -2.7770     0.3710 C.ar  1 <1>  -0.1500 
  8 C        3.7320     2.2790    -0.0750 C.ar  1 <1>   0.4760 
  9 N        2.4600    -3.9650    -0.8420 N.ar  1 <1>  -0.6200 
 10 C        0.3740    -4.1450     0.3130 C.ar  1 <1>  -0.1500 
 11 N        3.8260     3.5970    -0.0880 N.ar  1 <1>  -0.6200 
 12 N        4.7300     1.4070     0.0080 N.ar  1 <1>  -0.6200 
 13 C        1.4990    -4.6960    -0.2980 C.ar  1 <1>   0.3930 
 14 C        5.0410     4.0910    -0.0130 C.ar  1 <1>   0.1670 
 15 C        5.9380     1.9160     0.0870 C.ar  1 <1>   0.1670 
 16 O        1.6980    -6.0240    -0.3830 O.3   1 <1>  -0.3630 
 17 C        6.1580     3.2810     0.0720 C.ar  1 <1>  -0.1430 
 18 C        5.1370     5.6100    -0.0400 C.3   1 <1>  -0.0170 
 19 C        7.0670     0.9050     0.1930 C.3   1 <1>  -0.0970 
 20 C        0.7880    -6.9790     0.1160 C.3   1 <1>   0.0400 
 21 C        7.5670     3.8720     0.1540 C.3   1 <1>  -0.0170 
 22 C        6.5080     6.1400     0.3990 C.3   1 <1>  -0.1600 
 23 C        7.6250     5.3420    -0.2760 C.3   1 <1>  -0.1600 
 24 H        3.2250    -0.1630    -0.2010 H     1 <1>   0.3700 
 25 H        1.7580     2.0240     0.7050 H     1 <1>   0.0800 
 26 H        1.8240     2.1340    -1.0310 H     1 <1>   0.0800 
 27 H        3.0780    -2.0670    -1.2340 H     1 <1>   0.1500 
 28 H       -0.6240    -2.3190     0.8340 H     1 <1>   0.1500 
 29 H       -0.3880    -4.7670     0.7390 H     1 <1>   0.1500 
 30 H        4.3760     6.0260     0.5970 H     1 <1>   0.0800 
 31 H        4.9350     5.9350    -1.0450 H     1 <1>   0.0800 
 32 H        6.6900    -0.0340     0.5570 H     1 <1>   0.0800 
 33 H        7.8240     1.2440     0.8740 H     1 <1>   0.0800 
 34 H        7.5010     0.7470    -0.7770 H     1 <1>   0.0800 
 35 H        1.1880    -7.9560    -0.0900 H     1 <1>   0.0800 
 36 H       -0.1560    -6.8590    -0.3850 H     1 <1>   0.0800 
 37 H        0.6860    -6.8430     1.1780 H     1 <1>   0.0800 
 38 H        8.2420     3.3100    -0.4680 H     1 <1>   0.0800 
 39 H        7.9080     3.7920     1.1710 H     1 <1>   0.0800 
 40 H        6.5990     6.0510     1.4680 H     1 <1>   0.0800 
 41 H        6.5900     7.1820     0.1430 H     1 <1>   0.0800 
 42 H        7.5170     5.4080    -1.3460 H     1 <1>   0.0800 
 43 H        8.5830     5.7560    -0.0130 H     1 <1>   0.0800 
@<TRIPOS>BOND
  1   1   2  2   
  2   2   3  am  
  3   2   4  1   
  4   3   5  1   
  5   3  24  1   
  6   4   6  ar  
  7   4   7  ar  
  8   5   8  1   
  9   5  25  1   
 10   5  26  1   
 11   6   9  ar  
 12   6  27  1   
 13   7  10  ar  
 14   7  28  1   
 15   8  11  ar  
 16   8  12  ar  
 17   9  13  ar  
 18  10  13  ar  
 19  10  29  1   
 20  11  14  ar  
 21  12  15  ar  
 22  13  16  1   
 23  14  17  ar  
 24  14  18  1   
 25  15  17  ar  
 26  15  19  1   
 27  16  20  1   
 28  17  21  1   
 29  18  22  1   
 30  18  30  1   
 31  18  31  1   
 32  19  32  1   
 33  19  33  1   
 34  19  34  1   
 35  20  35  1   
 36  20  36  1   
 37  20  37  1   
 38  21  23  1   
 39  21  38  1   
 40  21  39  1   
 41  22  23  1   
 42  22  40  1   
 43  22  41  1   
 44  23  42  1   
 45  23  43  1   
@<TRIPOS>SUBSTRUCTURE
  1 ****   3 GROUP 4 **** **** 0

# MOE 2024.06 (io_trps.svl 2023.06)
