@<TRIPOS>MOLECULE
NONAME
55 57 1 0 0 
SMALL
USER_CHARGES


@<TRIPOS>ATOM
  1 O       -0.8970    -0.6420     0.3240 O.3   1 <1>  -0.3630 
  2 C       -2.1590    -0.9570     0.6990 C.ar  1 <1>   0.0830 
  3 C       -0.5580     0.6610    -0.1030 C.3   1 <1>   0.1200 
  4 C       -2.3680    -2.2600     1.1200 C.ar  1 <1>  -0.1500 
  5 C       -3.2240    -0.0620     0.6800 C.ar  1 <1>  -0.1500 
  6 C        0.9330     0.7080    -0.4680 C.3   1 <1>  -0.0800 
  7 C       -3.6290    -2.6830     1.5120 C.ar  1 <1>  -0.1430 
  8 C       -4.4810    -0.4780     1.0790 C.ar  1 <1>  -0.1500 
  9 C        1.3370     2.1350    -0.8600 C.3   1 <1>  -0.2400 
 10 C        1.2710    -0.2570    -1.6140 C.3   1 <1>  -0.2400 
 11 C       -4.6850    -1.7830     1.4940 C.ar  1 <1>  -0.1500 
 12 C       -3.8550    -4.1170     1.9500 C.3   1 <1>   0.4860 
 13 N       -3.7220    -5.0110     0.7690 N.4   1 <1>  -0.9590 
 14 C       -4.7810    -4.7170    -0.2490 C.3   1 <1>   0.3430 
 15 C       -3.8880    -6.4430     1.1710 C.3   1 <1>   0.3430 
 16 C       -5.8420    -5.8050    -0.0670 C.3   1 <1>   0.2000 
 17 C       -5.0160    -7.0300     0.3090 C.3   1 <1>  -0.0800 
 18 O       -6.6380    -5.4660     1.0230 O.3   1 <1>  -0.6800 
 19 C       -4.4730    -7.7530    -0.9400 C.3   1 <1>   0.0210 
 20 C       -3.6180    -8.9430    -0.5590 C.2   1 <1>   0.1080 
 21 N       -2.4040    -8.8200    -0.1200 N.2   1 <1>  -0.7070 
 22 C       -4.0190   -10.2720    -0.6370 C.2   1 <1>  -0.1500 
 23 N       -1.9870   -10.0880     0.0840 N.pl3 1 <1>   0.3000 
 24 C       -2.9520   -10.9810    -0.2160 C.2   1 <1>  -0.3320 
 25 C       -2.7890   -12.4850    -0.0870 C.3   1 <1>  -0.0600 
 26 H       -1.1630     0.9060    -0.9590 H     1 <1>   0.0800 
 27 H       -0.7680     1.3430     0.7030 H     1 <1>   0.0800 
 28 H       -1.5230    -2.9240     1.1340 H     1 <1>   0.1500 
 29 H       -3.0930     0.9560     0.3630 H     1 <1>   0.1500 
 30 H        1.5010     0.4270     0.4040 H     1 <1>   0.0800 
 31 H       -5.3030     0.2190     1.0690 H     1 <1>   0.1500 
 32 H        0.7930     2.4600    -1.7300 H     1 <1>   0.0800 
 33 H        2.3890     2.1770    -1.0790 H     1 <1>   0.0800 
 34 H        1.1350     2.8170    -0.0520 H     1 <1>   0.0800 
 35 H        0.7090    -0.0100    -2.4980 H     1 <1>   0.0800 
 36 H        1.0390    -1.2690    -1.3330 H     1 <1>   0.0800 
 37 H        2.3200    -0.2080    -1.8480 H     1 <1>   0.0800 
 38 H       -5.6730    -2.0850     1.8010 H     1 <1>   0.1500 
 39 H       -4.8400    -4.2170     2.3780 H     1 <1>   0.0800 
 40 H       -3.1270    -4.3800     2.7000 H     1 <1>   0.0800 
 41 H       -2.7950    -4.8570     0.3540 H     1 <1>   0.4500 
 42 H       -5.2070    -3.7350    -0.1330 H     1 <1>   0.0800 
 43 H       -4.3580    -4.7990    -1.2360 H     1 <1>   0.0800 
 44 H       -2.9650    -6.9840     1.0550 H     1 <1>   0.0800 
 45 H       -4.1850    -6.4980     2.2060 H     1 <1>   0.0800 
 46 H       -6.4680    -5.9320    -0.9350 H     1 <1>   0.0800 
 47 H       -5.5930    -7.7360     0.8800 H     1 <1>   0.0800 
 48 H       -7.4230    -6.0530     1.0840 H     1 <1>   0.4000 
 49 H       -3.8750    -7.0920    -1.5420 H     1 <1>   0.0800 
 50 H       -5.2920    -8.0990    -1.5450 H     1 <1>   0.0800 
 51 H       -4.9760   -10.6360    -0.9680 H     1 <1>   0.1500 
 52 H       -1.0420   -10.3150     0.4210 H     1 <1>   0.2700 
 53 H       -3.6940   -12.9830    -0.3880 H     1 <1>   0.0800 
 54 H       -2.5760   -12.7530     0.9330 H     1 <1>   0.0800 
 55 H       -1.9860   -12.8290    -0.7150 H     1 <1>   0.0800 
@<TRIPOS>BOND
  1   1   2  1   
  2   1   3  1   
  3   2   4  ar  
  4   2   5  ar  
  5   3   6  1   
  6   3  26  1   
  7   3  27  1   
  8   4   7  ar  
  9   4  28  1   
 10   5   8  ar  
 11   5  29  1   
 12   6   9  1   
 13   6  10  1   
 14   6  30  1   
 15   7  11  ar  
 16   7  12  1   
 17   8  11  ar  
 18   8  31  1   
 19   9  32  1   
 20   9  33  1   
 21   9  34  1   
 22  10  35  1   
 23  10  36  1   
 24  10  37  1   
 25  11  38  1   
 26  12  13  1   
 27  12  39  1   
 28  12  40  1   
 29  13  14  1   
 30  13  15  1   
 31  13  41  1   
 32  14  16  1   
 33  14  42  1   
 34  14  43  1   
 35  15  17  1   
 36  15  44  1   
 37  15  45  1   
 38  16  17  1   
 39  16  18  1   
 40  16  46  1   
 41  17  19  1   
 42  17  47  1   
 43  18  48  1   
 44  19  20  1   
 45  19  49  1   
 46  19  50  1   
 47  20  21  2   
 48  20  22  1   
 49  21  23  1   
 50  22  24  2   
 51  22  51  1   
 52  23  24  1   
 53  23  52  1   
 54  24  25  1   
 55  25  53  1   
 56  25  54  1   
 57  25  55  1   
@<TRIPOS>SUBSTRUCTURE
  1 ****  13 GROUP 4 **** **** 0

# MOE 2024.06 (io_trps.svl 2023.06)
