@<TRIPOS>MOLECULE
NONAME
40 42 1 0 0 
SMALL
USER_CHARGES


@<TRIPOS>ATOM
  1 CL       0.0570     1.8020    -2.1830 Cl    1 <1>  -0.1770 
  2 C        1.4080     1.8980    -1.0790 C.ar  1 <1>   0.1770 
  3 C        1.9740     0.7500    -0.5520 C.ar  1 <1>   0.1770 
  4 C        1.9040     3.1430    -0.7420 C.ar  1 <1>  -0.1500 
  5 CL       1.3630    -0.8300    -0.9730 Cl    1 <1>  -0.1770 
  6 C        3.0410     0.8450     0.3210 C.ar  1 <1>  -0.1500 
  7 C        2.9880     3.2700     0.1290 C.ar  1 <1>   0.0860 
  8 C        3.5360     2.0950     0.6570 C.ar  1 <1>  -0.1500 
  9 C        3.5130     4.5800     0.4770 C.2   1 <1>   0.5440 
 10 O        2.7690     5.5390     0.5470 O.2   1 <1>  -0.5700 
 11 N        4.8530     4.8060     0.6970 N.am  1 <1>  -0.6600 
 12 C        5.2920     5.8330     1.7010 C.3   1 <1>   0.1400 
 13 C        5.9130     4.2080    -0.1650 C.3   1 <1>   0.1400 
 14 C        6.0330     7.0840     1.1450 C.3   1 <1>   0.4230 
 15 C        6.5500     5.2680    -1.0910 C.3   1 <1>  -0.0800 
 16 N        5.6460     7.5340    -0.2510 N.4   1 <1>  -0.9590 
 17 C        7.5670     6.9480     1.2770 C.3   1 <1>   0.1200 
 18 C        7.9780     5.6520    -0.6750 C.3   1 <1>   0.1200 
 19 C        5.6250     6.4770    -1.3200 C.3   1 <1>   0.3430 
 20 C        4.3140     8.2170    -0.2180 C.3   1 <1>   0.2630 
 21 O        8.0690     5.7800     0.7060 O.3   1 <1>  -0.5600 
 22 H        1.4410     4.0220    -1.1550 H     1 <1>   0.1500 
 23 H        3.4720    -0.0510     0.7330 H     1 <1>   0.1500 
 24 H        4.3600     2.1630     1.3480 H     1 <1>   0.1500 
 25 H        4.4280     6.1800     2.2410 H     1 <1>   0.0800 
 26 H        5.9210     5.3490     2.4280 H     1 <1>   0.0800 
 27 H        6.6590     3.7360     0.4530 H     1 <1>   0.0800 
 28 H        5.4780     3.4380    -0.7790 H     1 <1>   0.0800 
 29 H        5.7790     7.8900     1.8130 H     1 <1>   0.0800 
 30 H        6.6500     4.7960    -2.0530 H     1 <1>   0.0800 
 31 H        6.3470     8.2290    -0.5350 H     1 <1>   0.4500 
 32 H        7.8230     6.9060     2.3220 H     1 <1>   0.0800 
 33 H        8.0750     7.7940     0.8490 H     1 <1>   0.0800 
 34 H        8.3190     6.5580    -1.1480 H     1 <1>   0.0800 
 35 H        8.6540     4.8580    -0.9490 H     1 <1>   0.0800 
 36 H        4.6180     6.1030    -1.4200 H     1 <1>   0.0800 
 37 H        5.8830     6.9350    -2.2600 H     1 <1>   0.0800 
 38 H        3.5460     7.5320     0.0970 H     1 <1>   0.0800 
 39 H        4.0570     8.5880    -1.1970 H     1 <1>   0.0800 
 40 H        4.3320     9.0470     0.4690 H     1 <1>   0.0800 
@<TRIPOS>BOND
  1   1   2  1   
  2   2   3  ar  
  3   2   4  ar  
  4   3   5  1   
  5   3   6  ar  
  6   4   7  ar  
  7   4  22  1   
  8   6   8  ar  
  9   6  23  1   
 10   7   8  ar  
 11   7   9  1   
 12   8  24  1   
 13   9  10  2   
 14   9  11  am  
 15  11  12  1   
 16  11  13  1   
 17  12  14  1   
 18  12  25  1   
 19  12  26  1   
 20  13  15  1   
 21  13  27  1   
 22  13  28  1   
 23  14  16  1   
 24  14  17  1   
 25  14  29  1   
 26  15  18  1   
 27  15  19  1   
 28  15  30  1   
 29  16  19  1   
 30  16  20  1   
 31  16  31  1   
 32  17  21  1   
 33  17  32  1   
 34  17  33  1   
 35  18  21  1   
 36  18  34  1   
 37  18  35  1   
 38  19  36  1   
 39  19  37  1   
 40  20  38  1   
 41  20  39  1   
 42  20  40  1   
@<TRIPOS>SUBSTRUCTURE
  1 ****   9 GROUP 4 **** **** 0

# MOE 2024.06 (io_trps.svl 2023.06)
