@<TRIPOS>MOLECULE
NONAME
36 37 1 0 0 
SMALL
USER_CHARGES


@<TRIPOS>ATOM
  1 F        0.0380    -0.8300     1.7560 F     1 <1>  -0.1900 
  2 C       -0.0730    -1.9620     1.1160 C.ar  1 <1>   0.1900 
  3 C        0.4550    -3.1040     1.6850 C.ar  1 <1>  -0.1500 
  4 C       -0.7140    -1.9760    -0.1070 C.ar  1 <1>  -0.1500 
  5 C        0.3300    -4.3040     1.0050 C.ar  1 <1>  -0.1500 
  6 C       -0.8340    -3.1800    -0.7810 C.ar  1 <1>  -0.1500 
  7 C       -0.3200    -4.3480    -0.2250 C.ar  1 <1>  -0.1430 
  8 C       -0.4710    -5.6680    -0.9570 C.3   1 <1>   0.4870 
  9 N       -1.5390    -6.4590    -0.2890 N.4   1 <1>  -0.9590 
 10 C       -1.5490    -7.8760    -0.7860 C.3   1 <1>   0.3430 
 11 C       -2.8750    -5.8090    -0.4370 C.3   1 <1>   0.3430 
 12 C       -2.6290    -8.7320    -0.0980 C.3   1 <1>   0.2000 
 13 C       -3.9350    -6.6170     0.3100 C.3   1 <1>  -0.1600 
 14 O       -2.6480    -9.9560    -0.7410 O.3   1 <1>  -0.6800 
 15 C       -4.0180    -8.0760    -0.1920 C.3   1 <1>  -0.0800 
 16 C       -5.0800    -8.8850     0.5760 C.3   1 <1>   0.1200 
 17 O       -6.2950    -8.2310     0.4750 O.3   1 <1>  -0.6800 
 18 H        0.9530    -3.0460     2.6370 H     1 <1>   0.1500 
 19 H       -1.1040    -1.0610    -0.5170 H     1 <1>   0.1500 
 20 H        0.7510    -5.1920     1.4460 H     1 <1>   0.1500 
 21 H       -1.3280    -3.1900    -1.7380 H     1 <1>   0.1500 
 22 H        0.4660    -6.2010    -0.9190 H     1 <1>   0.0800 
 23 H       -0.7230    -5.4940    -1.9900 H     1 <1>   0.0800 
 24 H       -1.3160    -6.4570     0.7140 H     1 <1>   0.4500 
 25 H       -1.7470    -7.8790    -1.8460 H     1 <1>   0.0800 
 26 H       -0.5880    -8.3330    -0.6170 H     1 <1>   0.0800 
 27 H       -2.8460    -4.8060    -0.0370 H     1 <1>   0.0800 
 28 H       -3.1420    -5.7500    -1.4800 H     1 <1>   0.0800 
 29 H       -2.3540    -8.9050     0.9290 H     1 <1>   0.0800 
 30 H       -3.7320    -6.5930     1.3670 H     1 <1>   0.0800 
 31 H       -4.8830    -6.1310     0.1600 H     1 <1>   0.0800 
 32 H       -3.2630   -10.5860    -0.3120 H     1 <1>   0.4000 
 33 H       -4.3070    -8.0570    -1.2300 H     1 <1>   0.0800 
 34 H       -4.8310    -8.9680     1.6200 H     1 <1>   0.0800 
 35 H       -5.2000    -9.8680     0.1520 H     1 <1>   0.0800 
 36 H       -7.0110    -8.7420     0.9050 H     1 <1>   0.4000 
@<TRIPOS>BOND
  1   1   2  1   
  2   2   3  ar  
  3   2   4  ar  
  4   3   5  ar  
  5   3  18  1   
  6   4   6  ar  
  7   4  19  1   
  8   5   7  ar  
  9   5  20  1   
 10   6   7  ar  
 11   6  21  1   
 12   7   8  1   
 13   8   9  1   
 14   8  22  1   
 15   8  23  1   
 16   9  10  1   
 17   9  11  1   
 18   9  24  1   
 19  10  12  1   
 20  10  25  1   
 21  10  26  1   
 22  11  13  1   
 23  11  27  1   
 24  11  28  1   
 25  12  14  1   
 26  12  15  1   
 27  12  29  1   
 28  13  15  1   
 29  13  30  1   
 30  13  31  1   
 31  14  32  1   
 32  15  16  1   
 33  15  33  1   
 34  16  17  1   
 35  16  34  1   
 36  16  35  1   
 37  17  36  1   
@<TRIPOS>SUBSTRUCTURE
  1 ****   9 GROUP 4 **** **** 0

# MOE 2024.06 (io_trps.svl 2023.06)
