@<TRIPOS>MOLECULE
NONAME
55 57 1 0 0 
SMALL
USER_CHARGES


@<TRIPOS>ATOM
  1 O       -0.2020     0.0460     0.1790 O.2   1 <1>  -0.5700 
  2 C       -0.1620     1.2620     0.2240 C.2   1 <1>   0.6900 
  3 N       -1.3210     1.9950     0.2610 N.am  1 <1>  -0.6600 
  4 N        1.0280     1.9310     0.2100 N.am  1 <1>  -0.5470 
  5 C       -2.6280     1.3430    -0.0410 C.3   1 <1>   0.1400 
  6 C       -1.3690     3.4150     0.7170 C.3   1 <1>   0.1400 
  7 C        2.3530     1.4740     0.2700 C.ar  1 <1>   0.1170 
  8 C       -3.5790     2.3450    -0.7010 C.3   1 <1>  -0.1600 
  9 C       -2.7590     3.7590     1.2540 C.3   1 <1>  -0.1600 
 10 C        3.3590     2.2750    -0.2570 C.ar  1 <1>  -0.1500 
 11 C        2.7070     0.2630     0.8580 C.ar  1 <1>  -0.1500 
 12 C       -3.8400     3.6110     0.1610 C.3   1 <1>   0.2800 
 13 C        4.6850     1.8830    -0.2080 C.ar  1 <1>   0.0830 
 14 C        4.0280    -0.1490     0.8980 C.ar  1 <1>  -0.1500 
 15 O       -3.6790     4.6990    -0.7260 O.3   1 <1>  -0.5600 
 16 C       -5.2610     3.6510     0.8080 C.3   1 <1>   0.2000 
 17 O        5.6060     2.7390    -0.7180 O.3   1 <1>  -0.3630 
 18 C        5.0210     0.6460     0.3530 C.ar  1 <1>   0.0830 
 19 C       -4.3440     5.8920    -0.4260 C.3   1 <1>   0.1200 
 20 O       -5.6840     2.4030     1.2770 O.3   1 <1>  -0.6800 
 21 C       -6.3240     4.2930    -0.1230 C.3   1 <1>   0.2800 
 22 C        6.5670     3.2460     0.1830 C.3   1 <1>   0.0400 
 23 O        6.2940     0.1740     0.3830 O.3   1 <1>  -0.3630 
 24 C       -5.8630     5.6970    -0.5600 C.3   1 <1>  -0.1600 
 25 O       -7.4920     4.4350     0.6070 O.3   1 <1>  -0.6800 
 26 C       -6.7070     3.4420    -1.3420 C.3   1 <1>  -0.2400 
 27 C        6.8280    -0.2030    -0.8660 C.3   1 <1>   0.0400 
 28 H        0.9120     2.9110    -0.0180 H     1 <1>   0.3700 
 29 H       -2.4750     0.5060    -0.7020 H     1 <1>   0.0800 
 30 H       -3.0600     0.9710     0.8730 H     1 <1>   0.0800 
 31 H       -0.6410     3.5690     1.4950 H     1 <1>   0.0800 
 32 H       -1.1360     4.0600    -0.1130 H     1 <1>   0.0800 
 33 H       -4.4960     1.8290    -0.9090 H     1 <1>   0.0800 
 34 H       -3.1510     2.6240    -1.6470 H     1 <1>   0.0800 
 35 H       -2.7560     4.7570     1.6500 H     1 <1>   0.0800 
 36 H       -2.9780     3.0970     2.0730 H     1 <1>   0.0800 
 37 H        3.1180     3.2160    -0.7120 H     1 <1>   0.1500 
 38 H        1.9470    -0.3650     1.2860 H     1 <1>   0.1500 
 39 H        4.2900    -1.0900     1.3460 H     1 <1>   0.1500 
 40 H       -5.1970     4.2790     1.6800 H     1 <1>   0.0800 
 41 H       -4.0810     6.1950     0.5730 H     1 <1>   0.0800 
 42 H       -4.0000     6.6450    -1.1130 H     1 <1>   0.0800 
 43 H       -6.6290     2.4950     1.5250 H     1 <1>   0.4000 
 44 H        7.1080     4.0330    -0.3110 H     1 <1>   0.0800 
 45 H        7.2430     2.4600     0.4650 H     1 <1>   0.0800 
 46 H        6.0610     3.6340     1.0500 H     1 <1>   0.0800 
 47 H       -6.1330     5.8760    -1.5850 H     1 <1>   0.0800 
 48 H       -6.3400     6.4560     0.0340 H     1 <1>   0.0800 
 49 H       -8.1970     4.7800     0.0270 H     1 <1>   0.4000 
 50 H       -5.8730     3.3660    -2.0150 H     1 <1>   0.0800 
 51 H       -7.5210     3.8890    -1.8830 H     1 <1>   0.0800 
 52 H       -6.9890     2.4490    -1.0400 H     1 <1>   0.0800 
 53 H        7.8100    -0.6100    -0.7040 H     1 <1>   0.0800 
 54 H        6.8900     0.6630    -1.5020 H     1 <1>   0.0800 
 55 H        6.1880    -0.9450    -1.3080 H     1 <1>   0.0800 
@<TRIPOS>BOND
  1   1   2  2   
  2   2   3  am  
  3   2   4  am  
  4   3   5  1   
  5   3   6  1   
  6   4   7  1   
  7   4  28  1   
  8   5   8  1   
  9   5  29  1   
 10   5  30  1   
 11   6   9  1   
 12   6  31  1   
 13   6  32  1   
 14   7  10  ar  
 15   7  11  ar  
 16   8  12  1   
 17   8  33  1   
 18   8  34  1   
 19   9  12  1   
 20   9  35  1   
 21   9  36  1   
 22  10  13  ar  
 23  10  37  1   
 24  11  14  ar  
 25  11  38  1   
 26  12  15  1   
 27  12  16  1   
 28  13  17  1   
 29  13  18  ar  
 30  14  18  ar  
 31  14  39  1   
 32  15  19  1   
 33  16  20  1   
 34  16  21  1   
 35  16  40  1   
 36  17  22  1   
 37  18  23  1   
 38  19  24  1   
 39  19  41  1   
 40  19  42  1   
 41  20  43  1   
 42  21  24  1   
 43  21  25  1   
 44  21  26  1   
 45  22  44  1   
 46  22  45  1   
 47  22  46  1   
 48  23  27  1   
 49  24  47  1   
 50  24  48  1   
 51  25  49  1   
 52  26  50  1   
 53  26  51  1   
 54  26  52  1   
 55  27  53  1   
 56  27  54  1   
 57  27  55  1   
@<TRIPOS>SUBSTRUCTURE
  1 ****   3 GROUP 4 **** **** 0

# MOE 2024.06 (io_trps.svl 2023.06)
