@<TRIPOS>MOLECULE
NONAME
53 55 1 0 0 
SMALL
USER_CHARGES


@<TRIPOS>ATOM
  1 O       -0.2340     1.1310     0.7900 O.2   1 <1>  -0.5700 
  2 C       -0.2120     2.3160     0.5790 C.2   1 <1>   0.5690 
  3 N       -1.1660     3.1260     1.0870 N.am  1 <1>  -0.7300 
  4 C        0.8870     2.9220    -0.2970 C.3   1 <1>   0.1810 
  5 C       -1.2270     4.5870     0.8380 C.3   1 <1>   0.3640 
  6 O        1.0210     4.3150    -0.1120 O.3   1 <1>  -0.5600 
  7 C       -2.6540     4.9490     0.4380 C.ar  1 <1>  -0.1440 
  8 C       -0.2000     5.0410    -0.2300 C.3   1 <1>   0.2610 
  9 C       -3.2690     6.0500     1.0160 C.ar  1 <1>  -0.1500 
 10 C       -3.3560     4.2060    -0.5020 C.ar  1 <1>  -0.1500 
 11 C        0.0570     6.5420    -0.0800 C.2   1 <1>   0.5690 
 12 C       -4.5570     6.4080     0.6620 C.ar  1 <1>   0.0830 
 13 C       -4.6510     4.5510    -0.8540 C.ar  1 <1>  -0.1500 
 14 O       -0.7150     7.3330    -0.5680 O.2   1 <1>  -0.5700 
 15 N        1.1600     6.9500     0.6030 N.am  1 <1>  -0.7300 
 16 O       -5.0850     7.5010     1.2650 O.3   1 <1>  -0.3630 
 17 C       -5.2710     5.6540    -0.2730 C.ar  1 <1>   0.0830 
 18 C        1.5990     8.3500     0.7850 C.3   1 <1>   0.1400 
 19 C       -5.2390     8.6420     0.4520 C.3   1 <1>   0.0400 
 20 O       -6.5490     6.0230    -0.5760 O.3   1 <1>  -0.3630 
 21 C        2.7720     8.6660    -0.1540 C.3   1 <1>  -0.0800 
 22 C       -7.3660     5.2380    -1.4150 C.3   1 <1>   0.0400 
 23 C        3.9890     7.7530     0.0890 C.3   1 <1>  -0.1600 
 24 C        3.2020    10.1330     0.0020 C.3   1 <1>  -0.1600 
 25 C        5.1900     8.2060    -0.7480 C.3   1 <1>   0.1200 
 26 C        4.4520    10.4320    -0.8320 C.3   1 <1>   0.1200 
 27 O        5.4650     9.5440    -0.4750 O.3   1 <1>  -0.5600 
 28 H       -1.9150     2.7180     1.6480 H     1 <1>   0.3700 
 29 H        0.6670     2.7340    -1.3320 H     1 <1>   0.0800 
 30 H        1.8290     2.4660    -0.0520 H     1 <1>   0.0800 
 31 H       -0.9910     5.0850     1.7640 H     1 <1>   0.0800 
 32 H       -0.5950     4.8660    -1.2140 H     1 <1>   0.0800 
 33 H       -2.7560     6.6540     1.7420 H     1 <1>   0.1500 
 34 H       -2.9010     3.3480    -0.9670 H     1 <1>   0.1500 
 35 H       -5.1570     3.9470    -1.5820 H     1 <1>   0.1500 
 36 H        1.8340     6.2260     0.8700 H     1 <1>   0.3700 
 37 H        0.7780     9.0140     0.5720 H     1 <1>   0.0800 
 38 H        1.8930     8.4980     1.8100 H     1 <1>   0.0800 
 39 H       -5.5430     9.4610     1.0770 H     1 <1>   0.0800 
 40 H       -5.9920     8.4470    -0.2900 H     1 <1>   0.0800 
 41 H       -4.2970     8.8630    -0.0190 H     1 <1>   0.0800 
 42 H        2.4340     8.5270    -1.1680 H     1 <1>   0.0800 
 43 H       -8.3350     5.7010    -1.4640 H     1 <1>   0.0800 
 44 H       -7.4530     4.2520    -0.9930 H     1 <1>   0.0800 
 45 H       -6.9270     5.2030    -2.3960 H     1 <1>   0.0800 
 46 H        3.7510     6.7370    -0.1710 H     1 <1>   0.0800 
 47 H        4.2690     7.7760     1.1280 H     1 <1>   0.0800 
 48 H        3.4230    10.3490     1.0330 H     1 <1>   0.0800 
 49 H        2.4050    10.7840    -0.3090 H     1 <1>   0.0800 
 50 H        4.9950     8.1020    -1.8020 H     1 <1>   0.0800 
 51 H        6.0650     7.6330    -0.4950 H     1 <1>   0.0800 
 52 H        4.8070    11.4290    -0.6380 H     1 <1>   0.0800 
 53 H        4.2570    10.3270    -1.8860 H     1 <1>   0.0800 
@<TRIPOS>BOND
  1   1   2  2   
  2   2   3  am  
  3   2   4  1   
  4   3   5  1   
  5   3  28  1   
  6   4   6  1   
  7   4  29  1   
  8   4  30  1   
  9   5   7  1   
 10   5   8  1   
 11   5  31  1   
 12   6   8  1   
 13   7   9  ar  
 14   7  10  ar  
 15   8  11  1   
 16   8  32  1   
 17   9  12  ar  
 18   9  33  1   
 19  10  13  ar  
 20  10  34  1   
 21  11  14  2   
 22  11  15  am  
 23  12  16  1   
 24  12  17  ar  
 25  13  17  ar  
 26  13  35  1   
 27  15  18  1   
 28  15  36  1   
 29  16  19  1   
 30  17  20  1   
 31  18  21  1   
 32  18  37  1   
 33  18  38  1   
 34  19  39  1   
 35  19  40  1   
 36  19  41  1   
 37  20  22  1   
 38  21  23  1   
 39  21  24  1   
 40  21  42  1   
 41  22  43  1   
 42  22  44  1   
 43  22  45  1   
 44  23  25  1   
 45  23  46  1   
 46  23  47  1   
 47  24  26  1   
 48  24  48  1   
 49  24  49  1   
 50  25  27  1   
 51  25  50  1   
 52  25  51  1   
 53  26  27  1   
 54  26  52  1   
 55  26  53  1   
@<TRIPOS>SUBSTRUCTURE
  1 ****  11 GROUP 4 **** **** 0

# MOE 2024.06 (io_trps.svl 2023.06)
