@<TRIPOS>MOLECULE
NONAME
46 49 1 0 0 
SMALL
USER_CHARGES


@<TRIPOS>ATOM
  1 O       -1.7130     1.7700     0.7490 O.2   1 <1>  -0.5700 
  2 C       -0.9980     2.7170     0.5400 C.2   1 <1>   0.5690 
  3 N        0.2250     2.5600    -0.0210 N.am  1 <1>  -0.5470 
  4 C       -1.4640     4.1340     0.8740 C.3   1 <1>   0.1810 
  5 C        1.0970     3.6270    -0.2160 C.ar  1 <1>   0.1170 
  6 O       -0.4030     5.0940     0.9630 O.3   1 <1>  -0.3630 
  7 C        0.7610     4.8880     0.2850 C.ar  1 <1>   0.0830 
  8 C        2.3000     3.4780    -0.8880 C.ar  1 <1>  -0.1500 
  9 C        1.6150     5.9610     0.1150 C.ar  1 <1>  -0.1500 
 10 C        3.1470     4.5600    -1.0550 C.ar  1 <1>  -0.1500 
 11 C        2.8330     5.8290    -0.5580 C.ar  1 <1>   0.0860 
 12 C        3.7360     6.9530    -0.7390 C.2   1 <1>   0.5440 
 13 O        4.7720     6.8580    -1.3720 O.2   1 <1>  -0.5700 
 14 N        3.4890     8.1850    -0.1900 N.am  1 <1>  -0.6600 
 15 C        4.1360     8.4970     1.1340 C.3   1 <1>   0.2200 
 16 C        3.1490     9.3010    -1.1230 C.3   1 <1>   0.1400 
 17 C        3.4090     9.6120     1.9040 C.3   1 <1>   0.1200 
 18 C        5.6420     8.8360     0.9750 C.3   1 <1>   0.3430 
 19 C        3.9110    10.6170    -0.8780 C.3   1 <1>  -0.0800 
 20 O        3.8910    10.8670     1.5270 O.3   1 <1>  -0.5600 
 21 N        6.0160     9.2100    -0.4320 N.4   1 <1>  -0.9590 
 22 C        3.3770    11.3800     0.3450 C.3   1 <1>   0.1200 
 23 C        5.4520    10.5190    -0.8880 C.3   1 <1>   0.3430 
 24 C        7.4870     9.1320    -0.6480 C.3   1 <1>   0.2630 
 25 H        0.4920     1.6060    -0.2640 H     1 <1>   0.3700 
 26 H       -1.9790     4.1290     1.8170 H     1 <1>   0.0800 
 27 H       -2.1410     4.4680     0.1100 H     1 <1>   0.0800 
 28 H        2.5750     2.5160    -1.2820 H     1 <1>   0.1500 
 29 H        1.3170     6.9130     0.5150 H     1 <1>   0.1500 
 30 H        4.0750     4.4210    -1.5830 H     1 <1>   0.1500 
 31 H        4.0630     7.6130     1.7440 H     1 <1>   0.0800 
 32 H        3.3410     8.9780    -2.1340 H     1 <1>   0.0800 
 33 H        2.0900     9.4870    -1.0540 H     1 <1>   0.0800 
 34 H        3.6190     9.5090     2.9540 H     1 <1>   0.0800 
 35 H        2.3410     9.5640     1.7690 H     1 <1>   0.0800 
 36 H        6.2030     7.9630     1.2620 H     1 <1>   0.0800 
 37 H        5.9080     9.6290     1.6540 H     1 <1>   0.0800 
 38 H        3.6580    11.2480    -1.7110 H     1 <1>   0.0800 
 39 H        5.5640     8.4620    -1.0080 H     1 <1>   0.4500 
 40 H        2.3000    11.3620     0.3910 H     1 <1>   0.0800 
 41 H        3.6880    12.4100     0.2950 H     1 <1>   0.0800 
 42 H        5.8530    11.3130    -0.2790 H     1 <1>   0.0800 
 43 H        5.7830    10.6900    -1.8990 H     1 <1>   0.0800 
 44 H        7.9940     9.8630    -0.0400 H     1 <1>   0.0800 
 45 H        7.7210     9.3170    -1.6840 H     1 <1>   0.0800 
 46 H        7.8480     8.1510    -0.3880 H     1 <1>   0.0800 
@<TRIPOS>BOND
  1   1   2  2   
  2   2   3  am  
  3   2   4  1   
  4   3   5  1   
  5   3  25  1   
  6   4   6  1   
  7   4  26  1   
  8   4  27  1   
  9   5   7  ar  
 10   5   8  ar  
 11   6   7  1   
 12   7   9  ar  
 13   8  10  ar  
 14   8  28  1   
 15   9  11  ar  
 16   9  29  1   
 17  10  11  ar  
 18  10  30  1   
 19  11  12  1   
 20  12  13  2   
 21  12  14  am  
 22  14  15  1   
 23  14  16  1   
 24  15  17  1   
 25  15  18  1   
 26  15  31  1   
 27  16  19  1   
 28  16  32  1   
 29  16  33  1   
 30  17  20  1   
 31  17  34  1   
 32  17  35  1   
 33  18  21  1   
 34  18  36  1   
 35  18  37  1   
 36  19  22  1   
 37  19  23  1   
 38  19  38  1   
 39  20  22  1   
 40  21  23  1   
 41  21  24  1   
 42  21  39  1   
 43  22  40  1   
 44  22  41  1   
 45  23  42  1   
 46  23  43  1   
 47  24  44  1   
 48  24  45  1   
 49  24  46  1   
@<TRIPOS>SUBSTRUCTURE
  1 ****  11 GROUP 4 **** **** 0

# MOE 2024.06 (io_trps.svl 2023.06)
