@<TRIPOS>MOLECULE
NONAME
62 64 1 0 0 
SMALL
USER_CHARGES


@<TRIPOS>ATOM
  1 O       -0.6630    -0.0270    -0.5680 O.3   1 <1>  -0.6800 
  2 C       -1.9510    -0.5250    -0.4550 C.3   1 <1>   0.1200 
  3 C       -1.8700    -2.0530    -0.3920 C.3   1 <1>   0.1100 
  4 N       -3.2080    -2.6770    -0.2510 N.3   1 <1>  -0.8100 
  5 C       -3.7290    -2.5590     1.1250 C.3   1 <1>   0.1100 
  6 C       -3.1650    -4.0830    -0.6880 C.3   1 <1>   0.1100 
  7 C       -5.1300    -3.1940     1.2450 C.3   1 <1>   0.3430 
  8 C       -4.5580    -4.7370    -0.5990 C.3   1 <1>   0.3430 
  9 N       -5.1450    -4.6380     0.7940 N.4   1 <1>  -0.9590 
 10 C       -6.4810    -5.2760     0.9940 C.3   1 <1>   0.4230 
 11 C       -6.3730    -6.7980     0.8790 C.3   1 <1>  -0.1600 
 12 C       -7.5440    -4.7560     0.0180 C.3   1 <1>  -0.1600 
 13 C       -7.7330    -7.4620     1.1130 C.3   1 <1>   0.3430 
 14 C       -8.8890    -5.4440     0.2640 C.3   1 <1>   0.3430 
 15 N       -8.7520    -6.9340     0.1430 N.4   1 <1>  -0.9590 
 16 C      -10.1240    -7.5780     0.3210 C.3   1 <1>   0.3430 
 17 C      -10.3450    -8.9880    -0.3320 C.3   1 <1>   0.4230 
 18 N      -11.7350    -9.5280    -0.2000 N.4   1 <1>  -0.9590 
 19 C       -9.4880   -10.1020     0.2650 C.3   1 <1>  -0.1600 
 20 C      -11.6350   -10.9890    -0.4960 C.3   1 <1>   0.3430 
 21 C      -12.7580    -8.8650    -1.0610 C.3   1 <1>   0.3430 
 22 C      -10.2510   -11.4000    -0.0100 C.3   1 <1>  -0.1600 
 23 C      -14.1500    -9.2810    -0.6020 C.3   1 <1>  -0.2400 
 24 H       -0.6710     0.9460    -0.6720 H     1 <1>   0.4000 
 25 H       -2.5110    -0.2140    -1.3200 H     1 <1>   0.0800 
 26 H       -2.3860    -0.1150     0.4380 H     1 <1>   0.0800 
 27 H       -1.2340    -2.3490     0.4250 H     1 <1>   0.0800 
 28 H       -1.4160    -2.3850    -1.3110 H     1 <1>   0.0800 
 29 H       -3.8040    -1.5200     1.3930 H     1 <1>   0.0800 
 30 H       -3.0520    -3.0290     1.8190 H     1 <1>   0.0800 
 31 H       -2.4580    -4.6360    -0.0910 H     1 <1>   0.0800 
 32 H       -2.8330    -4.1230    -1.7120 H     1 <1>   0.0800 
 33 H       -5.8070    -2.6140     0.6400 H     1 <1>   0.0800 
 34 H       -5.4540    -3.1230     2.2700 H     1 <1>   0.0800 
 35 H       -4.4730    -5.7680    -0.8960 H     1 <1>   0.0800 
 36 H       -5.2010    -4.2360    -1.3040 H     1 <1>   0.0800 
 37 H       -4.4680    -5.1110     1.4080 H     1 <1>   0.4500 
 38 H       -6.8100    -5.0470     1.9970 H     1 <1>   0.0800 
 39 H       -5.6880    -7.1660     1.6220 H     1 <1>   0.0800 
 40 H       -6.0070    -7.0910    -0.0890 H     1 <1>   0.0800 
 41 H       -7.2540    -4.9230    -1.0040 H     1 <1>   0.0800 
 42 H       -7.6820    -3.6980     0.1560 H     1 <1>   0.0800 
 43 H       -8.0580    -7.2690     2.1250 H     1 <1>   0.0800 
 44 H       -7.6210    -8.5280     1.0000 H     1 <1>   0.0800 
 45 H       -9.6070    -5.0780    -0.4550 H     1 <1>   0.0800 
 46 H       -9.2490    -5.1880     1.2490 H     1 <1>   0.0800 
 47 H       -8.4180    -7.1250    -0.8160 H     1 <1>   0.4500 
 48 H      -10.8590    -6.9200    -0.1120 H     1 <1>   0.0800 
 49 H      -10.3410    -7.6510     1.3740 H     1 <1>   0.0800 
 50 H      -10.1230    -8.9190    -1.3850 H     1 <1>   0.0800 
 51 H      -12.0470    -9.4660     0.7790 H     1 <1>   0.4500 
 52 H       -9.3870    -9.9720     1.3290 H     1 <1>   0.0800 
 53 H       -8.5090   -10.1310    -0.1810 H     1 <1>   0.0800 
 54 H      -11.7070   -11.1590    -1.5600 H     1 <1>   0.0800 
 55 H      -12.4120   -11.5490     0.0020 H     1 <1>   0.0800 
 56 H      -12.6150    -9.1400    -2.0950 H     1 <1>   0.0800 
 57 H      -12.6770    -7.7930    -0.9810 H     1 <1>   0.0800 
 58 H      -10.3300   -12.0000     0.8810 H     1 <1>   0.0800 
 59 H       -9.7650   -11.9910    -0.7680 H     1 <1>   0.0800 
 60 H      -14.3140   -10.3350    -0.7410 H     1 <1>   0.0800 
 61 H      -14.8850    -8.7610    -1.1930 H     1 <1>   0.0800 
 62 H      -14.3150    -9.0220     0.4280 H     1 <1>   0.0800 
@<TRIPOS>BOND
  1   1   2  1   
  2   1  24  1   
  3   2   3  1   
  4   2  25  1   
  5   2  26  1   
  6   3   4  1   
  7   3  27  1   
  8   3  28  1   
  9   4   5  1   
 10   4   6  1   
 11   5   7  1   
 12   5  29  1   
 13   5  30  1   
 14   6   8  1   
 15   6  31  1   
 16   6  32  1   
 17   7   9  1   
 18   7  33  1   
 19   7  34  1   
 20   8   9  1   
 21   8  35  1   
 22   8  36  1   
 23   9  10  1   
 24   9  37  1   
 25  10  11  1   
 26  10  12  1   
 27  10  38  1   
 28  11  13  1   
 29  11  39  1   
 30  11  40  1   
 31  12  14  1   
 32  12  41  1   
 33  12  42  1   
 34  13  15  1   
 35  13  43  1   
 36  13  44  1   
 37  14  15  1   
 38  14  45  1   
 39  14  46  1   
 40  15  16  1   
 41  15  47  1   
 42  16  17  1   
 43  16  48  1   
 44  16  49  1   
 45  17  18  1   
 46  17  19  1   
 47  17  50  1   
 48  18  20  1   
 49  18  21  1   
 50  18  51  1   
 51  19  22  1   
 52  19  52  1   
 53  19  53  1   
 54  20  22  1   
 55  20  54  1   
 56  20  55  1   
 57  21  23  1   
 58  21  56  1   
 59  21  57  1   
 60  22  58  1   
 61  22  59  1   
 62  23  60  1   
 63  23  61  1   
 64  23  62  1   
@<TRIPOS>SUBSTRUCTURE
  1 ****  12 GROUP 4 **** **** 0

# MOE 2024.06 (io_trps.svl 2023.06)
