@<TRIPOS>MOLECULE
NONAME
46 48 1 0 0 
SMALL
USER_CHARGES


@<TRIPOS>ATOM
  1 F       -1.4220    -0.8200    -2.1740 F     1 <1>  -0.1900 
  2 C       -2.2950    -1.2680    -1.2970 C.ar  1 <1>   0.1900 
  3 C       -2.8860    -0.4690    -0.3260 C.ar  1 <1>   0.3920 
  4 C       -2.6400    -2.5910    -1.3500 C.ar  1 <1>   0.1600 
  5 O       -2.6620     0.8530    -0.1420 O.3   1 <1>  -0.3630 
  6 N       -3.7520    -0.9830     0.5190 N.ar  1 <1>  -0.6200 
  7 N       -3.5080    -3.1150    -0.5100 N.ar  1 <1>  -0.6200 
  8 C       -1.7430     1.6230    -0.8850 C.3   1 <1>   0.0400 
  9 C       -4.0190    -2.2780     0.3970 C.ar  1 <1>   0.7200 
 10 N       -4.9230    -2.8120     1.2930 N.pl3 1 <1>  -0.8380 
 11 C       -5.0600    -4.2680     1.5090 C.3   1 <1>   0.2090 
 12 C       -6.0340    -2.0030     1.8660 C.3   1 <1>   0.2090 
 13 C       -6.3230    -4.7370     0.7760 C.3   1 <1>  -0.0800 
 14 C       -7.3540    -2.4640     1.2350 C.3   1 <1>  -0.1600 
 15 C       -7.5590    -3.9870     1.3240 C.3   1 <1>  -0.1600 
 16 C       -6.4330    -6.2610     0.8950 C.3   1 <1>   0.3430 
 17 N       -7.6260    -6.7910     0.1710 N.4   1 <1>  -0.9590 
 18 C       -7.8990    -8.2360     0.4750 C.3   1 <1>   0.3430 
 19 C       -7.5940    -6.5690    -1.3180 C.3   1 <1>   0.3430 
 20 C       -9.1420    -8.7500    -0.2890 C.3   1 <1>   0.1200 
 21 C       -8.8440    -7.1660    -2.0060 C.3   1 <1>   0.1200 
 22 O       -9.7180    -7.7340    -1.0670 O.3   1 <1>  -0.5600 
 23 H       -2.1950    -3.2280    -2.0950 H     1 <1>   0.1500 
 24 H       -1.7620     2.6260    -0.4990 H     1 <1>   0.0800 
 25 H       -2.0410     1.6250    -1.9180 H     1 <1>   0.0800 
 26 H       -0.7590     1.2060    -0.7660 H     1 <1>   0.0800 
 27 H       -5.1420    -4.4570     2.5660 H     1 <1>   0.0800 
 28 H       -4.1890    -4.7900     1.1490 H     1 <1>   0.0800 
 29 H       -5.8950    -0.9510     1.6800 H     1 <1>   0.0800 
 30 H       -6.0590    -2.1460     2.9320 H     1 <1>   0.0800 
 31 H       -6.1810    -4.4820    -0.2590 H     1 <1>   0.0800 
 32 H       -7.3540    -2.1580     0.2030 H     1 <1>   0.0800 
 33 H       -8.1700    -1.9560     1.7210 H     1 <1>   0.0800 
 34 H       -7.7200    -4.2550     2.3550 H     1 <1>   0.0800 
 35 H       -8.4430    -4.2440     0.7680 H     1 <1>   0.0800 
 36 H       -6.5050    -6.5200     1.9390 H     1 <1>   0.0800 
 37 H       -5.5380    -6.7150     0.5000 H     1 <1>   0.0800 
 38 H       -8.4670    -6.2890     0.4930 H     1 <1>   0.4500 
 39 H       -8.0600    -8.3660     1.5320 H     1 <1>   0.0800 
 40 H       -7.0480    -8.8380     0.2000 H     1 <1>   0.0800 
 41 H       -6.7120    -7.0210    -1.7410 H     1 <1>   0.0800 
 42 H       -7.5520    -5.5140    -1.5340 H     1 <1>   0.0800 
 43 H       -9.8890    -9.0930     0.4060 H     1 <1>   0.0800 
 44 H       -8.8810    -9.5720    -0.9340 H     1 <1>   0.0800 
 45 H       -8.5630    -7.9230    -2.7190 H     1 <1>   0.0800 
 46 H       -9.3820    -6.3950    -2.5290 H     1 <1>   0.0800 
@<TRIPOS>BOND
  1   1   2  1   
  2   2   3  ar  
  3   2   4  ar  
  4   3   5  1   
  5   3   6  ar  
  6   4   7  ar  
  7   4  23  1   
  8   5   8  1   
  9   6   9  ar  
 10   7   9  ar  
 11   8  24  1   
 12   8  25  1   
 13   8  26  1   
 14   9  10  1   
 15  10  11  1   
 16  10  12  1   
 17  11  13  1   
 18  11  27  1   
 19  11  28  1   
 20  12  14  1   
 21  12  29  1   
 22  12  30  1   
 23  13  15  1   
 24  13  16  1   
 25  13  31  1   
 26  14  15  1   
 27  14  32  1   
 28  14  33  1   
 29  15  34  1   
 30  15  35  1   
 31  16  17  1   
 32  16  36  1   
 33  16  37  1   
 34  17  18  1   
 35  17  19  1   
 36  17  38  1   
 37  18  20  1   
 38  18  39  1   
 39  18  40  1   
 40  19  21  1   
 41  19  41  1   
 42  19  42  1   
 43  20  22  1   
 44  20  43  1   
 45  20  44  1   
 46  21  22  1   
 47  21  45  1   
 48  21  46  1   
@<TRIPOS>SUBSTRUCTURE
  1 ****  13 GROUP 4 **** **** 0

# MOE 2024.06 (io_trps.svl 2023.06)
