@<TRIPOS>MOLECULE
NONAME
63 65 1 0 0 
SMALL
USER_CHARGES


@<TRIPOS>ATOM
  1 O        0.2190    -1.5470     0.1160 O.3   1 <1>  -0.5600 
  2 C       -0.5510    -2.7270     0.0620 C.3   1 <1>   0.2800 
  3 C       -0.0050    -0.5280    -0.8270 C.3   1 <1>   0.1200 
  4 C       -2.0850    -2.4080     0.1460 C.3   1 <1>   0.2000 
  5 C       -0.1390    -3.5480     1.3020 C.3   1 <1>  -0.1600 
  6 C       -0.0960    -3.5230    -1.1860 C.3   1 <1>  -0.1600 
  7 C       -1.4720    -0.4100    -1.2700 C.3   1 <1>  -0.1600 
  8 O       -2.7990    -3.3260    -0.6390 O.3   1 <1>  -0.6800 
  9 C       -2.4490    -0.9420    -0.2240 C.3   1 <1>   0.2800 
 10 C        1.2230    -4.2420     1.1870 C.3   1 <1>   0.3430 
 11 C        1.4170    -3.7780    -1.2210 C.3   1 <1>   0.3430 
 12 O       -2.3140    -0.1690     0.9130 O.3   1 <1>  -0.6800 
 13 C       -3.9040    -0.7420    -0.6690 C.3   1 <1>  -0.2400 
 14 N        2.0260    -3.5860     0.1280 N.4   1 <1>  -0.9590 
 15 C        3.4730    -3.9380     0.2050 C.3   1 <1>   0.3430 
 16 C        4.3320    -3.0070    -0.6510 C.3   1 <1>  -0.0220 
 17 C        5.8040    -3.3650    -0.4400 C.2   1 <1>  -0.2760 
 18 C        6.3460    -4.4690    -0.9900 C.2   1 <1>  -0.2760 
 19 C        6.6040    -2.3940     0.4650 C.3   1 <1>   0.1380 
 20 C        7.7850    -4.9100    -0.7380 C.3   1 <1>  -0.0220 
 21 C        5.6550    -5.4550    -1.9310 C.3   1 <1>  -0.1020 
 22 C        8.1110    -2.7410     0.4530 C.3   1 <1>  -0.1600 
 23 C        6.5010    -0.9340    -0.0170 C.3   1 <1>  -0.2400 
 24 C        6.0720    -2.4810     1.9040 C.3   1 <1>  -0.2400 
 25 C        8.3780    -4.2450     0.5020 C.3   1 <1>  -0.1600 
 26 H        0.3010     0.3920    -0.3580 H     1 <1>   0.0800 
 27 H        0.6320    -0.7010    -1.6780 H     1 <1>   0.0800 
 28 H       -2.4250    -2.5710     1.1550 H     1 <1>   0.0800 
 29 H       -0.1480    -2.9070     2.1660 H     1 <1>   0.0800 
 30 H       -0.8710    -4.3160     1.4790 H     1 <1>   0.0800 
 31 H       -0.5870    -4.4800    -1.1870 H     1 <1>   0.0800 
 32 H       -0.4030    -3.0330    -2.0900 H     1 <1>   0.0800 
 33 H       -1.6020    -0.9730    -2.1770 H     1 <1>   0.0800 
 34 H       -1.6930     0.6130    -1.5130 H     1 <1>   0.0800 
 35 H       -3.7600    -3.1710    -0.5370 H     1 <1>   0.4000 
 36 H        1.0830    -5.2810     0.9370 H     1 <1>   0.0800 
 37 H        1.7330    -4.1860     2.1350 H     1 <1>   0.0800 
 38 H        1.8690    -3.0860    -1.9120 H     1 <1>   0.0800 
 39 H        1.6050    -4.7790    -1.5770 H     1 <1>   0.0800 
 40 H       -2.5740     0.7510     0.7240 H     1 <1>   0.4000 
 41 H       -4.0910    -1.2610    -1.5920 H     1 <1>   0.0800 
 42 H       -4.1120     0.3000    -0.8350 H     1 <1>   0.0800 
 43 H       -4.5800    -1.1180     0.0790 H     1 <1>   0.0800 
 44 H        1.9030    -2.5720     0.3210 H     1 <1>   0.4500 
 45 H        3.8070    -3.8590     1.2260 H     1 <1>   0.0800 
 46 H        3.6250    -4.9570    -0.1120 H     1 <1>   0.0800 
 47 H        4.0900    -3.1150    -1.6910 H     1 <1>   0.0800 
 48 H        4.1180    -1.9930    -0.3810 H     1 <1>   0.0800 
 49 H        7.8310    -5.9760    -0.5980 H     1 <1>   0.0800 
 50 H        8.3800    -4.6650    -1.6010 H     1 <1>   0.0800 
 51 H        6.2100    -5.5210    -2.8510 H     1 <1>   0.0800 
 52 H        4.6510    -5.1780    -2.1790 H     1 <1>   0.0800 
 53 H        5.6290    -6.4330    -1.4840 H     1 <1>   0.0800 
 54 H        8.5540    -2.3630    -0.4520 H     1 <1>   0.0800 
 55 H        8.6110    -2.2590     1.2750 H     1 <1>   0.0800 
 56 H        7.2210    -0.3210     0.4960 H     1 <1>   0.0800 
 57 H        5.5360    -0.5060     0.1710 H     1 <1>   0.0800 
 58 H        6.7050    -0.8800    -1.0720 H     1 <1>   0.0800 
 59 H        6.6730    -1.8780     2.5630 H     1 <1>   0.0800 
 60 H        6.1020    -3.4960     2.2540 H     1 <1>   0.0800 
 61 H        5.0610    -2.1250     1.9650 H     1 <1>   0.0800 
 62 H        9.4370    -4.4280     0.5370 H     1 <1>   0.0800 
 63 H        7.9380    -4.6700     1.3870 H     1 <1>   0.0800 
@<TRIPOS>BOND
  1   1   2  1   
  2   1   3  1   
  3   2   4  1   
  4   2   5  1   
  5   2   6  1   
  6   3   7  1   
  7   3  26  1   
  8   3  27  1   
  9   4   8  1   
 10   4   9  1   
 11   4  28  1   
 12   5  10  1   
 13   5  29  1   
 14   5  30  1   
 15   6  11  1   
 16   6  31  1   
 17   6  32  1   
 18   7   9  1   
 19   7  33  1   
 20   7  34  1   
 21   8  35  1   
 22   9  12  1   
 23   9  13  1   
 24  10  14  1   
 25  10  36  1   
 26  10  37  1   
 27  11  14  1   
 28  11  38  1   
 29  11  39  1   
 30  12  40  1   
 31  13  41  1   
 32  13  42  1   
 33  13  43  1   
 34  14  15  1   
 35  14  44  1   
 36  15  16  1   
 37  15  45  1   
 38  15  46  1   
 39  16  17  1   
 40  16  47  1   
 41  16  48  1   
 42  17  18  2   
 43  17  19  1   
 44  18  20  1   
 45  18  21  1   
 46  19  22  1   
 47  19  23  1   
 48  19  24  1   
 49  20  25  1   
 50  20  49  1   
 51  20  50  1   
 52  21  51  1   
 53  21  52  1   
 54  21  53  1   
 55  22  25  1   
 56  22  54  1   
 57  22  55  1   
 58  23  56  1   
 59  23  57  1   
 60  23  58  1   
 61  24  59  1   
 62  24  60  1   
 63  24  61  1   
 64  25  62  1   
 65  25  63  1   
@<TRIPOS>SUBSTRUCTURE
  1 ****  14 GROUP 4 **** **** 0

# MOE 2024.06 (io_trps.svl 2023.06)
