@<TRIPOS>MOLECULE
NONAME
38 39 1 0 0 
SMALL
USER_CHARGES


@<TRIPOS>ATOM
  1 S        0.8010     1.1600     1.0890 S.3   1 <1>  -0.4600 
  2 C       -0.2800     1.7020    -0.2920 C.3   1 <1>   0.1310 
  3 C        0.0670    -0.4110     1.6250 C.3   1 <1>   0.1650 
  4 C        0.0520     3.1110    -0.7650 C.2   1 <1>   0.5690 
  5 C        0.1740    -1.4220     0.4810 C.3   1 <1>  -0.1950 
  6 O       -0.7180     3.6660    -1.5110 O.2   1 <1>  -0.5700 
  7 N        1.1950     3.7010    -0.3440 N.am  1 <1>  -0.7300 
  8 C       -0.9260    -1.6000    -0.5200 C.3   1 <1>  -0.2000 
  9 C       -0.6540    -2.6690     0.4990 C.3   1 <1>  -0.2000 
 10 C        1.7260     4.9990    -0.8000 C.3   1 <1>   0.3640 
 11 C        3.2570     5.0710    -0.6260 C.ar  1 <1>   0.1670 
 12 C        0.9780     6.1390    -0.1040 C.3   1 <1>  -0.2400 
 13 N        3.9100     5.2400    -1.7730 N.ar  1 <1>  -0.6200 
 14 C        3.9040     4.9660     0.6140 C.ar  1 <1>  -0.1430 
 15 C        5.2270     5.3040    -1.7070 C.ar  1 <1>   0.1600 
 16 C        5.2840     5.0400     0.6500 C.ar  1 <1>  -0.1500 
 17 C        3.2050     4.7870     1.9600 C.3   1 <1>  -0.0970 
 18 C        5.9540     5.2110    -0.5390 C.ar  1 <1>  -0.1500 
 19 H       -1.2940     1.6620     0.0580 H     1 <1>   0.0800 
 20 H       -0.1420     1.0080    -1.1000 H     1 <1>   0.0800 
 21 H       -0.9540    -0.2200     1.9050 H     1 <1>   0.0800 
 22 H        0.6270    -0.7400     2.4830 H     1 <1>   0.0800 
 23 H        1.1880    -1.5300     0.1330 H     1 <1>   0.1000 
 24 H        1.8360     3.1510     0.2330 H     1 <1>   0.3700 
 25 H       -0.6630    -1.7870    -1.5480 H     1 <1>   0.1000 
 26 H       -1.8340    -1.0290    -0.4260 H     1 <1>   0.1000 
 27 H       -1.3710    -2.8180     1.2880 H     1 <1>   0.1000 
 28 H       -0.2070    -3.5920     0.1710 H     1 <1>   0.1000 
 29 H        1.5150     5.0800    -1.8540 H     1 <1>   0.0800 
 30 H        1.0150     6.0450     0.9630 H     1 <1>   0.0800 
 31 H       -0.0500     6.1370    -0.4170 H     1 <1>   0.0800 
 32 H        1.4150     7.0780    -0.3880 H     1 <1>   0.0800 
 33 H        5.7540     5.4390    -2.6360 H     1 <1>   0.1500 
 34 H        5.8300     4.9690     1.5750 H     1 <1>   0.1500 
 35 H        2.3400     4.1580     1.8930 H     1 <1>   0.0800 
 36 H        2.9100     5.7470     2.3440 H     1 <1>   0.0800 
 37 H        3.8710     4.3340     2.6730 H     1 <1>   0.0800 
 38 H        7.0260     5.2730    -0.5610 H     1 <1>   0.1500 
@<TRIPOS>BOND
  1   1   2  1   
  2   1   3  1   
  3   2   4  1   
  4   2  19  1   
  5   2  20  1   
  6   3   5  1   
  7   3  21  1   
  8   3  22  1   
  9   4   6  2   
 10   4   7  am  
 11   5   8  1   
 12   5   9  1   
 13   5  23  1   
 14   7  10  1   
 15   7  24  1   
 16   8   9  1   
 17   8  25  1   
 18   8  26  1   
 19   9  27  1   
 20   9  28  1   
 21  10  11  1   
 22  10  12  1   
 23  10  29  1   
 24  11  13  ar  
 25  11  14  ar  
 26  12  30  1   
 27  12  31  1   
 28  12  32  1   
 29  13  15  ar  
 30  14  16  ar  
 31  14  17  1   
 32  15  18  ar  
 33  15  33  1   
 34  16  18  ar  
 35  16  34  1   
 36  17  35  1   
 37  17  36  1   
 38  17  37  1   
 39  18  38  1   
@<TRIPOS>SUBSTRUCTURE
  1 ****   7 GROUP 4 **** **** 0

# MOE 2024.06 (io_trps.svl 2023.06)
