@<TRIPOS>MOLECULE
NONAME
48 51 1 0 0 
SMALL
USER_CHARGES


@<TRIPOS>ATOM
  1 O        0.4210     0.3510    -0.2690 O.3   1 <1>  -0.5600 
  2 C        0.2650     1.6420     0.2510 C.3   1 <1>   0.2950 
  3 C        1.5540    -0.3240     0.1990 C.3   1 <1>   0.2000 
  4 C       -1.0410     2.2110    -0.3140 C.3   1 <1>  -0.1950 
  5 C        1.4780     2.5260    -0.1080 C.3   1 <1>   0.2090 
  6 C        2.8390     0.4530    -0.1740 C.3   1 <1>   0.2090 
  7 C        1.5030    -1.7340    -0.4030 C.3   1 <1>  -0.1600 
  8 C       -1.8250     3.2410     0.4370 C.3   1 <1>  -0.2000 
  9 C       -2.3660     1.8480     0.2770 C.3   1 <1>  -0.2000 
 10 N        2.7710     1.8750     0.2840 N.pl3 1 <1>  -0.8380 
 11 C        2.6010    -2.6660     0.1380 C.3   1 <1>  -0.1600 
 12 C        3.9280     2.6350     0.3520 C.ar  1 <1>   0.4100 
 13 C        2.4380    -4.0840    -0.4190 C.3   1 <1>  -0.1600 
 14 N        3.9460     3.7700    -0.2910 N.ar  1 <1>  -0.6200 
 15 C        5.0490     2.1750     1.1040 C.ar  1 <1>   0.1600 
 16 C        3.5270    -5.0170     0.1170 C.3   1 <1>  -0.2400 
 17 C        5.1180     4.4470    -0.2020 C.ar  1 <1>   0.3100 
 18 N        6.1850     2.7860     1.2110 N.ar  1 <1>  -0.6200 
 19 C        6.2300     3.9640     0.5340 C.ar  1 <1>   0.3100 
 20 C        5.2420     5.6760    -0.8690 C.ar  1 <1>  -0.1500 
 21 C        7.4040     4.7280     0.5670 C.ar  1 <1>  -0.1500 
 22 C        6.4030     6.4050    -0.8210 C.ar  1 <1>  -0.1500 
 23 C        7.4960     5.9260    -0.0960 C.ar  1 <1>  -0.1500 
 24 H        0.1880     1.5620     1.3220 H     1 <1>   0.0800 
 25 H        1.4770    -0.3940     1.2710 H     1 <1>   0.0800 
 26 H       -0.9980     2.3180    -1.3850 H     1 <1>   0.1000 
 27 H        1.3850     3.4720     0.3940 H     1 <1>   0.0800 
 28 H        1.4820     2.7120    -1.1680 H     1 <1>   0.0800 
 29 H        2.9650     0.4340    -1.2430 H     1 <1>   0.0800 
 30 H        3.6900    -0.0330     0.2670 H     1 <1>   0.0800 
 31 H        0.5430    -2.1610    -0.1700 H     1 <1>   0.0800 
 32 H        1.5860    -1.6640    -1.4740 H     1 <1>   0.0800 
 33 H       -1.4970     3.5510     1.4140 H     1 <1>   0.1000 
 34 H       -2.2910     4.0410    -0.1140 H     1 <1>   0.1000 
 35 H       -3.1940     1.6800    -0.3910 H     1 <1>   0.1000 
 36 H       -2.3860     1.1900     1.1290 H     1 <1>   0.1000 
 37 H        3.5720    -2.2930    -0.1370 H     1 <1>   0.0800 
 38 H        2.5440    -2.6990     1.2140 H     1 <1>   0.0800 
 39 H        1.4730    -4.4740    -0.1440 H     1 <1>   0.0800 
 40 H        2.4920    -4.0590    -1.4950 H     1 <1>   0.0800 
 41 H        4.9220     1.2460     1.6250 H     1 <1>   0.1500 
 42 H        3.4800    -5.0740     1.1910 H     1 <1>   0.0800 
 43 H        4.5020    -4.6630    -0.1690 H     1 <1>   0.0800 
 44 H        3.3930    -6.0070    -0.2830 H     1 <1>   0.0800 
 45 H        4.3900     6.0280    -1.4230 H     1 <1>   0.1500 
 46 H        8.2340     4.3430     1.1310 H     1 <1>   0.1500 
 47 H        6.4840     7.3460    -1.3380 H     1 <1>   0.1500 
 48 H        8.4040     6.5050    -0.0640 H     1 <1>   0.1500 
@<TRIPOS>BOND
  1   1   2  1   
  2   1   3  1   
  3   2   4  1   
  4   2   5  1   
  5   2  24  1   
  6   3   6  1   
  7   3   7  1   
  8   3  25  1   
  9   4   8  1   
 10   4   9  1   
 11   4  26  1   
 12   5  10  1   
 13   5  27  1   
 14   5  28  1   
 15   6  10  1   
 16   6  29  1   
 17   6  30  1   
 18   7  11  1   
 19   7  31  1   
 20   7  32  1   
 21   8   9  1   
 22   8  33  1   
 23   8  34  1   
 24   9  35  1   
 25   9  36  1   
 26  10  12  1   
 27  11  13  1   
 28  11  37  1   
 29  11  38  1   
 30  12  14  ar  
 31  12  15  ar  
 32  13  16  1   
 33  13  39  1   
 34  13  40  1   
 35  14  17  ar  
 36  15  18  ar  
 37  15  41  1   
 38  16  42  1   
 39  16  43  1   
 40  16  44  1   
 41  17  19  ar  
 42  17  20  ar  
 43  18  19  ar  
 44  19  21  ar  
 45  20  22  ar  
 46  20  45  1   
 47  21  23  ar  
 48  21  46  1   
 49  22  23  ar  
 50  22  47  1   
 51  23  48  1   
@<TRIPOS>SUBSTRUCTURE
  1 ****  10 GROUP 4 **** **** 0

# MOE 2024.06 (io_trps.svl 2023.06)
