@<TRIPOS>MOLECULE
NONAME
53 55 1 0 0 
SMALL
USER_CHARGES


@<TRIPOS>ATOM
  1 O        0.0550    -0.0340     0.5730 O.2   1 <1>  -0.5700 
  2 C       -0.0210     1.1960     0.4680 C.2   1 <1>   0.3890 
  3 C       -1.2480     1.8690     0.5590 C.3   1 <1>  -0.7150 
  4 C        1.2040     1.9350     0.2820 C.ar  1 <1>   0.0860 
  5 C       -1.2280     3.2610     0.7630 C.2   1 <1>   0.5350 
  6 C       -2.4570     1.1660     0.4270 C.2   1 <1>   0.5350 
  7 C        1.1840     3.3320     0.4030 C.ar  1 <1>   0.1170 
  8 C        2.4110     1.3000    -0.0250 C.ar  1 <1>  -0.1500 
  9 O       -2.2620     3.9010     0.9850 O.2   1 <1>  -0.5700 
 10 N       -0.0260     3.9670     0.7400 N.am  1 <1>  -0.4770 
 11 O       -2.6690     0.3510    -0.4650 O.2   1 <1>  -0.5700 
 12 N       -3.4730     1.4720     1.2770 N.am  1 <1>  -0.7300 
 13 C        2.3720     4.0380     0.1800 C.ar  1 <1>  -0.1500 
 14 C        3.5730     2.0120    -0.2260 C.ar  1 <1>  -0.1500 
 15 C       -0.0460     5.3970     1.1630 C.3   1 <1>   0.1400 
 16 C       -4.8870     1.2380     0.9300 C.3   1 <1>   0.1400 
 17 C        3.5520     3.3920    -0.1260 C.ar  1 <1>  -0.1500 
 18 C       -0.2890     6.3030    -0.0490 C.3   1 <1>  -0.1600 
 19 C       -5.3540     2.3000    -0.0650 C.3   1 <1>  -0.0170 
 20 C       -0.2630     7.7850     0.3460 C.3   1 <1>  -0.1600 
 21 C       -6.8320     2.1270    -0.3820 C.ar  1 <1>  -0.1430 
 22 C       -0.5190     8.6820    -0.8700 C.3   1 <1>  -0.1600 
 23 C       -7.2330     1.1810    -1.3120 C.ar  1 <1>  -0.1500 
 24 C       -7.7880     2.9030     0.2540 C.ar  1 <1>  -0.1500 
 25 C       -0.4950    10.1620    -0.4780 C.3   1 <1>  -0.2400 
 26 C       -8.5750     1.0130    -1.6050 C.ar  1 <1>  -0.1500 
 27 C       -9.1310     2.7370    -0.0370 C.ar  1 <1>  -0.1500 
 28 C       -9.5250     1.7910    -0.9680 C.ar  1 <1>  -0.1500 
 29 H        2.4160     0.2270    -0.1090 H     1 <1>   0.1500 
 30 H       -3.2790     2.3970     1.6760 H     1 <1>   0.3700 
 31 H        2.3860     5.1080     0.2380 H     1 <1>   0.1500 
 32 H        4.4890     1.4990    -0.4620 H     1 <1>   0.1500 
 33 H        0.8790     5.6470     1.6500 H     1 <1>   0.0800 
 34 H       -0.8250     5.5490     1.8900 H     1 <1>   0.0800 
 35 H       -5.4810     1.2830     1.8260 H     1 <1>   0.0800 
 36 H       -4.9920     0.2570     0.4990 H     1 <1>   0.0800 
 37 H        4.4530     3.9550    -0.2900 H     1 <1>   0.1500 
 38 H       -1.2500     6.0600    -0.4680 H     1 <1>   0.0800 
 39 H        0.4620     6.1140    -0.7960 H     1 <1>   0.0800 
 40 H       -4.7780     2.2100    -0.9700 H     1 <1>   0.0800 
 41 H       -5.1750     3.2780     0.3450 H     1 <1>   0.0800 
 42 H        0.6940     8.0260     0.7750 H     1 <1>   0.0800 
 43 H       -1.0210     7.9660     1.0890 H     1 <1>   0.0800 
 44 H       -1.4790     8.4430    -1.2970 H     1 <1>   0.0800 
 45 H        0.2330     8.5010    -1.6190 H     1 <1>   0.0800 
 46 H       -6.4940     0.5740    -1.8080 H     1 <1>   0.1500 
 47 H       -7.4860     3.6390     0.9790 H     1 <1>   0.1500 
 48 H       -1.2560    10.3690     0.2540 H     1 <1>   0.0800 
 49 H       -0.6790    10.7740    -1.3430 H     1 <1>   0.0800 
 50 H        0.4630    10.4270    -0.0670 H     1 <1>   0.0800 
 51 H       -8.8770     0.2760    -2.3290 H     1 <1>   0.1500 
 52 H       -9.8670     3.3430     0.4600 H     1 <1>   0.1500 
 53 H      -10.5690     1.6610    -1.1950 H     1 <1>   0.1500 
@<TRIPOS>BOND
  1   1   2  2   
  2   2   3  1   
  3   2   4  1   
  4   3   5  1   
  5   3   6  1   
  6   4   7  ar  
  7   4   8  ar  
  8   5   9  2   
  9   5  10  am  
 10   6  11  2   
 11   6  12  am  
 12   7  10  1   
 13   7  13  ar  
 14   8  14  ar  
 15   8  29  1   
 16  10  15  1   
 17  12  16  1   
 18  12  30  1   
 19  13  17  ar  
 20  13  31  1   
 21  14  17  ar  
 22  14  32  1   
 23  15  18  1   
 24  15  33  1   
 25  15  34  1   
 26  16  19  1   
 27  16  35  1   
 28  16  36  1   
 29  17  37  1   
 30  18  20  1   
 31  18  38  1   
 32  18  39  1   
 33  19  21  1   
 34  19  40  1   
 35  19  41  1   
 36  20  22  1   
 37  20  42  1   
 38  20  43  1   
 39  21  23  ar  
 40  21  24  ar  
 41  22  25  1   
 42  22  44  1   
 43  22  45  1   
 44  23  26  ar  
 45  23  46  1   
 46  24  27  ar  
 47  24  47  1   
 48  25  48  1   
 49  25  49  1   
 50  25  50  1   
 51  26  28  ar  
 52  26  51  1   
 53  27  28  ar  
 54  27  52  1   
 55  28  53  1   
@<TRIPOS>SUBSTRUCTURE
  1 ****   5 GROUP 4 **** **** 0

# MOE 2024.06 (io_trps.svl 2023.06)
