@<TRIPOS>MOLECULE
NONAME
29 30 1 0 0 
SMALL
USER_CHARGES


@<TRIPOS>ATOM
  1 F        8.9220     3.7610    -0.7870 F     1 <1>  -0.3400 
  2 C        8.8330     3.0560     0.3330 C.3   1 <1>   1.1640 
  3 F       10.0740     2.7190     0.6620 F     1 <1>  -0.3400 
  4 F        8.4170     3.8980     1.2720 F     1 <1>  -0.3400 
  5 C        7.9060     1.8360     0.1730 C.ar  1 <1>  -0.1440 
  6 C        8.4040     0.6110    -0.2550 C.ar  1 <1>  -0.1500 
  7 C        6.5450     1.9310     0.4370 C.ar  1 <1>  -0.1500 
  8 C        7.5720    -0.4850    -0.4080 C.ar  1 <1>  -0.1500 
  9 C        5.7120     0.8360     0.2850 C.ar  1 <1>  -0.1500 
 10 C        6.2130    -0.3910    -0.1320 C.ar  1 <1>  -0.1430 
 11 C        5.2570    -1.5750    -0.2900 C.3   1 <1>   0.4240 
 12 O        4.3800    -1.2730    -1.3140 O.3   1 <1>  -0.6800 
 13 C        4.4270    -1.9010     0.9600 C.3   1 <1>   0.3430 
 14 C        5.8530    -2.9390    -0.6130 C.3   1 <1>  -0.1600 
 15 N        3.8750    -3.2790     0.7400 N.4   1 <1>  -0.9060 
 16 C        4.7420    -3.9360    -0.2820 C.3   1 <1>   0.3430 
 17 H        9.4540     0.5030    -0.4780 H     1 <1>   0.1500 
 18 H        6.1210     2.8690     0.7610 H     1 <1>   0.1500 
 19 H        8.0170    -1.4020    -0.7510 H     1 <1>   0.1500 
 20 H        4.6620     0.9620     0.4890 H     1 <1>   0.1500 
 21 H        4.8390    -0.6920    -1.9580 H     1 <1>   0.4000 
 22 H        3.6500    -1.1690     1.1080 H     1 <1>   0.0800 
 23 H        5.0820    -1.9020     1.8150 H     1 <1>   0.0800 
 24 H        6.6890    -3.1400     0.0330 H     1 <1>   0.0800 
 25 H        6.1790    -3.0180    -1.6350 H     1 <1>   0.0800 
 26 H        2.9300    -3.1850     0.3410 H     1 <1>   0.4500 
 27 H        3.8060    -3.8200     1.6110 H     1 <1>   0.4500 
 28 H        5.1520    -4.8640     0.0850 H     1 <1>   0.0800 
 29 H        4.1630    -4.1330    -1.1710 H     1 <1>   0.0800 
@<TRIPOS>BOND
  1   1   2  1   
  2   2   3  1   
  3   2   4  1   
  4   2   5  1   
  5   5   6  ar  
  6   5   7  ar  
  7   6   8  ar  
  8   6  17  1   
  9   7   9  ar  
 10   7  18  1   
 11   8  10  ar  
 12   8  19  1   
 13   9  10  ar  
 14   9  20  1   
 15  10  11  1   
 16  11  12  1   
 17  11  13  1   
 18  11  14  1   
 19  12  21  1   
 20  13  15  1   
 21  13  22  1   
 22  13  23  1   
 23  14  16  1   
 24  14  24  1   
 25  14  25  1   
 26  15  16  1   
 27  15  26  1   
 28  15  27  1   
 29  16  28  1   
 30  16  29  1   
@<TRIPOS>SUBSTRUCTURE
  1 ****  10 GROUP 4 **** **** 0

# MOE 2024.06 (io_trps.svl 2023.06)
