@<TRIPOS>MOLECULE
NONAME
41 44 1 0 0 
SMALL
USER_CHARGES


@<TRIPOS>ATOM
  1 O       -0.7900     0.4560     1.4340 O.2   1 <1>  -0.5700 
  2 C       -1.8100     0.9560     0.9860 C.2   1 <1>   0.7150 
  3 N       -2.9680     0.2030     1.0450 N.am  1 <1>  -0.6600 
  4 C       -1.7240     2.2920     0.4190 C.2   1 <1>   0.1010 
  5 C       -2.9360    -1.2910     1.0350 C.3   1 <1>   0.1400 
  6 C       -4.3530     0.7270     0.8490 C.3   1 <1>   0.1400 
  7 N       -2.5620     2.9180    -0.3850 N.2   1 <1>  -0.5650 
  8 N       -0.6380     3.0620     0.6860 N.pl3 1 <1>   0.0330 
  9 C       -3.6510    -1.8360    -0.2190 C.3   1 <1>   0.3440 
 10 C       -4.9770     0.1160    -0.4230 C.3   1 <1>   0.2950 
 11 C       -1.9910     4.1070    -0.6170 C.2   1 <1>   0.0770 
 12 C       -0.8110     4.2160     0.0300 C.2   1 <1>  -0.3020 
 13 O       -4.9380    -1.2830    -0.3340 O.3   1 <1>  -0.5600 
 14 C       -3.7540    -3.3580    -0.1560 C.ar  1 <1>  -0.1440 
 15 C       -6.4460     0.5020    -0.6740 C.3   1 <1>  -0.1950 
 16 C       -4.8180    -3.9840     0.4790 C.ar  1 <1>  -0.1500 
 17 C       -2.7600    -4.1380    -0.7310 C.ar  1 <1>  -0.1500 
 18 C       -7.0210     1.8420    -0.3280 C.3   1 <1>  -0.2000 
 19 C       -7.4800     0.6110     0.4040 C.3   1 <1>  -0.2000 
 20 C       -4.8880    -5.3650     0.5400 C.ar  1 <1>  -0.1500 
 21 C       -2.8280    -5.5200    -0.6700 C.ar  1 <1>  -0.1500 
 22 C       -3.8920    -6.1340    -0.0340 C.ar  1 <1>  -0.1500 
 23 H       -1.9230    -1.6530     1.0450 H     1 <1>   0.0800 
 24 H       -3.4270    -1.6660     1.9150 H     1 <1>   0.0800 
 25 H       -4.9480     0.4500     1.7000 H     1 <1>   0.0800 
 26 H       -4.3620     1.7980     0.7930 H     1 <1>   0.0800 
 27 H        0.1510     2.7600     1.2690 H     1 <1>   0.2700 
 28 H       -3.0960    -1.5560    -1.0970 H     1 <1>   0.0800 
 29 H       -4.3950     0.4170    -1.2780 H     1 <1>   0.0800 
 30 H       -2.4600     4.8430    -1.2500 H     1 <1>   0.1500 
 31 H       -0.1090     5.0300     0.0510 H     1 <1>   0.1500 
 32 H       -6.7780     0.0840    -1.6090 H     1 <1>   0.1000 
 33 H       -5.6010    -3.3930     0.9240 H     1 <1>   0.1500 
 34 H       -1.9260    -3.6760    -1.2290 H     1 <1>   0.1500 
 35 H       -6.4340     2.5670     0.2090 H     1 <1>   0.1000 
 36 H       -7.6950     2.3060    -1.0280 H     1 <1>   0.1000 
 37 H       -8.4620     0.2200     0.2040 H     1 <1>   0.1000 
 38 H       -7.1960     0.4810     1.4330 H     1 <1>   0.1000 
 39 H       -5.7180    -5.8390     1.0330 H     1 <1>   0.1500 
 40 H       -2.0530    -6.1170    -1.1180 H     1 <1>   0.1500 
 41 H       -3.9450    -7.2080     0.0130 H     1 <1>   0.1500 
@<TRIPOS>BOND
  1   1   2  2   
  2   2   3  am  
  3   2   4  1   
  4   3   5  1   
  5   3   6  1   
  6   4   7  2   
  7   4   8  1   
  8   5   9  1   
  9   5  23  1   
 10   5  24  1   
 11   6  10  1   
 12   6  25  1   
 13   6  26  1   
 14   7  11  1   
 15   8  12  1   
 16   8  27  1   
 17   9  13  1   
 18   9  14  1   
 19   9  28  1   
 20  10  13  1   
 21  10  15  1   
 22  10  29  1   
 23  11  12  2   
 24  11  30  1   
 25  12  31  1   
 26  14  16  ar  
 27  14  17  ar  
 28  15  18  1   
 29  15  19  1   
 30  15  32  1   
 31  16  20  ar  
 32  16  33  1   
 33  17  21  ar  
 34  17  34  1   
 35  18  19  1   
 36  18  35  1   
 37  18  36  1   
 38  19  37  1   
 39  19  38  1   
 40  20  22  ar  
 41  20  39  1   
 42  21  22  ar  
 43  21  40  1   
 44  22  41  1   
@<TRIPOS>SUBSTRUCTURE
  1 ****   3 GROUP 4 **** **** 0

# MOE 2024.06 (io_trps.svl 2023.06)
