@<TRIPOS>MOLECULE
NONAME
54 56 1 0 0 
SMALL
USER_CHARGES


@<TRIPOS>ATOM
  1 O       -0.7490    -1.5430    -1.6840 O.2   1 <1>  -0.5700 
  2 C        0.0940    -1.3550    -0.8300 C.2   1 <1>   0.5440 
  3 N        0.1780    -0.0880    -0.3600 N.am  1 <1>  -0.8000 
  4 C        0.9480    -2.4110    -0.3320 C.ar  1 <1>   0.0860 
  5 C        0.4930    -3.7370    -0.2150 C.ar  1 <1>   0.4100 
  6 C        2.2550    -2.1540     0.0520 C.ar  1 <1>  -0.1500 
  7 N        1.2280    -4.7440     0.2570 N.ar  1 <1>  -0.6200 
  8 N       -0.7920    -4.0690    -0.5840 N.pl3 1 <1>  -0.8690 
  9 C        3.0290    -3.1860     0.5360 C.ar  1 <1>  -0.1430 
 10 C        2.4660    -4.4590     0.6230 C.ar  1 <1>   0.1670 
 11 C       -1.2240    -5.4400    -0.9430 C.3   1 <1>   0.2090 
 12 C        4.4660    -2.8770     0.9460 C.3   1 <1>  -0.0970 
 13 C        3.2490    -5.6480     1.1560 C.3   1 <1>  -0.0970 
 14 C       -1.4250    -6.2940     0.3350 C.3   1 <1>   0.5660 
 15 N       -0.9730    -7.7180     0.2160 N.4   1 <1>  -0.9590 
 16 C       -2.8480    -6.2690     0.8730 C.ar  1 <1>  -0.1430 
 17 C        0.5180    -7.7670     0.2010 C.3   1 <1>   0.3430 
 18 C       -1.5780    -8.4700    -0.9210 C.3   1 <1>   0.3430 
 19 C       -3.0190    -6.0060     2.2240 C.ar  1 <1>   0.1600 
 20 C       -3.9750    -6.4930     0.0970 C.ar  1 <1>  -0.1500 
 21 C        0.9930    -9.2180     0.2750 C.3   1 <1>  -0.1600 
 22 C       -1.1390    -9.9340    -0.8620 C.3   1 <1>  -0.1600 
 23 N       -4.1810    -5.9780     2.8500 N.ar  1 <1>  -0.6200 
 24 C       -5.1960    -6.4540     0.7360 C.ar  1 <1>  -0.1500 
 25 C        0.3890   -10.0710    -0.8480 C.3   1 <1>  -0.1600 
 26 C       -5.2440    -6.1990     2.0950 C.ar  1 <1>   0.1600 
 27 H       -0.4780     0.6080    -0.7180 H     1 <1>   0.3700 
 28 H        0.7280     0.1830     0.4550 H     1 <1>   0.3700 
 29 H        2.6550    -1.1600    -0.0380 H     1 <1>   0.1500 
 30 H       -1.2600    -3.3120    -1.1200 H     1 <1>   0.4000 
 31 H       -0.4630    -5.8750    -1.5660 H     1 <1>   0.0800 
 32 H       -2.1340    -5.3810    -1.5120 H     1 <1>   0.0800 
 33 H        4.7160    -1.8510     0.7440 H     1 <1>   0.0800 
 34 H        5.1510    -3.4980     0.3960 H     1 <1>   0.0800 
 35 H        4.5970    -3.0520     1.9990 H     1 <1>   0.0800 
 36 H        2.6910    -6.1220     1.9420 H     1 <1>   0.0800 
 37 H        4.2050    -5.3730     1.5560 H     1 <1>   0.0800 
 38 H        3.4080    -6.3550     0.3630 H     1 <1>   0.0800 
 39 H       -0.8040    -5.8310     1.0850 H     1 <1>   0.0800 
 40 H       -1.2840    -8.1800     1.0780 H     1 <1>   0.4500 
 41 H        0.9130    -7.2140     1.0390 H     1 <1>   0.0800 
 42 H        0.8930    -7.3090    -0.7010 H     1 <1>   0.0800 
 43 H       -1.2620    -8.0400    -1.8570 H     1 <1>   0.0800 
 44 H       -2.6540    -8.4250    -0.8670 H     1 <1>   0.0800 
 45 H       -2.1560    -5.8080     2.8380 H     1 <1>   0.1500 
 46 H       -3.9350    -6.6840    -0.9610 H     1 <1>   0.1500 
 47 H        0.7290    -9.6320     1.2330 H     1 <1>   0.0800 
 48 H        2.0660    -9.2400     0.2010 H     1 <1>   0.0800 
 49 H       -1.5340   -10.4540    -1.7170 H     1 <1>   0.0800 
 50 H       -1.5570   -10.3970     0.0150 H     1 <1>   0.0800 
 51 H       -6.1090    -6.6160     0.1910 H     1 <1>   0.1500 
 52 H        0.6630   -11.1050    -0.7100 H     1 <1>   0.0800 
 53 H        0.7880    -9.7520    -1.7960 H     1 <1>   0.0800 
 54 H       -6.2030    -6.1720     2.5850 H     1 <1>   0.1500 
@<TRIPOS>BOND
  1   1   2  2   
  2   2   3  am  
  3   2   4  1   
  4   3  27  1   
  5   3  28  1   
  6   4   5  ar  
  7   4   6  ar  
  8   5   7  ar  
  9   5   8  1   
 10   6   9  ar  
 11   6  29  1   
 12   7  10  ar  
 13   8  11  1   
 14   8  30  1   
 15   9  10  ar  
 16   9  12  1   
 17  10  13  1   
 18  11  14  1   
 19  11  31  1   
 20  11  32  1   
 21  12  33  1   
 22  12  34  1   
 23  12  35  1   
 24  13  36  1   
 25  13  37  1   
 26  13  38  1   
 27  14  15  1   
 28  14  16  1   
 29  14  39  1   
 30  15  17  1   
 31  15  18  1   
 32  15  40  1   
 33  16  19  ar  
 34  16  20  ar  
 35  17  21  1   
 36  17  41  1   
 37  17  42  1   
 38  18  22  1   
 39  18  43  1   
 40  18  44  1   
 41  19  23  ar  
 42  19  45  1   
 43  20  24  ar  
 44  20  46  1   
 45  21  25  1   
 46  21  47  1   
 47  21  48  1   
 48  22  25  1   
 49  22  49  1   
 50  22  50  1   
 51  23  26  ar  
 52  24  26  ar  
 53  24  51  1   
 54  25  52  1   
 55  25  53  1   
 56  26  54  1   
@<TRIPOS>SUBSTRUCTURE
  1 ****  14 GROUP 4 **** **** 0

# MOE 2024.06 (io_trps.svl 2023.06)
