@<TRIPOS>MOLECULE
NONAME
49 51 1 0 0 
SMALL
USER_CHARGES


@<TRIPOS>ATOM
  1 CL      -1.7250    -0.4660     2.4290 Cl    1 <1>  -0.1770 
  2 C       -1.0550    -1.7270     1.4100 C.ar  1 <1>   0.1770 
  3 C       -1.7970    -2.2020     0.3290 C.ar  1 <1>   0.1170 
  4 C        0.2040    -2.2070     1.7100 C.ar  1 <1>  -0.1500 
  5 N       -3.0740    -1.6640     0.0950 N.am  1 <1>  -0.5470 
  6 C       -1.2150    -3.1810    -0.4840 C.ar  1 <1>  -0.1430 
  7 C        0.7580    -3.1890     0.9090 C.ar  1 <1>  -0.1500 
  8 C       -4.2860    -2.2910     0.1180 C.2   1 <1>   0.6900 
  9 C        0.0490    -3.6660    -0.1810 C.ar  1 <1>  -0.1500 
 10 C       -1.9220    -3.7390    -1.7140 C.3   1 <1>  -0.0960 
 11 O       -4.3580    -3.5050     0.1570 O.2   1 <1>  -0.5700 
 12 N       -5.4290    -1.5310     0.1080 N.am  1 <1>  -0.6600 
 13 C       -6.7500    -2.1940    -0.1060 C.3   1 <1>   0.1400 
 14 C       -5.4480    -0.0640     0.3950 C.3   1 <1>   0.1400 
 15 C       -7.7310    -1.2110    -0.7490 C.3   1 <1>  -0.1600 
 16 C       -6.7740     0.3170     1.0530 C.3   1 <1>  -0.1600 
 17 C       -7.9710     0.0500     0.1210 C.3   1 <1>   0.2800 
 18 O       -8.0260     1.1620    -0.7340 O.3   1 <1>  -0.5600 
 19 C       -9.2750    -0.0280     0.9640 C.3   1 <1>  -0.1600 
 20 C       -9.0660     1.2310    -1.6780 C.3   1 <1>   0.1200 
 21 C      -10.3930     0.8920     0.4650 C.3   1 <1>   0.2800 
 22 C      -10.4290     0.8760    -1.0610 C.3   1 <1>  -0.1600 
 23 O      -10.0780     2.1680     0.8530 O.3   1 <1>  -0.6800 
 24 C      -11.7460     0.5600     1.0880 C.3   1 <1>  -0.2400 
 25 H        0.7400    -1.8190     2.5560 H     1 <1>   0.1500 
 26 H       -3.1490    -0.6650     0.2440 H     1 <1>   0.3700 
 27 H        1.7370    -3.5790     1.1290 H     1 <1>   0.1500 
 28 H        0.4930    -4.4280    -0.7980 H     1 <1>   0.1500 
 29 H       -2.5220    -2.9830    -2.1860 H     1 <1>   0.0800 
 30 H       -2.5600    -4.5550    -1.4260 H     1 <1>   0.0800 
 31 H       -1.2100    -4.0970    -2.4350 H     1 <1>   0.0800 
 32 H       -7.1280    -2.5390     0.8410 H     1 <1>   0.0800 
 33 H       -6.6250    -3.0490    -0.7490 H     1 <1>   0.0800 
 34 H       -5.3290     0.4830    -0.5260 H     1 <1>   0.0800 
 35 H       -4.6440     0.1940     1.0610 H     1 <1>   0.0800 
 36 H       -8.6560    -1.7190    -0.9500 H     1 <1>   0.0800 
 37 H       -7.3050    -0.9290    -1.6950 H     1 <1>   0.0800 
 38 H       -6.7610     1.3530     1.3380 H     1 <1>   0.0800 
 39 H       -6.8620    -0.2620     1.9550 H     1 <1>   0.0800 
 40 H       -9.0850     0.2040     1.9970 H     1 <1>   0.0800 
 41 H       -9.6300    -1.0410     0.9590 H     1 <1>   0.0800 
 42 H       -8.8340     0.5810    -2.5030 H     1 <1>   0.0800 
 43 H       -9.0850     2.2440    -2.0430 H     1 <1>   0.0800 
 44 H      -10.7080    -0.1070    -1.3940 H     1 <1>   0.0800 
 45 H      -11.1810     1.5530    -1.4240 H     1 <1>   0.0800 
 46 H       -9.2010     2.3680     0.4600 H     1 <1>   0.4000 
 47 H      -12.0540    -0.4300     0.8080 H     1 <1>   0.0800 
 48 H      -12.4920     1.2580     0.7500 H     1 <1>   0.0800 
 49 H      -11.6820     0.6080     2.1600 H     1 <1>   0.0800 
@<TRIPOS>BOND
  1   1   2  1   
  2   2   3  ar  
  3   2   4  ar  
  4   3   5  1   
  5   3   6  ar  
  6   4   7  ar  
  7   4  25  1   
  8   5   8  am  
  9   5  26  1   
 10   6   9  ar  
 11   6  10  1   
 12   7   9  ar  
 13   7  27  1   
 14   8  11  2   
 15   8  12  am  
 16   9  28  1   
 17  10  29  1   
 18  10  30  1   
 19  10  31  1   
 20  12  13  1   
 21  12  14  1   
 22  13  15  1   
 23  13  32  1   
 24  13  33  1   
 25  14  16  1   
 26  14  34  1   
 27  14  35  1   
 28  15  17  1   
 29  15  36  1   
 30  15  37  1   
 31  16  17  1   
 32  16  38  1   
 33  16  39  1   
 34  17  18  1   
 35  17  19  1   
 36  18  20  1   
 37  19  21  1   
 38  19  40  1   
 39  19  41  1   
 40  20  22  1   
 41  20  42  1   
 42  20  43  1   
 43  21  22  1   
 44  21  23  1   
 45  21  24  1   
 46  22  44  1   
 47  22  45  1   
 48  23  46  1   
 49  24  47  1   
 50  24  48  1   
 51  24  49  1   
@<TRIPOS>SUBSTRUCTURE
  1 ****  12 GROUP 4 **** **** 0

# MOE 2024.06 (io_trps.svl 2023.06)
