@<TRIPOS>MOLECULE
NONAME
50 53 1 0 0 
SMALL
USER_CHARGES


@<TRIPOS>ATOM
  1 O        1.1710    -0.9710     1.6100 O.3   1 <1>  -0.5600 
  2 C        2.0060    -1.1880     0.4980 C.3   1 <1>   0.4240 
  3 C       -0.1930    -1.2160     1.4480 C.3   1 <1>   0.1200 
  4 C        1.5800    -2.4280    -0.3150 C.ar  1 <1>  -0.1440 
  5 C        3.4050    -1.3950     1.0950 C.3   1 <1>  -0.1600 
  6 C        1.9910     0.0860    -0.3610 C.3   1 <1>  -0.1600 
  7 C       -0.4000    -2.7070     1.2030 C.3   1 <1>  -0.0160 
  8 C        0.4420    -3.1530     0.0240 C.ar  1 <1>  -0.1440 
  9 C        2.3270    -2.8450    -1.4120 C.ar  1 <1>  -0.1500 
 10 C        3.8740    -0.1590     1.8640 C.3   1 <1>   0.2090 
 11 C        2.4930     1.2980     0.4230 C.3   1 <1>   0.2090 
 12 C        0.0700    -4.2710    -0.7050 C.ar  1 <1>  -0.1500 
 13 C        1.9550    -3.9580    -2.1420 C.ar  1 <1>  -0.1500 
 14 N        3.8780     1.0190     0.9370 N.pl3 1 <1>  -0.8380 
 15 C        0.8280    -4.6810    -1.7960 C.ar  1 <1>   0.0820 
 16 C        4.9480     1.7730     0.5600 C.ar  1 <1>   0.7710 
 17 O        0.5340    -5.7620    -2.5610 O.3   1 <1>  -0.3630 
 18 N        4.7950     2.7140    -0.3630 N.ar  1 <1>  -0.6200 
 19 N        6.1450     1.5430     1.1330 N.ar  1 <1>  -0.1790 
 20 C       -0.5810    -6.5790    -2.2800 C.3   1 <1>   0.0400 
 21 C        5.8430     3.4220    -0.7150 C.ar  1 <1>   0.4100 
 22 C        7.2470     2.2580     0.8010 C.ar  1 <1>   0.2110 
 23 N        5.6070     4.3500    -1.6550 N.pl3 1 <1>  -0.8690 
 24 C        7.1100     3.2210    -0.1400 C.ar  1 <1>  -0.1500 
 25 C        6.5340     5.2900    -2.3390 C.3   1 <1>   0.1290 
 26 H       -0.5640    -0.6330     0.6230 H     1 <1>   0.0800 
 27 H       -0.6940    -0.9100     2.3500 H     1 <1>   0.0800 
 28 H        4.1120    -1.6100     0.3160 H     1 <1>   0.0800 
 29 H        3.3760    -2.2460     1.7500 H     1 <1>   0.0800 
 30 H        0.9990     0.2690    -0.7260 H     1 <1>   0.0800 
 31 H        2.6210    -0.0450    -1.2210 H     1 <1>   0.0800 
 32 H       -1.4410    -2.8910     1.0080 H     1 <1>   0.0800 
 33 H       -0.1180    -3.2580     2.0810 H     1 <1>   0.0800 
 34 H        3.2080    -2.3080    -1.7140 H     1 <1>   0.1500 
 35 H        4.8440    -0.3540     2.2800 H     1 <1>   0.0800 
 36 H        3.2000     0.0360     2.6840 H     1 <1>   0.0800 
 37 H        1.8370     1.4890     1.2560 H     1 <1>   0.0800 
 38 H        2.4610     2.1660    -0.2130 H     1 <1>   0.0800 
 39 H       -0.8100    -4.8110    -0.4140 H     1 <1>   0.1500 
 40 H        2.5360    -4.2770    -2.9890 H     1 <1>   0.1500 
 41 H        6.1570     0.8160     1.8370 H     1 <1>   0.4570 
 42 H       -0.6060    -7.3700    -3.0070 H     1 <1>   0.0800 
 43 H       -1.4750    -5.9860    -2.3540 H     1 <1>   0.0800 
 44 H       -0.4700    -6.9910    -1.2930 H     1 <1>   0.0800 
 45 H        8.1850     2.0450     1.2900 H     1 <1>   0.1500 
 46 H        4.6280     4.4270    -1.9570 H     1 <1>   0.4000 
 47 H        7.9350     3.8310    -0.4510 H     1 <1>   0.1500 
 48 H        7.5470     4.9290    -2.3080 H     1 <1>   0.0800 
 49 H        6.4870     6.2570    -1.8670 H     1 <1>   0.0800 
 50 H        6.2450     5.3940    -3.3720 H     1 <1>   0.0800 
@<TRIPOS>BOND
  1   1   2  1   
  2   1   3  1   
  3   2   4  1   
  4   2   5  1   
  5   2   6  1   
  6   3   7  1   
  7   3  26  1   
  8   3  27  1   
  9   4   8  ar  
 10   4   9  ar  
 11   5  10  1   
 12   5  28  1   
 13   5  29  1   
 14   6  11  1   
 15   6  30  1   
 16   6  31  1   
 17   7   8  1   
 18   7  32  1   
 19   7  33  1   
 20   8  12  ar  
 21   9  13  ar  
 22   9  34  1   
 23  10  14  1   
 24  10  35  1   
 25  10  36  1   
 26  11  14  1   
 27  11  37  1   
 28  11  38  1   
 29  12  15  ar  
 30  12  39  1   
 31  13  15  ar  
 32  13  40  1   
 33  14  16  1   
 34  15  17  1   
 35  16  18  ar  
 36  16  19  ar  
 37  17  20  1   
 38  18  21  ar  
 39  19  22  ar  
 40  19  41  1   
 41  20  42  1   
 42  20  43  1   
 43  20  44  1   
 44  21  23  1   
 45  21  24  ar  
 46  22  24  ar  
 47  22  45  1   
 48  23  25  1   
 49  23  46  1   
 50  24  47  1   
 51  25  48  1   
 52  25  49  1   
 53  25  50  1   
@<TRIPOS>SUBSTRUCTURE
  1 ****   6 GROUP 4 **** **** 0

# MOE 2024.06 (io_trps.svl 2023.06)
