@<TRIPOS>MOLECULE
NONAME
50 52 1 0 0 
SMALL
USER_CHARGES


@<TRIPOS>ATOM
  1 CL       1.1910    -1.9020    -1.2050 Cl    1 <1>  -0.1770 
  2 C       -0.1110    -2.9050    -0.6220 C.ar  1 <1>   0.1770 
  3 C       -1.3200    -2.9110    -1.2890 C.ar  1 <1>  -0.1500 
  4 C        0.0810    -3.6830     0.5040 C.ar  1 <1>  -0.1500 
  5 C       -2.3490    -3.7070    -0.8200 C.ar  1 <1>  -0.1500 
  6 C       -0.9550    -4.4770     0.9620 C.ar  1 <1>  -0.1500 
  7 C       -2.1930    -4.5110     0.3130 C.ar  1 <1>   0.0530 
  8 C       -3.2610    -5.3470     0.8070 C.2   1 <1>   0.0870 
  9 O       -3.2830    -5.7230     2.0660 O.3   1 <1>  -0.0190 
 10 C       -4.3560    -5.8920     0.2220 C.2   1 <1>  -0.2330 
 11 N       -4.3170    -6.4690     2.3580 N.2   1 <1>  -0.4100 
 12 C       -4.9810    -6.5810     1.2630 C.2   1 <1>   0.3720 
 13 C       -4.8250    -5.8360    -1.1230 C.2   1 <1>   1.0330 
 14 N       -6.1820    -7.2980     1.1780 N.pl3 1 <1>  -0.8210 
 15 O       -5.5140    -4.8790    -1.5110 O.co2 1 <1>  -0.9000 
 16 O       -4.6030    -6.7740    -1.9120 O.co2 1 <1>  -0.9000 
 17 C       -6.1700    -8.2690     0.0610 C.3   1 <1>   0.2090 
 18 C       -7.3430    -6.3680     1.1130 C.3   1 <1>   0.1290 
 19 C       -6.8170    -9.5720     0.5050 C.3   1 <1>  -0.1600 
 20 C       -6.8380   -10.5720    -0.6520 C.3   1 <1>   0.4230 
 21 N       -7.6860   -11.7270    -0.2490 N.4   1 <1>  -0.9590 
 22 C       -5.4330   -11.0280    -1.0700 C.3   1 <1>  -0.2400 
 23 C       -7.1250   -12.6130     0.8010 C.3   1 <1>   0.3430 
 24 C       -8.0890   -12.6110    -1.3680 C.3   1 <1>   0.3430 
 25 C       -7.9900   -13.8630     0.7280 C.3   1 <1>  -0.1600 
 26 C       -8.5850   -13.8800    -0.6850 C.3   1 <1>  -0.1600 
 27 H       -1.4570    -2.3010    -2.1640 H     1 <1>   0.1500 
 28 H        1.0290    -3.6650     1.0100 H     1 <1>   0.1500 
 29 H       -3.2910    -3.6990    -1.3420 H     1 <1>   0.1500 
 30 H       -0.8060    -5.0850     1.8370 H     1 <1>   0.1500 
 31 H       -5.1480    -8.4650    -0.2200 H     1 <1>   0.0800 
 32 H       -6.6800    -7.8590    -0.7960 H     1 <1>   0.0800 
 33 H       -7.2740    -5.6510     1.9130 H     1 <1>   0.0800 
 34 H       -8.2620    -6.9140     1.2170 H     1 <1>   0.0800 
 35 H       -7.3470    -5.8350     0.1760 H     1 <1>   0.0800 
 36 H       -7.8200    -9.3530     0.8190 H     1 <1>   0.0800 
 37 H       -6.2560    -9.9580     1.3370 H     1 <1>   0.0800 
 38 H       -7.2990   -10.0880    -1.4990 H     1 <1>   0.0800 
 39 H       -8.5520   -11.3330     0.1380 H     1 <1>   0.4500 
 40 H       -4.8480   -11.3350    -0.2220 H     1 <1>   0.0800 
 41 H       -4.9130   -10.2080    -1.5380 H     1 <1>   0.0800 
 42 H       -5.4680   -11.8210    -1.7920 H     1 <1>   0.0800 
 43 H       -7.1600   -12.1530     1.7760 H     1 <1>   0.0800 
 44 H       -6.1060   -12.8700     0.5620 H     1 <1>   0.0800 
 45 H       -7.2350   -12.8470    -1.9810 H     1 <1>   0.0800 
 46 H       -8.8550   -12.1600    -1.9790 H     1 <1>   0.0800 
 47 H       -8.7730   -13.8050     1.4640 H     1 <1>   0.0800 
 48 H       -7.4000   -14.7420     0.9260 H     1 <1>   0.0800 
 49 H       -8.2680   -14.7470    -1.2390 H     1 <1>   0.0800 
 50 H       -9.6600   -13.8780    -0.6420 H     1 <1>   0.0800 
@<TRIPOS>BOND
  1   1   2  1   
  2   2   3  ar  
  3   2   4  ar  
  4   3   5  ar  
  5   3  27  1   
  6   4   6  ar  
  7   4  28  1   
  8   5   7  ar  
  9   5  29  1   
 10   6   7  ar  
 11   6  30  1   
 12   7   8  1   
 13   8   9  1   
 14   8  10  2   
 15   9  11  1   
 16  10  12  1   
 17  10  13  1   
 18  11  12  2   
 19  12  14  1   
 20  13  15  ar  
 21  13  16  ar  
 22  14  17  1   
 23  14  18  1   
 24  17  19  1   
 25  17  31  1   
 26  17  32  1   
 27  18  33  1   
 28  18  34  1   
 29  18  35  1   
 30  19  20  1   
 31  19  36  1   
 32  19  37  1   
 33  20  21  1   
 34  20  22  1   
 35  20  38  1   
 36  21  23  1   
 37  21  24  1   
 38  21  39  1   
 39  22  40  1   
 40  22  41  1   
 41  22  42  1   
 42  23  25  1   
 43  23  43  1   
 44  23  44  1   
 45  24  26  1   
 46  24  45  1   
 47  24  46  1   
 48  25  26  1   
 49  25  47  1   
 50  25  48  1   
 51  26  49  1   
 52  26  50  1   
@<TRIPOS>SUBSTRUCTURE
  1 ****  10 GROUP 4 **** **** 0

# MOE 2024.06 (io_trps.svl 2023.06)
