@<TRIPOS>MOLECULE
NONAME
58 62 1 0 0 
SMALL
USER_CHARGES


@<TRIPOS>ATOM
  1 O       -1.9620    -0.4430    -2.7200 O.2   1 <1>  -0.5700 
  2 C       -1.4270     0.2060    -1.8530 C.2   1 <1>   0.5690 
  3 N       -2.0460     0.7990    -0.8090 N.am  1 <1>  -0.6600 
  4 C        0.0560     0.4460    -1.8000 C.3   1 <1>  -0.0990 
  5 C       -1.1150     1.4960     0.0920 C.3   1 <1>   0.1400 
  6 C       -3.4970     0.7400    -0.5340 C.3   1 <1>   0.1400 
  7 C        0.2190     1.4760    -0.6690 C.3   1 <1>  -0.1600 
  8 C       -3.7630    -0.2250     0.6230 C.3   1 <1>  -0.1600 
  9 C       -5.2690    -0.4930     0.7940 C.3   1 <1>  -0.0990 
 10 C       -5.5930    -1.4930     1.9000 C.2   1 <1>   0.5690 
 11 O       -4.7870    -1.6380     2.7890 O.2   1 <1>  -0.5700 
 12 N       -6.7650    -2.2090     1.8710 N.am  1 <1>  -0.6600 
 13 C       -6.9980    -3.3450     2.8050 C.3   1 <1>   0.1400 
 14 C       -7.8690    -2.0480     0.8870 C.3   1 <1>   0.1400 
 15 C       -7.0560    -4.6370     1.9880 C.3   1 <1>  -0.1600 
 16 C       -7.9270    -3.3060     0.0210 C.3   1 <1>  -0.1600 
 17 C       -8.1150    -4.5640     0.8820 C.3   1 <1>   0.4600 
 18 O       -9.3630    -4.4860     1.5380 O.3   1 <1>  -0.5600 
 19 C       -8.0700    -5.8240     0.0260 C.2   1 <1>  -0.3320 
 20 C      -10.5160    -4.8740     0.8280 C.3   1 <1>   0.1200 
 21 N       -6.9850    -6.3050    -0.6530 N.pl3 1 <1>   0.0330 
 22 C       -9.1200    -6.6460    -0.1740 C.2   1 <1>  -0.1810 
 23 C      -10.4640    -6.3630     0.4480 C.3   1 <1>   0.0210 
 24 C       -7.3630    -7.4610    -1.2930 C.ar  1 <1>  -0.1520 
 25 C       -8.7040    -7.7050    -1.0070 C.ar  1 <1>   0.0000 
 26 C       -6.6350    -8.3290    -2.1090 C.ar  1 <1>  -0.1500 
 27 C       -9.3310    -8.8340    -1.5420 C.ar  1 <1>  -0.1500 
 28 C       -7.2650    -9.4370    -2.6300 C.ar  1 <1>  -0.1500 
 29 C       -8.6130    -9.6890    -2.3460 C.ar  1 <1>  -0.1500 
 30 H        0.4110     0.8210    -2.7420 H     1 <1>   0.0800 
 31 H        0.5480    -0.4790    -1.5600 H     1 <1>   0.0800 
 32 H       -1.0370     0.9540     1.0190 H     1 <1>   0.0800 
 33 H       -1.4470     2.5030     0.2800 H     1 <1>   0.0800 
 34 H       -4.0030     0.3940    -1.4200 H     1 <1>   0.0800 
 35 H       -3.8610     1.7250    -0.2980 H     1 <1>   0.0800 
 36 H        0.3940     2.4510    -1.0890 H     1 <1>   0.0800 
 37 H        1.0380     1.2300    -0.0160 H     1 <1>   0.0800 
 38 H       -3.3650     0.1860     1.5350 H     1 <1>   0.0800 
 39 H       -3.2670    -1.1590     0.4240 H     1 <1>   0.0800 
 40 H       -5.6360    -0.8750    -0.1390 H     1 <1>   0.0800 
 41 H       -5.7790     0.4270     1.0150 H     1 <1>   0.0800 
 42 H       -7.9270    -3.1930     3.3270 H     1 <1>   0.0800 
 43 H       -6.2100    -3.4120     3.5360 H     1 <1>   0.0800 
 44 H       -7.7330    -1.1750     0.2760 H     1 <1>   0.0800 
 45 H       -8.7980    -1.9300     1.4210 H     1 <1>   0.0800 
 46 H       -7.2760    -5.4690     2.6320 H     1 <1>   0.0800 
 47 H       -6.0880    -4.8070     1.5570 H     1 <1>   0.0800 
 48 H       -7.0080    -3.3860    -0.5290 H     1 <1>   0.0800 
 49 H       -8.7210    -3.2280    -0.6970 H     1 <1>   0.0800 
 50 H      -10.5950    -4.2670    -0.0560 H     1 <1>   0.0800 
 51 H      -11.3680    -4.6820     1.4560 H     1 <1>   0.0800 
 52 H       -6.0460    -5.8970    -0.6800 H     1 <1>   0.2700 
 53 H      -11.2500    -6.5880    -0.2490 H     1 <1>   0.0800 
 54 H      -10.5940    -6.9720     1.3250 H     1 <1>   0.0800 
 55 H       -5.6010    -8.1280    -2.3220 H     1 <1>   0.1500 
 56 H      -10.3650    -9.0160    -1.3150 H     1 <1>   0.1500 
 57 H       -6.7260   -10.1210    -3.2620 H     1 <1>   0.1500 
 58 H       -9.0810   -10.5620    -2.7650 H     1 <1>   0.1500 
@<TRIPOS>BOND
  1   1   2  2   
  2   2   3  am  
  3   2   4  1   
  4   3   5  1   
  5   3   6  1   
  6   4   7  1   
  7   4  30  1   
  8   4  31  1   
  9   5   7  1   
 10   5  32  1   
 11   5  33  1   
 12   6   8  1   
 13   6  34  1   
 14   6  35  1   
 15   7  36  1   
 16   7  37  1   
 17   8   9  1   
 18   8  38  1   
 19   8  39  1   
 20   9  10  1   
 21   9  40  1   
 22   9  41  1   
 23  10  11  2   
 24  10  12  am  
 25  12  13  1   
 26  12  14  1   
 27  13  15  1   
 28  13  42  1   
 29  13  43  1   
 30  14  16  1   
 31  14  44  1   
 32  14  45  1   
 33  15  17  1   
 34  15  46  1   
 35  15  47  1   
 36  16  17  1   
 37  16  48  1   
 38  16  49  1   
 39  17  18  1   
 40  17  19  1   
 41  18  20  1   
 42  19  21  1   
 43  19  22  2   
 44  20  23  1   
 45  20  50  1   
 46  20  51  1   
 47  21  24  1   
 48  21  52  1   
 49  22  23  1   
 50  22  25  1   
 51  23  53  1   
 52  23  54  1   
 53  24  25  ar  
 54  24  26  ar  
 55  25  27  ar  
 56  26  28  ar  
 57  26  55  1   
 58  27  29  ar  
 59  27  56  1   
 60  28  29  ar  
 61  28  57  1   
 62  29  58  1   
@<TRIPOS>SUBSTRUCTURE
  1 ****  16 GROUP 4 **** **** 0

# MOE 2024.06 (io_trps.svl 2023.06)
