@<TRIPOS>MOLECULE
NONAME
45 47 1 0 0 
SMALL
USER_CHARGES


@<TRIPOS>ATOM
  1 O        1.0330    -0.2300     1.7310 O.3   1 <1>  -0.0190 
  2 N        1.3020     0.9840     1.3580 N.2   1 <1>  -0.4100 
  3 C        1.3820    -0.9610     0.7010 C.2   1 <1>   0.2980 
  4 C        1.7740     0.9200     0.1760 C.2   1 <1>   0.3350 
  5 N        1.8510    -0.3160    -0.2940 N.2   1 <1>  -0.5650 
  6 C        1.2030    -2.4730     0.7830 C.3   1 <1>   0.2900 
  7 C        2.2250     2.0950    -0.6720 C.3   1 <1>   0.0210 
  8 N       -0.2190    -2.8840     0.8310 N.3   1 <1>  -0.8100 
  9 C        1.9720     3.4350     0.0160 C.3   1 <1>   0.1200 
 10 C       -0.9720    -2.4610    -0.3560 C.3   1 <1>   0.1100 
 11 C       -0.3860    -4.3430     0.9090 C.3   1 <1>   0.1100 
 12 O        2.4010     4.4520    -0.8330 O.3   1 <1>  -0.5600 
 13 C       -2.2210    -3.3310    -0.3210 C.3   1 <1>   0.2000 
 14 C       -1.6960    -4.6810     0.1710 C.3   1 <1>  -0.0800 
 15 C        2.2240     5.7300    -0.3130 C.3   1 <1>   0.0400 
 16 O       -3.0530    -2.8200     0.6560 O.3   1 <1>  -0.6800 
 17 C       -1.4710    -5.6490    -1.0060 C.3   1 <1>  -0.0170 
 18 C       -0.9700    -7.0060    -0.5390 C.ar  1 <1>   0.1670 
 19 N        0.3390    -7.2050    -0.5900 N.ar  1 <1>  -0.6200 
 20 C       -1.8810    -7.9520    -0.0940 C.ar  1 <1>  -0.1500 
 21 C        0.7550    -8.3940    -0.1820 C.ar  1 <1>   0.1600 
 22 C       -1.4340    -9.1850     0.3300 C.ar  1 <1>  -0.1500 
 23 C       -0.0740    -9.4020     0.2800 C.ar  1 <1>  -0.1500 
 24 H        1.7010    -2.8260     1.6680 H     1 <1>   0.0800 
 25 H        1.6800    -2.9220    -0.0710 H     1 <1>   0.0800 
 26 H        1.6900     2.0680    -1.6030 H     1 <1>   0.0800 
 27 H        3.2750     1.9890    -0.8720 H     1 <1>   0.0800 
 28 H        2.5240     3.4950     0.9380 H     1 <1>   0.0800 
 29 H        0.9200     3.5650     0.2100 H     1 <1>   0.0800 
 30 H       -1.2130    -1.4120    -0.3260 H     1 <1>   0.0800 
 31 H       -0.4080    -2.6740    -1.2490 H     1 <1>   0.0800 
 32 H        0.4490    -4.8380     0.4440 H     1 <1>   0.0800 
 33 H       -0.4380    -4.6510     1.9400 H     1 <1>   0.0800 
 34 H       -2.7590    -3.3670    -1.2530 H     1 <1>   0.0800 
 35 H       -2.3980    -5.1330     0.8500 H     1 <1>   0.0800 
 36 H        2.5830     6.4390    -1.0380 H     1 <1>   0.0800 
 37 H        2.7900     5.8250     0.5980 H     1 <1>   0.0800 
 38 H        1.1770     5.8970    -0.1290 H     1 <1>   0.0800 
 39 H       -2.4760    -2.5920     1.4160 H     1 <1>   0.4000 
 40 H       -0.7630    -5.2300    -1.7000 H     1 <1>   0.0800 
 41 H       -2.3970    -5.7870    -1.5340 H     1 <1>   0.0800 
 42 H       -2.9320    -7.7280    -0.0770 H     1 <1>   0.1500 
 43 H        1.8150    -8.5750    -0.2180 H     1 <1>   0.1500 
 44 H       -2.1130    -9.9420     0.6820 H     1 <1>   0.1500 
 45 H        0.3420   -10.3410     0.5940 H     1 <1>   0.1500 
@<TRIPOS>BOND
  1   1   2  1   
  2   1   3  1   
  3   2   4  2   
  4   3   5  2   
  5   3   6  1   
  6   4   5  1   
  7   4   7  1   
  8   6   8  1   
  9   6  24  1   
 10   6  25  1   
 11   7   9  1   
 12   7  26  1   
 13   7  27  1   
 14   8  10  1   
 15   8  11  1   
 16   9  12  1   
 17   9  28  1   
 18   9  29  1   
 19  10  13  1   
 20  10  30  1   
 21  10  31  1   
 22  11  14  1   
 23  11  32  1   
 24  11  33  1   
 25  12  15  1   
 26  13  14  1   
 27  13  16  1   
 28  13  34  1   
 29  14  17  1   
 30  14  35  1   
 31  15  36  1   
 32  15  37  1   
 33  15  38  1   
 34  16  39  1   
 35  17  18  1   
 36  17  40  1   
 37  17  41  1   
 38  18  19  ar  
 39  18  20  ar  
 40  19  21  ar  
 41  20  22  ar  
 42  20  42  1   
 43  21  23  ar  
 44  21  43  1   
 45  22  23  ar  
 46  22  44  1   
 47  23  45  1   
@<TRIPOS>SUBSTRUCTURE
  1 ****   8 GROUP 4 **** **** 0

# MOE 2024.06 (io_trps.svl 2023.06)
