@<TRIPOS>MOLECULE
NONAME
59 63 1 0 0 
SMALL
USER_CHARGES


@<TRIPOS>ATOM
  1 O        0.9250    -0.5540     0.9490 O.3   1 <1>  -0.5600 
  2 C        1.9640    -1.0640     0.1500 C.3   1 <1>   0.4240 
  3 C       -0.3830    -0.9020     0.6090 C.3   1 <1>   0.1200 
  4 C        1.6830    -2.5030    -0.3290 C.ar  1 <1>  -0.1440 
  5 C        3.2050    -1.0390     1.0490 C.3   1 <1>  -0.1600 
  6 C        2.1610    -0.1010    -1.0310 C.3   1 <1>  -0.1600 
  7 C       -0.5590    -2.4050     0.7950 C.3   1 <1>  -0.0160 
  8 C        0.4880    -3.1430    -0.0150 C.ar  1 <1>  -0.1440 
  9 C        2.6220    -3.1930    -1.0910 C.ar  1 <1>  -0.1500 
 10 C        3.5320     0.3840     1.5000 C.3   1 <1>   0.2090 
 11 C        2.5260     1.3100    -0.5660 C.3   1 <1>   0.2090 
 12 C        0.2450    -4.4400    -0.4370 C.ar  1 <1>  -0.1500 
 13 C        2.3790    -4.4860    -1.5150 C.ar  1 <1>  -0.1500 
 14 N        3.7510     1.2560     0.2990 N.pl3 1 <1>  -0.8380 
 15 C        1.1940    -5.1210    -1.1910 C.ar  1 <1>   0.0820 
 16 C        4.9080     1.9010     0.0310 C.ar  1 <1>   0.4610 
 17 O        1.0370    -6.3900    -1.6430 O.3   1 <1>  -0.3630 
 18 N        6.0390     1.2380     0.2860 N.ar  1 <1>  -0.1790 
 19 C        5.0340     3.2090    -0.5340 C.ar  1 <1>  -0.1430 
 20 C       -0.1240    -7.1340    -1.3500 C.3   1 <1>   0.0400 
 21 C        7.3080     1.6670    -0.0480 C.ar  1 <1>   0.3610 
 22 C        6.2660     3.6750    -0.9000 C.ar  1 <1>  -0.1500 
 23 C        3.8040     4.1050    -0.6810 C.3   1 <1>   0.2640 
 24 C        7.4410     2.9100    -0.6810 C.ar  1 <1>   0.0000 
 25 C        8.4430     0.8920     0.2130 C.ar  1 <1>  -0.1500 
 26 O        4.1550     5.4330    -0.5170 O.3   1 <1>  -0.6800 
 27 C        8.7200     3.3420    -1.0490 C.ar  1 <1>  -0.1500 
 28 C        9.6940     1.3330    -0.1530 C.ar  1 <1>  -0.1430 
 29 C        9.8250     2.5670    -0.7890 C.ar  1 <1>  -0.1500 
 30 C       10.9410     0.5090     0.1180 C.3   1 <1>  -0.0970 
 31 H       -0.5750    -0.6140    -0.4100 H     1 <1>   0.0800 
 32 H       -1.0490    -0.3620     1.2600 H     1 <1>   0.0800 
 33 H        4.0490    -1.4510     0.5300 H     1 <1>   0.0800 
 34 H        3.0180    -1.6600     1.9070 H     1 <1>   0.0800 
 35 H        1.2680    -0.0720    -1.6260 H     1 <1>   0.0800 
 36 H        2.9470    -0.4630    -1.6660 H     1 <1>   0.0800 
 37 H       -1.5460    -2.6880     0.4740 H     1 <1>   0.0800 
 38 H       -0.4580    -2.6540     1.8360 H     1 <1>   0.0800 
 39 H        3.5540    -2.7350    -1.3650 H     1 <1>   0.1500 
 40 H        4.3930     0.3800     2.1460 H     1 <1>   0.0800 
 41 H        2.7090     0.7780     2.0750 H     1 <1>   0.0800 
 42 H        1.7070     1.7380    -0.0110 H     1 <1>   0.0800 
 43 H        2.6980     1.9080    -1.4420 H     1 <1>   0.0800 
 44 H       -0.6830    -4.9080    -0.1730 H     1 <1>   0.1500 
 45 H        3.1070    -5.0160    -2.1030 H     1 <1>   0.1500 
 46 H        5.9290     0.3040     0.6630 H     1 <1>   0.4570 
 47 H       -0.0210    -8.1050    -1.8000 H     1 <1>   0.0800 
 48 H       -0.9770    -6.6280    -1.7660 H     1 <1>   0.0800 
 49 H       -0.2150    -7.2330    -0.2830 H     1 <1>   0.0800 
 50 H        6.3900     4.6480    -1.3500 H     1 <1>   0.1500 
 51 H        3.0610     3.8790     0.0650 H     1 <1>   0.0800 
 52 H        3.3730     4.0030    -1.6620 H     1 <1>   0.0800 
 53 H        8.3400    -0.0600     0.7020 H     1 <1>   0.1500 
 54 H        4.4580     5.6020     0.3960 H     1 <1>   0.4000 
 55 H        8.8360     4.2950    -1.5390 H     1 <1>   0.1500 
 56 H       10.8040     2.9130    -1.0780 H     1 <1>   0.1500 
 57 H       10.7000    -0.4180     0.6080 H     1 <1>   0.0800 
 58 H       11.6170     1.0610     0.7480 H     1 <1>   0.0800 
 59 H       11.4420     0.2840    -0.8070 H     1 <1>   0.0800 
@<TRIPOS>BOND
  1   1   2  1   
  2   1   3  1   
  3   2   4  1   
  4   2   5  1   
  5   2   6  1   
  6   3   7  1   
  7   3  31  1   
  8   3  32  1   
  9   4   8  ar  
 10   4   9  ar  
 11   5  10  1   
 12   5  33  1   
 13   5  34  1   
 14   6  11  1   
 15   6  35  1   
 16   6  36  1   
 17   7   8  1   
 18   7  37  1   
 19   7  38  1   
 20   8  12  ar  
 21   9  13  ar  
 22   9  39  1   
 23  10  14  1   
 24  10  40  1   
 25  10  41  1   
 26  11  14  1   
 27  11  42  1   
 28  11  43  1   
 29  12  15  ar  
 30  12  44  1   
 31  13  15  ar  
 32  13  45  1   
 33  14  16  1   
 34  15  17  1   
 35  16  18  ar  
 36  16  19  ar  
 37  17  20  1   
 38  18  21  ar  
 39  18  46  1   
 40  19  22  ar  
 41  19  23  1   
 42  20  47  1   
 43  20  48  1   
 44  20  49  1   
 45  21  24  ar  
 46  21  25  ar  
 47  22  24  ar  
 48  22  50  1   
 49  23  26  1   
 50  23  51  1   
 51  23  52  1   
 52  24  27  ar  
 53  25  28  ar  
 54  25  53  1   
 55  26  54  1   
 56  27  29  ar  
 57  27  55  1   
 58  28  29  ar  
 59  28  30  1   
 60  29  56  1   
 61  30  57  1   
 62  30  58  1   
 63  30  59  1   
@<TRIPOS>SUBSTRUCTURE
  1 ****  14 GROUP 4 **** **** 0

# MOE 2024.06 (io_trps.svl 2023.06)
