@<TRIPOS>MOLECULE
NONAME
39 40 1 0 0 
SMALL
USER_CHARGES


@<TRIPOS>ATOM
  1 O        0.3850    -0.1980     0.9500 O.2   1 <1>  -0.5700 
  2 C        1.4240    -0.4750     0.3790 C.2   1 <1>   0.7160 
  3 N        2.3030     0.5190     0.0280 N.am  1 <1>  -0.4940 
  4 C        1.7820    -1.8430     0.0620 C.2   1 <1>  -0.0860 
  5 C        2.2250     1.9210     0.2040 C.2   1 <1>  -0.0880 
  6 C        0.9940    -2.9550    -0.1380 C.2   1 <1>  -0.3320 
  7 C        3.1070    -2.3060    -0.1090 C.2   1 <1>  -0.1500 
  8 N        3.2560     2.6950     0.6390 N.pl3 1 <1>   0.3140 
  9 C        1.1870     2.7650    -0.0130 C.2   1 <1>  -0.1810 
 10 N        1.7650    -4.0320    -0.4130 N.pl3 1 <1>   0.0330 
 11 C       -0.5220    -3.0710    -0.0840 C.3   1 <1>  -0.0600 
 12 C        3.0600    -3.6290    -0.3970 C.2   1 <1>  -0.3020 
 13 N        2.9120     4.0000     0.6990 N.2   1 <1>  -0.7070 
 14 C        4.5870     2.2330     1.0770 C.3   1 <1>   0.0960 
 15 C        1.6740     4.0270     0.3120 C.2   1 <1>   0.1390 
 16 C       -0.2150     2.4610    -0.5060 C.3   1 <1>  -0.0590 
 17 C        5.5140     1.9970    -0.1240 C.3   1 <1>  -0.1600 
 18 C        6.8750     1.4520     0.3250 C.3   1 <1>  -0.1600 
 19 C        7.7900     1.2040    -0.8770 C.3   1 <1>  -0.2400 
 20 H        3.1280     0.1690    -0.4520 H     1 <1>   0.3700 
 21 H        3.9970    -1.7090    -0.0140 H     1 <1>   0.1500 
 22 H        1.4330    -4.9850    -0.5990 H     1 <1>   0.2700 
 23 H       -0.9820    -2.1070     0.0370 H     1 <1>   0.0800 
 24 H       -0.8140    -3.6900     0.7450 H     1 <1>   0.0800 
 25 H       -0.8940    -3.5060    -0.9940 H     1 <1>   0.0800 
 26 H        3.8730    -4.3070    -0.5860 H     1 <1>   0.1500 
 27 H        4.4620     1.3290     1.6440 H     1 <1>   0.0800 
 28 H        5.0060     2.9840     1.7230 H     1 <1>   0.0800 
 29 H        1.0960     4.9330     0.2520 H     1 <1>   0.1500 
 30 H       -0.2190     1.5510    -1.0780 H     1 <1>   0.0800 
 31 H       -0.5740     3.2600    -1.1280 H     1 <1>   0.0800 
 32 H       -0.8750     2.3410     0.3340 H     1 <1>   0.0800 
 33 H        5.6550     2.9300    -0.6430 H     1 <1>   0.0800 
 34 H        5.0580     1.2980    -0.8020 H     1 <1>   0.0800 
 35 H        6.7420     0.5280     0.8620 H     1 <1>   0.0800 
 36 H        7.3480     2.1580     0.9870 H     1 <1>   0.0800 
 37 H        7.3520     0.4820    -1.5450 H     1 <1>   0.0800 
 38 H        8.7410     0.8270    -0.5450 H     1 <1>   0.0800 
 39 H        7.9580     2.1190    -1.4180 H     1 <1>   0.0800 
@<TRIPOS>BOND
  1   1   2  2   
  2   2   3  am  
  3   2   4  1   
  4   3   5  1   
  5   3  20  1   
  6   4   6  2   
  7   4   7  1   
  8   5   8  1   
  9   5   9  2   
 10   6  10  1   
 11   6  11  1   
 12   7  12  2   
 13   7  21  1   
 14   8  13  1   
 15   8  14  1   
 16   9  15  1   
 17   9  16  1   
 18  10  12  1   
 19  10  22  1   
 20  11  23  1   
 21  11  24  1   
 22  11  25  1   
 23  12  26  1   
 24  13  15  2   
 25  14  17  1   
 26  14  27  1   
 27  14  28  1   
 28  15  29  1   
 29  16  30  1   
 30  16  31  1   
 31  16  32  1   
 32  17  18  1   
 33  17  33  1   
 34  17  34  1   
 35  18  19  1   
 36  18  35  1   
 37  18  36  1   
 38  19  37  1   
 39  19  38  1   
 40  19  39  1   
@<TRIPOS>SUBSTRUCTURE
  1 ****   3 GROUP 4 **** **** 0

# MOE 2024.06 (io_trps.svl 2023.06)
