@<TRIPOS>MOLECULE
NONAME
48 50 1 0 0 
SMALL
USER_CHARGES


@<TRIPOS>ATOM
  1 O       -0.6510     0.1470     0.3110 O.3   1 <1>  -0.2170 
  2 N        0.2040     1.1260     0.1470 N.2   1 <1>  -0.5130 
  3 C       -0.0290    -1.0610     0.6730 C.3   1 <1>   0.2000 
  4 C        1.3570     0.8070     0.5700 C.2   1 <1>   0.3030 
  5 C        1.3650    -0.6070     1.0920 C.3   1 <1>  -0.0990 
  6 C       -0.0230    -1.9970    -0.5540 C.3   1 <1>   0.3430 
  7 C        2.5490     1.6300     0.5720 C.ar  1 <1>   0.0860 
  8 N       -1.3630    -2.1030    -1.2260 N.4   1 <1>  -0.9590 
  9 C        3.7560     1.2130     1.1420 C.ar  1 <1>  -0.1500 
 10 C        2.5320     2.8980    -0.0140 C.ar  1 <1>  -0.1500 
 11 C       -1.6150    -3.4770    -1.7480 C.3   1 <1>   0.5240 
 12 C       -1.6050    -1.0240    -2.2340 C.3   1 <1>   0.2630 
 13 C        4.8830     2.0150     1.1200 C.ar  1 <1>  -0.1500 
 14 C        3.6550     3.7040    -0.0400 C.ar  1 <1>  -0.1500 
 15 C       -1.8420    -4.4100    -0.5610 C.2   1 <1>   0.1080 
 16 C        4.8350     3.2630     0.5270 C.ar  1 <1>  -0.1500 
 17 N       -2.1480    -3.9840     0.6330 N.2   1 <1>  -0.7070 
 18 C       -1.7520    -5.7970    -0.6130 C.2   1 <1>  -0.1500 
 19 N       -2.2770    -5.1080     1.3730 N.pl3 1 <1>   0.3000 
 20 C       -2.0350    -6.2150     0.6410 C.2   1 <1>  -0.3320 
 21 C       -2.1060    -7.6170     1.2310 C.3   1 <1>   0.0200 
 22 C       -1.7780    -8.7010     0.1970 C.3   1 <1>  -0.1600 
 23 C       -1.8510   -10.1030     0.8100 C.3   1 <1>  -0.2400 
 24 H       -0.5740    -1.4950     1.4930 H     1 <1>   0.0800 
 25 H        2.1430    -1.2020     0.6480 H     1 <1>   0.0800 
 26 H        1.4590    -0.6090     2.1630 H     1 <1>   0.0800 
 27 H        0.2890    -2.9710    -0.2150 H     1 <1>   0.0800 
 28 H        0.7100    -1.6460    -1.2600 H     1 <1>   0.0800 
 29 H       -2.0540    -2.0270    -0.4570 H     1 <1>   0.4500 
 30 H        3.8310     0.2530     1.6180 H     1 <1>   0.1500 
 31 H        1.6190     3.2600    -0.4570 H     1 <1>   0.1500 
 32 H       -0.7820    -3.8180    -2.3390 H     1 <1>   0.0800 
 33 H       -2.5020    -3.4800    -2.3590 H     1 <1>   0.0800 
 34 H       -0.9000    -1.1010    -3.0450 H     1 <1>   0.0800 
 35 H       -1.4960    -0.0520    -1.7800 H     1 <1>   0.0800 
 36 H       -2.6040    -1.1000    -2.6310 H     1 <1>   0.0800 
 37 H        5.8020     1.6710     1.5650 H     1 <1>   0.1500 
 38 H        3.6100     4.6770    -0.5000 H     1 <1>   0.1500 
 39 H        5.7120     3.8890     0.5090 H     1 <1>   0.1500 
 40 H       -1.5120    -6.3940    -1.4760 H     1 <1>   0.1500 
 41 H       -2.5370    -5.0930     2.3690 H     1 <1>   0.2700 
 42 H       -3.0970    -7.7880     1.6170 H     1 <1>   0.0800 
 43 H       -1.4110    -7.6920     2.0510 H     1 <1>   0.0800 
 44 H       -0.7880    -8.5380    -0.1920 H     1 <1>   0.0800 
 45 H       -2.4760    -8.6380    -0.6210 H     1 <1>   0.0800 
 46 H       -1.1450   -10.2010     1.6170 H     1 <1>   0.0800 
 47 H       -1.6180   -10.8430     0.0640 H     1 <1>   0.0800 
 48 H       -2.8390   -10.3010     1.1870 H     1 <1>   0.0800 
@<TRIPOS>BOND
  1   1   2  1   
  2   1   3  1   
  3   2   4  2   
  4   3   5  1   
  5   3   6  1   
  6   3  24  1   
  7   4   5  1   
  8   4   7  1   
  9   5  25  1   
 10   5  26  1   
 11   6   8  1   
 12   6  27  1   
 13   6  28  1   
 14   7   9  ar  
 15   7  10  ar  
 16   8  11  1   
 17   8  12  1   
 18   8  29  1   
 19   9  13  ar  
 20   9  30  1   
 21  10  14  ar  
 22  10  31  1   
 23  11  15  1   
 24  11  32  1   
 25  11  33  1   
 26  12  34  1   
 27  12  35  1   
 28  12  36  1   
 29  13  16  ar  
 30  13  37  1   
 31  14  16  ar  
 32  14  38  1   
 33  15  17  2   
 34  15  18  1   
 35  16  39  1   
 36  17  19  1   
 37  18  20  2   
 38  18  40  1   
 39  19  20  1   
 40  19  41  1   
 41  20  21  1   
 42  21  22  1   
 43  21  42  1   
 44  21  43  1   
 45  22  23  1   
 46  22  44  1   
 47  22  45  1   
 48  23  46  1   
 49  23  47  1   
 50  23  48  1   
@<TRIPOS>SUBSTRUCTURE
  1 ****   6 GROUP 4 **** **** 0

# MOE 2024.06 (io_trps.svl 2023.06)
