@<TRIPOS>MOLECULE
NONAME
48 50 1 0 0 
SMALL
USER_CHARGES


@<TRIPOS>ATOM
  1 S        0.6640     0.2170    -1.2440 S.3   1 <1>  -0.0800 
  2 C        0.7310    -0.8410     0.1760 C.2   1 <1>  -0.0130 
  3 C       -1.0430     0.5370    -1.0270 C.2   1 <1>  -0.1400 
  4 C        1.9890    -1.4460     0.5460 C.ar  1 <1>   0.3630 
  5 C       -0.5120    -0.8930     0.7220 C.2   1 <1>  -0.1500 
  6 C       -1.5050    -0.1210     0.0500 C.2   1 <1>  -0.1500 
  7 C       -1.7160     1.4500    -2.0300 C.3   1 <1>  -0.0600 
  8 N        3.0130    -1.3490    -0.3020 N.ar  1 <1>  -0.6200 
  9 C        2.1200    -2.0850     1.7770 C.ar  1 <1>  -0.1500 
 10 C        4.1600    -1.9150     0.0390 C.ar  1 <1>   0.4100 
 11 C        3.3320    -2.5990     2.1690 C.ar  1 <1>  -0.1500 
 12 N        5.1120    -1.8460    -0.9590 N.pl3 1 <1>  -0.8380 
 13 C        4.3970    -2.4820     1.2940 C.ar  1 <1>  -0.1790 
 14 C        6.3180    -0.9570    -0.8400 C.3   1 <1>   0.2090 
 15 C        5.4340    -3.1660    -1.5750 C.3   1 <1>   0.1290 
 16 C        5.7230    -2.8560     1.6830 C.2   1 <1>   0.9790 
 17 C        5.9570     0.5420    -0.9110 C.3   1 <1>   0.3430 
 18 O        6.4260    -2.0090     2.2660 O.co2 1 <1>  -0.9000 
 19 O        6.1930    -3.9740     1.4290 O.co2 1 <1>  -0.9000 
 20 N        4.8840     0.8950     0.0580 N.4   1 <1>  -0.9590 
 21 C        4.1050     2.1250    -0.2610 C.3   1 <1>   0.3430 
 22 C        5.3560     0.8690     1.4840 C.3   1 <1>   0.3430 
 23 C        3.0160     2.3710     0.8020 C.3   1 <1>   0.1200 
 24 C        4.2070     1.1890     2.4540 C.3   1 <1>   0.1200 
 25 O        3.5720     2.3870     2.0880 O.3   1 <1>  -0.5600 
 26 H       -0.7790    -1.4610     1.5950 H     1 <1>   0.1500 
 27 H       -2.5220    -0.0980     0.4020 H     1 <1>   0.1500 
 28 H       -1.2530     2.4200    -2.0140 H     1 <1>   0.0800 
 29 H       -2.7580     1.5580    -1.7920 H     1 <1>   0.0800 
 30 H       -1.6270     1.0360    -3.0190 H     1 <1>   0.0800 
 31 H        1.2760    -2.1640     2.4350 H     1 <1>   0.1500 
 32 H        3.4710    -3.0710     3.1280 H     1 <1>   0.1500 
 33 H        6.9940    -1.1750    -1.6480 H     1 <1>   0.0800 
 34 H        6.8520    -1.1620     0.0690 H     1 <1>   0.0800 
 35 H        4.6110    -3.8490    -1.4420 H     1 <1>   0.0800 
 36 H        6.3060    -3.5950    -1.1070 H     1 <1>   0.0800 
 37 H        5.6160    -3.0470    -2.6280 H     1 <1>   0.0800 
 38 H        5.6130     0.7450    -1.9110 H     1 <1>   0.0800 
 39 H        6.8350     1.1370    -0.7270 H     1 <1>   0.0800 
 40 H        4.2200     0.0950    -0.0450 H     1 <1>   0.4500 
 41 H        3.6400     2.0200    -1.2270 H     1 <1>   0.0800 
 42 H        4.7610     2.9780    -0.2890 H     1 <1>   0.0800 
 43 H        6.1390     1.5940     1.6260 H     1 <1>   0.0800 
 44 H        5.7580    -0.0960     1.7220 H     1 <1>   0.0800 
 45 H        2.2620     1.6030     0.7640 H     1 <1>   0.0800 
 46 H        2.5430     3.3220     0.6360 H     1 <1>   0.0800 
 47 H        4.5910     1.3060     3.4520 H     1 <1>   0.0800 
 48 H        3.4820     0.3950     2.4570 H     1 <1>   0.0800 
@<TRIPOS>BOND
  1   1   2  1   
  2   1   3  1   
  3   2   4  1   
  4   2   5  2   
  5   3   6  2   
  6   3   7  1   
  7   4   8  ar  
  8   4   9  ar  
  9   5   6  1   
 10   5  26  1   
 11   6  27  1   
 12   7  28  1   
 13   7  29  1   
 14   7  30  1   
 15   8  10  ar  
 16   9  11  ar  
 17   9  31  1   
 18  10  12  1   
 19  10  13  ar  
 20  11  13  ar  
 21  11  32  1   
 22  12  14  1   
 23  12  15  1   
 24  13  16  1   
 25  14  17  1   
 26  14  33  1   
 27  14  34  1   
 28  15  35  1   
 29  15  36  1   
 30  15  37  1   
 31  16  18  ar  
 32  16  19  ar  
 33  17  20  1   
 34  17  38  1   
 35  17  39  1   
 36  20  21  1   
 37  20  22  1   
 38  20  40  1   
 39  21  23  1   
 40  21  41  1   
 41  21  42  1   
 42  22  24  1   
 43  22  43  1   
 44  22  44  1   
 45  23  25  1   
 46  23  45  1   
 47  23  46  1   
 48  24  25  1   
 49  24  47  1   
 50  24  48  1   
@<TRIPOS>SUBSTRUCTURE
  1 ****   8 GROUP 4 **** **** 0

# MOE 2024.06 (io_trps.svl 2023.06)
