@<TRIPOS>MOLECULE
NONAME
53 55 1 0 0 
SMALL
USER_CHARGES


@<TRIPOS>ATOM
  1 O       -0.7590     1.9670     0.7250 O.2   1 <1>  -0.5700 
  2 C        0.4550     1.9240     0.6700 C.2   1 <1>   0.5440 
  3 N        1.0560     2.8580    -0.1260 N.am  1 <1>  -0.5470 
  4 C        1.2040     1.0000     1.4800 C.ar  1 <1>   0.0860 
  5 C        2.4110     3.1640    -0.3460 C.ar  1 <1>   0.1170 
  6 C        1.4180    -0.3330     1.0800 C.ar  1 <1>   0.4100 
  7 C        1.7610     1.4190     2.6790 C.ar  1 <1>  -0.1500 
  8 C        2.8040     4.5040    -0.4500 C.ar  1 <1>   0.0820 
  9 C        3.3710     2.1700    -0.4830 C.ar  1 <1>  -0.1500 
 10 N        2.1340    -1.2080     1.7870 N.ar  1 <1>  -0.6200 
 11 N        0.9070    -0.8240    -0.1050 N.pl3 1 <1>  -0.8380 
 12 C        2.4950     0.5120     3.4080 C.ar  1 <1>  -0.1500 
 13 O        1.8220     5.4480    -0.3410 O.3   1 <1>  -0.3620 
 14 C        4.1410     4.8270    -0.6570 C.ar  1 <1>  -0.1500 
 15 C        4.6990     2.4940    -0.6860 C.ar  1 <1>  -0.1500 
 16 C        2.6480    -0.7730     2.9200 C.ar  1 <1>   0.1600 
 17 C        1.7630    -1.6480    -1.0100 C.3   1 <1>   0.2090 
 18 C       -0.5530    -1.0790    -0.2050 C.3   1 <1>   0.2090 
 19 C        2.1110     6.8280    -0.4010 C.3   1 <1>   0.0400 
 20 C        5.0940     3.8180    -0.7710 C.ar  1 <1>   0.0820 
 21 C        1.4640    -3.1480    -0.8460 C.3   1 <1>   0.2000 
 22 C       -0.8370    -2.5690     0.0110 C.3   1 <1>  -0.1600 
 23 O        6.4200     4.0430    -0.9680 O.3   1 <1>  -0.3620 
 24 O        2.1550    -3.8650    -1.8170 O.3   1 <1>  -0.6800 
 25 C       -0.0400    -3.4670    -0.9600 C.3   1 <1>  -0.0800 
 26 C        6.9330     5.3520    -1.0780 C.3   1 <1>   0.0400 
 27 C       -0.2870    -4.9630    -0.6990 C.3   1 <1>   0.1200 
 28 O       -1.6350    -5.2520    -0.8460 O.3   1 <1>  -0.6800 
 29 H        0.4070     3.5830    -0.4360 H     1 <1>   0.3700 
 30 H        1.6210     2.4310     3.0200 H     1 <1>   0.1500 
 31 H        3.0870     1.1350    -0.4410 H     1 <1>   0.1500 
 32 H        2.9460     0.7930     4.3420 H     1 <1>   0.1500 
 33 H        4.4430     5.8500    -0.7300 H     1 <1>   0.1500 
 34 H        5.4390     1.7200    -0.7850 H     1 <1>   0.1500 
 35 H        3.2250    -1.4770     3.4950 H     1 <1>   0.1500 
 36 H        1.5720    -1.3470    -2.0240 H     1 <1>   0.0800 
 37 H        2.8000    -1.4690    -0.7870 H     1 <1>   0.0800 
 38 H       -1.0810    -0.5090     0.5400 H     1 <1>   0.0800 
 39 H       -0.9010    -0.7660    -1.1750 H     1 <1>   0.0800 
 40 H        1.1880     7.3670    -0.2800 H     1 <1>   0.0800 
 41 H        2.5410     7.0540    -1.3610 H     1 <1>   0.0800 
 42 H        2.7870     7.0790     0.3970 H     1 <1>   0.0800 
 43 H        1.8380    -3.4640     0.1140 H     1 <1>   0.0800 
 44 H       -0.5860    -2.8160     1.0280 H     1 <1>   0.0800 
 45 H       -1.8920    -2.7280    -0.1180 H     1 <1>   0.0800 
 46 H        1.7760    -3.6950    -2.7000 H     1 <1>   0.4000 
 47 H       -0.3550    -3.2390    -1.9630 H     1 <1>   0.0800 
 48 H        7.9950     5.2830    -1.2300 H     1 <1>   0.0800 
 49 H        6.7290     5.8850    -0.1660 H     1 <1>   0.0800 
 50 H        6.4750     5.8370    -1.9220 H     1 <1>   0.0800 
 51 H        0.0140    -5.2390     0.2970 H     1 <1>   0.0800 
 52 H        0.2530    -5.5700    -1.4060 H     1 <1>   0.0800 
 53 H       -2.1550    -4.8000    -0.1540 H     1 <1>   0.4000 
@<TRIPOS>BOND
  1   1   2  2   
  2   2   3  am  
  3   2   4  1   
  4   3   5  1   
  5   3  29  1   
  6   4   6  ar  
  7   4   7  ar  
  8   5   8  ar  
  9   5   9  ar  
 10   6  10  ar  
 11   6  11  1   
 12   7  12  ar  
 13   7  30  1   
 14   8  13  1   
 15   8  14  ar  
 16   9  15  ar  
 17   9  31  1   
 18  10  16  ar  
 19  11  17  1   
 20  11  18  1   
 21  12  16  ar  
 22  12  32  1   
 23  13  19  1   
 24  14  20  ar  
 25  14  33  1   
 26  15  20  ar  
 27  15  34  1   
 28  16  35  1   
 29  17  21  1   
 30  17  36  1   
 31  17  37  1   
 32  18  22  1   
 33  18  38  1   
 34  18  39  1   
 35  19  40  1   
 36  19  41  1   
 37  19  42  1   
 38  20  23  1   
 39  21  24  1   
 40  21  25  1   
 41  21  43  1   
 42  22  25  1   
 43  22  44  1   
 44  22  45  1   
 45  23  26  1   
 46  24  46  1   
 47  25  27  1   
 48  25  47  1   
 49  26  48  1   
 50  26  49  1   
 51  26  50  1   
 52  27  28  1   
 53  27  51  1   
 54  27  52  1   
 55  28  53  1   
@<TRIPOS>SUBSTRUCTURE
  1 ****   4 GROUP 4 **** **** 0

# MOE 2024.06 (io_trps.svl 2023.06)
