@<TRIPOS>MOLECULE
NONAME
56 59 1 0 0 
SMALL
USER_CHARGES


@<TRIPOS>ATOM
  1 O        0.4970    -0.6660    -1.5800 O.2   1 <1>  -0.5700 
  2 C        0.8740    -1.6280    -0.9540 C.2   1 <1>   0.5690 
  3 N        1.5830    -1.4790     0.2140 N.am  1 <1>  -0.6600 
  4 C        0.4670    -2.9680    -1.5520 C.3   1 <1>  -0.0990 
  5 C        1.9950    -2.6080     1.1040 C.3   1 <1>   0.1400 
  6 C        1.8770    -0.1120     0.7360 C.3   1 <1>   0.2780 
  7 C        0.9850    -4.2540    -0.9100 C.3   1 <1>   0.1200 
  8 C        2.8980    -3.6780     0.4260 C.3   1 <1>   0.2800 
  9 C        3.3760     0.1290     0.7770 C.2   1 <1>  -0.2880 
 10 O        2.3650    -4.1720    -0.7760 O.3   1 <1>  -0.5600 
 11 C        3.0970    -4.8800     1.3680 C.3   1 <1>  -0.1600 
 12 C        4.2650    -3.0800     0.0540 C.3   1 <1>  -0.1600 
 13 C        4.0420     0.9390    -0.0530 C.2   1 <1>  -0.3000 
 14 C        4.0790    -5.9050     0.7960 C.3   1 <1>   0.1400 
 15 C        5.2210    -4.1360    -0.5060 C.3   1 <1>   0.1400 
 16 N        5.3720    -5.2290     0.4960 N.am  1 <1>  -0.6600 
 17 C        6.5340    -5.6240     1.1120 C.2   1 <1>   0.5690 
 18 O        6.5550    -6.5250     1.9160 O.2   1 <1>  -0.5700 
 19 C        7.8590    -4.9690     0.7990 C.3   1 <1>  -0.0990 
 20 C        8.4450    -5.5920    -0.4630 C.3   1 <1>   0.3640 
 21 N        8.8470    -6.9900    -0.2120 N.am  1 <1>  -0.7300 
 22 C        9.7770    -4.9670    -0.8590 C.ar  1 <1>  -0.1440 
 23 C       10.1800    -7.1580    -0.3500 C.2   1 <1>   0.5440 
 24 C       10.7720    -5.9260    -0.7820 C.ar  1 <1>   0.0860 
 25 C       10.0620    -3.6720    -1.2530 C.ar  1 <1>  -0.1500 
 26 O       10.7410    -8.2010    -0.0930 O.2   1 <1>  -0.5700 
 27 C       12.0820    -5.5900    -1.0990 C.ar  1 <1>  -0.1500 
 28 C       11.3710    -3.3400    -1.5690 C.ar  1 <1>  -0.1500 
 29 C       12.3760    -4.2950    -1.4920 C.ar  1 <1>  -0.1500 
 30 H        0.7860    -2.9640    -2.5770 H     1 <1>   0.0800 
 31 H       -0.6050    -3.0040    -1.5630 H     1 <1>   0.0800 
 32 H        1.1120    -3.0690     1.5060 H     1 <1>   0.0800 
 33 H        2.5290    -2.2160     1.9500 H     1 <1>   0.0800 
 34 H        1.4600    -0.0060     1.7230 H     1 <1>   0.0800 
 35 H        1.4210     0.6390     0.1140 H     1 <1>   0.0800 
 36 H        0.7790    -5.0820    -1.5660 H     1 <1>   0.0800 
 37 H        0.5200    -4.4600     0.0370 H     1 <1>   0.0800 
 38 H        3.8680    -0.4230     1.5560 H     1 <1>   0.1500 
 39 H        2.1550    -5.3590     1.5600 H     1 <1>   0.0800 
 40 H        3.4830    -4.5390     2.3120 H     1 <1>   0.0800 
 41 H        4.7180    -2.6360     0.9210 H     1 <1>   0.0800 
 42 H        4.1250    -2.3020    -0.6750 H     1 <1>   0.0800 
 43 H        5.1040     1.1060    -0.0130 H     1 <1>   0.1500 
 44 H        3.5760     1.5010    -0.8450 H     1 <1>   0.1500 
 45 H        3.6840    -6.3290    -0.1120 H     1 <1>   0.0800 
 46 H        4.2170    -6.7060     1.5020 H     1 <1>   0.0800 
 47 H        6.1620    -3.6790    -0.7470 H     1 <1>   0.0800 
 48 H        4.8130    -4.5470    -1.4150 H     1 <1>   0.0800 
 49 H        8.5370    -5.1190     1.6200 H     1 <1>   0.0800 
 50 H        7.7340    -3.9120     0.6800 H     1 <1>   0.0800 
 51 H        7.7480    -5.5540    -1.2830 H     1 <1>   0.0800 
 52 H        8.2850    -7.6070     0.3810 H     1 <1>   0.3700 
 53 H        9.2870    -2.9280    -1.3170 H     1 <1>   0.1500 
 54 H       12.8490    -6.3420    -1.0330 H     1 <1>   0.1500 
 55 H       11.6110    -2.3370    -1.8770 H     1 <1>   0.1500 
 56 H       13.3890    -4.0270    -1.7390 H     1 <1>   0.1500 
@<TRIPOS>BOND
  1   1   2  2   
  2   2   3  am  
  3   2   4  1   
  4   3   5  1   
  5   3   6  1   
  6   4   7  1   
  7   4  30  1   
  8   4  31  1   
  9   5   8  1   
 10   5  32  1   
 11   5  33  1   
 12   6   9  1   
 13   6  34  1   
 14   6  35  1   
 15   7  10  1   
 16   7  36  1   
 17   7  37  1   
 18   8  10  1   
 19   8  11  1   
 20   8  12  1   
 21   9  13  2   
 22   9  38  1   
 23  11  14  1   
 24  11  39  1   
 25  11  40  1   
 26  12  15  1   
 27  12  41  1   
 28  12  42  1   
 29  13  43  1   
 30  13  44  1   
 31  14  16  1   
 32  14  45  1   
 33  14  46  1   
 34  15  16  1   
 35  15  47  1   
 36  15  48  1   
 37  16  17  am  
 38  17  18  2   
 39  17  19  1   
 40  19  20  1   
 41  19  49  1   
 42  19  50  1   
 43  20  21  1   
 44  20  22  1   
 45  20  51  1   
 46  21  23  am  
 47  21  52  1   
 48  22  24  ar  
 49  22  25  ar  
 50  23  24  1   
 51  23  26  2   
 52  24  27  ar  
 53  25  28  ar  
 54  25  53  1   
 55  27  29  ar  
 56  27  54  1   
 57  28  29  ar  
 58  28  55  1   
 59  29  56  1   
@<TRIPOS>SUBSTRUCTURE
  1 ****  15 GROUP 4 **** **** 0

# MOE 2024.06 (io_trps.svl 2023.06)
