@<TRIPOS>MOLECULE
NONAME
51 53 1 0 0 
SMALL
USER_CHARGES


@<TRIPOS>ATOM
  1 S        0.3300     0.6140     1.8710 S.o2  1 <1>   1.4470 
  2 O       -0.1030    -0.1010     3.0530 O.2   1 <1>  -0.6500 
  3 O        0.5610     2.0410     1.9530 O.2   1 <1>  -0.6500 
  4 N       -0.8660     0.3770     0.6950 N.am  1 <1>  -0.8490 
  5 C        1.7710    -0.2250     1.1590 C.ar  1 <1>  -0.0090 
  6 C       -2.2180     0.5420     1.2660 C.3   1 <1>   0.1960 
  7 C       -0.6250     1.1170    -0.5580 C.3   1 <1>   0.1960 
  8 C        2.9540     0.4590     0.9030 C.ar  1 <1>  -0.1500 
  9 C        1.7230    -1.5770     0.8430 C.ar  1 <1>  -0.1500 
 10 C       -3.3270     0.6870     0.1970 C.3   1 <1>   0.0000 
 11 C       -1.5420     2.3340    -0.6970 C.3   1 <1>  -0.1600 
 12 C        4.0550    -0.1730     0.3470 C.ar  1 <1>  -0.1430 
 13 C        2.8110    -2.2260     0.2890 C.ar  1 <1>  -0.1500 
 14 C       -4.7000     0.7590     0.9000 C.3   1 <1>   0.2000 
 15 C       -3.0320     1.9430    -0.6700 C.3   1 <1>  -0.1600 
 16 C       -3.4570    -0.6090    -0.6300 C.3   1 <1>  -0.1600 
 17 C        3.9870    -1.5270     0.0350 C.ar  1 <1>   0.0830 
 18 C        5.3280     0.6200     0.0840 C.3   1 <1>  -0.0970 
 19 O       -5.6540     1.2600     0.0070 O.3   1 <1>  -0.5600 
 20 C       -5.0620    -0.6960     1.2240 C.3   1 <1>  -0.1600 
 21 C       -4.3050    -1.5670     0.2130 C.3   1 <1>  -0.1600 
 22 O        5.0880    -2.1070    -0.5090 O.3   1 <1>  -0.3630 
 23 C       -6.7640     1.8570     0.6010 C.3   1 <1>   0.0400 
 24 C        5.1260    -3.4800    -0.8280 C.3   1 <1>   0.0400 
 25 H       -2.4220    -0.3010     1.9040 H     1 <1>   0.0800 
 26 H       -2.2300     1.4250     1.8860 H     1 <1>   0.0800 
 27 H        0.4040     1.4300    -0.6240 H     1 <1>   0.0800 
 28 H       -0.8090     0.4540    -1.3860 H     1 <1>   0.0800 
 29 H        3.0070     1.5070     1.1460 H     1 <1>   0.1500 
 30 H        0.8150    -2.1250     1.0360 H     1 <1>   0.1500 
 31 H       -1.3280     3.0160     0.1080 H     1 <1>   0.0800 
 32 H       -1.3240     2.8470    -1.6170 H     1 <1>   0.0800 
 33 H        2.7240    -3.2710     0.0630 H     1 <1>   0.1500 
 34 H       -4.6670     1.3880     1.7740 H     1 <1>   0.0800 
 35 H       -3.3820     1.7770    -1.6740 H     1 <1>   0.0800 
 36 H       -3.5810     2.7860    -0.2880 H     1 <1>   0.0800 
 37 H       -3.9940    -0.4000    -1.5390 H     1 <1>   0.0800 
 38 H       -2.5090    -1.0470    -0.8870 H     1 <1>   0.0800 
 39 H        5.2190     1.6460     0.3820 H     1 <1>   0.0800 
 40 H        5.5660     0.5880    -0.9640 H     1 <1>   0.0800 
 41 H        6.1440     0.1870     0.6350 H     1 <1>   0.0800 
 42 H       -4.7220    -0.9330     2.2160 H     1 <1>   0.0800 
 43 H       -6.1220    -0.8680     1.1770 H     1 <1>   0.0800 
 44 H       -3.6720    -2.2660     0.7320 H     1 <1>   0.0800 
 45 H       -4.9880    -2.1140    -0.4150 H     1 <1>   0.0800 
 46 H       -7.4310     2.1700    -0.1820 H     1 <1>   0.0800 
 47 H       -6.4440     2.7140     1.1680 H     1 <1>   0.0800 
 48 H       -7.2600     1.1450     1.2360 H     1 <1>   0.0800 
 49 H        6.0980    -3.7020    -1.2300 H     1 <1>   0.0800 
 50 H        4.3700    -3.6880    -1.5640 H     1 <1>   0.0800 
 51 H        4.9620    -4.0510     0.0680 H     1 <1>   0.0800 
@<TRIPOS>BOND
  1   1   2  2   
  2   1   3  2   
  3   1   4  am  
  4   1   5  1   
  5   4   6  1   
  6   4   7  1   
  7   5   8  ar  
  8   5   9  ar  
  9   6  10  1   
 10   6  25  1   
 11   6  26  1   
 12   7  11  1   
 13   7  27  1   
 14   7  28  1   
 15   8  12  ar  
 16   8  29  1   
 17   9  13  ar  
 18   9  30  1   
 19  10  14  1   
 20  10  15  1   
 21  10  16  1   
 22  11  15  1   
 23  11  31  1   
 24  11  32  1   
 25  12  17  ar  
 26  12  18  1   
 27  13  17  ar  
 28  13  33  1   
 29  14  19  1   
 30  14  20  1   
 31  14  34  1   
 32  15  35  1   
 33  15  36  1   
 34  16  21  1   
 35  16  37  1   
 36  16  38  1   
 37  17  22  1   
 38  18  39  1   
 39  18  40  1   
 40  18  41  1   
 41  19  23  1   
 42  20  21  1   
 43  20  42  1   
 44  20  43  1   
 45  21  44  1   
 46  21  45  1   
 47  22  24  1   
 48  23  46  1   
 49  23  47  1   
 50  23  48  1   
 51  24  49  1   
 52  24  50  1   
 53  24  51  1   
@<TRIPOS>SUBSTRUCTURE
  1 ****   4 GROUP 4 **** **** 0

# MOE 2024.06 (io_trps.svl 2023.06)
