@<TRIPOS>MOLECULE
NONAME
36 38 1 0 0 
SMALL
USER_CHARGES


@<TRIPOS>ATOM
  1 S        0.1500    -0.4730    -0.3200 S.3   1 <1>  -0.0800 
  2 C       -1.5660    -0.7330    -0.2620 C.2   1 <1>  -0.1400 
  3 C        0.3780    -2.1350     0.1980 C.2   1 <1>   0.1980 
  4 C       -1.8100    -1.9910     0.1210 C.2   1 <1>   0.0460 
  5 C       -2.5590     0.3500    -0.6210 C.3   1 <1>   0.0200 
  6 N       -0.7000    -2.7880     0.3820 N.2   1 <1>  -0.5650 
  7 C        1.7990    -2.6160     0.3710 C.3   1 <1>  -0.0600 
  8 C       -3.2320    -2.5300     0.2510 C.3   1 <1>   0.4010 
  9 C       -3.9690    -0.1050    -0.1950 C.3   1 <1>  -0.1600 
 10 N       -3.2720    -3.8710    -0.3370 N.am  1 <1>  -0.7300 
 11 C       -4.2230    -1.6030    -0.4870 C.3   1 <1>  -0.1600 
 12 C       -4.1790    -4.8250    -0.0190 C.2   1 <1>   0.7150 
 13 O       -5.1690    -4.4950     0.6090 O.2   1 <1>  -0.5700 
 14 C       -3.9330    -6.1860    -0.4230 C.2   1 <1>  -0.2370 
 15 N       -4.7270    -7.2630    -0.1020 N.pl3 1 <1>   0.0480 
 16 C       -2.8930    -6.6620    -1.1840 C.2   1 <1>  -0.1500 
 17 C       -4.1790    -8.3720    -0.6550 C.2   1 <1>  -0.3020 
 18 C       -5.9650    -7.2660     0.7030 C.3   1 <1>   0.0160 
 19 C       -3.0490    -8.0360    -1.3280 C.2   1 <1>  -0.1500 
 20 H       -2.5270     0.5100    -1.6840 H     1 <1>   0.0800 
 21 H       -2.3020     1.2700    -0.1260 H     1 <1>   0.0800 
 22 H        2.2990    -2.0150     1.1070 H     1 <1>   0.0800 
 23 H        2.3230    -2.5430    -0.5640 H     1 <1>   0.0800 
 24 H        1.7980    -3.6400     0.6950 H     1 <1>   0.0800 
 25 H       -3.4840    -2.5890     1.2970 H     1 <1>   0.0800 
 26 H       -4.7060     0.4950    -0.7000 H     1 <1>   0.0800 
 27 H       -4.0820     0.0610     0.8630 H     1 <1>   0.0800 
 28 H       -2.3330    -4.1840    -0.5900 H     1 <1>   0.3700 
 29 H       -5.2240    -1.8630    -0.1930 H     1 <1>   0.0800 
 30 H       -4.1300    -1.7670    -1.5460 H     1 <1>   0.0800 
 31 H       -2.0830    -6.0970    -1.6120 H     1 <1>   0.1500 
 32 H       -4.6150    -9.3500    -0.5470 H     1 <1>   0.1500 
 33 H       -6.7000    -6.6460     0.2230 H     1 <1>   0.0800 
 34 H       -5.7510    -6.8750     1.6810 H     1 <1>   0.0800 
 35 H       -6.3410    -8.2680     0.7900 H     1 <1>   0.0800 
 36 H       -2.3880    -8.6880    -1.8740 H     1 <1>   0.1500 
@<TRIPOS>BOND
  1   1   2  1   
  2   1   3  1   
  3   2   4  2   
  4   2   5  1   
  5   3   6  2   
  6   3   7  1   
  7   4   6  1   
  8   4   8  1   
  9   5   9  1   
 10   5  20  1   
 11   5  21  1   
 12   7  22  1   
 13   7  23  1   
 14   7  24  1   
 15   8  10  1   
 16   8  11  1   
 17   8  25  1   
 18   9  11  1   
 19   9  26  1   
 20   9  27  1   
 21  10  12  am  
 22  10  28  1   
 23  11  29  1   
 24  11  30  1   
 25  12  13  2   
 26  12  14  1   
 27  14  15  1   
 28  14  16  2   
 29  15  17  1   
 30  15  18  1   
 31  16  19  1   
 32  16  31  1   
 33  17  19  2   
 34  17  32  1   
 35  18  33  1   
 36  18  34  1   
 37  18  35  1   
 38  19  36  1   
@<TRIPOS>SUBSTRUCTURE
  1 ****  10 GROUP 4 **** **** 0

# MOE 2024.06 (io_trps.svl 2023.06)
