@<TRIPOS>MOLECULE
NONAME
44 46 1 0 0 
SMALL
USER_CHARGES


@<TRIPOS>ATOM
  1 F        1.7730     1.1920     0.2700 F     1 <1>  -0.1900 
  2 C        2.1490    -0.0580     0.1540 C.ar  1 <1>   0.1900 
  3 C        1.1900    -0.9840    -0.2480 C.ar  1 <1>   0.0820 
  4 C        3.4760    -0.3830     0.4520 C.ar  1 <1>   0.0860 
  5 O       -0.0660    -0.5100    -0.5190 O.3   1 <1>  -0.3630 
  6 C        1.6100    -2.3140    -0.3350 C.ar  1 <1>   0.1900 
  7 C        4.4670     0.5990     0.8500 C.2   1 <1>   0.5440 
  8 C        3.8250    -1.7340     0.3570 C.ar  1 <1>  -0.1500 
  9 C       -1.1730    -1.3450    -0.7790 C.3   1 <1>   0.0400 
 10 F        0.8030    -3.2710    -0.7100 F     1 <1>  -0.1900 
 11 C        2.9060    -2.6910    -0.0340 C.ar  1 <1>  -0.1500 
 12 O        5.3750     0.3020     1.6040 O.2   1 <1>  -0.5700 
 13 N        4.5090     1.8720     0.3420 N.am  1 <1>  -0.6600 
 14 C        4.8270     3.0200     1.2680 C.3   1 <1>   0.2200 
 15 C        4.6070     2.0710    -1.1300 C.3   1 <1>   0.1400 
 16 C        4.2290     4.3550     0.7940 C.3   1 <1>   0.1200 
 17 C        6.3530     3.1610     1.4860 C.3   1 <1>   0.3430 
 18 C        5.6410     3.1370    -1.5390 C.3   1 <1>  -0.0800 
 19 O        5.1050     4.9990    -0.0850 O.3   1 <1>  -0.5600 
 20 N        7.1390     2.4100     0.4500 N.4   1 <1>  -0.9590 
 21 C        5.0740     4.5610    -1.4010 C.3   1 <1>   0.1200 
 22 C        7.0580     2.9980    -0.9290 C.3   1 <1>   0.3430 
 23 C        8.5450     2.1940     0.8910 C.3   1 <1>   0.2630 
 24 H        4.8320    -2.0360     0.5970 H     1 <1>   0.1500 
 25 H       -2.0460    -0.7240    -0.8700 H     1 <1>   0.0800 
 26 H       -1.2990    -2.0300     0.0410 H     1 <1>   0.0800 
 27 H       -1.0070    -1.8730    -1.7020 H     1 <1>   0.0800 
 28 H        3.1880    -3.7280    -0.1060 H     1 <1>   0.1500 
 29 H        4.3760     2.8020     2.2210 H     1 <1>   0.0800 
 30 H        4.8760     1.1340    -1.5890 H     1 <1>   0.0800 
 31 H        3.6350     2.3430    -1.5080 H     1 <1>   0.0800 
 32 H        4.1120     5.0090     1.6410 H     1 <1>   0.0800 
 33 H        3.2630     4.2230     0.3360 H     1 <1>   0.0800 
 34 H        6.5800     2.7560     2.4580 H     1 <1>   0.0800 
 35 H        6.6320     4.2020     1.4910 H     1 <1>   0.0800 
 36 H        5.7700     3.0130    -2.6000 H     1 <1>   0.0800 
 37 H        6.6480     1.4930     0.4390 H     1 <1>   0.4500 
 38 H        4.0630     4.6260    -1.7670 H     1 <1>   0.0800 
 39 H        5.6760     5.2500    -1.9700 H     1 <1>   0.0800 
 40 H        7.5240     3.9700    -0.9270 H     1 <1>   0.0800 
 41 H        7.6340     2.3710    -1.5900 H     1 <1>   0.0800 
 42 H        9.0600     3.1380     0.9740 H     1 <1>   0.0800 
 43 H        9.0680     1.5730     0.1830 H     1 <1>   0.0800 
 44 H        8.5610     1.7040     1.8520 H     1 <1>   0.0800 
@<TRIPOS>BOND
  1   1   2  1   
  2   2   3  ar  
  3   2   4  ar  
  4   3   5  1   
  5   3   6  ar  
  6   4   7  1   
  7   4   8  ar  
  8   5   9  1   
  9   6  10  1   
 10   6  11  ar  
 11   7  12  2   
 12   7  13  am  
 13   8  11  ar  
 14   8  24  1   
 15   9  25  1   
 16   9  26  1   
 17   9  27  1   
 18  11  28  1   
 19  13  14  1   
 20  13  15  1   
 21  14  16  1   
 22  14  17  1   
 23  14  29  1   
 24  15  18  1   
 25  15  30  1   
 26  15  31  1   
 27  16  19  1   
 28  16  32  1   
 29  16  33  1   
 30  17  20  1   
 31  17  34  1   
 32  17  35  1   
 33  18  21  1   
 34  18  22  1   
 35  18  36  1   
 36  19  21  1   
 37  20  22  1   
 38  20  23  1   
 39  20  37  1   
 40  21  38  1   
 41  21  39  1   
 42  22  40  1   
 43  22  41  1   
 44  23  42  1   
 45  23  43  1   
 46  23  44  1   
@<TRIPOS>SUBSTRUCTURE
  1 ****   7 GROUP 4 **** **** 0

# MOE 2024.06 (io_trps.svl 2023.06)
