@<TRIPOS>MOLECULE
NONAME
51 53 1 0 0 
SMALL
USER_CHARGES


@<TRIPOS>ATOM
  1 S       -0.4940    -0.5440    -1.4850 S.o2  1 <1>   1.3330 
  2 O       -1.8090    -0.6760    -2.0620 O.2   1 <1>  -0.6500 
  3 O        0.6410    -0.2180    -2.3110 O.2   1 <1>  -0.6500 
  4 N       -0.1480    -2.0590    -0.7250 N.am  1 <1>  -0.6930 
  5 C       -0.5960     0.5830    -0.1100 C.3   1 <1>  -0.1350 
  6 C        0.8320    -2.1750     0.2560 C.ar  1 <1>   0.1990 
  7 C       -0.3360    -3.2530    -1.6100 C.3   1 <1>   0.2570 
  8 C        2.1320    -1.7290     0.0480 C.ar  1 <1>  -0.1500 
  9 C        0.5120    -2.7550     1.4820 C.ar  1 <1>  -0.1500 
 10 C       -0.9210    -4.4840    -0.9000 C.2   1 <1>   0.5690 
 11 C        3.0560    -1.8590     1.0640 C.ar  1 <1>   0.1900 
 12 C        1.4530    -2.8800     2.4910 C.ar  1 <1>  -0.1500 
 13 O       -0.1850    -5.4360    -0.7770 O.2   1 <1>  -0.5700 
 14 N       -2.2160    -4.5180    -0.4190 N.am  1 <1>  -0.6600 
 15 F        4.2730    -1.4300     0.8650 F     1 <1>  -0.1900 
 16 C        2.7450    -2.4250     2.2860 C.ar  1 <1>  -0.1500 
 17 C       -3.1880    -3.4060    -0.6430 C.3   1 <1>   0.2200 
 18 C       -2.6840    -5.7050     0.3620 C.3   1 <1>   0.0600 
 19 C       -4.6060    -3.8420    -1.0050 C.3   1 <1>  -0.1600 
 20 C       -3.3740    -2.5390     0.5950 C.3   1 <1>  -0.1600 
 21 C       -5.4530    -2.5890    -0.7390 C.3   1 <1>  -0.0800 
 22 C       -4.6750    -1.7730     0.3260 C.3   1 <1>  -0.0800 
 23 C       -6.9210    -2.9140    -0.3960 C.3   1 <1>   0.1400 
 24 C       -5.4750    -1.4750     1.6080 C.3   1 <1>  -0.0990 
 25 N       -7.5340    -1.7750     0.3180 N.am  1 <1>  -0.7300 
 26 C       -6.8890    -1.0620     1.2650 C.2   1 <1>   0.5690 
 27 O       -7.4130    -0.1370     1.8280 O.2   1 <1>  -0.5700 
 28 H       -1.3530     0.2630     0.5790 H     1 <1>   0.0800 
 29 H       -0.8450     1.5650    -0.4610 H     1 <1>   0.0800 
 30 H        0.3430     0.6330     0.4040 H     1 <1>   0.0800 
 31 H       -0.9660    -3.0080    -2.4450 H     1 <1>   0.0800 
 32 H        0.6230    -3.5270    -2.0150 H     1 <1>   0.0800 
 33 H        2.4280    -1.2940    -0.8890 H     1 <1>   0.1500 
 34 H       -0.4880    -3.1170     1.6410 H     1 <1>   0.1500 
 35 H        1.1850    -3.3340     3.4300 H     1 <1>   0.1500 
 36 H        3.4970    -2.5090     3.0500 H     1 <1>   0.1500 
 37 H       -2.8510    -2.7780    -1.4460 H     1 <1>   0.0800 
 38 H       -3.2900    -5.3960     1.1940 H     1 <1>   0.0800 
 39 H       -1.8480    -6.2630     0.7480 H     1 <1>   0.0800 
 40 H       -3.2590    -6.3530    -0.2760 H     1 <1>   0.0800 
 41 H       -4.6710    -4.1540    -2.0320 H     1 <1>   0.0800 
 42 H       -4.9400    -4.6350    -0.3620 H     1 <1>   0.0800 
 43 H       -3.4820    -3.1610     1.4640 H     1 <1>   0.0800 
 44 H       -2.5480    -1.8680     0.7360 H     1 <1>   0.0800 
 45 H       -5.4590    -2.0030    -1.6440 H     1 <1>   0.0800 
 46 H       -4.4220    -0.8280    -0.1280 H     1 <1>   0.0800 
 47 H       -6.9740    -3.7790     0.2430 H     1 <1>   0.0800 
 48 H       -7.4730    -3.1210    -1.2970 H     1 <1>   0.0800 
 49 H       -4.9980    -0.6930     2.1700 H     1 <1>   0.0800 
 50 H       -5.5360    -2.3500     2.2280 H     1 <1>   0.0800 
 51 H       -8.5010    -1.5170     0.1080 H     1 <1>   0.3700 
@<TRIPOS>BOND
  1   1   2  2   
  2   1   3  2   
  3   1   4  am  
  4   1   5  1   
  5   4   6  1   
  6   4   7  1   
  7   5  28  1   
  8   5  29  1   
  9   5  30  1   
 10   6   8  ar  
 11   6   9  ar  
 12   7  10  1   
 13   7  31  1   
 14   7  32  1   
 15   8  11  ar  
 16   8  33  1   
 17   9  12  ar  
 18   9  34  1   
 19  10  13  2   
 20  10  14  am  
 21  11  15  1   
 22  11  16  ar  
 23  12  16  ar  
 24  12  35  1   
 25  14  17  1   
 26  14  18  1   
 27  16  36  1   
 28  17  19  1   
 29  17  20  1   
 30  17  37  1   
 31  18  38  1   
 32  18  39  1   
 33  18  40  1   
 34  19  21  1   
 35  19  41  1   
 36  19  42  1   
 37  20  22  1   
 38  20  43  1   
 39  20  44  1   
 40  21  22  1   
 41  21  23  1   
 42  21  45  1   
 43  22  24  1   
 44  22  46  1   
 45  23  25  1   
 46  23  47  1   
 47  23  48  1   
 48  24  26  1   
 49  24  49  1   
 50  24  50  1   
 51  25  26  am  
 52  25  51  1   
 53  26  27  2   
@<TRIPOS>SUBSTRUCTURE
  1 ****  20 GROUP 4 **** **** 0

# MOE 2024.06 (io_trps.svl 2023.06)
