@<TRIPOS>MOLECULE
NONAME
51 54 1 0 0 
SMALL
USER_CHARGES


@<TRIPOS>ATOM
  1 O        1.0610    -0.4390    -0.8360 O.3   1 <1>  -0.5600 
  2 C        2.0480    -1.1840    -0.1590 C.3   1 <1>   0.4240 
  3 C       -0.2660    -0.6420    -0.4660 C.3   1 <1>   0.1200 
  4 C        1.5860    -2.6370     0.0930 C.ar  1 <1>  -0.1440 
  5 C        2.3750    -0.4680     1.1620 C.3   1 <1>  -0.1600 
  6 C        3.2730    -1.1640    -1.0850 C.3   1 <1>  -0.1600 
  7 C       -0.6690    -2.0640    -0.8460 C.3   1 <1>  -0.0160 
  8 C        0.3020    -3.0540    -0.2340 C.ar  1 <1>  -0.1440 
  9 C        2.4510    -3.5620     0.6620 C.ar  1 <1>  -0.1500 
 10 C        2.9190     0.9400     0.9240 C.3   1 <1>   0.2090 
 11 C        3.7950     0.2570    -1.2930 C.3   1 <1>   0.2090 
 12 C       -0.0970    -4.3610    -0.0020 C.ar  1 <1>  -0.1500 
 13 C        2.0730    -4.8740     0.8960 C.ar  1 <1>   0.0820 
 14 N        4.1030     0.8550     0.0300 N.pl3 1 <1>  -0.8380 
 15 C        0.7710    -5.2870     0.5700 C.ar  1 <1>   0.0820 
 16 O        3.0450    -5.6570     1.4460 O.3   1 <1>  -0.3630 
 17 C        5.1190     1.7800     0.1400 C.ar  1 <1>   0.4100 
 18 O        0.3730    -6.5670     0.8320 O.3   1 <1>  -0.3630 
 19 C        3.1160    -7.0380     1.1730 C.3   1 <1>   0.0400 
 20 N        4.8290     2.9730     0.6220 N.ar  1 <1>  -0.6200 
 21 C        6.4080     1.4700    -0.2460 C.ar  1 <1>  -0.1500 
 22 C       -0.9640    -6.9870     0.6710 C.3   1 <1>   0.0400 
 23 C        5.8290     3.8290     0.6930 C.ar  1 <1>   0.4770 
 24 C        7.3660     2.4380    -0.1230 C.ar  1 <1>   0.1600 
 25 N        7.0910     3.6380     0.3470 N.ar  1 <1>  -0.6200 
 26 C        5.5000     5.1960     1.2400 C.3   1 <1>  -0.0970 
 27 H       -0.8690     0.0750    -0.9960 H     1 <1>   0.0800 
 28 H       -0.3710    -0.4770     0.5910 H     1 <1>   0.0800 
 29 H        3.1240    -1.0240     1.6950 H     1 <1>   0.0800 
 30 H        1.5070    -0.4270     1.7900 H     1 <1>   0.0800 
 31 H        3.0070    -1.5990    -2.0300 H     1 <1>   0.0800 
 32 H        4.0660    -1.7520    -0.6660 H     1 <1>   0.0800 
 33 H       -0.6620    -2.1630    -1.9160 H     1 <1>   0.0800 
 34 H       -1.6670    -2.2530    -0.4940 H     1 <1>   0.0800 
 35 H        3.4490    -3.2770     0.9380 H     1 <1>   0.1500 
 36 H        3.1990     1.3830     1.8650 H     1 <1>   0.0800 
 37 H        2.1690     1.5620     0.4650 H     1 <1>   0.0800 
 38 H        3.0490     0.8570    -1.7880 H     1 <1>   0.0800 
 39 H        4.6740     0.2370    -1.9140 H     1 <1>   0.0800 
 40 H       -1.0960    -4.6380    -0.2740 H     1 <1>   0.1500 
 41 H        4.1130    -7.3730     1.3970 H     1 <1>   0.0800 
 42 H        2.8950    -7.2040     0.1340 H     1 <1>   0.0800 
 43 H        2.4110    -7.5520     1.8010 H     1 <1>   0.0800 
 44 H        6.6370     0.4940    -0.6200 H     1 <1>   0.1500 
 45 H       -1.0340    -8.0080     1.0020 H     1 <1>   0.0800 
 46 H       -1.2280    -6.9230    -0.3700 H     1 <1>   0.0800 
 47 H       -1.6010    -6.3640     1.2730 H     1 <1>   0.0800 
 48 H        8.3830     2.2350    -0.4130 H     1 <1>   0.1500 
 49 H        4.4360     5.3380     1.2820 H     1 <1>   0.0800 
 50 H        5.9280     5.9510     0.6070 H     1 <1>   0.0800 
 51 H        5.9080     5.2900     2.2280 H     1 <1>   0.0800 
@<TRIPOS>BOND
  1   1   2  1   
  2   1   3  1   
  3   2   4  1   
  4   2   5  1   
  5   2   6  1   
  6   3   7  1   
  7   3  27  1   
  8   3  28  1   
  9   4   8  ar  
 10   4   9  ar  
 11   5  10  1   
 12   5  29  1   
 13   5  30  1   
 14   6  11  1   
 15   6  31  1   
 16   6  32  1   
 17   7   8  1   
 18   7  33  1   
 19   7  34  1   
 20   8  12  ar  
 21   9  13  ar  
 22   9  35  1   
 23  10  14  1   
 24  10  36  1   
 25  10  37  1   
 26  11  14  1   
 27  11  38  1   
 28  11  39  1   
 29  12  15  ar  
 30  12  40  1   
 31  13  15  ar  
 32  13  16  1   
 33  14  17  1   
 34  15  18  1   
 35  16  19  1   
 36  17  20  ar  
 37  17  21  ar  
 38  18  22  1   
 39  19  41  1   
 40  19  42  1   
 41  19  43  1   
 42  20  23  ar  
 43  21  24  ar  
 44  21  44  1   
 45  22  45  1   
 46  22  46  1   
 47  22  47  1   
 48  23  25  ar  
 49  23  26  1   
 50  24  25  ar  
 51  24  48  1   
 52  26  49  1   
 53  26  50  1   
 54  26  51  1   
@<TRIPOS>SUBSTRUCTURE
  1 ****   2 GROUP 4 **** **** 0

# MOE 2024.06 (io_trps.svl 2023.06)
