@<TRIPOS>MOLECULE
NONAME
54 56 1 0 0 
SMALL
USER_CHARGES


@<TRIPOS>ATOM
  1 O        0.2090    -0.7520    -1.4110 O.2   1 <1>  -0.5700 
  2 C        1.3460    -0.5090    -1.0890 C.2   1 <1>   0.5950 
  3 C        2.2210    -1.5070    -0.5340 C.2   1 <1>  -0.0860 
  4 C        1.8590     0.9000    -1.2800 C.3   1 <1>  -0.1790 
  5 C        3.5250    -1.4430    -0.1120 C.2   1 <1>  -0.3020 
  6 C        1.8430    -2.8410    -0.3200 C.2   1 <1>  -0.1500 
  7 N        3.9460    -2.6460     0.3350 N.pl3 1 <1>   0.0480 
  8 C        2.9000    -3.5160     0.2080 C.2   1 <1>  -0.3320 
  9 C        5.3030    -2.9170     0.8520 C.3   1 <1>   0.0160 
 10 C        3.0110    -4.9750     0.6030 C.3   1 <1>   0.5230 
 11 N        1.6550    -5.5760     0.5890 N.4   1 <1>  -0.9590 
 12 C        1.6480    -7.0670     0.4210 C.3   1 <1>   0.3430 
 13 C        0.8170    -5.0640     1.7140 C.3   1 <1>   0.3430 
 14 C        0.2200    -7.7050     0.3340 C.3   1 <1>   0.4230 
 15 C       -0.5100    -5.8330     1.8510 C.3   1 <1>  -0.1600 
 16 N       -0.0610    -8.6150    -0.8600 N.4   1 <1>  -0.9590 
 17 C       -0.9380    -6.7080     0.6390 C.3   1 <1>   0.0000 
 18 C       -1.5130    -8.9910    -0.9860 C.3   1 <1>   0.3430 
 19 C        0.4240    -8.1130    -2.1900 C.3   1 <1>   0.2630 
 20 C       -2.1680    -7.5620     1.0580 C.3   1 <1>  -0.1600 
 21 C       -1.3910    -5.7960    -0.5460 C.3   1 <1>   0.1200 
 22 C       -2.2280    -8.9450     0.3690 C.3   1 <1>  -0.1600 
 23 O       -0.3290    -5.2830    -1.2780 O.3   1 <1>  -0.6800 
 24 H        2.6990     0.8920    -1.9480 H     1 <1>   0.0800 
 25 H        2.1580     1.3080    -0.3330 H     1 <1>   0.0800 
 26 H        1.0860     1.5180    -1.6990 H     1 <1>   0.0800 
 27 H        4.1660    -0.5780    -0.1190 H     1 <1>   0.1500 
 28 H        0.8530    -3.1770    -0.5670 H     1 <1>   0.1500 
 29 H        5.8900    -2.0170     0.8090 H     1 <1>   0.0800 
 30 H        5.7760    -3.6700     0.2490 H     1 <1>   0.0800 
 31 H        5.2430    -3.2450     1.8730 H     1 <1>   0.0800 
 32 H        3.4460    -5.0610     1.5860 H     1 <1>   0.0800 
 33 H        3.6510    -5.4780    -0.1040 H     1 <1>   0.0800 
 34 H        1.2010    -5.1850    -0.2620 H     1 <1>   0.4500 
 35 H        2.2050    -7.3260    -0.4620 H     1 <1>   0.0800 
 36 H        2.1540    -7.5040     1.2660 H     1 <1>   0.0800 
 37 H        1.3610    -5.1330     2.6430 H     1 <1>   0.0800 
 38 H        0.6020    -4.0200     1.5460 H     1 <1>   0.0800 
 39 H        0.2050    -8.3670     1.1840 H     1 <1>   0.0800 
 40 H       -0.4090    -6.4570     2.7230 H     1 <1>   0.0800 
 41 H       -1.2860    -5.1250     2.0870 H     1 <1>   0.0800 
 42 H        0.4310    -9.5040    -0.6790 H     1 <1>   0.4500 
 43 H       -2.0090    -8.3060    -1.6550 H     1 <1>   0.0800 
 44 H       -1.6020    -9.9790    -1.4110 H     1 <1>   0.0800 
 45 H       -0.1160    -7.2290    -2.4830 H     1 <1>   0.0800 
 46 H        0.2700    -8.8640    -2.9490 H     1 <1>   0.0800 
 47 H        1.4750    -7.8810    -2.1570 H     1 <1>   0.0800 
 48 H       -2.1710    -7.7380     2.1220 H     1 <1>   0.0800 
 49 H       -3.0770    -7.0200     0.8500 H     1 <1>   0.0800 
 50 H       -1.9680    -4.9640    -0.1740 H     1 <1>   0.0800 
 51 H       -2.0160    -6.3360    -1.2350 H     1 <1>   0.0800 
 52 H       -3.2600    -9.2230     0.2300 H     1 <1>   0.0800 
 53 H       -1.7950    -9.6940     1.0110 H     1 <1>   0.0800 
 54 H       -0.6630    -4.6070    -1.9180 H     1 <1>   0.4000 
@<TRIPOS>BOND
  1   1   2  2   
  2   2   3  1   
  3   2   4  1   
  4   3   5  2   
  5   3   6  1   
  6   4  24  1   
  7   4  25  1   
  8   4  26  1   
  9   5   7  1   
 10   5  27  1   
 11   6   8  2   
 12   6  28  1   
 13   7   8  1   
 14   7   9  1   
 15   8  10  1   
 16   9  29  1   
 17   9  30  1   
 18   9  31  1   
 19  10  11  1   
 20  10  32  1   
 21  10  33  1   
 22  11  12  1   
 23  11  13  1   
 24  11  34  1   
 25  12  14  1   
 26  12  35  1   
 27  12  36  1   
 28  13  15  1   
 29  13  37  1   
 30  13  38  1   
 31  14  16  1   
 32  14  17  1   
 33  14  39  1   
 34  15  17  1   
 35  15  40  1   
 36  15  41  1   
 37  16  18  1   
 38  16  19  1   
 39  16  42  1   
 40  17  20  1   
 41  17  21  1   
 42  18  22  1   
 43  18  43  1   
 44  18  44  1   
 45  19  45  1   
 46  19  46  1   
 47  19  47  1   
 48  20  22  1   
 49  20  48  1   
 50  20  49  1   
 51  21  23  1   
 52  21  50  1   
 53  21  51  1   
 54  22  52  1   
 55  22  53  1   
 56  23  54  1   
@<TRIPOS>SUBSTRUCTURE
  1 ****  11 GROUP 4 **** **** 0

# MOE 2024.06 (io_trps.svl 2023.06)
