@<TRIPOS>MOLECULE
NONAME
51 52 1 0 0 
SMALL
USER_CHARGES


@<TRIPOS>ATOM
  1 S        0.4550     1.3740    -1.3650 S.o2  1 <1>   1.3330 
  2 O        0.7250     0.0310    -1.8260 O.2   1 <1>  -0.6500 
  3 O       -0.0520     2.3470    -2.3060 O.2   1 <1>  -0.6500 
  4 N        1.9070     1.9760    -0.7300 N.am  1 <1>  -0.8490 
  5 C       -0.7010     1.2660     0.0150 C.3   1 <1>  -0.0550 
  6 C        2.7810     2.5260    -1.7690 C.3   1 <1>   0.1160 
  7 C        2.6560     1.0050     0.0730 C.3   1 <1>   0.1160 
  8 C       -1.0650     2.5290     0.8400 C.3   1 <1>  -0.0800 
  9 C       -1.4380     3.7650     0.0120 C.3   1 <1>   0.2000 
 10 C        0.0610     3.0110     1.7620 C.3   1 <1>   0.1400 
 11 O       -2.3720     4.4860     0.7410 O.3   1 <1>  -0.6800 
 12 C       -0.1590     4.6020    -0.0730 C.3   1 <1>   0.1400 
 13 N        0.6520     4.1990     1.1070 N.am  1 <1>  -0.6600 
 14 C        1.9440     4.5730     1.3560 C.2   1 <1>   0.5690 
 15 O        2.5850     4.0730     2.2510 O.2   1 <1>  -0.5700 
 16 C        2.6140     5.6460     0.5190 C.3   1 <1>  -0.0990 
 17 C        2.2570     7.0480     1.0220 C.3   1 <1>  -0.0170 
 18 C        2.8540     8.1050     0.1080 C.ar  1 <1>  -0.1440 
 19 C        4.1270     8.5980     0.3450 C.ar  1 <1>  -0.1500 
 20 C        2.1310     8.5860    -0.9730 C.ar  1 <1>  -0.1500 
 21 C        4.6820     9.5610    -0.4830 C.ar  1 <1>   0.0820 
 22 C        2.6760     9.5470    -1.8060 C.ar  1 <1>  -0.1500 
 23 O        5.9330     9.9860    -0.1740 O.3   1 <1>  -0.3620 
 24 C        3.9480    10.0370    -1.5660 C.ar  1 <1>  -0.1500 
 25 C        6.5760    10.9850    -0.9340 C.3   1 <1>   0.0400 
 26 H       -1.6210     0.8830    -0.3830 H     1 <1>   0.0800 
 27 H       -0.3420     0.5200     0.6970 H     1 <1>   0.0800 
 28 H        3.6740     2.9320    -1.3270 H     1 <1>   0.0800 
 29 H        2.2770     3.3180    -2.2960 H     1 <1>   0.0800 
 30 H        3.0510     1.7580    -2.4750 H     1 <1>   0.0800 
 31 H        3.5020     1.4870     0.5350 H     1 <1>   0.0800 
 32 H        3.0050     0.1930    -0.5440 H     1 <1>   0.0800 
 33 H        2.0350     0.6030     0.8530 H     1 <1>   0.0800 
 34 H       -1.9010     2.2430     1.4540 H     1 <1>   0.0800 
 35 H       -1.8670     3.5410    -0.9500 H     1 <1>   0.0800 
 36 H        0.8070     2.2530     1.9250 H     1 <1>   0.0800 
 37 H       -0.3400     3.3110     2.7150 H     1 <1>   0.0800 
 38 H       -1.9510     4.8230     1.5560 H     1 <1>   0.4000 
 39 H       -0.3770     5.6560    -0.0620 H     1 <1>   0.0800 
 40 H        0.3800     4.3650    -0.9710 H     1 <1>   0.0800 
 41 H        3.6780     5.5110     0.5780 H     1 <1>   0.0800 
 42 H        2.3340     5.5380    -0.5110 H     1 <1>   0.0800 
 43 H        2.6320     7.1750     2.0230 H     1 <1>   0.0800 
 44 H        1.1890     7.1660     1.0590 H     1 <1>   0.0800 
 45 H        4.7060     8.2400     1.1760 H     1 <1>   0.1500 
 46 H        1.1410     8.2140    -1.1720 H     1 <1>   0.1500 
 47 H        2.1090     9.9150    -2.6430 H     1 <1>   0.1500 
 48 H        4.3470    10.7820    -2.2260 H     1 <1>   0.1500 
 49 H        7.5430    11.1640    -0.4990 H     1 <1>   0.0800 
 50 H        5.9870    11.8840    -0.8980 H     1 <1>   0.0800 
 51 H        6.6890    10.6360    -1.9450 H     1 <1>   0.0800 
@<TRIPOS>BOND
  1   1   2  2   
  2   1   3  2   
  3   1   4  am  
  4   1   5  1   
  5   4   6  1   
  6   4   7  1   
  7   5   8  1   
  8   5  26  1   
  9   5  27  1   
 10   6  28  1   
 11   6  29  1   
 12   6  30  1   
 13   7  31  1   
 14   7  32  1   
 15   7  33  1   
 16   8   9  1   
 17   8  10  1   
 18   8  34  1   
 19   9  11  1   
 20   9  12  1   
 21   9  35  1   
 22  10  13  1   
 23  10  36  1   
 24  10  37  1   
 25  11  38  1   
 26  12  13  1   
 27  12  39  1   
 28  12  40  1   
 29  13  14  am  
 30  14  15  2   
 31  14  16  1   
 32  16  17  1   
 33  16  41  1   
 34  16  42  1   
 35  17  18  1   
 36  17  43  1   
 37  17  44  1   
 38  18  19  ar  
 39  18  20  ar  
 40  19  21  ar  
 41  19  45  1   
 42  20  22  ar  
 43  20  46  1   
 44  21  23  1   
 45  21  24  ar  
 46  22  24  ar  
 47  22  47  1   
 48  23  25  1   
 49  24  48  1   
 50  25  49  1   
 51  25  50  1   
 52  25  51  1   
@<TRIPOS>SUBSTRUCTURE
  1 ****  16 GROUP 4 **** **** 0

# MOE 2024.06 (io_trps.svl 2023.06)
