@<TRIPOS>MOLECULE
NONAME
40 43 1 0 0 
SMALL
USER_CHARGES


@<TRIPOS>ATOM
  1 S       -0.8060    -0.3090    -1.9680 S.3   1 <1>  -0.0800 
  2 C       -1.2840     1.0550    -0.9700 C.2   1 <1>  -0.1400 
  3 C       -2.4240    -0.9890    -1.8680 C.2   1 <1>  -0.1100 
  4 C       -2.5750     0.9650    -0.6300 C.2   1 <1>  -0.1810 
  5 C       -0.3230     2.1670    -0.5790 C.3   1 <1>   0.4600 
  6 C       -3.2320    -0.2030    -1.1300 C.2   1 <1>  -0.1500 
  7 C       -3.2050     2.0520     0.2100 C.3   1 <1>   0.0210 
  8 O       -0.9720     3.0450     0.3250 O.3   1 <1>  -0.5600 
  9 C        0.8920     1.6100     0.1780 C.3   1 <1>  -0.1600 
 10 C        0.1520     2.9750    -1.7890 C.3   1 <1>  -0.1600 
 11 C       -2.3400     3.3250     0.1070 C.3   1 <1>   0.1200 
 12 C        2.0750     2.5810     0.2390 C.3   1 <1>   0.3430 
 13 C        1.0480     4.1510    -1.3870 C.3   1 <1>   0.3430 
 14 N        1.6170     3.9680    -0.0150 N.4   1 <1>  -0.9590 
 15 C        2.6440     5.0030     0.3170 C.3   1 <1>   0.5240 
 16 C        2.0330     6.4010     0.3390 C.2   1 <1>   0.0460 
 17 N        1.6660     7.0250    -0.8000 N.2   1 <1>  -0.5650 
 18 C        1.7870     7.1860     1.4130 C.2   1 <1>  -0.3020 
 19 C        1.2150     8.1700    -0.3980 C.2   1 <1>   0.0360 
 20 N        1.2600     8.3320     0.9410 N.pl3 1 <1>   0.0330 
 21 H       -2.6020    -1.9200    -2.3780 H     1 <1>   0.1500 
 22 H       -4.2690    -0.3970    -0.9170 H     1 <1>   0.1500 
 23 H       -3.2720     1.7320     1.2340 H     1 <1>   0.0800 
 24 H       -4.1970     2.2660    -0.1450 H     1 <1>   0.0800 
 25 H        1.2410     0.7130    -0.2990 H     1 <1>   0.0800 
 26 H        0.5890     1.3310     1.1710 H     1 <1>   0.0800 
 27 H       -0.6890     3.3330    -2.3550 H     1 <1>   0.0800 
 28 H        0.7060     2.3270    -2.4440 H     1 <1>   0.0800 
 29 H       -2.6530     4.0430     0.8450 H     1 <1>   0.0800 
 30 H       -2.4470     3.7660    -0.8690 H     1 <1>   0.0800 
 31 H        2.8020     2.3050    -0.5090 H     1 <1>   0.0800 
 32 H        2.5430     2.5100     1.2080 H     1 <1>   0.0800 
 33 H        0.4560     5.0530    -1.4000 H     1 <1>   0.0800 
 34 H        1.8390     4.2700    -2.1100 H     1 <1>   0.0800 
 35 H        0.8080     4.1270     0.6120 H     1 <1>   0.4500 
 36 H        3.4410     4.9800    -0.4070 H     1 <1>   0.0800 
 37 H        3.0610     4.7980     1.2880 H     1 <1>   0.0800 
 38 H        1.9550     7.0120     2.4620 H     1 <1>   0.1500 
 39 H        0.8360     8.9390    -1.0520 H     1 <1>   0.1500 
 40 H        0.9620     9.1580     1.4720 H     1 <1>   0.2700 
@<TRIPOS>BOND
  1   1   2  1   
  2   1   3  1   
  3   2   4  2   
  4   2   5  1   
  5   3   6  2   
  6   3  21  1   
  7   4   6  1   
  8   4   7  1   
  9   5   8  1   
 10   5   9  1   
 11   5  10  1   
 12   6  22  1   
 13   7  11  1   
 14   7  23  1   
 15   7  24  1   
 16   8  11  1   
 17   9  12  1   
 18   9  25  1   
 19   9  26  1   
 20  10  13  1   
 21  10  27  1   
 22  10  28  1   
 23  11  29  1   
 24  11  30  1   
 25  12  14  1   
 26  12  31  1   
 27  12  32  1   
 28  13  14  1   
 29  13  33  1   
 30  13  34  1   
 31  14  15  1   
 32  14  35  1   
 33  15  16  1   
 34  15  36  1   
 35  15  37  1   
 36  16  17  1   
 37  16  18  2   
 38  17  19  2   
 39  18  20  1   
 40  18  38  1   
 41  19  20  1   
 42  19  39  1   
 43  20  40  1   
@<TRIPOS>SUBSTRUCTURE
  1 ****   8 GROUP 4 **** **** 0

# MOE 2024.06 (io_trps.svl 2023.06)
