@<TRIPOS>MOLECULE
NONAME
43 44 1 0 0 
SMALL
USER_CHARGES


@<TRIPOS>ATOM
  1 S        0.2120     0.2760    -0.6930 S.o2  1 <1>   1.3330 
  2 O        1.3360     0.4480    -1.5860 O.2   1 <1>  -0.6500 
  3 O       -1.1210     0.1700    -1.2420 O.2   1 <1>  -0.6500 
  4 N        0.5070    -1.1010     0.2550 N.am  1 <1>  -0.8490 
  5 C        0.2010     1.6080     0.5020 C.3   1 <1>  -0.0550 
  6 C       -0.0020    -2.3220    -0.3750 C.3   1 <1>   0.1160 
  7 C        1.9210    -1.2730     0.6050 C.3   1 <1>   0.1160 
  8 C       -0.1280     2.9780    -0.1240 C.3   1 <1>  -0.0800 
  9 C       -0.2690     4.1110     0.8900 C.3   1 <1>   0.2000 
 10 C        0.9310     3.4830    -1.1160 C.3   1 <1>   0.2090 
 11 O        0.7710     4.0330     1.8050 O.3   1 <1>  -0.6800 
 12 C       -0.0520     5.3600     0.0400 C.3   1 <1>   0.2090 
 13 N        0.9910     4.9640    -0.9450 N.pl3 1 <1>  -0.8380 
 14 C        2.2310     5.5290    -0.8110 C.ar  1 <1>   0.4100 
 15 N        2.8900     5.2750     0.3150 N.ar  1 <1>  -0.6200 
 16 C        2.7460     6.3280    -1.8240 C.ar  1 <1>  -0.1500 
 17 C        4.0790     5.8370     0.4280 C.ar  1 <1>   0.1600 
 18 C        3.9850     6.9020    -1.6850 C.ar  1 <1>  -0.1500 
 19 C        4.7030     6.6620    -0.5140 C.ar  1 <1>   0.0860 
 20 C        6.0080     7.2460    -0.3140 C.2   1 <1>   0.4230 
 21 O        6.5430     7.9510    -1.1300 O.2   1 <1>  -0.5700 
 22 C        6.7840     6.9920     0.9650 C.3   1 <1>  -0.1790 
 23 H       -0.5330     1.3900     1.2540 H     1 <1>   0.0800 
 24 H        1.1560     1.6590     0.9860 H     1 <1>   0.0800 
 25 H        0.1830    -3.1730     0.2570 H     1 <1>   0.0800 
 26 H        0.4740    -2.4770    -1.3300 H     1 <1>   0.0800 
 27 H       -1.0650    -2.2420    -0.5280 H     1 <1>   0.0800 
 28 H        2.0370    -2.1130     1.2690 H     1 <1>   0.0800 
 29 H        2.2900    -0.3950     1.1060 H     1 <1>   0.0800 
 30 H        2.5120    -1.4410    -0.2800 H     1 <1>   0.0800 
 31 H       -1.0590     2.8970    -0.6590 H     1 <1>   0.0800 
 32 H       -1.2040     4.1060     1.4230 H     1 <1>   0.0800 
 33 H        0.6640     3.2340    -2.1290 H     1 <1>   0.0800 
 34 H        1.8950     3.0530    -0.8970 H     1 <1>   0.0800 
 35 H        1.5830     4.3830     1.3480 H     1 <1>   0.4000 
 36 H        0.2540     6.2000     0.6410 H     1 <1>   0.0800 
 37 H       -0.9550     5.6110    -0.4880 H     1 <1>   0.0800 
 38 H        2.1540     6.4810    -2.7060 H     1 <1>   0.1500 
 39 H        4.6010     5.6240     1.3430 H     1 <1>   0.1500 
 40 H        4.4010     7.5270    -2.4590 H     1 <1>   0.1500 
 41 H        6.2250     7.3420     1.8130 H     1 <1>   0.0800 
 42 H        7.7190     7.5220     0.9340 H     1 <1>   0.0800 
 43 H        6.9920     5.9440     1.0700 H     1 <1>   0.0800 
@<TRIPOS>BOND
  1   1   2  2   
  2   1   3  2   
  3   1   4  am  
  4   1   5  1   
  5   4   6  1   
  6   4   7  1   
  7   5   8  1   
  8   5  23  1   
  9   5  24  1   
 10   6  25  1   
 11   6  26  1   
 12   6  27  1   
 13   7  28  1   
 14   7  29  1   
 15   7  30  1   
 16   8   9  1   
 17   8  10  1   
 18   8  31  1   
 19   9  11  1   
 20   9  12  1   
 21   9  32  1   
 22  10  13  1   
 23  10  33  1   
 24  10  34  1   
 25  11  35  1   
 26  12  13  1   
 27  12  36  1   
 28  12  37  1   
 29  13  14  1   
 30  14  15  ar  
 31  14  16  ar  
 32  15  17  ar  
 33  16  18  ar  
 34  16  38  1   
 35  17  19  ar  
 36  17  39  1   
 37  18  19  ar  
 38  18  40  1   
 39  19  20  1   
 40  20  21  2   
 41  20  22  1   
 42  22  41  1   
 43  22  42  1   
 44  22  43  1   
@<TRIPOS>SUBSTRUCTURE
  1 ****  10 GROUP 4 **** **** 0

# MOE 2024.06 (io_trps.svl 2023.06)
