@<TRIPOS>MOLECULE
NONAME
47 48 1 0 0 
SMALL
USER_CHARGES


@<TRIPOS>ATOM
  1 O       -1.4080     0.2160    -0.9440 O.2   1 <1>  -0.5700 
  2 C       -2.1060     1.1260    -0.5650 C.2   1 <1>   0.6300 
  3 N       -2.9870     0.9540     0.4690 N.am  1 <1>  -0.6600 
  4 C       -2.0450     2.4510    -1.3200 C.3   1 <1>  -0.1000 
  5 C       -2.8370    -0.2270     1.3600 C.3   1 <1>   0.3200 
  6 C       -4.3050     1.6540     0.5420 C.3   1 <1>   0.1400 
  7 C       -0.7800     3.2580    -1.3740 C.3   1 <1>  -0.1950 
  8 C       -1.9530     3.7830    -0.6150 C.3   1 <1>  -0.2000 
  9 C       -3.7760    -1.2840     0.8320 C.2   1 <1>  -0.3320 
 10 C       -5.1930     1.2280    -0.6470 C.3   1 <1>   0.3430 
 11 C        0.4950     2.8320    -0.6380 C.3   1 <1>  -0.0650 
 12 N       -3.5670    -1.9060    -0.3430 N.pl3 1 <1>   0.0330 
 13 C       -4.9290    -1.7750     1.3330 C.2   1 <1>   0.0770 
 14 N       -6.6640     1.4100    -0.4050 N.4   1 <1>  -0.9590 
 15 C        1.4060     4.0390    -0.3870 C.3   1 <1>  -0.1600 
 16 C       -4.6430    -2.7050    -0.5060 C.2   1 <1>   0.0360 
 17 N       -5.4940    -2.6360     0.4680 N.2   1 <1>  -0.5650 
 18 C       -7.1990     0.3200     0.4760 C.3   1 <1>   0.2630 
 19 C       -7.4030     1.3940    -1.7050 C.3   1 <1>   0.2630 
 20 C        2.6840     3.6290     0.3510 C.3   1 <1>  -0.2400 
 21 H       -2.5900     2.3950    -2.2440 H     1 <1>   0.1000 
 22 H       -1.8210    -0.5870     1.3540 H     1 <1>   0.0800 
 23 H       -3.0910     0.0420     2.3720 H     1 <1>   0.0800 
 24 H       -4.7830     1.3960     1.4700 H     1 <1>   0.0800 
 25 H       -4.1550     2.7180     0.5260 H     1 <1>   0.0800 
 26 H       -0.5570     3.7230    -2.3200 H     1 <1>   0.1000 
 27 H       -2.4650     4.6390    -1.0170 H     1 <1>   0.1000 
 28 H       -1.8780     3.8150     0.4590 H     1 <1>   0.1000 
 29 H       -5.0080     0.1890    -0.8610 H     1 <1>   0.0800 
 30 H       -4.8960     1.8020    -1.5090 H     1 <1>   0.0800 
 31 H        0.2470     2.3710     0.3030 H     1 <1>   0.0800 
 32 H        1.0170     2.1030    -1.2340 H     1 <1>   0.0800 
 33 H       -2.7570    -1.7790    -0.9660 H     1 <1>   0.2700 
 34 H       -5.3990    -1.5440     2.2750 H     1 <1>   0.1500 
 35 H       -6.8270     2.3230     0.0490 H     1 <1>   0.4500 
 36 H        1.6700     4.4910    -1.3280 H     1 <1>   0.0800 
 37 H        0.8770     4.7720     0.1980 H     1 <1>   0.0800 
 38 H       -4.7590    -3.3350    -1.3720 H     1 <1>   0.1500 
 39 H       -7.0290    -0.6450     0.0230 H     1 <1>   0.0800 
 40 H       -8.2580     0.4440     0.6290 H     1 <1>   0.0800 
 41 H       -6.7100     0.3340     1.4360 H     1 <1>   0.0800 
 42 H       -7.2610     0.4480    -2.2040 H     1 <1>   0.0800 
 43 H       -7.0480     2.1820    -2.3500 H     1 <1>   0.0800 
 44 H       -8.4590     1.5380    -1.5370 H     1 <1>   0.0800 
 45 H        3.2380     2.9110    -0.2270 H     1 <1>   0.0800 
 46 H        2.4450     3.1960     1.3070 H     1 <1>   0.0800 
 47 H        3.3070     4.4910     0.5140 H     1 <1>   0.0800 
@<TRIPOS>BOND
  1   1   2  2   
  2   2   3  am  
  3   2   4  1   
  4   3   5  1   
  5   3   6  1   
  6   4   7  1   
  7   4   8  1   
  8   4  21  1   
  9   5   9  1   
 10   5  22  1   
 11   5  23  1   
 12   6  10  1   
 13   6  24  1   
 14   6  25  1   
 15   7   8  1   
 16   7  11  1   
 17   7  26  1   
 18   8  27  1   
 19   8  28  1   
 20   9  12  1   
 21   9  13  2   
 22  10  14  1   
 23  10  29  1   
 24  10  30  1   
 25  11  15  1   
 26  11  31  1   
 27  11  32  1   
 28  12  16  1   
 29  12  33  1   
 30  13  17  1   
 31  13  34  1   
 32  14  18  1   
 33  14  19  1   
 34  14  35  1   
 35  15  20  1   
 36  15  36  1   
 37  15  37  1   
 38  16  17  2   
 39  16  38  1   
 40  18  39  1   
 41  18  40  1   
 42  18  41  1   
 43  19  42  1   
 44  19  43  1   
 45  19  44  1   
 46  20  45  1   
 47  20  46  1   
 48  20  47  1   
@<TRIPOS>SUBSTRUCTURE
  1 ****   3 GROUP 4 **** **** 0

# MOE 2024.06 (io_trps.svl 2023.06)
