@<TRIPOS>MOLECULE
NONAME
57 60 1 0 0 
SMALL
USER_CHARGES


@<TRIPOS>ATOM
  1 N        0.9000     0.4790     1.6820 N.2   1 <1>  -0.7070 
  2 N        1.7780     0.0480     0.7420 N.pl3 1 <1>   0.5930 
  3 C        0.0500    -0.4780     1.8540 C.2   1 <1>   0.1390 
  4 C        2.8610     0.8270     0.2450 C.ar  1 <1>  -0.0230 
  5 C        1.4160    -1.1970     0.3340 C.2   1 <1>  -0.3020 
  6 C        0.3120    -1.5620     1.0250 C.2   1 <1>  -0.1810 
  7 C        4.0750     0.2350    -0.1010 C.ar  1 <1>  -0.1500 
  8 C        2.7260     2.2030     0.0860 C.ar  1 <1>  -0.1500 
  9 C       -0.5080    -2.8290     0.9590 C.3   1 <1>   0.5240 
 10 C        5.1140     0.9960    -0.6050 C.ar  1 <1>  -0.1500 
 11 C        3.7650     2.9650    -0.4180 C.ar  1 <1>  -0.1500 
 12 N       -0.7970    -3.0600    -0.4810 N.4   1 <1>  -0.9590 
 13 C        4.9590     2.3610    -0.7660 C.ar  1 <1>  -0.1500 
 14 C       -2.2120    -2.8730    -0.9140 C.3   1 <1>   0.4230 
 15 C       -0.2480    -4.3750    -0.9340 C.3   1 <1>   0.2630 
 16 C       -2.7650    -1.4750    -0.6390 C.3   1 <1>  -0.1600 
 17 C       -3.2160    -3.8110    -0.2410 C.3   1 <1>  -0.1600 
 18 C       -4.2890    -1.6500    -0.7350 C.3   1 <1>  -0.0800 
 19 C       -4.5760    -3.1320    -0.4720 C.3   1 <1>  -0.0800 
 20 C       -5.1210    -0.8710     0.2980 C.3   1 <1>  -0.1600 
 21 C       -5.5550    -3.1670     0.7120 C.3   1 <1>  -0.1600 
 22 C       -6.2680    -1.8080     0.7020 C.3   1 <1>   0.4230 
 23 N       -7.3720    -1.7810    -0.3130 N.4   1 <1>  -0.9590 
 24 C       -8.0160    -0.4300    -0.4260 C.3   1 <1>   0.2630 
 25 C       -8.4510    -2.7820    -0.0240 C.3   1 <1>   0.2630 
 26 H       -0.7600    -0.4120     2.5640 H     1 <1>   0.1500 
 27 H        1.9810    -1.7180    -0.4170 H     1 <1>   0.1500 
 28 H        4.2190    -0.8230     0.0270 H     1 <1>   0.1500 
 29 H        1.8010     2.6830     0.3610 H     1 <1>   0.1500 
 30 H       -1.4190    -2.7120     1.5220 H     1 <1>   0.0800 
 31 H        0.0570    -3.6470     1.3750 H     1 <1>   0.0800 
 32 H        6.0480     0.5290    -0.8700 H     1 <1>   0.1500 
 33 H        3.6440     4.0280    -0.5370 H     1 <1>   0.1500 
 34 H       -0.2550    -2.3190    -0.9480 H     1 <1>   0.4500 
 35 H        5.7680     2.9540    -1.1580 H     1 <1>   0.1500 
 36 H       -2.2740    -3.0390    -1.9790 H     1 <1>   0.0800 
 37 H       -0.7640    -5.1880    -0.4480 H     1 <1>   0.0800 
 38 H        0.8020    -4.4450    -0.6970 H     1 <1>   0.0800 
 39 H       -0.3630    -4.4830    -2.0010 H     1 <1>   0.0800 
 40 H       -2.4960    -1.1410     0.3450 H     1 <1>   0.0800 
 41 H       -2.4110    -0.7630    -1.3640 H     1 <1>   0.0800 
 42 H       -3.2000    -4.7910    -0.6850 H     1 <1>   0.0800 
 43 H       -3.0170    -3.8930     0.8120 H     1 <1>   0.0800 
 44 H       -4.6190    -1.4040    -1.7320 H     1 <1>   0.0800 
 45 H       -5.0460    -3.5540    -1.3470 H     1 <1>   0.0800 
 46 H       -5.4330     0.0880    -0.0700 H     1 <1>   0.0800 
 47 H       -4.5310    -0.6950     1.1810 H     1 <1>   0.0800 
 48 H       -5.0050    -3.2280     1.6350 H     1 <1>   0.0800 
 49 H       -6.2090    -4.0180     0.6780 H     1 <1>   0.0800 
 50 H       -6.6540    -1.5590     1.6790 H     1 <1>   0.0800 
 51 H       -6.9510    -2.0130    -1.2230 H     1 <1>   0.4500 
 52 H       -8.4070    -0.1200     0.5290 H     1 <1>   0.0800 
 53 H       -8.8280    -0.4630    -1.1350 H     1 <1>   0.0800 
 54 H       -7.3070     0.3070    -0.7660 H     1 <1>   0.0800 
 55 H       -8.8660    -2.6150     0.9580 H     1 <1>   0.0800 
 56 H       -8.0660    -3.7870    -0.0700 H     1 <1>   0.0800 
 57 H       -9.2440    -2.6950    -0.7490 H     1 <1>   0.0800 
@<TRIPOS>BOND
  1   1   2  1   
  2   1   3  2   
  3   2   4  1   
  4   2   5  1   
  5   3   6  1   
  6   3  26  1   
  7   4   7  ar  
  8   4   8  ar  
  9   5   6  2   
 10   5  27  1   
 11   6   9  1   
 12   7  10  ar  
 13   7  28  1   
 14   8  11  ar  
 15   8  29  1   
 16   9  12  1   
 17   9  30  1   
 18   9  31  1   
 19  10  13  ar  
 20  10  32  1   
 21  11  13  ar  
 22  11  33  1   
 23  12  14  1   
 24  12  15  1   
 25  12  34  1   
 26  13  35  1   
 27  14  16  1   
 28  14  17  1   
 29  14  36  1   
 30  15  37  1   
 31  15  38  1   
 32  15  39  1   
 33  16  18  1   
 34  16  40  1   
 35  16  41  1   
 36  17  19  1   
 37  17  42  1   
 38  17  43  1   
 39  18  19  1   
 40  18  20  1   
 41  18  44  1   
 42  19  21  1   
 43  19  45  1   
 44  20  22  1   
 45  20  46  1   
 46  20  47  1   
 47  21  22  1   
 48  21  48  1   
 49  21  49  1   
 50  22  23  1   
 51  22  50  1   
 52  23  24  1   
 53  23  25  1   
 54  23  51  1   
 55  24  52  1   
 56  24  53  1   
 57  24  54  1   
 58  25  55  1   
 59  25  56  1   
 60  25  57  1   
@<TRIPOS>SUBSTRUCTURE
  1 ****  16 GROUP 4 **** **** 0

# MOE 2024.06 (io_trps.svl 2023.06)
