@<TRIPOS>MOLECULE
NONAME
56 59 1 0 0 
SMALL
USER_CHARGES


@<TRIPOS>ATOM
  1 O       -0.6540     0.6210    -1.1930 O.3   1 <1>  -0.5600 
  2 C       -0.6220     1.7720    -1.9690 C.3   1 <1>   0.1200 
  3 C       -1.9250     0.5150    -0.6180 C.3   1 <1>   0.1200 
  4 C       -1.2770     2.7900    -1.0420 C.3   1 <1>   0.4230 
  5 C       -2.4690     1.9540    -0.5690 C.3   1 <1>  -0.0800 
  6 N       -0.3420     3.0340     0.0990 N.4   1 <1>  -0.9060 
  7 C       -3.1180     2.3330     0.7810 C.3   1 <1>  -0.0170 
  8 C        0.8540     3.8610    -0.1880 C.3   1 <1>   0.4230 
  9 C       -4.3370     1.4590     1.0500 C.ar  1 <1>  -0.1440 
 10 C        1.8590     3.6810     0.9500 C.3   1 <1>  -0.1600 
 11 C        0.4670     5.3360    -0.3270 C.3   1 <1>  -0.1600 
 12 C       -5.5820     1.6720     0.4090 C.ar  1 <1>   0.0000 
 13 C       -4.2520     0.4190     1.9310 C.ar  1 <1>  -0.1500 
 14 C        3.0880     4.5690     0.7450 C.3   1 <1>   0.3430 
 15 C        1.7060     6.2150    -0.5130 C.3   1 <1>   0.3430 
 16 C       -6.6340     0.7690     0.7020 C.ar  1 <1>   0.3100 
 17 C       -5.8500     2.7230    -0.5000 C.ar  1 <1>  -0.1500 
 18 C       -5.3600    -0.4060     2.1590 C.ar  1 <1>   0.1600 
 19 N        2.6710     5.9940     0.6060 N.4   1 <1>  -0.9590 
 20 N       -6.5050    -0.2590     1.5750 N.ar  1 <1>  -0.6200 
 21 C       -7.8740     0.9380     0.0660 C.ar  1 <1>  -0.1500 
 22 C       -7.0720     2.8610    -1.1000 C.ar  1 <1>  -0.1500 
 23 C        3.8830     6.8550     0.4570 C.3   1 <1>   0.3430 
 24 C       -8.0970     1.9570    -0.8190 C.ar  1 <1>  -0.1500 
 25 C        3.5250     8.3060     0.7570 C.3   1 <1>  -0.2400 
 26 H        0.3930     2.0000    -2.2400 H     1 <1>   0.0800 
 27 H       -1.2080     1.6020    -2.8580 H     1 <1>   0.0800 
 28 H       -2.5370    -0.1190    -1.2410 H     1 <1>   0.0800 
 29 H       -1.8200     0.0660     0.3550 H     1 <1>   0.0800 
 30 H       -1.5710     3.7000    -1.5400 H     1 <1>   0.0800 
 31 H       -3.2290     2.0190    -1.3280 H     1 <1>   0.0800 
 32 H       -0.8600     3.3920     0.9070 H     1 <1>   0.4500 
 33 H       -0.0340     2.0750     0.3400 H     1 <1>   0.4500 
 34 H       -3.4150     3.3670     0.7850 H     1 <1>   0.0800 
 35 H       -2.4190     2.1960     1.5870 H     1 <1>   0.0800 
 36 H        1.3130     3.5260    -1.1060 H     1 <1>   0.0800 
 37 H        1.4120     3.9220     1.9000 H     1 <1>   0.0800 
 38 H        2.1890     2.6570     0.9830 H     1 <1>   0.0800 
 39 H       -0.1670     5.4710    -1.1860 H     1 <1>   0.0800 
 40 H       -0.0690     5.6740     0.5430 H     1 <1>   0.0800 
 41 H       -3.3500     0.1940     2.4710 H     1 <1>   0.1500 
 42 H        3.6200     4.2570    -0.1410 H     1 <1>   0.0800 
 43 H        3.7550     4.4610     1.5870 H     1 <1>   0.0800 
 44 H        1.4070     7.2510    -0.5440 H     1 <1>   0.0800 
 45 H        2.1830     5.9820    -1.4530 H     1 <1>   0.0800 
 46 H       -5.0870     3.4400    -0.7290 H     1 <1>   0.1500 
 47 H       -5.2530    -1.2150     2.8620 H     1 <1>   0.1500 
 48 H        2.2310     6.2960     1.4890 H     1 <1>   0.4500 
 49 H       -8.6500     0.2320     0.3020 H     1 <1>   0.1500 
 50 H       -7.2650     3.6650    -1.7910 H     1 <1>   0.1500 
 51 H        4.6430     6.5390     1.1550 H     1 <1>   0.0800 
 52 H        4.2880     6.7710    -0.5400 H     1 <1>   0.0800 
 53 H       -9.0540     2.0740    -1.2980 H     1 <1>   0.1500 
 54 H        3.1060     8.4070     1.7420 H     1 <1>   0.0800 
 55 H        2.8450     8.7100     0.0280 H     1 <1>   0.0800 
 56 H        4.4220     8.9000     0.7220 H     1 <1>   0.0800 
@<TRIPOS>BOND
  1   1   2  1   
  2   1   3  1   
  3   2   4  1   
  4   2  26  1   
  5   2  27  1   
  6   3   5  1   
  7   3  28  1   
  8   3  29  1   
  9   4   5  1   
 10   4   6  1   
 11   4  30  1   
 12   5   7  1   
 13   5  31  1   
 14   6   8  1   
 15   6  32  1   
 16   6  33  1   
 17   7   9  1   
 18   7  34  1   
 19   7  35  1   
 20   8  10  1   
 21   8  11  1   
 22   8  36  1   
 23   9  12  ar  
 24   9  13  ar  
 25  10  14  1   
 26  10  37  1   
 27  10  38  1   
 28  11  15  1   
 29  11  39  1   
 30  11  40  1   
 31  12  16  ar  
 32  12  17  ar  
 33  13  18  ar  
 34  13  41  1   
 35  14  19  1   
 36  14  42  1   
 37  14  43  1   
 38  15  19  1   
 39  15  44  1   
 40  15  45  1   
 41  16  20  ar  
 42  16  21  ar  
 43  17  22  ar  
 44  17  46  1   
 45  18  20  ar  
 46  18  47  1   
 47  19  23  1   
 48  19  48  1   
 49  21  24  ar  
 50  21  49  1   
 51  22  24  ar  
 52  22  50  1   
 53  23  25  1   
 54  23  51  1   
 55  23  52  1   
 56  24  53  1   
 57  25  54  1   
 58  25  55  1   
 59  25  56  1   
@<TRIPOS>SUBSTRUCTURE
  1 ****   5 GROUP 4 **** **** 0

# MOE 2024.06 (io_trps.svl 2023.06)
