@<TRIPOS>MOLECULE
NONAME
44 46 1 0 0 
SMALL
USER_CHARGES


@<TRIPOS>ATOM
  1 CL      -0.2890     0.0980     2.1220 Cl    1 <1>  -0.1770 
  2 C        1.1760     0.7270     1.4080 C.ar  1 <1>   0.1770 
  3 C        2.1110    -0.1530     0.8910 C.ar  1 <1>  -0.1440 
  4 C        1.3670     2.0960     1.3600 C.ar  1 <1>  -0.1500 
  5 C        3.2450     0.3910     0.3160 C.ar  1 <1>   0.1900 
  6 C        1.9050    -1.6490     0.9580 C.3   1 <1>   0.4860 
  7 C        2.5180     2.6110     0.7810 C.ar  1 <1>  -0.1500 
  8 F        4.1260    -0.4320    -0.1930 F     1 <1>  -0.1900 
  9 C        3.4750     1.7580     0.2480 C.ar  1 <1>  -0.1440 
 10 N        1.6150    -2.1860    -0.4040 N.4   1 <1>  -0.9590 
 11 C        4.7380     2.3200    -0.3890 C.3   1 <1>  -0.0970 
 12 C        0.3890    -1.5850    -1.0290 C.3   1 <1>   0.3430 
 13 C        1.3650    -3.6530    -0.3610 C.3   1 <1>   0.3430 
 14 C       -0.7550    -2.5870    -0.8160 C.3   1 <1>   0.2000 
 15 C       -0.1360    -3.7990    -0.1170 C.3   1 <1>  -0.0800 
 16 O       -1.7590    -2.0500    -0.0250 O.3   1 <1>  -0.6800 
 17 C       -0.6970    -5.1410    -0.6130 C.3   1 <1>  -0.0170 
 18 C        0.1000    -6.2900    -0.0200 C.ar  1 <1>  -0.1430 
 19 C        1.0020    -7.0220    -0.7670 C.ar  1 <1>  -0.1500 
 20 C       -0.0350    -6.6570     1.3050 C.ar  1 <1>  -0.1500 
 21 C        1.7230    -8.0400    -0.1650 C.ar  1 <1>   0.1600 
 22 C        0.7330    -7.6930     1.8100 C.ar  1 <1>   0.1600 
 23 N        1.6170    -8.3810     1.1080 N.ar  1 <1>  -0.6200 
 24 H        0.6240     2.7570     1.7720 H     1 <1>   0.1500 
 25 H        1.0960    -1.8820     1.6300 H     1 <1>   0.0800 
 26 H        2.8010    -2.1080     1.3460 H     1 <1>   0.0800 
 27 H        2.6610     3.6790     0.7480 H     1 <1>   0.1500 
 28 H        2.4430    -1.9730    -0.9820 H     1 <1>   0.4500 
 29 H        4.7580     3.3940    -0.3300 H     1 <1>   0.0800 
 30 H        4.7890     2.0370    -1.4260 H     1 <1>   0.0800 
 31 H        5.6080     1.9380     0.1160 H     1 <1>   0.0800 
 32 H        0.1440    -0.6250    -0.6050 H     1 <1>   0.0800 
 33 H        0.5500    -1.4660    -2.0880 H     1 <1>   0.0800 
 34 H        1.6130    -4.0900    -1.3150 H     1 <1>   0.0800 
 35 H        1.9420    -4.1450     0.4070 H     1 <1>   0.0800 
 36 H       -1.1940    -2.8450    -1.7660 H     1 <1>   0.0800 
 37 H       -0.2980    -3.7320     0.9450 H     1 <1>   0.0800 
 38 H       -1.4620    -1.7930     0.8720 H     1 <1>   0.4000 
 39 H       -0.6590    -5.1920    -1.6880 H     1 <1>   0.0800 
 40 H       -1.7310    -5.2320    -0.3210 H     1 <1>   0.0800 
 41 H        1.1550    -6.8220    -1.8120 H     1 <1>   0.1500 
 42 H       -0.7330    -6.1560     1.9510 H     1 <1>   0.1500 
 43 H        2.4220    -8.6040    -0.7590 H     1 <1>   0.1500 
 44 H        0.6160    -7.9700     2.8440 H     1 <1>   0.1500 
@<TRIPOS>BOND
  1   1   2  1   
  2   2   3  ar  
  3   2   4  ar  
  4   3   5  ar  
  5   3   6  1   
  6   4   7  ar  
  7   4  24  1   
  8   5   8  1   
  9   5   9  ar  
 10   6  10  1   
 11   6  25  1   
 12   6  26  1   
 13   7   9  ar  
 14   7  27  1   
 15   9  11  1   
 16  10  12  1   
 17  10  13  1   
 18  10  28  1   
 19  11  29  1   
 20  11  30  1   
 21  11  31  1   
 22  12  14  1   
 23  12  32  1   
 24  12  33  1   
 25  13  15  1   
 26  13  34  1   
 27  13  35  1   
 28  14  15  1   
 29  14  16  1   
 30  14  36  1   
 31  15  17  1   
 32  15  37  1   
 33  16  38  1   
 34  17  18  1   
 35  17  39  1   
 36  17  40  1   
 37  18  19  ar  
 38  18  20  ar  
 39  19  21  ar  
 40  19  41  1   
 41  20  22  ar  
 42  20  42  1   
 43  21  23  ar  
 44  21  43  1   
 45  22  23  ar  
 46  22  44  1   
@<TRIPOS>SUBSTRUCTURE
  1 ****  10 GROUP 4 **** **** 0

# MOE 2024.06 (io_trps.svl 2023.06)
