@<TRIPOS>MOLECULE
NONAME
47 49 1 0 0 
SMALL
USER_CHARGES


@<TRIPOS>ATOM
  1 F       -1.8570     1.2770    -0.6780 F     1 <1>  -0.1900 
  2 C       -1.0450     2.0470     0.0010 C.ar  1 <1>   0.1900 
  3 C        0.2600     2.2100    -0.4520 C.ar  1 <1>   0.0820 
  4 C       -1.5330     2.6810     1.1430 C.ar  1 <1>   0.0860 
  5 O        0.7190     1.6020    -1.5780 O.3   1 <1>  -0.3630 
  6 C        1.0870     3.0500     0.2810 C.ar  1 <1>   0.1900 
  7 C       -2.8900     2.4920     1.5960 C.2   1 <1>   0.5440 
  8 C       -0.6540     3.5060     1.8490 C.ar  1 <1>  -0.1500 
  9 C        0.9460     0.2120    -1.5030 C.3   1 <1>   0.0400 
 10 F        2.3220     3.2420    -0.1010 F     1 <1>  -0.1900 
 11 C        0.6510     3.6960     1.4240 C.ar  1 <1>  -0.1500 
 12 O       -3.0880     1.7630     2.5490 O.2   1 <1>  -0.5700 
 13 N       -3.9510     3.1420     1.0010 N.am  1 <1>  -0.6600 
 14 C       -5.3620     2.8390     1.3830 C.3   1 <1>   0.1400 
 15 C       -3.7960     4.0860    -0.1490 C.3   1 <1>   0.1400 
 16 C       -6.1030     2.1670     0.2060 C.3   1 <1>   0.0000 
 17 C       -5.0940     4.2240    -0.9620 C.3   1 <1>  -0.1600 
 18 C       -7.6120     2.1230     0.5040 C.3   1 <1>   0.2000 
 19 C       -5.7730     2.8600    -1.1550 C.3   1 <1>  -0.1600 
 20 C       -5.7780     0.6670     0.1110 C.3   1 <1>  -0.1600 
 21 O       -8.2340     3.3380     0.2040 O.3   1 <1>  -0.5600 
 22 C       -8.1660     0.9720    -0.3430 C.3   1 <1>  -0.1600 
 23 C       -6.9740     0.0410    -0.6150 C.3   1 <1>  -0.1600 
 24 C       -9.5230     3.4800     0.7100 C.3   1 <1>   0.0400 
 25 H       -1.0070     3.9960     2.7420 H     1 <1>   0.1500 
 26 H        1.3750    -0.1080    -2.4360 H     1 <1>   0.0800 
 27 H        0.0120    -0.2940    -1.3390 H     1 <1>   0.0800 
 28 H        1.6310     0.0140    -0.6980 H     1 <1>   0.0800 
 29 H        1.3260     4.3340     1.9680 H     1 <1>   0.1500 
 30 H       -5.4020     2.2100     2.2550 H     1 <1>   0.0800 
 31 H       -5.8530     3.7630     1.6340 H     1 <1>   0.0800 
 32 H       -3.4960     5.0510     0.2210 H     1 <1>   0.0800 
 33 H       -3.0270     3.7220    -0.8060 H     1 <1>   0.0800 
 34 H       -5.7690     4.8930    -0.4560 H     1 <1>   0.0800 
 35 H       -4.8690     4.6600    -1.9190 H     1 <1>   0.0800 
 36 H       -7.7580     1.9050     1.5500 H     1 <1>   0.0800 
 37 H       -5.1000     2.2460    -1.7270 H     1 <1>   0.0800 
 38 H       -6.6600     2.9830    -1.7500 H     1 <1>   0.0800 
 39 H       -4.8440     0.4710    -0.3870 H     1 <1>   0.0800 
 40 H       -5.7170     0.2480     1.1010 H     1 <1>   0.0800 
 41 H       -8.9430     0.4530     0.1880 H     1 <1>   0.0800 
 42 H       -8.5500     1.3470    -1.2760 H     1 <1>   0.0800 
 43 H       -7.1600    -0.9590    -0.2620 H     1 <1>   0.0800 
 44 H       -6.7790     0.0070    -1.6730 H     1 <1>   0.0800 
 45 H       -9.8830     4.4550     0.4340 H     1 <1>   0.0800 
 46 H       -9.4950     3.3930     1.7820 H     1 <1>   0.0800 
 47 H      -10.1610     2.7260     0.2840 H     1 <1>   0.0800 
@<TRIPOS>BOND
  1   1   2  1   
  2   2   3  ar  
  3   2   4  ar  
  4   3   5  1   
  5   3   6  ar  
  6   4   7  1   
  7   4   8  ar  
  8   5   9  1   
  9   6  10  1   
 10   6  11  ar  
 11   7  12  2   
 12   7  13  am  
 13   8  11  ar  
 14   8  25  1   
 15   9  26  1   
 16   9  27  1   
 17   9  28  1   
 18  11  29  1   
 19  13  14  1   
 20  13  15  1   
 21  14  16  1   
 22  14  30  1   
 23  14  31  1   
 24  15  17  1   
 25  15  32  1   
 26  15  33  1   
 27  16  18  1   
 28  16  19  1   
 29  16  20  1   
 30  17  19  1   
 31  17  34  1   
 32  17  35  1   
 33  18  21  1   
 34  18  22  1   
 35  18  36  1   
 36  19  37  1   
 37  19  38  1   
 38  20  23  1   
 39  20  39  1   
 40  20  40  1   
 41  21  24  1   
 42  22  23  1   
 43  22  41  1   
 44  22  42  1   
 45  23  43  1   
 46  23  44  1   
 47  24  45  1   
 48  24  46  1   
 49  24  47  1   
@<TRIPOS>SUBSTRUCTURE
  1 ****  13 GROUP 4 **** **** 0

# MOE 2024.06 (io_trps.svl 2023.06)
