@<TRIPOS>MOLECULE
NONAME
54 56 1 0 0 
SMALL
USER_CHARGES


@<TRIPOS>ATOM
  1 S        0.7180     0.5190    -0.7760 S.o2  1 <1>   1.3330 
  2 O        1.6730     0.7880    -1.8280 O.2   1 <1>  -0.6500 
  3 O       -0.6250     0.1040    -1.1110 O.2   1 <1>  -0.6500 
  4 N        1.4040    -0.6540     0.2410 N.am  1 <1>  -0.8490 
  5 C        0.5990     1.9440     0.2990 C.3   1 <1>  -0.0550 
  6 C        1.1070    -2.0150    -0.2160 C.3   1 <1>   0.1160 
  7 C        2.8530    -0.4950     0.4250 C.3   1 <1>   0.1160 
  8 C       -0.0950     3.1720    -0.3280 C.3   1 <1>  -0.0800 
  9 C       -0.1550     4.3880     0.6100 C.3   1 <1>   0.2000 
 10 C        0.5630     3.6890    -1.6200 C.3   1 <1>   0.1400 
 11 O        1.0150     4.4820     1.3490 O.3   1 <1>  -0.6800 
 12 C       -0.2100     5.5850    -0.3280 C.3   1 <1>   0.1400 
 13 N        0.6010     5.1630    -1.4930 N.am  1 <1>  -0.6600 
 14 C        1.6790     5.8570    -1.9850 C.2   1 <1>   0.5440 
 15 O        2.1010     5.5570    -3.0870 O.2   1 <1>  -0.5700 
 16 C        2.3110     6.9070    -1.2260 C.ar  1 <1>   0.0860 
 17 C        3.1910     6.6330    -0.1560 C.ar  1 <1>   0.1000 
 18 C        2.0240     8.2330    -1.5500 C.ar  1 <1>  -0.1500 
 19 N        3.5520     5.3190     0.1950 N.pl3 1 <1>  -0.8380 
 20 C        3.7200     7.7170     0.5500 C.ar  1 <1>  -0.1500 
 21 C        2.5610     9.2840    -0.8370 C.ar  1 <1>  -0.1500 
 22 C        4.3700     4.5550    -0.8060 C.3   1 <1>   0.2090 
 23 C        4.0310     4.9980     1.5830 C.3   1 <1>   0.2090 
 24 C        3.4110     9.0210     0.2220 C.ar  1 <1>  -0.1500 
 25 C        4.3760     3.0520    -0.4810 C.3   1 <1>   0.1200 
 26 C        4.0830     3.4760     1.8260 C.3   1 <1>   0.1200 
 27 O        4.8170     2.8120     0.8300 O.3   1 <1>  -0.5600 
 28 H        0.0580     1.6640     1.1820 H     1 <1>   0.0800 
 29 H        1.5870     2.2130     0.6040 H     1 <1>   0.0800 
 30 H        1.5330    -2.7360     0.4600 H     1 <1>   0.0800 
 31 H        1.5060    -2.1740    -1.2040 H     1 <1>   0.0800 
 32 H        0.0410    -2.1700    -0.2440 H     1 <1>   0.0800 
 33 H        3.2170    -1.2220     1.1300 H     1 <1>   0.0800 
 34 H        3.0790     0.4850     0.8070 H     1 <1>   0.0800 
 35 H        3.3700    -0.6280    -0.5120 H     1 <1>   0.0800 
 36 H       -1.1040     2.8970    -0.5800 H     1 <1>   0.0800 
 37 H       -0.9850     4.3520     1.2940 H     1 <1>   0.0800 
 38 H       -0.0060     3.4080    -2.4900 H     1 <1>   0.0800 
 39 H        1.5680     3.3210    -1.7280 H     1 <1>   0.0800 
 40 H        1.7600     4.7870     0.7620 H     1 <1>   0.4000 
 41 H        0.1610     6.4790     0.1440 H     1 <1>   0.0800 
 42 H       -1.2220     5.7500    -0.6540 H     1 <1>   0.0800 
 43 H        1.3660     8.4300    -2.3790 H     1 <1>   0.1500 
 44 H        4.3960     7.5510     1.3650 H     1 <1>   0.1500 
 45 H        2.3250    10.3000    -1.1010 H     1 <1>   0.1500 
 46 H        3.9930     4.6970    -1.8000 H     1 <1>   0.0800 
 47 H        5.3820     4.9210    -0.7920 H     1 <1>   0.0800 
 48 H        5.0190     5.3990     1.7250 H     1 <1>   0.0800 
 49 H        3.3750     5.4520     2.3060 H     1 <1>   0.0800 
 50 H        3.8340     9.8350     0.7840 H     1 <1>   0.1500 
 51 H        5.0410     2.5360    -1.1500 H     1 <1>   0.0800 
 52 H        3.3920     2.6400    -0.5980 H     1 <1>   0.0800 
 53 H        3.0930     3.0640     1.8560 H     1 <1>   0.0800 
 54 H        4.5590     3.2750     2.7680 H     1 <1>   0.0800 
@<TRIPOS>BOND
  1   1   2  2   
  2   1   3  2   
  3   1   4  am  
  4   1   5  1   
  5   4   6  1   
  6   4   7  1   
  7   5   8  1   
  8   5  28  1   
  9   5  29  1   
 10   6  30  1   
 11   6  31  1   
 12   6  32  1   
 13   7  33  1   
 14   7  34  1   
 15   7  35  1   
 16   8   9  1   
 17   8  10  1   
 18   8  36  1   
 19   9  11  1   
 20   9  12  1   
 21   9  37  1   
 22  10  13  1   
 23  10  38  1   
 24  10  39  1   
 25  11  40  1   
 26  12  13  1   
 27  12  41  1   
 28  12  42  1   
 29  13  14  am  
 30  14  15  2   
 31  14  16  1   
 32  16  17  ar  
 33  16  18  ar  
 34  17  19  1   
 35  17  20  ar  
 36  18  21  ar  
 37  18  43  1   
 38  19  22  1   
 39  19  23  1   
 40  20  24  ar  
 41  20  44  1   
 42  21  24  ar  
 43  21  45  1   
 44  22  25  1   
 45  22  46  1   
 46  22  47  1   
 47  23  26  1   
 48  23  48  1   
 49  23  49  1   
 50  24  50  1   
 51  25  27  1   
 52  25  51  1   
 53  25  52  1   
 54  26  27  1   
 55  26  53  1   
 56  26  54  1   
@<TRIPOS>SUBSTRUCTURE
  1 ****  10 GROUP 4 **** **** 0

# MOE 2024.06 (io_trps.svl 2023.06)
