@<TRIPOS>MOLECULE
NONAME
59 62 1 0 0 
SMALL
USER_CHARGES


@<TRIPOS>ATOM
  1 O        0.4140     0.3720    -0.9580 O.3   1 <1>  -0.5600 
  2 C        1.6400    -0.2520    -1.2570 C.3   1 <1>   0.2000 
  3 C        0.4560     1.7630    -0.8380 C.3   1 <1>   0.1200 
  4 C        2.7300     0.1240    -0.2160 C.3   1 <1>   0.5660 
  5 C        1.4210    -1.7740    -1.2740 C.3   1 <1>   0.1200 
  6 C        1.4110     2.1640     0.2990 C.3   1 <1>   0.3430 
  7 N        2.7830     1.5900     0.0910 N.4   1 <1>  -0.9590 
  8 C        4.1150    -0.3010    -0.6860 C.ar  1 <1>  -0.1440 
  9 O        1.3060    -2.2570     0.0280 O.3   1 <1>  -0.6800 
 10 C        3.6950     1.8620     1.2300 C.3   1 <1>   0.5240 
 11 C        4.7210     0.2790    -1.7960 C.ar  1 <1>  -0.1500 
 12 C        4.7910    -1.2870     0.0180 C.ar  1 <1>  -0.1500 
 13 C        3.9110     3.3560     1.2870 C.2   1 <1>  -0.1810 
 14 C        5.9900    -0.1140    -2.1810 C.ar  1 <1>  -0.1500 
 15 C        6.0590    -1.6790    -0.3700 C.ar  1 <1>  -0.1500 
 16 C        3.3230     4.2290     2.1940 C.2   1 <1>   0.1390 
 17 C        4.6820     4.1460     0.5080 C.2   1 <1>  -0.3020 
 18 C        6.6600    -1.0910    -1.4670 C.ar  1 <1>  -0.1500 
 19 N        3.6780     5.4520     1.9850 N.2   1 <1>  -0.7070 
 20 N        4.5420     5.4290     0.9360 N.pl3 1 <1>   0.5930 
 21 C        5.1760     6.5910     0.4040 C.ar  1 <1>  -0.0230 
 22 C        5.4520     7.6820     1.2220 C.ar  1 <1>  -0.1500 
 23 C        5.5360     6.6710    -0.9390 C.ar  1 <1>  -0.1500 
 24 C        6.0740     8.8100     0.7190 C.ar  1 <1>  -0.1500 
 25 C        6.1580     7.8000    -1.4410 C.ar  1 <1>  -0.1500 
 26 C        6.4350     8.8810    -0.6180 C.ar  1 <1>  -0.1440 
 27 C        7.1230    10.1200    -1.1900 C.3   1 <1>   0.0630 
 28 C        8.4730    10.3600    -0.5060 C.3   1 <1>  -0.2400 
 29 C        6.2220    11.3520    -1.0630 C.3   1 <1>  -0.2400 
 30 H        1.9320     0.0660    -2.2420 H     1 <1>   0.0800 
 31 H        0.7620     2.1880    -1.7780 H     1 <1>   0.0800 
 32 H       -0.5420     2.1000    -0.6180 H     1 <1>   0.0800 
 33 H        2.4990    -0.4090     0.6910 H     1 <1>   0.0800 
 34 H        2.2550    -2.2730    -1.7370 H     1 <1>   0.0800 
 35 H        0.5210    -2.0140    -1.8160 H     1 <1>   0.0800 
 36 H        0.9990     1.8040     1.2280 H     1 <1>   0.0800 
 37 H        1.4650     3.2390     0.3540 H     1 <1>   0.0800 
 38 H        3.2070     2.0450    -0.7200 H     1 <1>   0.4500 
 39 H        0.9320    -3.1640     0.0260 H     1 <1>   0.4000 
 40 H        3.2700     1.5040     2.1540 H     1 <1>   0.0800 
 41 H        4.6450     1.3750     1.0740 H     1 <1>   0.0800 
 42 H        4.2260     1.0360    -2.3790 H     1 <1>   0.1500 
 43 H        4.3380    -1.7680     0.8710 H     1 <1>   0.1500 
 44 H        6.4620     0.3340    -3.0400 H     1 <1>   0.1500 
 45 H        6.5820    -2.4450     0.1790 H     1 <1>   0.1500 
 46 H        2.6460     3.9480     2.9860 H     1 <1>   0.1500 
 47 H        5.3300     3.8940    -0.3110 H     1 <1>   0.1500 
 48 H        7.6480    -1.3980    -1.7690 H     1 <1>   0.1500 
 49 H        5.1780     7.6510     2.2640 H     1 <1>   0.1500 
 50 H        5.3310     5.8570    -1.6090 H     1 <1>   0.1500 
 51 H        6.2740     9.6360     1.3780 H     1 <1>   0.1500 
 52 H        6.4270     7.8350    -2.4820 H     1 <1>   0.1500 
 53 H        7.3110     9.9590    -2.2380 H     1 <1>   0.0800 
 54 H        8.3410    10.5760     0.5380 H     1 <1>   0.0800 
 55 H        8.9820    11.1870    -0.9670 H     1 <1>   0.0800 
 56 H        9.0900     9.4830    -0.5990 H     1 <1>   0.0800 
 57 H        6.0410    11.5900    -0.0300 H     1 <1>   0.0800 
 58 H        5.2780    11.1640    -1.5410 H     1 <1>   0.0800 
 59 H        6.6830    12.2010    -1.5360 H     1 <1>   0.0800 
@<TRIPOS>BOND
  1   1   2  1   
  2   1   3  1   
  3   2   4  1   
  4   2   5  1   
  5   2  30  1   
  6   3   6  1   
  7   3  31  1   
  8   3  32  1   
  9   4   7  1   
 10   4   8  1   
 11   4  33  1   
 12   5   9  1   
 13   5  34  1   
 14   5  35  1   
 15   6   7  1   
 16   6  36  1   
 17   6  37  1   
 18   7  10  1   
 19   7  38  1   
 20   8  11  ar  
 21   8  12  ar  
 22   9  39  1   
 23  10  13  1   
 24  10  40  1   
 25  10  41  1   
 26  11  14  ar  
 27  11  42  1   
 28  12  15  ar  
 29  12  43  1   
 30  13  16  1   
 31  13  17  2   
 32  14  18  ar  
 33  14  44  1   
 34  15  18  ar  
 35  15  45  1   
 36  16  19  2   
 37  16  46  1   
 38  17  20  1   
 39  17  47  1   
 40  18  48  1   
 41  19  20  1   
 42  20  21  1   
 43  21  22  ar  
 44  21  23  ar  
 45  22  24  ar  
 46  22  49  1   
 47  23  25  ar  
 48  23  50  1   
 49  24  26  ar  
 50  24  51  1   
 51  25  26  ar  
 52  25  52  1   
 53  26  27  1   
 54  27  28  1   
 55  27  29  1   
 56  27  53  1   
 57  28  54  1   
 58  28  55  1   
 59  28  56  1   
 60  29  57  1   
 61  29  58  1   
 62  29  59  1   
@<TRIPOS>SUBSTRUCTURE
  1 ****  17 GROUP 4 **** **** 0

# MOE 2024.06 (io_trps.svl 2023.06)
