@<TRIPOS>MOLECULE
NONAME
38 41 1 0 0 
SMALL
USER_CHARGES


@<TRIPOS>ATOM
  1 O       -1.2270     0.4720    -2.5160 O.2   1 <1>  -0.5700 
  2 C       -2.0130     0.6800    -1.6070 C.2   1 <1>   0.7030 
  3 N       -2.9410    -0.2860    -1.3330 N.am  1 <1>  -0.6600 
  4 C       -1.9100     1.9390    -0.8780 C.2   1 <1>   0.2770 
  5 C       -4.3710     0.0000    -1.6170 C.3   1 <1>   0.2350 
  6 C       -2.8350    -1.0310    -0.0520 C.3   1 <1>   0.2350 
  7 N       -0.9620     2.9150    -1.1660 N.pl3 1 <1>  -0.7000 
  8 C       -2.6310     2.4330     0.1550 C.2   1 <1>   0.2000 
  9 C       -5.0590    -0.0340    -0.2660 C.3   1 <1>  -0.2420 
 10 C       -4.0950    -0.6820     0.7160 C.3   1 <1>  -0.2420 
 11 C       -1.1250     3.9450    -0.3260 C.cat 1 <1>   0.7910 
 12 N       -2.1480     3.6720     0.4970 N.pl3 1 <1>  -0.6290 
 13 C       -5.9770     1.1780    -0.0950 C.2   1 <1>   0.9470 
 14 C       -5.4060    -1.3400     0.3910 C.3   1 <1>  -0.2000 
 15 C       -3.7610    -0.3100     2.1620 C.2   1 <1>   0.9470 
 16 C       -0.4350     5.1630    -0.2010 C.2   1 <1>  -0.1410 
 17 C       -2.5520     4.5460     1.4700 C.2   1 <1>   0.2290 
 18 O       -7.1800     1.0180     0.1180 O.co2 1 <1>  -0.9000 
 19 O       -5.4990     2.2990    -0.3260 O.co2 1 <1>  -0.9000 
 20 O       -4.2590    -0.9440     3.0950 O.co2 1 <1>  -0.9000 
 21 O       -2.8730     0.5360     2.3490 O.co2 1 <1>  -0.9000 
 22 C       -0.8110     6.0650     0.7620 C.2   1 <1>  -0.1380 
 23 C       -1.8950     5.7350     1.6080 C.2   1 <1>  -0.1500 
 24 C       -0.1060     7.3970     0.9480 C.3   1 <1>  -0.1020 
 25 H       -4.4810     0.9580    -2.1000 H     1 <1>   0.0800 
 26 H       -4.7790    -0.7600    -2.2590 H     1 <1>   0.0800 
 27 H       -2.8000    -2.0890    -0.2430 H     1 <1>   0.0800 
 28 H       -1.9450    -0.7450     0.4840 H     1 <1>   0.0800 
 29 H       -0.2750     2.8060    -1.9120 H     1 <1>   0.4500 
 30 H       -3.4580     1.9960     0.6780 H     1 <1>   0.1500 
 31 H       -5.4200    -2.2430    -0.1900 H     1 <1>   0.1000 
 32 H       -6.1720    -1.3310     1.1500 H     1 <1>   0.1000 
 33 H        0.3780     5.3540    -0.8740 H     1 <1>   0.1500 
 34 H       -3.3850     4.2490     2.0920 H     1 <1>   0.1500 
 35 H       -2.1990     6.4340     2.3680 H     1 <1>   0.1500 
 36 H       -0.8020     8.2050     0.8110 H     1 <1>   0.0800 
 37 H        0.6940     7.5130     0.2390 H     1 <1>   0.0800 
 38 H        0.3060     7.4610     1.9400 H     1 <1>   0.0800 
@<TRIPOS>BOND
  1   1   2  2   
  2   2   3  am  
  3   2   4  1   
  4   3   5  1   
  5   3   6  1   
  6   4   7  1   
  7   4   8  2   
  8   5   9  1   
  9   5  25  1   
 10   5  26  1   
 11   6  10  1   
 12   6  27  1   
 13   6  28  1   
 14   7  11  ar  
 15   7  29  1   
 16   8  12  1   
 17   8  30  1   
 18   9  10  1   
 19   9  13  1   
 20   9  14  1   
 21  10  14  1   
 22  10  15  1   
 23  11  12  ar  
 24  11  16  1   
 25  12  17  1   
 26  13  18  ar  
 27  13  19  ar  
 28  14  31  1   
 29  14  32  1   
 30  15  20  ar  
 31  15  21  ar  
 32  16  22  2   
 33  16  33  1   
 34  17  23  2   
 35  17  34  1   
 36  22  23  1   
 37  22  24  1   
 38  23  35  1   
 39  24  36  1   
 40  24  37  1   
 41  24  38  1   
@<TRIPOS>SUBSTRUCTURE
  1 ****   8 GROUP 4 **** **** 0

# MOE 2024.06 (io_trps.svl 2023.06)
