@<TRIPOS>MOLECULE
NONAME
43 46 1 0 0 
SMALL
USER_CHARGES


@<TRIPOS>ATOM
  1 S        0.6200    -0.5330    -0.2930 S.3   1 <1>  -0.0800 
  2 C        0.0390    -2.1920    -0.4270 C.ar  1 <1>   0.2970 
  3 C       -0.8140    -0.0500     0.6180 C.2   1 <1>  -0.1100 
  4 N        0.7100    -3.1490    -1.0310 N.ar  1 <1>  -0.5670 
  5 C       -1.1830    -2.3220     0.1830 C.ar  1 <1>   0.0000 
  6 C       -1.6450    -1.0950     0.7800 C.2   1 <1>  -0.1500 
  7 C        0.0810    -4.3070    -0.9930 C.ar  1 <1>   0.4700 
  8 C       -1.7410    -3.5990     0.1270 C.ar  1 <1>   0.4100 
  9 N       -1.0970    -4.6010    -0.4530 N.ar  1 <1>  -0.6200 
 10 N       -2.9840    -3.8710     0.6550 N.pl3 1 <1>  -0.8380 
 11 C       -3.2730    -5.2120     1.2440 C.3   1 <1>   0.2090 
 12 C       -4.1890    -3.2030     0.0820 C.3   1 <1>   0.2090 
 13 C       -3.8590    -6.1330     0.1460 C.3   1 <1>   0.4230 
 14 C       -4.8300    -4.1210    -0.9730 C.3   1 <1>  -0.1600 
 15 N       -4.0970    -7.5620     0.5570 N.4   1 <1>  -0.9590 
 16 C       -5.1690    -5.5330    -0.4150 C.3   1 <1>  -0.1060 
 17 C       -4.5560    -8.4440    -0.5560 C.3   1 <1>   0.3430 
 18 C       -3.0310    -8.1810     1.3860 C.3   1 <1>   0.2630 
 19 C       -6.1810    -5.4450     0.7410 C.2   1 <1>   0.9060 
 20 C       -5.7540    -6.4230    -1.5520 C.3   1 <1>  -0.1600 
 21 C       -4.8950    -7.6650    -1.8350 C.3   1 <1>  -0.1600 
 22 O       -6.2290    -6.3840     1.5520 O.co2 1 <1>  -0.9000 
 23 O       -6.9120    -4.4620     0.8480 O.co2 1 <1>  -0.9000 
 24 H       -0.8700     0.9760     0.9370 H     1 <1>   0.1500 
 25 H       -2.5840    -1.0750     1.3070 H     1 <1>   0.1500 
 26 H        0.5930    -5.1260    -1.4690 H     1 <1>   0.1500 
 27 H       -2.3560    -5.6210     1.6260 H     1 <1>   0.0800 
 28 H       -3.9640    -5.0980     2.0620 H     1 <1>   0.0800 
 29 H       -4.8900    -2.9880     0.8720 H     1 <1>   0.0800 
 30 H       -3.9160    -2.2700    -0.3800 H     1 <1>   0.0800 
 31 H       -3.1320    -6.1390    -0.6480 H     1 <1>   0.0800 
 32 H       -5.7310    -3.6490    -1.3250 H     1 <1>   0.0800 
 33 H       -4.1570    -4.2020    -1.8080 H     1 <1>   0.0800 
 34 H       -4.9520    -7.4270     1.1630 H     1 <1>   0.4500 
 35 H       -3.7950    -9.1720    -0.7850 H     1 <1>   0.0800 
 36 H       -5.4360    -8.9750    -0.2290 H     1 <1>   0.0800 
 37 H       -2.1080    -8.2270     0.8320 H     1 <1>   0.0800 
 38 H       -3.3190    -9.1790     1.6740 H     1 <1>   0.0800 
 39 H       -2.8740    -7.6030     2.2820 H     1 <1>   0.0800 
 40 H       -6.7430    -6.7480    -1.2690 H     1 <1>   0.0800 
 41 H       -5.8690    -5.8560    -2.4600 H     1 <1>   0.0800 
 42 H       -3.9820    -7.3720    -2.3220 H     1 <1>   0.0800 
 43 H       -5.4200    -8.3160    -2.5130 H     1 <1>   0.0800 
@<TRIPOS>BOND
  1   1   2  1   
  2   1   3  1   
  3   2   4  ar  
  4   2   5  ar  
  5   3   6  2   
  6   3  24  1   
  7   4   7  ar  
  8   5   6  1   
  9   5   8  ar  
 10   6  25  1   
 11   7   9  ar  
 12   7  26  1   
 13   8   9  ar  
 14   8  10  1   
 15  10  11  1   
 16  10  12  1   
 17  11  13  1   
 18  11  27  1   
 19  11  28  1   
 20  12  14  1   
 21  12  29  1   
 22  12  30  1   
 23  13  15  1   
 24  13  16  1   
 25  13  31  1   
 26  14  16  1   
 27  14  32  1   
 28  14  33  1   
 29  15  17  1   
 30  15  18  1   
 31  15  34  1   
 32  16  19  1   
 33  16  20  1   
 34  17  21  1   
 35  17  35  1   
 36  17  36  1   
 37  18  37  1   
 38  18  38  1   
 39  18  39  1   
 40  19  22  ar  
 41  19  23  ar  
 42  20  21  1   
 43  20  40  1   
 44  20  41  1   
 45  21  42  1   
 46  21  43  1   
@<TRIPOS>SUBSTRUCTURE
  1 ****  10 GROUP 4 **** **** 0

# MOE 2024.06 (io_trps.svl 2023.06)
