@<TRIPOS>MOLECULE
NONAME
57 59 1 0 0 
SMALL
USER_CHARGES


@<TRIPOS>ATOM
  1 O        0.8910    -0.3190     1.9070 O.2   1 <1>  -0.5700 
  2 C        1.3080    -0.8220     0.8800 C.2   1 <1>   0.5440 
  3 N        0.5990    -1.8620     0.3050 N.am  1 <1>  -0.6600 
  4 C        2.5370    -0.3160     0.3010 C.ar  1 <1>   0.0860 
  5 C        1.1770    -2.7910    -0.7050 C.3   1 <1>   0.1400 
  6 C       -0.7620    -2.2330     0.7810 C.3   1 <1>   0.1400 
  7 C        3.7090    -0.2510     1.0540 C.ar  1 <1>  -0.1500 
  8 C        2.5940     0.1290    -1.0210 C.ar  1 <1>  -0.1500 
  9 C        1.2070    -4.2120    -0.1360 C.3   1 <1>  -0.1600 
 10 C       -0.7380    -3.6510     1.3590 C.3   1 <1>  -0.1600 
 11 C        4.8920     0.2160     0.5130 C.ar  1 <1>  -0.1500 
 12 C        3.7730     0.5980    -1.5690 C.ar  1 <1>  -0.1500 
 13 C       -0.1870    -4.6670     0.3430 C.3   1 <1>  -0.0190 
 14 C        4.9320     0.6430    -0.8110 C.ar  1 <1>   0.0820 
 15 C       -0.1770    -6.0830     0.9410 C.2   1 <1>   0.5690 
 16 O        6.0450     1.1100    -1.4200 O.3   1 <1>  -0.3630 
 17 O        0.8250    -6.4480     1.5120 O.2   1 <1>  -0.5700 
 18 N       -1.2660    -6.9140     0.8350 N.am  1 <1>  -0.6600 
 19 C        7.2710     1.2300    -0.7340 C.3   1 <1>   0.0400 
 20 C       -1.2930    -8.2150     1.5600 C.3   1 <1>   0.3200 
 21 C       -2.5040    -6.6080     0.0540 C.3   1 <1>   0.1400 
 22 C       -1.3180    -9.3500     0.5570 C.2   1 <1>  -0.3320 
 23 C       -2.3180    -6.9530    -1.4300 C.3   1 <1>   0.1200 
 24 N       -0.2780    -9.7010    -0.2250 N.pl3 1 <1>   0.0480 
 25 C       -2.3310   -10.1920     0.2530 C.2   1 <1>   0.0770 
 26 O       -3.4080    -6.4800    -2.1450 O.3   1 <1>  -0.6800 
 27 C       -0.7420   -10.7320    -0.9650 C.2   1 <1>   0.0360 
 28 C        1.0720    -9.1070    -0.2680 C.3   1 <1>   0.0160 
 29 N       -1.9690   -11.0540    -0.7130 N.2   1 <1>  -0.5650 
 30 H        2.1790    -2.5020    -0.9700 H     1 <1>   0.0800 
 31 H        0.5720    -2.7620    -1.5950 H     1 <1>   0.0800 
 32 H       -1.4470    -2.1840    -0.0480 H     1 <1>   0.0800 
 33 H       -1.1070    -1.5430     1.5330 H     1 <1>   0.0800 
 34 H        3.6770    -0.5750     2.0800 H     1 <1>   0.1500 
 35 H        1.6990     0.1060    -1.6160 H     1 <1>   0.1500 
 36 H        1.9030    -4.2360     0.6850 H     1 <1>   0.0800 
 37 H        1.5690    -4.8890    -0.8890 H     1 <1>   0.0800 
 38 H       -1.7350    -3.9270     1.6530 H     1 <1>   0.0800 
 39 H       -0.1250    -3.6520     2.2440 H     1 <1>   0.0800 
 40 H        5.7680     0.2440     1.1330 H     1 <1>   0.1500 
 41 H        3.8060     0.9360    -2.5900 H     1 <1>   0.1500 
 42 H       -0.8230    -4.6560    -0.5210 H     1 <1>   0.0800 
 43 H        7.9980     1.6320    -1.4170 H     1 <1>   0.0800 
 44 H        7.5810     0.2560    -0.4000 H     1 <1>   0.0800 
 45 H        7.1410     1.9010     0.0970 H     1 <1>   0.0800 
 46 H       -2.1730    -8.2540     2.1790 H     1 <1>   0.0800 
 47 H       -0.4400    -8.3220     2.2090 H     1 <1>   0.0800 
 48 H       -2.7450    -5.5650     0.1530 H     1 <1>   0.0800 
 49 H       -3.3290    -7.1750     0.4490 H     1 <1>   0.0800 
 50 H       -2.2460    -8.0150    -1.5860 H     1 <1>   0.0800 
 51 H       -1.4400    -6.4720    -1.8230 H     1 <1>   0.0800 
 52 H       -3.3200   -10.2240     0.6780 H     1 <1>   0.1500 
 53 H       -4.1460    -7.1210    -2.1120 H     1 <1>   0.4000 
 54 H       -0.1290   -11.2300    -1.6950 H     1 <1>   0.1500 
 55 H        1.4450    -8.9940     0.7340 H     1 <1>   0.0800 
 56 H        1.0200    -8.1430    -0.7380 H     1 <1>   0.0800 
 57 H        1.7320    -9.7450    -0.8250 H     1 <1>   0.0800 
@<TRIPOS>BOND
  1   1   2  2   
  2   2   3  am  
  3   2   4  1   
  4   3   5  1   
  5   3   6  1   
  6   4   7  ar  
  7   4   8  ar  
  8   5   9  1   
  9   5  30  1   
 10   5  31  1   
 11   6  10  1   
 12   6  32  1   
 13   6  33  1   
 14   7  11  ar  
 15   7  34  1   
 16   8  12  ar  
 17   8  35  1   
 18   9  13  1   
 19   9  36  1   
 20   9  37  1   
 21  10  13  1   
 22  10  38  1   
 23  10  39  1   
 24  11  14  ar  
 25  11  40  1   
 26  12  14  ar  
 27  12  41  1   
 28  13  15  1   
 29  13  42  1   
 30  14  16  1   
 31  15  17  2   
 32  15  18  am  
 33  16  19  1   
 34  18  20  1   
 35  18  21  1   
 36  19  43  1   
 37  19  44  1   
 38  19  45  1   
 39  20  22  1   
 40  20  46  1   
 41  20  47  1   
 42  21  23  1   
 43  21  48  1   
 44  21  49  1   
 45  22  24  1   
 46  22  25  2   
 47  23  26  1   
 48  23  50  1   
 49  23  51  1   
 50  24  27  1   
 51  24  28  1   
 52  25  29  1   
 53  25  52  1   
 54  26  53  1   
 55  27  29  2   
 56  27  54  1   
 57  28  55  1   
 58  28  56  1   
 59  28  57  1   
@<TRIPOS>SUBSTRUCTURE
  1 ****   9 GROUP 4 **** **** 0

# MOE 2024.06 (io_trps.svl 2023.06)
