@<TRIPOS>MOLECULE
NONAME
56 59 1 0 0 
SMALL
USER_CHARGES


@<TRIPOS>ATOM
  1 O        1.7090     0.0780     2.2880 O.3   1 <1>  -0.6800 
  2 C        1.7030    -0.2530     0.9380 C.3   1 <1>   0.2000 
  3 C        2.4820    -1.5580     0.7720 C.3   1 <1>  -0.0800 
  4 C        2.5840     0.7660     0.2210 C.3   1 <1>   0.3430 
  5 C        3.9510    -1.1070     0.6710 C.3   1 <1>   0.3430 
  6 C        2.0270    -2.3340    -0.4840 C.3   1 <1>  -0.0160 
  7 N        3.9620     0.3930     0.6590 N.4   1 <1>  -0.9590 
  8 C        2.8060    -3.6270    -0.6830 C.ar  1 <1>   0.1670 
  9 C        5.0910     1.0190    -0.0830 C.3   1 <1>   0.4230 
 10 N        4.0450    -3.5050    -1.1370 N.ar  1 <1>  -0.6200 
 11 C        2.2070    -4.8540    -0.3970 C.ar  1 <1>   0.1600 
 12 C        6.4300     0.5420     0.4970 C.3   1 <1>  -0.1600 
 13 C        4.9940     2.5470     0.0040 C.3   1 <1>  -0.1600 
 14 C        4.6300    -4.6840    -1.3000 C.ar  1 <1>   0.1600 
 15 N        2.7980    -6.0250    -0.5450 N.ar  1 <1>  -0.6200 
 16 C        7.6150     1.2420    -0.1680 C.3   1 <1>   0.3430 
 17 C        6.1950     3.2250    -0.6540 C.3   1 <1>   0.3430 
 18 C        4.0270    -5.9020    -1.0120 C.ar  1 <1>   0.1600 
 19 N        7.4600     2.7160    -0.0510 N.4   1 <1>  -0.9590 
 20 C        8.6470     3.4280    -0.6160 C.3   1 <1>   0.4860 
 21 C        8.5370     4.8930    -0.2470 C.ar  1 <1>  -0.1430 
 22 C        8.7590     5.3050     1.0600 C.ar  1 <1>  -0.1500 
 23 C        8.2020     5.8320    -1.2130 C.ar  1 <1>  -0.1500 
 24 C        8.6280     6.6400     1.3990 C.ar  1 <1>  -0.1500 
 25 C        8.0720     7.1660    -0.8700 C.ar  1 <1>  -0.1500 
 26 C        8.2820     7.5700     0.4360 C.ar  1 <1>  -0.1500 
 27 H        1.0260    -0.4230     2.7860 H     1 <1>   0.4000 
 28 H        0.6870    -0.2760     0.5790 H     1 <1>   0.0800 
 29 H        2.3500    -2.1990     1.6270 H     1 <1>   0.0800 
 30 H        2.3200     1.7710     0.5090 H     1 <1>   0.0800 
 31 H        2.4840     0.6510    -0.8450 H     1 <1>   0.0800 
 32 H        4.3910    -1.4740    -0.2400 H     1 <1>   0.0800 
 33 H        4.5180    -1.4850     1.5060 H     1 <1>   0.0800 
 34 H        2.1460    -1.7310    -1.3670 H     1 <1>   0.0800 
 35 H        0.9800    -2.5660    -0.3970 H     1 <1>   0.0800 
 36 H        3.9800     0.6700     1.6550 H     1 <1>   0.4500 
 37 H        5.0370     0.7240    -1.1200 H     1 <1>   0.0800 
 38 H        1.1950    -4.8740    -0.0320 H     1 <1>   0.1500 
 39 H        6.4670     0.7250     1.5570 H     1 <1>   0.0800 
 40 H        6.5480    -0.5140     0.3340 H     1 <1>   0.0800 
 41 H        4.1120     2.8930    -0.5030 H     1 <1>   0.0800 
 42 H        4.9370     2.8640     1.0310 H     1 <1>   0.0800 
 43 H        5.6360    -4.6930    -1.6820 H     1 <1>   0.1500 
 44 H        7.6650     0.9630    -1.2100 H     1 <1>   0.0800 
 45 H        8.5310     0.9280     0.3070 H     1 <1>   0.0800 
 46 H        6.1220     4.2940    -0.5120 H     1 <1>   0.0800 
 47 H        6.1910     3.0300    -1.7150 H     1 <1>   0.0800 
 48 H        4.5840    -6.8090    -1.1750 H     1 <1>   0.1500 
 49 H        7.4550     2.9850     0.9440 H     1 <1>   0.4500 
 50 H        9.5580     3.0270    -0.2010 H     1 <1>   0.0800 
 51 H        8.6810     3.3180    -1.6880 H     1 <1>   0.0800 
 52 H        9.0410     4.6060     1.8290 H     1 <1>   0.1500 
 53 H        8.0420     5.5480    -2.2390 H     1 <1>   0.1500 
 54 H        8.8000     6.9630     2.4130 H     1 <1>   0.1500 
 55 H        7.8130     7.8970    -1.6180 H     1 <1>   0.1500 
 56 H        8.1830     8.6090     0.7020 H     1 <1>   0.1500 
@<TRIPOS>BOND
  1   1   2  1   
  2   1  27  1   
  3   2   3  1   
  4   2   4  1   
  5   2  28  1   
  6   3   5  1   
  7   3   6  1   
  8   3  29  1   
  9   4   7  1   
 10   4  30  1   
 11   4  31  1   
 12   5   7  1   
 13   5  32  1   
 14   5  33  1   
 15   6   8  1   
 16   6  34  1   
 17   6  35  1   
 18   7   9  1   
 19   7  36  1   
 20   8  10  ar  
 21   8  11  ar  
 22   9  12  1   
 23   9  13  1   
 24   9  37  1   
 25  10  14  ar  
 26  11  15  ar  
 27  11  38  1   
 28  12  16  1   
 29  12  39  1   
 30  12  40  1   
 31  13  17  1   
 32  13  41  1   
 33  13  42  1   
 34  14  18  ar  
 35  14  43  1   
 36  15  18  ar  
 37  16  19  1   
 38  16  44  1   
 39  16  45  1   
 40  17  19  1   
 41  17  46  1   
 42  17  47  1   
 43  18  48  1   
 44  19  20  1   
 45  19  49  1   
 46  20  21  1   
 47  20  50  1   
 48  20  51  1   
 49  21  22  ar  
 50  21  23  ar  
 51  22  24  ar  
 52  22  52  1   
 53  23  25  ar  
 54  23  53  1   
 55  24  26  ar  
 56  24  54  1   
 57  25  26  ar  
 58  25  55  1   
 59  26  56  1   
@<TRIPOS>SUBSTRUCTURE
  1 ****   9 GROUP 4 **** **** 0

# MOE 2024.06 (io_trps.svl 2023.06)
