@<TRIPOS>MOLECULE
NONAME
58 61 1 0 0 
SMALL
USER_CHARGES


@<TRIPOS>ATOM
  1 O        2.2810     0.5370     1.3270 O.2   1 <1>  -0.5700 
  2 C        2.5140     0.1230     0.2080 C.2   1 <1>   0.7150 
  3 N        2.1050     0.9200    -0.8560 N.am  1 <1>  -0.6600 
  4 C        3.2670    -1.1100     0.0600 C.2   1 <1>   0.0550 
  5 C        2.2850     0.5880    -2.3070 C.3   1 <1>   0.1400 
  6 C        1.4830     2.2570    -0.6210 C.3   1 <1>   0.1400 
  7 O        3.9820    -1.3660    -1.0320 O.3   1 <1>  -0.2800 
  8 C        3.4380    -2.1330     0.9260 C.2   1 <1>   0.0460 
  9 C        3.6400     1.1000    -2.8470 C.3   1 <1>   0.3430 
 10 C        2.5560     3.3540    -0.6120 C.3   1 <1>  -0.1600 
 11 C        4.5360    -2.5240    -0.7370 C.2   1 <1>   0.2980 
 12 N        4.2580    -3.0330     0.4000 N.2   1 <1>  -0.5650 
 13 C        2.8740    -2.3770     2.3130 C.3   1 <1>  -0.0590 
 14 N        4.2340     2.1490    -1.9590 N.4   1 <1>  -0.9590 
 15 C        3.4470     3.4050    -1.8580 C.3   1 <1>   0.3430 
 16 C        5.4550    -3.1590    -1.7530 C.3   1 <1>  -0.0600 
 17 C        5.6730     2.3840    -2.1810 C.3   1 <1>   0.4810 
 18 C        6.2760     2.4060    -0.7980 C.2   1 <1>  -0.2540 
 19 C        6.7110     3.4790    -0.1240 C.2   1 <1>  -0.2880 
 20 C        6.3700     1.0430    -0.1040 C.3   1 <1>   0.1160 
 21 C        7.2830     3.2940     1.2860 C.3   1 <1>  -0.0220 
 22 C        7.7590     0.8010     0.5900 C.3   1 <1>   0.0000 
 23 C        5.8020     1.2130     1.3430 C.3   1 <1>   0.0000 
 24 C        7.2150     1.7930     1.6850 C.3   1 <1>   0.0000 
 25 C        7.9930    -0.6480     1.0800 C.3   1 <1>  -0.2400 
 26 C        9.0120     1.2460    -0.1950 C.3   1 <1>  -0.2400 
 27 H        2.2040    -0.4740    -2.4640 H     1 <1>   0.0800 
 28 H        1.4910     1.0360    -2.8780 H     1 <1>   0.0800 
 29 H        0.7510     2.4590    -1.3850 H     1 <1>   0.0800 
 30 H        0.9590     2.2620     0.3220 H     1 <1>   0.0800 
 31 H        3.5180     1.4740    -3.8500 H     1 <1>   0.0800 
 32 H        4.3130     0.2590    -2.8930 H     1 <1>   0.0800 
 33 H        3.1680     3.2460     0.2670 H     1 <1>   0.0800 
 34 H        2.0560     4.3010    -0.5200 H     1 <1>   0.0800 
 35 H        2.1450    -1.6360     2.5800 H     1 <1>   0.0800 
 36 H        3.6710    -2.3560     3.0330 H     1 <1>   0.0800 
 37 H        2.4070    -3.3440     2.3460 H     1 <1>   0.0800 
 38 H        4.1850     1.7490    -1.0090 H     1 <1>   0.4500 
 39 H        4.1160     4.2460    -1.7620 H     1 <1>   0.0800 
 40 H        2.8480     3.5480    -2.7430 H     1 <1>   0.0800 
 41 H        5.8230    -4.0950    -1.3740 H     1 <1>   0.0800 
 42 H        6.2890    -2.5110    -1.9460 H     1 <1>   0.0800 
 43 H        4.9200    -3.3400    -2.6660 H     1 <1>   0.0800 
 44 H        6.1160     1.5890    -2.7580 H     1 <1>   0.0800 
 45 H        5.8340     3.3230    -2.6840 H     1 <1>   0.0800 
 46 H        6.7080     4.4980    -0.4760 H     1 <1>   0.1500 
 47 H        5.9870     0.2040    -0.6520 H     1 <1>   0.0000 
 48 H        6.7100     3.8740     1.9880 H     1 <1>   0.0800 
 49 H        8.3020     3.6350     1.3230 H     1 <1>   0.0800 
 50 H        5.0000     1.9270     1.4210 H     1 <1>   0.0000 
 51 H        5.5570     0.2930     1.8410 H     1 <1>   0.0000 
 52 H        7.5470     1.5820     2.6870 H     1 <1>   0.0000 
 53 H        8.8530    -0.6770     1.7270 H     1 <1>   0.0800 
 54 H        8.1850    -1.2930     0.2420 H     1 <1>   0.0800 
 55 H        7.1670    -1.0640     1.6240 H     1 <1>   0.0800 
 56 H        9.8700     1.2270     0.4530 H     1 <1>   0.0800 
 57 H        8.9360     2.2350    -0.6040 H     1 <1>   0.0800 
 58 H        9.1940     0.5690    -1.0100 H     1 <1>   0.0800 
@<TRIPOS>BOND
  1   1   2  2   
  2   2   3  am  
  3   2   4  1   
  4   3   5  1   
  5   3   6  1   
  6   4   7  1   
  7   4   8  2   
  8   5   9  1   
  9   5  27  1   
 10   5  28  1   
 11   6  10  1   
 12   6  29  1   
 13   6  30  1   
 14   7  11  1   
 15   8  12  1   
 16   8  13  1   
 17   9  14  1   
 18   9  31  1   
 19   9  32  1   
 20  10  15  1   
 21  10  33  1   
 22  10  34  1   
 23  11  12  2   
 24  11  16  1   
 25  13  35  1   
 26  13  36  1   
 27  13  37  1   
 28  14  15  1   
 29  14  17  1   
 30  14  38  1   
 31  15  39  1   
 32  15  40  1   
 33  16  41  1   
 34  16  42  1   
 35  16  43  1   
 36  17  18  1   
 37  17  44  1   
 38  17  45  1   
 39  18  19  2   
 40  18  20  1   
 41  19  21  1   
 42  19  46  1   
 43  20  22  1   
 44  20  23  1   
 45  20  47  1   
 46  21  24  1   
 47  21  48  1   
 48  21  49  1   
 49  22  24  1   
 50  22  25  1   
 51  22  26  1   
 52  23  24  1   
 53  23  50  1   
 54  23  51  1   
 55  24  52  1   
 56  25  53  1   
 57  25  54  1   
 58  25  55  1   
 59  26  56  1   
 60  26  57  1   
 61  26  58  1   
@<TRIPOS>SUBSTRUCTURE
  1 ****  20 GROUP 4 **** **** 0

# MOE 2024.06 (io_trps.svl 2023.06)
