@<TRIPOS>MOLECULE
NONAME
46 48 1 0 0 
SMALL
USER_CHARGES


@<TRIPOS>ATOM
  1 O       -0.5300     0.3800     0.2670 O.2   1 <1>  -0.5700 
  2 C       -1.5800     0.8350    -0.1210 C.2   1 <1>   0.5690 
  3 N       -2.6410     0.0290    -0.4190 N.am  1 <1>  -0.6600 
  4 C       -1.7190     2.3380    -0.2650 C.3   1 <1>  -0.0990 
  5 C       -3.9830     0.4650    -0.8860 C.3   1 <1>   0.1400 
  6 C       -2.6000    -1.4420    -0.2420 C.3   1 <1>   0.1400 
  7 C       -0.3700     3.0600    -0.1590 C.3   1 <1>   0.0960 
  8 C       -4.7500    -0.8330    -1.1430 C.3   1 <1>   0.2000 
  9 C       -4.0610    -1.8890    -0.2830 C.3   1 <1>  -0.0800 
 10 N       -0.5550     4.5190    -0.2570 N.pl3 1 <1>   0.3140 
 11 O       -6.0830    -0.7170    -0.7840 O.3   1 <1>  -0.6800 
 12 C       -4.2530    -3.3210    -0.8050 C.3   1 <1>   0.0210 
 13 N       -1.0840     5.1030    -1.3500 N.2   1 <1>  -0.7070 
 14 C       -0.2540     5.4330     0.6870 C.2   1 <1>  -0.3020 
 15 C       -3.4410    -4.3100     0.0080 C.2   1 <1>   0.1080 
 16 C       -1.1010     6.3710    -1.0730 C.2   1 <1>   0.1390 
 17 C       -0.5940     6.6410     0.1930 C.2   1 <1>  -0.1810 
 18 N       -3.5600    -4.4310     1.2930 N.2   1 <1>  -0.7070 
 19 C       -2.4840    -5.1750    -0.5150 C.2   1 <1>  -0.1500 
 20 C       -0.4620     8.0010     0.8470 C.3   1 <1>  -0.0590 
 21 N       -2.6720    -5.3860     1.6300 N.pl3 1 <1>   0.3000 
 22 C       -2.0080    -5.8510     0.5510 C.2   1 <1>  -0.3320 
 23 C       -0.9410    -6.9290     0.6070 C.3   1 <1>  -0.0600 
 24 H       -2.1510     2.5560    -1.2240 H     1 <1>   0.0800 
 25 H       -2.3770     2.6930     0.5060 H     1 <1>   0.0800 
 26 H       -4.4570     1.0440    -0.1140 H     1 <1>   0.0800 
 27 H       -3.9010     1.0400    -1.7910 H     1 <1>   0.0800 
 28 H       -2.0380    -1.8760    -1.0520 H     1 <1>   0.0800 
 29 H       -2.1350    -1.7080     0.6930 H     1 <1>   0.0800 
 30 H        0.2800     2.7470    -0.9560 H     1 <1>   0.0800 
 31 H        0.1020     2.8330     0.7790 H     1 <1>   0.0800 
 32 H       -4.7000    -1.0810    -2.1890 H     1 <1>   0.0800 
 33 H       -4.4320    -1.8320     0.7260 H     1 <1>   0.0800 
 34 H       -6.1680    -0.6680     0.1880 H     1 <1>   0.4000 
 35 H       -3.9580    -3.3820    -1.8360 H     1 <1>   0.0800 
 36 H       -5.2920    -3.5910    -0.7370 H     1 <1>   0.0800 
 37 H        0.1760     5.1770     1.6370 H     1 <1>   0.1500 
 38 H       -1.4690     7.1190    -1.7550 H     1 <1>   0.1500 
 39 H       -2.2030    -5.2630    -1.5490 H     1 <1>   0.1500 
 40 H       -1.4300     8.4600     0.9340 H     1 <1>   0.0800 
 41 H        0.1750     8.6320     0.2540 H     1 <1>   0.0800 
 42 H       -0.0360     7.9000     1.8280 H     1 <1>   0.0800 
 43 H       -2.5440    -5.6940     2.6000 H     1 <1>   0.2700 
 44 H       -0.5620    -7.1250    -0.3800 H     1 <1>   0.0800 
 45 H       -1.3520    -7.8400     1.0040 H     1 <1>   0.0800 
 46 H       -0.1230    -6.6100     1.2300 H     1 <1>   0.0800 
@<TRIPOS>BOND
  1   1   2  2   
  2   2   3  am  
  3   2   4  1   
  4   3   5  1   
  5   3   6  1   
  6   4   7  1   
  7   4  24  1   
  8   4  25  1   
  9   5   8  1   
 10   5  26  1   
 11   5  27  1   
 12   6   9  1   
 13   6  28  1   
 14   6  29  1   
 15   7  10  1   
 16   7  30  1   
 17   7  31  1   
 18   8   9  1   
 19   8  11  1   
 20   8  32  1   
 21   9  12  1   
 22   9  33  1   
 23  10  13  1   
 24  10  14  1   
 25  11  34  1   
 26  12  15  1   
 27  12  35  1   
 28  12  36  1   
 29  13  16  2   
 30  14  17  2   
 31  14  37  1   
 32  15  18  2   
 33  15  19  1   
 34  16  17  1   
 35  16  38  1   
 36  17  20  1   
 37  18  21  1   
 38  19  22  2   
 39  19  39  1   
 40  20  40  1   
 41  20  41  1   
 42  20  42  1   
 43  21  22  1   
 44  21  43  1   
 45  22  23  1   
 46  23  44  1   
 47  23  45  1   
 48  23  46  1   
@<TRIPOS>SUBSTRUCTURE
  1 ****   3 GROUP 4 **** **** 0

# MOE 2024.06 (io_trps.svl 2023.06)
