@<TRIPOS>MOLECULE
NONAME
60 63 1 0 0 
SMALL
USER_CHARGES


@<TRIPOS>ATOM
  1 O       -0.8660     1.1500    -2.5770 O.2   1 <1>  -0.5700 
  2 C       -1.3920     1.6210    -1.5940 C.2   1 <1>   0.5690 
  3 N       -1.8430     0.8230    -0.5750 N.am  1 <1>  -0.6600 
  4 C       -1.5690     3.1350    -1.5470 C.3   1 <1>   0.1810 
  5 C       -2.4520     1.2860     0.6910 C.3   1 <1>   0.1400 
  6 C       -1.6710    -0.6440    -0.5800 C.3   1 <1>   0.1400 
  7 O       -0.9460     3.6970    -0.4010 O.3   1 <1>  -0.3620 
  8 C       -2.9120     0.0100     1.3870 C.3   1 <1>  -0.1600 
  9 C       -1.9860    -1.0780     0.8480 C.3   1 <1>  -0.1600 
 10 C       -0.8770     5.0340    -0.2160 C.ar  1 <1>   0.0820 
 11 C       -1.4530     5.9700    -1.0690 C.ar  1 <1>  -0.1500 
 12 C       -0.1780     5.4650     0.8980 C.ar  1 <1>  -0.1500 
 13 C       -1.3050     7.3210    -0.8140 C.ar  1 <1>  -0.1500 
 14 C       -0.0310     6.8150     1.1550 C.ar  1 <1>  -0.1500 
 15 C       -0.5820     7.7510     0.2900 C.ar  1 <1>  -0.1440 
 16 C       -0.3610     9.2290     0.5320 C.3   1 <1>   0.4860 
 17 N        1.0940     9.5000     0.3290 N.4   1 <1>  -0.9590 
 18 C        1.5460    10.8250     0.8990 C.3   1 <1>   0.3430 
 19 C        1.5500     9.1470    -1.0500 C.3   1 <1>   0.3430 
 20 C        3.0940    10.9980     1.1030 C.3   1 <1>   0.4230 
 21 C        3.0790     9.1960    -1.2180 C.3   1 <1>  -0.0800 
 22 N        3.8800    11.3670    -0.1390 N.4   1 <1>  -0.9590 
 23 C        3.7360     9.7570     1.7740 C.3   1 <1>   0.1200 
 24 C        3.8910     8.3710    -0.1900 C.3   1 <1>   0.1200 
 25 C        3.5560    10.6390    -1.4050 C.3   1 <1>   0.3430 
 26 C        3.8850    12.8490    -0.3850 C.3   1 <1>   0.2630 
 27 O        3.4280     8.5570     1.1170 O.3   1 <1>  -0.5600 
 28 H       -2.6150     3.3740    -1.5190 H     1 <1>   0.0800 
 29 H       -1.1160     3.5640    -2.4220 H     1 <1>   0.0800 
 30 H       -1.7000     1.7820     1.2820 H     1 <1>   0.0800 
 31 H       -3.2740     1.9560     0.5080 H     1 <1>   0.0800 
 32 H       -2.3730    -1.0760    -1.2730 H     1 <1>   0.0800 
 33 H       -0.6680    -0.9120    -0.8680 H     1 <1>   0.0800 
 34 H       -2.8630     0.0980     2.4570 H     1 <1>   0.0800 
 35 H       -3.9270    -0.1990     1.0970 H     1 <1>   0.0800 
 36 H       -2.4350    -2.0550     0.8790 H     1 <1>   0.0800 
 37 H       -1.0720    -1.0930     1.4150 H     1 <1>   0.0800 
 38 H       -2.0160     5.6640    -1.9320 H     1 <1>   0.1500 
 39 H        0.2510     4.7310     1.5580 H     1 <1>   0.1500 
 40 H       -1.7600     8.0260    -1.4900 H     1 <1>   0.1500 
 41 H        0.5180     7.1100     2.0330 H     1 <1>   0.1500 
 42 H       -0.6540     9.4690     1.5420 H     1 <1>   0.0800 
 43 H       -0.9570     9.8140    -0.1500 H     1 <1>   0.0800 
 44 H        1.5750     8.7750     0.9020 H     1 <1>   0.4500 
 45 H        1.1760    11.6320     0.2900 H     1 <1>   0.0800 
 46 H        1.0930    10.9320     1.8720 H     1 <1>   0.0800 
 47 H        1.2300     8.1400    -1.2740 H     1 <1>   0.0800 
 48 H        1.0800     9.7990    -1.7700 H     1 <1>   0.0800 
 49 H        3.2210    11.8110     1.8000 H     1 <1>   0.0800 
 50 H        3.2650     8.7310    -2.1710 H     1 <1>   0.0800 
 51 H        4.8600    11.1190     0.0770 H     1 <1>   0.4500 
 52 H        3.3580     9.6610     2.7780 H     1 <1>   0.0800 
 53 H        4.8060     9.8520     1.8400 H     1 <1>   0.0800 
 54 H        4.9450     8.5920    -0.2300 H     1 <1>   0.0800 
 55 H        3.7700     7.3210    -0.4060 H     1 <1>   0.0800 
 56 H        2.7990    11.1820    -1.9490 H     1 <1>   0.0800 
 57 H        4.4390    10.6290    -2.0260 H     1 <1>   0.0800 
 58 H        2.8960    13.2000    -0.6320 H     1 <1>   0.0800 
 59 H        4.5450    13.0920    -1.2040 H     1 <1>   0.0800 
 60 H        4.2300    13.3780     0.4900 H     1 <1>   0.0800 
@<TRIPOS>BOND
  1   1   2  2   
  2   2   3  am  
  3   2   4  1   
  4   3   5  1   
  5   3   6  1   
  6   4   7  1   
  7   4  28  1   
  8   4  29  1   
  9   5   8  1   
 10   5  30  1   
 11   5  31  1   
 12   6   9  1   
 13   6  32  1   
 14   6  33  1   
 15   7  10  1   
 16   8   9  1   
 17   8  34  1   
 18   8  35  1   
 19   9  36  1   
 20   9  37  1   
 21  10  11  ar  
 22  10  12  ar  
 23  11  13  ar  
 24  11  38  1   
 25  12  14  ar  
 26  12  39  1   
 27  13  15  ar  
 28  13  40  1   
 29  14  15  ar  
 30  14  41  1   
 31  15  16  1   
 32  16  17  1   
 33  16  42  1   
 34  16  43  1   
 35  17  18  1   
 36  17  19  1   
 37  17  44  1   
 38  18  20  1   
 39  18  45  1   
 40  18  46  1   
 41  19  21  1   
 42  19  47  1   
 43  19  48  1   
 44  20  22  1   
 45  20  23  1   
 46  20  49  1   
 47  21  24  1   
 48  21  25  1   
 49  21  50  1   
 50  22  25  1   
 51  22  26  1   
 52  22  51  1   
 53  23  27  1   
 54  23  52  1   
 55  23  53  1   
 56  24  27  1   
 57  24  54  1   
 58  24  55  1   
 59  25  56  1   
 60  25  57  1   
 61  26  58  1   
 62  26  59  1   
 63  26  60  1   
@<TRIPOS>SUBSTRUCTURE
  1 ****  12 GROUP 4 **** **** 0

# MOE 2024.06 (io_trps.svl 2023.06)
