@<TRIPOS>MOLECULE
NONAME
43 45 1 0 0 
SMALL
USER_CHARGES


@<TRIPOS>ATOM
  1 S       -0.0730     0.3570     1.6870 S.3   1 <1>  -0.0800 
  2 C        0.8310    -0.9200     0.9100 C.2   1 <1>  -0.0450 
  3 C        0.9040     1.5400     0.8560 C.2   1 <1>   0.1980 
  4 C        1.7690    -0.3330     0.1330 C.2   1 <1>   0.0460 
  5 C        0.4760    -2.2880     1.1680 C.2   1 <1>   0.7150 
  6 N        1.7950     1.0450     0.0960 N.2   1 <1>  -0.5650 
  7 C        0.6030     2.9970     1.1120 C.3   1 <1>  -0.0600 
  8 C        2.8140    -1.0480    -0.6980 C.3   1 <1>  -0.0590 
  9 O        0.5500    -2.7340     2.2980 O.2   1 <1>  -0.5700 
 10 N        0.0510    -3.0980     0.1410 N.am  1 <1>  -0.6600 
 11 C       -0.0020    -4.5850     0.3430 C.3   1 <1>   0.3640 
 12 C       -0.5800    -2.5040    -1.0790 C.3   1 <1>   0.1400 
 13 C        1.3970    -5.1570     0.1040 C.ar  1 <1>  -0.1440 
 14 C       -1.0480    -5.3440    -0.5290 C.3   1 <1>   0.2000 
 15 C       -1.2310    -3.5390    -2.0050 C.3   1 <1>   0.1200 
 16 C        2.0820    -4.9450    -1.0860 C.ar  1 <1>  -0.1500 
 17 C        2.0030    -5.9110     1.1000 C.ar  1 <1>  -0.1500 
 18 O       -1.9010    -4.4940    -1.2500 O.3   1 <1>  -0.5600 
 19 C       -1.9410    -6.2660     0.3130 C.3   1 <1>   0.1200 
 20 C        3.3440    -5.4810    -1.2780 C.ar  1 <1>  -0.1500 
 21 C        3.2640    -6.4460     0.9100 C.ar  1 <1>  -0.1500 
 22 O       -1.1770    -7.2110     0.9930 O.3   1 <1>  -0.6800 
 23 C        3.9360    -6.2320    -0.2800 C.ar  1 <1>  -0.1500 
 24 H        1.2750     3.6120     0.5420 H     1 <1>   0.0800 
 25 H        0.7290     3.2160     2.1560 H     1 <1>   0.0800 
 26 H       -0.4070     3.2180     0.8220 H     1 <1>   0.0800 
 27 H        2.7480    -2.1130    -0.5650 H     1 <1>   0.0800 
 28 H        3.7930    -0.7250    -0.3940 H     1 <1>   0.0800 
 29 H        2.6780    -0.8110    -1.7370 H     1 <1>   0.0800 
 30 H       -0.2590    -4.7700     1.3720 H     1 <1>   0.0800 
 31 H       -1.3390    -1.8080    -0.7670 H     1 <1>   0.0800 
 32 H        0.1570    -1.9520    -1.6350 H     1 <1>   0.0800 
 33 H       -0.5350    -5.9510    -1.2540 H     1 <1>   0.0800 
 34 H       -0.4990    -4.0290    -2.6230 H     1 <1>   0.0800 
 35 H       -1.9490    -3.0580    -2.6460 H     1 <1>   0.0800 
 36 H        1.6410    -4.3590    -1.8690 H     1 <1>   0.1500 
 37 H        1.4920    -6.0820     2.0330 H     1 <1>   0.1500 
 38 H       -2.6410    -6.7890    -0.3160 H     1 <1>   0.0800 
 39 H       -2.4790    -5.6900     1.0460 H     1 <1>   0.0800 
 40 H        3.8670    -5.3120    -2.2030 H     1 <1>   0.1500 
 41 H        3.7230    -7.0270     1.6920 H     1 <1>   0.1500 
 42 H       -0.7460    -7.8310     0.3710 H     1 <1>   0.4000 
 43 H        4.9180    -6.6480    -0.4260 H     1 <1>   0.1500 
@<TRIPOS>BOND
  1   1   2  1   
  2   1   3  1   
  3   2   4  2   
  4   2   5  1   
  5   3   6  2   
  6   3   7  1   
  7   4   6  1   
  8   4   8  1   
  9   5   9  2   
 10   5  10  am  
 11   7  24  1   
 12   7  25  1   
 13   7  26  1   
 14   8  27  1   
 15   8  28  1   
 16   8  29  1   
 17  10  11  1   
 18  10  12  1   
 19  11  13  1   
 20  11  14  1   
 21  11  30  1   
 22  12  15  1   
 23  12  31  1   
 24  12  32  1   
 25  13  16  ar  
 26  13  17  ar  
 27  14  18  1   
 28  14  19  1   
 29  14  33  1   
 30  15  18  1   
 31  15  34  1   
 32  15  35  1   
 33  16  20  ar  
 34  16  36  1   
 35  17  21  ar  
 36  17  37  1   
 37  19  22  1   
 38  19  38  1   
 39  19  39  1   
 40  20  23  ar  
 41  20  40  1   
 42  21  23  ar  
 43  21  41  1   
 44  22  42  1   
 45  23  43  1   
@<TRIPOS>SUBSTRUCTURE
  1 ****  10 GROUP 4 **** **** 0

# MOE 2024.06 (io_trps.svl 2023.06)
