@<TRIPOS>MOLECULE
NONAME
29 31 1 0 0 
SMALL
USER_CHARGES


@<TRIPOS>ATOM
  1 O        0.3460    -0.4190     1.1900 O.2   1 <1>  -0.5700 
  2 C        0.7940    -1.2740     0.4500 C.2   1 <1>   0.6340 
  3 O        1.9170    -0.9940    -0.2320 O.3   1 <1>  -0.4300 
  4 C        0.2070    -2.5760     0.2700 C.ar  1 <1>   0.0860 
  5 C        2.5450     0.2690    -0.1340 C.3   1 <1>   0.0400 
  6 C       -1.1520    -2.7170    -0.0420 C.ar  1 <1>   0.0830 
  7 C        0.9780    -3.7480     0.4120 C.ar  1 <1>   0.1000 
  8 O       -1.9250    -1.5990    -0.1990 O.3   1 <1>  -0.3630 
  9 C       -1.7230    -3.9800    -0.1830 C.ar  1 <1>  -0.0320 
 10 N        2.3340    -3.7100     0.6880 N.pl3 1 <1>  -0.9000 
 11 C        0.3800    -4.9970     0.2790 C.ar  1 <1>  -0.1500 
 12 C       -3.3540    -1.6550    -0.2610 C.3   1 <1>   0.2150 
 13 C       -0.9620    -5.1200    -0.0160 C.ar  1 <1>  -0.1500 
 14 C       -3.1850    -4.0340    -0.5540 C.3   1 <1>  -0.0680 
 15 C       -3.8240    -2.9880     0.3280 C.3   1 <1>  -0.1950 
 16 C       -4.5420    -4.2570     0.0130 C.3   1 <1>  -0.2000 
 17 H        3.4130     0.2710    -0.7680 H     1 <1>   0.0800 
 18 H        2.8300     0.4370     0.8910 H     1 <1>   0.0800 
 19 H        1.8500     1.0270    -0.4530 H     1 <1>   0.0800 
 20 H        2.9050    -4.5420     0.5110 H     1 <1>   0.4000 
 21 H        2.8330    -2.8310     0.4930 H     1 <1>   0.4000 
 22 H        0.9760    -5.8820     0.4100 H     1 <1>   0.1500 
 23 H       -3.6490    -1.5530    -1.2910 H     1 <1>   0.0800 
 24 H       -3.7400    -0.8260     0.3050 H     1 <1>   0.0800 
 25 H       -1.4150    -6.0900    -0.1210 H     1 <1>   0.1500 
 26 H       -3.2410    -3.9500    -1.6260 H     1 <1>   0.1000 
 27 H       -3.6050    -2.9540     1.3820 H     1 <1>   0.1000 
 28 H       -4.6520    -5.0030     0.7800 H     1 <1>   0.1000 
 29 H       -5.3980    -4.2130    -0.6370 H     1 <1>   0.1000 
@<TRIPOS>BOND
  1   1   2  2   
  2   2   3  1   
  3   2   4  1   
  4   3   5  1   
  5   4   6  ar  
  6   4   7  ar  
  7   5  17  1   
  8   5  18  1   
  9   5  19  1   
 10   6   8  1   
 11   6   9  ar  
 12   7  10  1   
 13   7  11  ar  
 14   8  12  1   
 15   9  13  ar  
 16   9  14  1   
 17  10  20  1   
 18  10  21  1   
 19  11  13  ar  
 20  11  22  1   
 21  12  15  1   
 22  12  23  1   
 23  12  24  1   
 24  13  25  1   
 25  14  15  1   
 26  14  16  1   
 27  14  26  1   
 28  15  16  1   
 29  15  27  1   
 30  16  28  1   
 31  16  29  1   
@<TRIPOS>SUBSTRUCTURE
  1 ****   6 GROUP 4 **** **** 0

# MOE 2024.06 (io_trps.svl 2023.06)
