@<TRIPOS>MOLECULE
NONAME
51 52 1 0 0 
SMALL
USER_CHARGES


@<TRIPOS>ATOM
  1 S        2.3070    -0.1190    -2.0080 S.o2  1 <1>   1.3330 
  2 O        3.1200     1.0450    -2.2850 O.2   1 <1>  -0.6500 
  3 O        2.2290    -1.1940    -2.9650 O.2   1 <1>  -0.6500 
  4 N        2.8430    -0.7610    -0.4910 N.am  1 <1>  -0.6930 
  5 C        0.6650     0.4340    -1.6010 C.3   1 <1>  -0.1350 
  6 C        2.2220    -1.8480     0.1230 C.ar  1 <1>   0.1990 
  7 C        3.9280    -0.0320     0.2380 C.3   1 <1>   0.2570 
  8 C        2.1210    -3.0760    -0.5230 C.ar  1 <1>  -0.1500 
  9 C        1.6840    -1.7280     1.4000 C.ar  1 <1>  -0.1500 
 10 C        3.4740     1.2690     0.9120 C.2   1 <1>   0.5690 
 11 C        1.4930    -4.1540     0.0770 C.ar  1 <1>  -0.1440 
 12 C        1.0590    -2.8000     2.0090 C.ar  1 <1>  -0.1500 
 13 O        3.3610     1.3000     2.1140 O.2   1 <1>  -0.5700 
 14 N        3.2190     2.3660     0.1500 N.am  1 <1>  -0.7300 
 15 C        0.9620    -4.0110     1.3480 C.ar  1 <1>  -0.1500 
 16 C        1.3890    -5.4850    -0.6460 C.3   1 <1>  -0.0970 
 17 C        2.7870     3.6970     0.6480 C.3   1 <1>   0.1400 
 18 C        3.7970     4.8090     0.2830 C.3   1 <1>   0.0000 
 19 C        3.9610     4.8630    -1.2590 C.3   1 <1>  -0.1600 
 20 C        3.2040     6.1520     0.7810 C.3   1 <1>  -0.1600 
 21 C        5.1240     4.4690     1.0160 C.3   1 <1>   0.1200 
 22 C        4.5010     6.2000    -1.7850 C.3   1 <1>   0.1200 
 23 C        3.8230     7.3850     0.1120 C.3   1 <1>   0.1200 
 24 O        6.1160     5.4160     0.8130 O.3   1 <1>  -0.6800 
 25 O        3.7370     7.2410    -1.2700 O.3   1 <1>  -0.5600 
 26 H        0.2080     0.8900    -2.4570 H     1 <1>   0.0800 
 27 H        0.7000     1.1490    -0.8030 H     1 <1>   0.0800 
 28 H        0.0630    -0.3980    -1.2930 H     1 <1>   0.0800 
 29 H        4.7240     0.1920    -0.4480 H     1 <1>   0.0800 
 30 H        4.3320    -0.6770     0.9970 H     1 <1>   0.0800 
 31 H        2.5460    -3.1870    -1.5040 H     1 <1>   0.1500 
 32 H        1.7490    -0.7910     1.9240 H     1 <1>   0.1500 
 33 H        0.6470    -2.6930     2.9980 H     1 <1>   0.1500 
 34 H        3.3090     2.2770    -0.8750 H     1 <1>   0.3700 
 35 H        0.4740    -4.8430     1.8270 H     1 <1>   0.1500 
 36 H        1.5520    -5.3590    -1.7010 H     1 <1>   0.0800 
 37 H        0.4120    -5.9100    -0.5020 H     1 <1>   0.0800 
 38 H        2.1260    -6.1660    -0.2610 H     1 <1>   0.0800 
 39 H        2.6630     3.6600     1.7180 H     1 <1>   0.0800 
 40 H        1.8250     3.9230     0.2190 H     1 <1>   0.0800 
 41 H        3.0010     4.7160    -1.7240 H     1 <1>   0.0800 
 42 H        4.5990     4.0660    -1.5970 H     1 <1>   0.0800 
 43 H        3.3210     6.2350     1.8470 H     1 <1>   0.0800 
 44 H        2.1490     6.1860     0.5720 H     1 <1>   0.0800 
 45 H        5.5120     3.5210     0.6840 H     1 <1>   0.0800 
 46 H        4.9550     4.4060     2.0780 H     1 <1>   0.0800 
 47 H        4.4190     6.2380    -2.8580 H     1 <1>   0.0800 
 48 H        5.5290     6.3620    -1.5150 H     1 <1>   0.0800 
 49 H        4.8540     7.5240     0.3880 H     1 <1>   0.0800 
 50 H        3.2750     8.2700     0.3820 H     1 <1>   0.0800 
 51 H        6.3610     5.4500    -0.1290 H     1 <1>   0.4000 
@<TRIPOS>BOND
  1   1   2  2   
  2   1   3  2   
  3   1   4  am  
  4   1   5  1   
  5   4   6  1   
  6   4   7  1   
  7   5  26  1   
  8   5  27  1   
  9   5  28  1   
 10   6   8  ar  
 11   6   9  ar  
 12   7  10  1   
 13   7  29  1   
 14   7  30  1   
 15   8  11  ar  
 16   8  31  1   
 17   9  12  ar  
 18   9  32  1   
 19  10  13  2   
 20  10  14  am  
 21  11  15  ar  
 22  11  16  1   
 23  12  15  ar  
 24  12  33  1   
 25  14  17  1   
 26  14  34  1   
 27  15  35  1   
 28  16  36  1   
 29  16  37  1   
 30  16  38  1   
 31  17  18  1   
 32  17  39  1   
 33  17  40  1   
 34  18  19  1   
 35  18  20  1   
 36  18  21  1   
 37  19  22  1   
 38  19  41  1   
 39  19  42  1   
 40  20  23  1   
 41  20  43  1   
 42  20  44  1   
 43  21  24  1   
 44  21  45  1   
 45  21  46  1   
 46  22  25  1   
 47  22  47  1   
 48  22  48  1   
 49  23  25  1   
 50  23  49  1   
 51  23  50  1   
 52  24  51  1   
@<TRIPOS>SUBSTRUCTURE
  1 ****  10 GROUP 4 **** **** 0

# MOE 2024.06 (io_trps.svl 2023.06)
