@<TRIPOS>MOLECULE
NONAME
51 54 1 0 0 
SMALL
USER_CHARGES


@<TRIPOS>ATOM
  1 O       -2.1760     0.5290    -1.2490 O.2   1 <1>  -0.5700 
  2 C       -1.8620     0.5770    -0.0700 C.2   1 <1>   0.7160 
  3 N       -1.8570    -0.5920     0.6330 N.am  1 <1>  -0.7300 
  4 C       -1.5190     1.8140     0.6250 C.2   1 <1>   0.2030 
  5 C       -2.3030    -1.9080     0.1300 C.3   1 <1>   0.2200 
  6 N       -1.2710     1.8720     1.9240 N.2   1 <1>  -0.7070 
  7 C       -1.4010     3.0970     0.0570 C.2   1 <1>  -0.1810 
  8 C       -3.7970    -2.0450     0.3580 C.3   1 <1>  -0.0800 
  9 C       -1.7300    -3.0340     0.9920 C.3   1 <1>   0.1200 
 10 N       -1.0020     3.1570     2.1780 N.pl3 1 <1>   0.3000 
 11 C       -1.0750     3.9240     1.0730 C.2   1 <1>  -0.3320 
 12 C       -1.6010     3.4470    -1.4090 C.3   1 <1>  -0.0590 
 13 C       -3.8410    -2.5710     1.7910 C.3   1 <1>   0.1200 
 14 C       -4.4310    -3.0260    -0.6460 C.3   1 <1>  -0.0170 
 15 O       -2.6940    -3.3490     1.9560 O.3   1 <1>  -0.5600 
 16 C       -0.8170     5.4210     1.1020 C.3   1 <1>   0.0200 
 17 C       -5.9470    -3.0850    -0.4880 C.ar  1 <1>  -0.1430 
 18 C        0.6720     5.7010     1.3060 C.3   1 <1>  -0.2400 
 19 C       -6.7970    -2.0590    -0.9640 C.ar  1 <1>   0.0000 
 20 C       -6.5290    -4.1520     0.1310 C.ar  1 <1>  -0.1500 
 21 C       -8.1890    -2.2090    -0.7500 C.ar  1 <1>   0.3100 
 22 C       -6.3520    -0.8970    -1.6380 C.ar  1 <1>  -0.1500 
 23 C       -7.9190    -4.2040     0.2880 C.ar  1 <1>   0.1600 
 24 N       -8.7320    -3.2830    -0.1230 N.ar  1 <1>  -0.6200 
 25 C       -9.0590    -1.2060    -1.2060 C.ar  1 <1>  -0.1500 
 26 C       -7.2280     0.0620    -2.0700 C.ar  1 <1>  -0.1500 
 27 C       -8.5990    -0.0910    -1.8530 C.ar  1 <1>  -0.1500 
 28 H       -1.6860    -0.5000     1.6390 H     1 <1>   0.3700 
 29 H       -2.0220    -2.0120    -0.9050 H     1 <1>   0.0800 
 30 H       -4.2940    -1.0930     0.2880 H     1 <1>   0.0800 
 31 H       -0.8130    -2.7520     1.4800 H     1 <1>   0.0800 
 32 H       -1.5690    -3.9170     0.4000 H     1 <1>   0.0800 
 33 H       -0.7670     3.4960     3.1190 H     1 <1>   0.2700 
 34 H       -0.9410     2.8550    -2.0180 H     1 <1>   0.0800 
 35 H       -1.3960     4.4830    -1.5960 H     1 <1>   0.0800 
 36 H       -2.6150     3.2380    -1.6990 H     1 <1>   0.0800 
 37 H       -4.7110    -3.1680     2.0010 H     1 <1>   0.0800 
 38 H       -3.7870    -1.7570     2.4930 H     1 <1>   0.0800 
 39 H       -4.0140    -4.0090    -0.5040 H     1 <1>   0.0800 
 40 H       -4.1940    -2.7290    -1.6530 H     1 <1>   0.0800 
 41 H       -1.1360     5.8690     0.1780 H     1 <1>   0.0800 
 42 H       -1.3880     5.8730     1.8950 H     1 <1>   0.0800 
 43 H        1.2420     5.2440     0.5160 H     1 <1>   0.0800 
 44 H        1.0080     5.3040     2.2470 H     1 <1>   0.0800 
 45 H        0.8540     6.7610     1.2940 H     1 <1>   0.0800 
 46 H       -5.9450    -4.9690     0.5140 H     1 <1>   0.1500 
 47 H       -5.3030    -0.7560    -1.8190 H     1 <1>   0.1500 
 48 H       -8.3370    -5.0630     0.7830 H     1 <1>   0.1500 
 49 H      -10.1090    -1.3460    -1.0290 H     1 <1>   0.1500 
 50 H       -6.8730     0.9410    -2.5800 H     1 <1>   0.1500 
 51 H       -9.2770     0.6700    -2.1970 H     1 <1>   0.1500 
@<TRIPOS>BOND
  1   1   2  2   
  2   2   3  am  
  3   2   4  1   
  4   3   5  1   
  5   3  28  1   
  6   4   6  2   
  7   4   7  1   
  8   5   8  1   
  9   5   9  1   
 10   5  29  1   
 11   6  10  1   
 12   7  11  2   
 13   7  12  1   
 14   8  13  1   
 15   8  14  1   
 16   8  30  1   
 17   9  15  1   
 18   9  31  1   
 19   9  32  1   
 20  10  11  1   
 21  10  33  1   
 22  11  16  1   
 23  12  34  1   
 24  12  35  1   
 25  12  36  1   
 26  13  15  1   
 27  13  37  1   
 28  13  38  1   
 29  14  17  1   
 30  14  39  1   
 31  14  40  1   
 32  16  18  1   
 33  16  41  1   
 34  16  42  1   
 35  17  19  ar  
 36  17  20  ar  
 37  18  43  1   
 38  18  44  1   
 39  18  45  1   
 40  19  21  ar  
 41  19  22  ar  
 42  20  23  ar  
 43  20  46  1   
 44  21  24  ar  
 45  21  25  ar  
 46  22  26  ar  
 47  22  47  1   
 48  23  24  ar  
 49  23  48  1   
 50  25  27  ar  
 51  25  49  1   
 52  26  27  ar  
 53  26  50  1   
 54  27  51  1   
@<TRIPOS>SUBSTRUCTURE
  1 ****   8 GROUP 4 **** **** 0

# MOE 2024.06 (io_trps.svl 2023.06)
