@<TRIPOS>MOLECULE
NONAME
47 49 1 0 0 
SMALL
USER_CHARGES


@<TRIPOS>ATOM
  1 S       -0.4330    -2.0610    -1.9420 S.o2  1 <1>   1.2040 
  2 O       -0.2840    -0.8640    -1.1450 O.2   1 <1>  -0.6500 
  3 O        0.3580    -2.2430    -3.1380 O.2   1 <1>  -0.6500 
  4 C       -0.2470    -3.5150    -0.8790 C.ar  1 <1>  -0.0090 
  5 C       -2.1450    -2.1630    -2.4230 C.3   1 <1>  -0.1350 
  6 C       -0.3220    -3.4130     0.5050 C.ar  1 <1>  -0.1500 
  7 C       -0.0450    -4.7770    -1.4230 C.ar  1 <1>  -0.1500 
  8 C       -0.2070    -4.5270     1.3180 C.ar  1 <1>  -0.1500 
  9 C        0.0710    -5.8970    -0.6200 C.ar  1 <1>  -0.1500 
 10 C       -0.0150    -5.7800     0.7590 C.ar  1 <1>  -0.1430 
 11 C        0.0840    -7.0110     1.6400 C.3   1 <1>   0.4860 
 12 N       -1.1600    -7.7990     1.4580 N.4   1 <1>  -0.9590 
 13 C       -2.4090    -7.0630     1.8280 C.3   1 <1>   0.3430 
 14 C       -1.2170    -9.1190     2.1360 C.3   1 <1>   0.3430 
 15 C       -3.4060    -8.1240     2.3160 C.3   1 <1>   0.2000 
 16 C       -2.7050    -9.4840     2.1770 C.3   1 <1>  -0.0800 
 17 O       -3.6890    -7.8960     3.6560 O.3   1 <1>  -0.6800 
 18 C       -3.1650   -10.2720     0.9240 C.3   1 <1>   0.0200 
 19 C       -2.5950    -9.7300    -0.3760 C.2   1 <1>  -0.0400 
 20 O       -2.8710    -8.5120    -0.7550 O.3   1 <1>  -0.0190 
 21 C       -1.7690   -10.2670    -1.2870 C.2   1 <1>  -0.1500 
 22 N       -2.2280    -8.1830    -1.8320 N.2   1 <1>  -0.4100 
 23 C       -1.5780    -9.2300    -2.1960 C.2   1 <1>   0.1080 
 24 C       -0.7210    -9.3140    -3.4420 C.3   1 <1>  -0.0590 
 25 H       -2.7810    -2.1160    -1.5600 H     1 <1>   0.0800 
 26 H       -2.3350    -3.0790    -2.9460 H     1 <1>   0.0800 
 27 H       -2.3910    -1.3440    -3.0710 H     1 <1>   0.0800 
 28 H       -0.4670    -2.4420     0.9520 H     1 <1>   0.1500 
 29 H        0.0280    -4.8830    -2.4940 H     1 <1>   0.1500 
 30 H       -0.2670    -4.3970     2.3860 H     1 <1>   0.1500 
 31 H        0.2280    -6.8540    -1.0890 H     1 <1>   0.1500 
 32 H        0.1980    -6.7210     2.6720 H     1 <1>   0.0800 
 33 H        0.9420    -7.5950     1.3470 H     1 <1>   0.0800 
 34 H       -1.2530    -7.9680     0.4390 H     1 <1>   0.4500 
 35 H       -2.2230    -6.3500     2.6140 H     1 <1>   0.0800 
 36 H       -2.7990    -6.5480     0.9650 H     1 <1>   0.0800 
 37 H       -0.6390    -9.8620     1.6100 H     1 <1>   0.0800 
 38 H       -0.8440    -9.0260     3.1440 H     1 <1>   0.0800 
 39 H       -4.3360    -8.0680     1.7740 H     1 <1>   0.0800 
 40 H       -2.9120   -10.1030     3.0340 H     1 <1>   0.0800 
 41 H       -2.9690    -8.1590     4.2610 H     1 <1>   0.4000 
 42 H       -4.2400   -10.2790     0.8660 H     1 <1>   0.0800 
 43 H       -2.8490   -11.2960     1.0240 H     1 <1>   0.0800 
 44 H       -1.3310   -11.2480    -1.3400 H     1 <1>   0.1500 
 45 H        0.2980    -9.5290    -3.1790 H     1 <1>   0.0800 
 46 H       -0.7540    -8.3820    -3.9780 H     1 <1>   0.0800 
 47 H       -1.0900   -10.0920    -4.0850 H     1 <1>   0.0800 
@<TRIPOS>BOND
  1   1   2  2   
  2   1   3  2   
  3   1   4  1   
  4   1   5  1   
  5   4   6  ar  
  6   4   7  ar  
  7   5  25  1   
  8   5  26  1   
  9   5  27  1   
 10   6   8  ar  
 11   6  28  1   
 12   7   9  ar  
 13   7  29  1   
 14   8  10  ar  
 15   8  30  1   
 16   9  10  ar  
 17   9  31  1   
 18  10  11  1   
 19  11  12  1   
 20  11  32  1   
 21  11  33  1   
 22  12  13  1   
 23  12  14  1   
 24  12  34  1   
 25  13  15  1   
 26  13  35  1   
 27  13  36  1   
 28  14  16  1   
 29  14  37  1   
 30  14  38  1   
 31  15  16  1   
 32  15  17  1   
 33  15  39  1   
 34  16  18  1   
 35  16  40  1   
 36  17  41  1   
 37  18  19  1   
 38  18  42  1   
 39  18  43  1   
 40  19  20  1   
 41  19  21  2   
 42  20  22  1   
 43  21  23  1   
 44  21  44  1   
 45  22  23  2   
 46  23  24  1   
 47  24  45  1   
 48  24  46  1   
 49  24  47  1   
@<TRIPOS>SUBSTRUCTURE
  1 ****   9 GROUP 4 **** **** 0

# MOE 2024.06 (io_trps.svl 2023.06)
