@<TRIPOS>MOLECULE
NONAME
48 51 1 0 0 
SMALL
USER_CHARGES


@<TRIPOS>ATOM
  1 O        0.3020     1.0300    -0.2650 O.2   1 <1>  -0.5700 
  2 C       -0.4480     1.9200     0.1050 C.2   1 <1>   0.6300 
  3 N       -1.8170     1.6860     0.0590 N.am  1 <1>  -0.6600 
  4 C        0.1120     3.1690     0.5740 C.2   1 <1>   0.4500 
  5 C       -2.8540     2.6870     0.4610 C.3   1 <1>   0.1400 
  6 C       -2.3940     0.4190    -0.4720 C.3   1 <1>   0.1400 
  7 N        0.1030     3.5110     1.8480 N.2   1 <1>  -0.6210 
  8 C        0.6650     4.0190    -0.4560 C.2   1 <1>   0.6300 
  9 C       -3.7270     3.0710    -0.7500 C.3   1 <1>   0.1440 
 10 C       -3.2650     0.7280    -1.6950 C.3   1 <1>  -0.1600 
 11 C        0.7000     4.6940     2.1710 C.2   1 <1>   0.0210 
 12 O        0.5880     3.8220    -1.6620 O.2   1 <1>  -0.5700 
 13 N        1.2760     5.1800    -0.0670 N.am  1 <1>  -0.5390 
 14 C       -4.8440     4.0100    -0.3350 C.ar  1 <1>   0.1670 
 15 C       -4.3300     1.8010    -1.3930 C.3   1 <1>  -0.1600 
 16 C       -2.9500     3.9290    -1.7850 C.3   1 <1>  -0.1600 
 17 C        1.2840     5.5210     1.2610 C.2   1 <1>  -0.0410 
 18 N       -5.6280     3.8420     0.7000 N.ar  1 <1>  -0.6200 
 19 C       -4.9470     5.0720    -1.1810 C.ar  1 <1>  -0.1430 
 20 C       -3.9220     5.0110    -2.2860 C.3   1 <1>  -0.0170 
 21 C       -6.5500     4.7930     0.8760 C.ar  1 <1>   0.7200 
 22 C       -5.9220     6.0000    -0.9220 C.ar  1 <1>   0.1600 
 23 N       -6.7290     5.8710     0.1050 N.ar  1 <1>  -0.6200 
 24 N       -7.3980     4.6480     1.9580 N.pl3 1 <1>  -0.8380 
 25 C       -8.6330     5.4670     2.1070 C.3   1 <1>   0.1290 
 26 C       -7.1300     3.6750     3.0520 C.3   1 <1>   0.1290 
 27 H       -2.4130     3.5700     0.8850 H     1 <1>   0.0800 
 28 H       -3.4790     2.2470     1.2190 H     1 <1>   0.0800 
 29 H       -2.9910    -0.0400     0.2970 H     1 <1>   0.0800 
 30 H       -1.6180    -0.2750    -0.7470 H     1 <1>   0.0800 
 31 H       -3.7500    -0.1760    -2.0170 H     1 <1>   0.0800 
 32 H       -2.6250     1.0500    -2.4980 H     1 <1>   0.0800 
 33 H        0.6920     4.9510     3.2190 H     1 <1>   0.1500 
 34 H        1.6880     5.7470    -0.8110 H     1 <1>   0.3700 
 35 H       -4.8570     2.0580    -2.2950 H     1 <1>   0.0800 
 36 H       -5.0490     1.3830    -0.7090 H     1 <1>   0.0800 
 37 H       -2.5440     3.3510    -2.5950 H     1 <1>   0.0800 
 38 H       -2.1350     4.4270    -1.2930 H     1 <1>   0.0800 
 39 H        1.7570     6.4470     1.5460 H     1 <1>   0.1500 
 40 H       -4.3950     4.7030    -3.2020 H     1 <1>   0.0800 
 41 H       -3.4250     5.9550    -2.4270 H     1 <1>   0.0800 
 42 H       -6.0430     6.8570    -1.5610 H     1 <1>   0.1500 
 43 H       -9.0270     5.7340     1.1410 H     1 <1>   0.0800 
 44 H       -8.4030     6.3650     2.6520 H     1 <1>   0.0800 
 45 H       -9.3850     4.9100     2.6360 H     1 <1>   0.0800 
 46 H       -6.0720     3.5120     3.1620 H     1 <1>   0.0800 
 47 H       -7.6070     2.7380     2.8240 H     1 <1>   0.0800 
 48 H       -7.5120     4.0520     3.9850 H     1 <1>   0.0800 
@<TRIPOS>BOND
  1   1   2  2   
  2   2   3  am  
  3   2   4  1   
  4   3   5  1   
  5   3   6  1   
  6   4   7  2   
  7   4   8  1   
  8   5   9  1   
  9   5  27  1   
 10   5  28  1   
 11   6  10  1   
 12   6  29  1   
 13   6  30  1   
 14   7  11  1   
 15   8  12  2   
 16   8  13  am  
 17   9  14  1   
 18   9  15  1   
 19   9  16  1   
 20  10  15  1   
 21  10  31  1   
 22  10  32  1   
 23  11  17  2   
 24  11  33  1   
 25  13  17  1   
 26  13  34  1   
 27  14  18  ar  
 28  14  19  ar  
 29  15  35  1   
 30  15  36  1   
 31  16  20  1   
 32  16  37  1   
 33  16  38  1   
 34  17  39  1   
 35  18  21  ar  
 36  19  20  1   
 37  19  22  ar  
 38  20  40  1   
 39  20  41  1   
 40  21  23  ar  
 41  21  24  1   
 42  22  23  ar  
 43  22  42  1   
 44  24  25  1   
 45  24  26  1   
 46  25  43  1   
 47  25  44  1   
 48  25  45  1   
 49  26  46  1   
 50  26  47  1   
 51  26  48  1   
@<TRIPOS>SUBSTRUCTURE
  1 ****   5 GROUP 4 **** **** 0

# MOE 2024.06 (io_trps.svl 2023.06)
