@<TRIPOS>MOLECULE
NONAME
34 36 1 0 0 
SMALL
USER_CHARGES


@<TRIPOS>ATOM
  1 S        0.6630     0.6040     1.7180 S.3   1 <1>  -0.4600 
  2 C        1.0120     2.3810     1.6930 C.3   1 <1>   0.0700 
  3 C        0.8080     0.1400    -0.0250 C.3   1 <1>   0.0700 
  4 C        2.3340     2.6220     0.9530 C.3   1 <1>   0.3430 
  5 C        2.1580     0.6350    -0.5620 C.3   1 <1>   0.3430 
  6 N        2.3050     2.1330    -0.4790 N.4   1 <1>  -0.9590 
  7 C        3.5570     2.5780    -1.2080 C.3   1 <1>   0.4040 
  8 C        3.7330     4.1030    -1.2820 C.2   1 <1>   0.4490 
  9 N        4.3490     4.6950    -0.3200 N.2   1 <1>  -0.5760 
 10 N        3.1940     4.7720    -2.3640 N.am  1 <1>  -0.4900 
 11 C        4.4730     6.0690    -0.4090 C.2   1 <1>  -0.0260 
 12 C        3.2800     6.1250    -2.4810 C.2   1 <1>   0.7160 
 13 N        5.0760     6.9490     0.4270 N.pl3 1 <1>   0.3140 
 14 C        3.9610     6.7960    -1.4390 C.2   1 <1>  -0.0860 
 15 O        2.7690     6.6510    -3.4500 O.2   1 <1>  -0.5700 
 16 N        4.9550     8.2150    -0.0270 N.2   1 <1>  -0.7070 
 17 C        5.7960     6.6540     1.6720 C.3   1 <1>   0.0160 
 18 C        4.2940     8.1150    -1.1380 C.2   1 <1>   0.1390 
 19 H        1.0770     2.7010     2.7180 H     1 <1>   0.0800 
 20 H        0.1850     2.8750     1.2150 H     1 <1>   0.0800 
 21 H       -0.0230     0.5710    -0.5540 H     1 <1>   0.0800 
 22 H        0.7440    -0.9340    -0.0680 H     1 <1>   0.0800 
 23 H        3.1270     2.1270     1.4910 H     1 <1>   0.0800 
 24 H        2.5380     3.6810     0.9750 H     1 <1>   0.0800 
 25 H        2.2510     0.3190    -1.5880 H     1 <1>   0.0800 
 26 H        2.9460     0.1610     0.0020 H     1 <1>   0.0800 
 27 H        1.4850     2.5620    -0.9280 H     1 <1>   0.4500 
 28 H        3.5560     2.1850    -2.2110 H     1 <1>   0.0800 
 29 H        4.4200     2.1760    -0.7030 H     1 <1>   0.0800 
 30 H        2.7410     4.3260    -3.1570 H     1 <1>   0.3700 
 31 H        6.0160     5.6040     1.7230 H     1 <1>   0.0800 
 32 H        5.1840     6.9430     2.5060 H     1 <1>   0.0800 
 33 H        6.7100     7.2170     1.6870 H     1 <1>   0.0800 
 34 H        4.0320     8.9580    -1.7580 H     1 <1>   0.1500 
@<TRIPOS>BOND
  1   1   2  1   
  2   1   3  1   
  3   2   4  1   
  4   2  19  1   
  5   2  20  1   
  6   3   5  1   
  7   3  21  1   
  8   3  22  1   
  9   4   6  1   
 10   4  23  1   
 11   4  24  1   
 12   5   6  1   
 13   5  25  1   
 14   5  26  1   
 15   6   7  1   
 16   6  27  1   
 17   7   8  1   
 18   7  28  1   
 19   7  29  1   
 20   8   9  2   
 21   8  10  1   
 22   9  11  1   
 23  10  12  am  
 24  10  30  1   
 25  11  13  1   
 26  11  14  2   
 27  12  14  1   
 28  12  15  2   
 29  13  16  1   
 30  13  17  1   
 31  14  18  1   
 32  16  18  2   
 33  17  31  1   
 34  17  32  1   
 35  17  33  1   
 36  18  34  1   
@<TRIPOS>SUBSTRUCTURE
  1 ****   8 GROUP 4 **** **** 0

# MOE 2024.06 (io_trps.svl 2023.06)
