@<TRIPOS>MOLECULE
NONAME
53 56 1 0 0 
SMALL
USER_CHARGES


@<TRIPOS>ATOM
  1 O        0.5890     0.3290    -0.3810 O.2   1 <1>  -0.5700 
  2 C        1.5580    -0.2900     0.0270 C.2   1 <1>   0.7160 
  3 N        2.4960     0.4210     0.7750 N.am  1 <1>  -0.6600 
  4 C        1.6870    -1.7090    -0.3110 C.2   1 <1>   0.2030 
  5 C        3.6060    -0.2430     1.5150 C.3   1 <1>   0.1400 
  6 C        2.3990     1.8990     0.9460 C.3   1 <1>   0.1400 
  7 N        2.7830    -2.4580    -0.3050 N.2   1 <1>  -0.7070 
  8 C        0.5940    -2.4800    -0.7230 C.2   1 <1>  -0.1500 
  9 C        4.8410    -0.4040     0.6090 C.3   1 <1>   0.3430 
 10 C        3.7400     2.5890     0.6670 C.3   1 <1>  -0.1600 
 11 N        2.3890    -3.6800    -0.6960 N.pl3 1 <1>   0.3140 
 12 C        1.0670    -3.7180    -0.9560 C.2   1 <1>  -0.3320 
 13 N        5.4980     0.8880     0.1980 N.4   1 <1>  -0.9590 
 14 C        4.5720     1.8950    -0.4140 C.3   1 <1>   0.3430 
 15 C        3.3280    -4.8040    -0.8090 C.3   1 <1>   0.0160 
 16 C        0.3010    -4.9440    -1.4240 C.3   1 <1>  -0.0600 
 17 C        6.6300     0.5960    -0.7210 C.3   1 <1>   0.4860 
 18 C        7.4900     1.8390    -0.8380 C.ar  1 <1>  -0.1430 
 19 C        8.3020     2.2290     0.2240 C.ar  1 <1>  -0.1500 
 20 C        7.4620     2.5950    -2.0090 C.ar  1 <1>  -0.1500 
 21 C        9.0590     3.3780     0.0980 C.ar  1 <1>  -0.1430 
 22 C        8.2270     3.7460    -2.1220 C.ar  1 <1>  -0.1500 
 23 C        9.0150     4.1190    -1.0520 C.ar  1 <1>   0.0820 
 24 C       10.0120     4.0380     1.0520 C.3   1 <1>  -0.0170 
 25 O        9.8060     5.2010    -1.0110 O.3   1 <1>  -0.3620 
 26 C       10.4920     5.2500     0.2320 C.3   1 <1>   0.1200 
 27 H        3.2800    -1.2130     1.8490 H     1 <1>   0.0800 
 28 H        3.8580     0.3210     2.3960 H     1 <1>   0.0800 
 29 H        2.0640     2.1240     1.9440 H     1 <1>   0.0800 
 30 H        1.6650     2.3000     0.2660 H     1 <1>   0.0800 
 31 H       -0.4140    -2.1150    -0.8220 H     1 <1>   0.1500 
 32 H        4.5420    -0.9450    -0.2720 H     1 <1>   0.0800 
 33 H        5.5590    -1.0160     1.1300 H     1 <1>   0.0800 
 34 H        4.3040     2.6940     1.5760 H     1 <1>   0.0800 
 35 H        3.5160     3.5860     0.3310 H     1 <1>   0.0800 
 36 H        5.9130     1.3360     1.0230 H     1 <1>   0.4500 
 37 H        5.1510     2.6520    -0.9180 H     1 <1>   0.0800 
 38 H        3.9260     1.4280    -1.1410 H     1 <1>   0.0800 
 39 H        4.3120    -4.4770    -0.5300 H     1 <1>   0.0800 
 40 H        3.3390    -5.1540    -1.8250 H     1 <1>   0.0800 
 41 H        3.0120    -5.5940    -0.1550 H     1 <1>   0.0800 
 42 H       -0.7380    -4.7010    -1.5590 H     1 <1>   0.0800 
 43 H        0.3740    -5.7320    -0.6950 H     1 <1>   0.0800 
 44 H        0.6930    -5.2950    -2.3620 H     1 <1>   0.0800 
 45 H        6.2590     0.3060    -1.6910 H     1 <1>   0.0800 
 46 H        7.2310    -0.2090    -0.3300 H     1 <1>   0.0800 
 47 H        8.3600     1.6580     1.1340 H     1 <1>   0.1500 
 48 H        6.8510     2.3000    -2.8450 H     1 <1>   0.1500 
 49 H        8.2230     4.3470    -3.0140 H     1 <1>   0.1500 
 50 H       10.8360     3.3920     1.2970 H     1 <1>   0.0800 
 51 H        9.5150     4.3570     1.9500 H     1 <1>   0.0800 
 52 H       11.5480     5.1990     0.0320 H     1 <1>   0.0800 
 53 H       10.2480     6.1800     0.7140 H     1 <1>   0.0800 
@<TRIPOS>BOND
  1   1   2  2   
  2   2   3  am  
  3   2   4  1   
  4   3   5  1   
  5   3   6  1   
  6   4   7  2   
  7   4   8  1   
  8   5   9  1   
  9   5  27  1   
 10   5  28  1   
 11   6  10  1   
 12   6  29  1   
 13   6  30  1   
 14   7  11  1   
 15   8  12  2   
 16   8  31  1   
 17   9  13  1   
 18   9  32  1   
 19   9  33  1   
 20  10  14  1   
 21  10  34  1   
 22  10  35  1   
 23  11  12  1   
 24  11  15  1   
 25  12  16  1   
 26  13  14  1   
 27  13  17  1   
 28  13  36  1   
 29  14  37  1   
 30  14  38  1   
 31  15  39  1   
 32  15  40  1   
 33  15  41  1   
 34  16  42  1   
 35  16  43  1   
 36  16  44  1   
 37  17  18  1   
 38  17  45  1   
 39  17  46  1   
 40  18  19  ar  
 41  18  20  ar  
 42  19  21  ar  
 43  19  47  1   
 44  20  22  ar  
 45  20  48  1   
 46  21  23  ar  
 47  21  24  1   
 48  22  23  ar  
 49  22  49  1   
 50  23  25  1   
 51  24  26  1   
 52  24  50  1   
 53  24  51  1   
 54  25  26  1   
 55  26  52  1   
 56  26  53  1   
@<TRIPOS>SUBSTRUCTURE
  1 ****  13 GROUP 4 **** **** 0

# MOE 2024.06 (io_trps.svl 2023.06)
