@<TRIPOS>MOLECULE
NONAME
42 43 1 0 0 
SMALL
USER_CHARGES


@<TRIPOS>ATOM
  1 S        0.1720     0.0050    -0.9680 S.o2  1 <1>   1.3330 
  2 O       -1.0360     0.3290    -1.6930 O.2   1 <1>  -0.6500 
  3 O        1.3290    -0.4750    -1.6910 O.2   1 <1>  -0.6500 
  4 N       -0.2490    -1.1760     0.1800 N.am  1 <1>  -0.8490 
  5 C        0.6440     1.4150     0.0450 C.3   1 <1>  -0.0550 
  6 C       -1.6220    -1.0410     0.6810 C.3   1 <1>   0.1160 
  7 C       -0.0390    -2.5380    -0.3220 C.3   1 <1>   0.1160 
  8 C        2.0670     1.4160     0.6490 C.3   1 <1>  -0.0800 
  9 C        3.1700     1.5680    -0.4010 C.3   1 <1>   0.2200 
 10 C        2.4880     0.1780     1.4490 C.3   1 <1>   0.1200 
 11 N        3.8770     2.8510    -0.1830 N.am  1 <1>  -0.7300 
 12 C        4.0920     0.3850    -0.1150 C.3   1 <1>   0.1200 
 13 O        3.8510     0.0480     1.2140 O.3   1 <1>  -0.5600 
 14 C        3.4490     4.0630    -0.6430 C.2   1 <1>   0.5440 
 15 O        2.4200     4.0830    -1.2910 O.2   1 <1>  -0.5700 
 16 C        4.1760     5.2930    -0.3860 C.ar  1 <1>   0.0860 
 17 C        5.0830     5.4680     0.6660 C.ar  1 <1>   0.1900 
 18 C        3.9880     6.4050    -1.2150 C.ar  1 <1>  -0.1500 
 19 F        5.3130     4.4920     1.5030 F     1 <1>  -0.1900 
 20 C        5.7710     6.6440     0.8960 C.ar  1 <1>  -0.1500 
 21 C        4.6640     7.5950    -1.0070 C.ar  1 <1>  -0.1500 
 22 C        5.5550     7.7140     0.0460 C.ar  1 <1>   0.0820 
 23 O        6.1990     8.8720     0.2300 O.3   1 <1>  -0.5330 
 24 H        0.5570     2.3000    -0.5570 H     1 <1>   0.0800 
 25 H       -0.0650     1.5180     0.8420 H     1 <1>   0.0800 
 26 H       -1.7990    -1.7510     1.4710 H     1 <1>   0.0800 
 27 H       -2.3310    -1.2150    -0.1120 H     1 <1>   0.0800 
 28 H       -1.7810    -0.0510     1.0720 H     1 <1>   0.0800 
 29 H       -0.3080    -3.2600     0.4290 H     1 <1>   0.0800 
 30 H        0.9990    -2.6840    -0.5710 H     1 <1>   0.0800 
 31 H       -0.6330    -2.7060    -1.2060 H     1 <1>   0.0800 
 32 H        2.1130     2.2500     1.3270 H     1 <1>   0.0800 
 33 H        2.8070     1.5280    -1.4140 H     1 <1>   0.0800 
 34 H        2.0220    -0.7250     1.1030 H     1 <1>   0.0800 
 35 H        2.3230     0.2940     2.5060 H     1 <1>   0.0800 
 36 H        4.6200     2.8150     0.5210 H     1 <1>   0.3700 
 37 H        5.1330     0.6170    -0.2500 H     1 <1>   0.0800 
 38 H        3.8200    -0.4610    -0.7240 H     1 <1>   0.0800 
 39 H        3.2970     6.3310    -2.0390 H     1 <1>   0.1500 
 40 H        6.4540     6.7150     1.7210 H     1 <1>   0.1500 
 41 H        4.5050     8.4370    -1.6580 H     1 <1>   0.1500 
 42 H        6.8030     8.8810     0.9940 H     1 <1>   0.4500 
@<TRIPOS>BOND
  1   1   2  2   
  2   1   3  2   
  3   1   4  am  
  4   1   5  1   
  5   4   6  1   
  6   4   7  1   
  7   5   8  1   
  8   5  24  1   
  9   5  25  1   
 10   6  26  1   
 11   6  27  1   
 12   6  28  1   
 13   7  29  1   
 14   7  30  1   
 15   7  31  1   
 16   8   9  1   
 17   8  10  1   
 18   8  32  1   
 19   9  11  1   
 20   9  12  1   
 21   9  33  1   
 22  10  13  1   
 23  10  34  1   
 24  10  35  1   
 25  11  14  am  
 26  11  36  1   
 27  12  13  1   
 28  12  37  1   
 29  12  38  1   
 30  14  15  2   
 31  14  16  1   
 32  16  17  ar  
 33  16  18  ar  
 34  17  19  1   
 35  17  20  ar  
 36  18  21  ar  
 37  18  39  1   
 38  20  22  ar  
 39  20  40  1   
 40  21  22  ar  
 41  21  41  1   
 42  22  23  1   
 43  23  42  1   
@<TRIPOS>SUBSTRUCTURE
  1 ****  11 GROUP 4 **** **** 0

# MOE 2024.06 (io_trps.svl 2023.06)
