@<TRIPOS>MOLECULE
NONAME
44 46 1 0 0 
SMALL
USER_CHARGES


@<TRIPOS>ATOM
  1 O       -0.1760    -0.6830     0.5020 O.3   1 <1>  -0.5600 
  2 C        0.6420    -0.0850    -0.4610 C.3   1 <1>   0.1200 
  3 C       -1.4260    -0.0570     0.5500 C.3   1 <1>   0.1200 
  4 C        0.0580     1.3000    -0.7190 C.3   1 <1>   0.2890 
  5 C       -1.4250     1.0220    -0.5340 C.3   1 <1>  -0.0800 
  6 N        0.5500     2.2430     0.3110 N.pl3 1 <1>  -0.8690 
  7 C       -2.2990     2.2480    -0.2090 C.3   1 <1>  -0.0170 
  8 C        1.0960     3.4530     0.0710 C.ar  1 <1>   0.7200 
  9 C       -3.7640     1.8540    -0.0930 C.ar  1 <1>  -0.1440 
 10 N        1.8300     3.9250     1.0650 N.ar  1 <1>  -0.6200 
 11 N        0.8470     4.0320    -1.0970 N.ar  1 <1>  -0.6200 
 12 C       -4.5610     1.6750    -1.2050 C.ar  1 <1>  -0.1500 
 13 C       -4.3710     1.6530     1.1300 C.ar  1 <1>  -0.1500 
 14 C        2.3670     5.1030     0.8590 C.ar  1 <1>   0.1600 
 15 C        1.3980     5.2090    -1.2690 C.ar  1 <1>   0.1600 
 16 C       -5.8870     1.3090    -1.0450 C.ar  1 <1>   0.1600 
 17 C       -5.7060     1.2880     1.1800 C.ar  1 <1>   0.1600 
 18 C        2.1840     5.8100    -0.3110 C.ar  1 <1>  -0.1430 
 19 N       -6.4790     1.1080     0.1210 N.ar  1 <1>  -0.6200 
 20 C        2.8110     7.1810    -0.5450 C.3   1 <1>   0.0630 
 21 C        4.3400     7.0950    -0.5050 C.3   1 <1>  -0.2400 
 22 C        2.2980     8.1960     0.4810 C.3   1 <1>  -0.2400 
 23 H        1.6560    -0.0460    -0.1040 H     1 <1>   0.0800 
 24 H        0.5890    -0.6860    -1.3510 H     1 <1>   0.0800 
 25 H       -2.1980    -0.7910     0.3900 H     1 <1>   0.0800 
 26 H       -1.5320     0.3770     1.5290 H     1 <1>   0.0800 
 27 H        0.2910     1.6510    -1.7100 H     1 <1>   0.0800 
 28 H       -1.7930     0.5730    -1.4390 H     1 <1>   0.0800 
 29 H        0.8470     1.8210     1.1900 H     1 <1>   0.4000 
 30 H       -2.1840     2.9840    -0.9860 H     1 <1>   0.0800 
 31 H       -1.9790     2.7040     0.7110 H     1 <1>   0.0800 
 32 H       -4.1630     1.8170    -2.1930 H     1 <1>   0.1500 
 33 H       -3.8180     1.7770     2.0430 H     1 <1>   0.1500 
 34 H        2.9700     5.5170     1.6480 H     1 <1>   0.1500 
 35 H        1.2170     5.7090    -2.2050 H     1 <1>   0.1500 
 36 H       -6.4940     1.1730    -1.9240 H     1 <1>   0.1500 
 37 H       -6.1610     1.1360     2.1440 H     1 <1>   0.1500 
 38 H        2.5260     7.5290    -1.5240 H     1 <1>   0.0800 
 39 H        4.6840     6.7960     0.4690 H     1 <1>   0.0800 
 40 H        4.7720     8.0500    -0.7420 H     1 <1>   0.0800 
 41 H        4.6870     6.3750    -1.2250 H     1 <1>   0.0800 
 42 H        2.5960     7.9230     1.4770 H     1 <1>   0.0800 
 43 H        1.2230     8.2440     0.4470 H     1 <1>   0.0800 
 44 H        2.6880     9.1740     0.2630 H     1 <1>   0.0800 
@<TRIPOS>BOND
  1   1   2  1   
  2   1   3  1   
  3   2   4  1   
  4   2  23  1   
  5   2  24  1   
  6   3   5  1   
  7   3  25  1   
  8   3  26  1   
  9   4   5  1   
 10   4   6  1   
 11   4  27  1   
 12   5   7  1   
 13   5  28  1   
 14   6   8  1   
 15   6  29  1   
 16   7   9  1   
 17   7  30  1   
 18   7  31  1   
 19   8  10  ar  
 20   8  11  ar  
 21   9  12  ar  
 22   9  13  ar  
 23  10  14  ar  
 24  11  15  ar  
 25  12  16  ar  
 26  12  32  1   
 27  13  17  ar  
 28  13  33  1   
 29  14  18  ar  
 30  14  34  1   
 31  15  18  ar  
 32  15  35  1   
 33  16  19  ar  
 34  16  36  1   
 35  17  19  ar  
 36  17  37  1   
 37  18  20  1   
 38  20  21  1   
 39  20  22  1   
 40  20  38  1   
 41  21  39  1   
 42  21  40  1   
 43  21  41  1   
 44  22  42  1   
 45  22  43  1   
 46  22  44  1   
@<TRIPOS>SUBSTRUCTURE
  1 ****   6 GROUP 4 **** **** 0

# MOE 2024.06 (io_trps.svl 2023.06)
