@<TRIPOS>MOLECULE
NONAME
41 42 1 0 0 
SMALL
USER_CHARGES


@<TRIPOS>ATOM
  1 F       -1.7230    -0.5220     2.3130 F     1 <1>  -0.1900 
  2 C       -2.2000    -1.0510     1.2140 C.ar  1 <1>   0.1900 
  3 C       -2.6230    -0.2250     0.1780 C.ar  1 <1>   0.0830 
  4 C       -2.2670    -2.4290     1.1400 C.ar  1 <1>  -0.1500 
  5 O       -2.5290     1.1250     0.3320 O.3   1 <1>  -0.3630 
  6 C       -3.1270    -0.8310    -0.9700 C.ar  1 <1>  -0.1500 
  7 C       -2.7870    -3.0220    -0.0040 C.ar  1 <1>  -0.1430 
  8 C       -2.8200     2.0120    -0.7250 C.3   1 <1>   0.0400 
  9 C       -3.2050    -2.2130    -1.0550 C.ar  1 <1>  -0.1500 
 10 C       -2.9200    -4.5420    -0.1140 C.3   1 <1>   0.4610 
 11 N       -4.0130    -5.0050     0.8450 N.4   1 <1>  -0.9590 
 12 C       -1.5850    -5.2760     0.1500 C.2   1 <1>   0.9060 
 13 C       -4.1850    -6.5000     0.7960 C.3   1 <1>   0.3430 
 14 C       -5.2650    -4.1940     0.8140 C.3   1 <1>   0.2630 
 15 O       -1.3340    -5.5560     1.3340 O.co2 1 <1>  -0.9000 
 16 O       -0.9300    -5.7080    -0.8000 O.co2 1 <1>  -0.9000 
 17 C       -5.0710    -7.0410    -0.3410 C.3   1 <1>   0.0000 
 18 C       -6.5720    -7.0150    -0.0120 C.3   1 <1>   0.2580 
 19 C       -5.2630    -8.5590    -0.1850 C.3   1 <1>   0.2580 
 20 C       -4.7150    -6.6320    -1.7890 C.3   1 <1>  -0.2400 
 21 O       -6.6430    -8.3590    -0.4550 O.3   1 <1>  -0.5160 
 22 H       -1.9070    -3.0180     1.9680 H     1 <1>   0.1500 
 23 H       -3.4600    -0.2440    -1.8060 H     1 <1>   0.1500 
 24 H       -2.6260     3.0130    -0.3820 H     1 <1>   0.0800 
 25 H       -3.8570     1.9130    -0.9910 H     1 <1>   0.0800 
 26 H       -2.1810     1.7830    -1.5600 H     1 <1>   0.0800 
 27 H       -3.5940    -2.6560    -1.9560 H     1 <1>   0.1500 
 28 H       -3.1950    -4.7810    -1.1230 H     1 <1>   0.0800 
 29 H       -3.5170    -4.8480     1.7420 H     1 <1>   0.4500 
 30 H       -4.6070    -6.8270     1.7320 H     1 <1>   0.0800 
 31 H       -3.2140    -6.9660     0.7220 H     1 <1>   0.0800 
 32 H       -5.7360    -4.2740    -0.1520 H     1 <1>   0.0800 
 33 H       -5.0420    -3.1560     1.0030 H     1 <1>   0.0800 
 34 H       -5.9510    -4.5390     1.5690 H     1 <1>   0.0800 
 35 H       -7.1700    -6.3800    -0.6420 H     1 <1>   0.0000 
 36 H       -6.8100    -6.9620     1.0370 H     1 <1>   0.0000 
 37 H       -5.1400    -8.9370     0.8170 H     1 <1>   0.0000 
 38 H       -4.8140    -9.1640    -0.9510 H     1 <1>   0.0000 
 39 H       -4.9140    -5.5900    -1.9540 H     1 <1>   0.0800 
 40 H       -5.3050    -7.1940    -2.4940 H     1 <1>   0.0800 
 41 H       -3.6760    -6.8320    -1.9900 H     1 <1>   0.0800 
@<TRIPOS>BOND
  1   1   2  1   
  2   2   3  ar  
  3   2   4  ar  
  4   3   5  1   
  5   3   6  ar  
  6   4   7  ar  
  7   4  22  1   
  8   5   8  1   
  9   6   9  ar  
 10   6  23  1   
 11   7   9  ar  
 12   7  10  1   
 13   8  24  1   
 14   8  25  1   
 15   8  26  1   
 16   9  27  1   
 17  10  11  1   
 18  10  12  1   
 19  10  28  1   
 20  11  13  1   
 21  11  14  1   
 22  11  29  1   
 23  12  15  ar  
 24  12  16  ar  
 25  13  17  1   
 26  13  30  1   
 27  13  31  1   
 28  14  32  1   
 29  14  33  1   
 30  14  34  1   
 31  17  18  1   
 32  17  19  1   
 33  17  20  1   
 34  18  21  1   
 35  18  35  1   
 36  18  36  1   
 37  19  21  1   
 38  19  37  1   
 39  19  38  1   
 40  20  39  1   
 41  20  40  1   
 42  20  41  1   
@<TRIPOS>SUBSTRUCTURE
  1 ****  10 GROUP 4 **** **** 0

# MOE 2024.06 (io_trps.svl 2023.06)
