@<TRIPOS>MOLECULE
NONAME
51 52 1 0 0 
SMALL
USER_CHARGES


@<TRIPOS>ATOM
  1 CL       0.0320     1.2460     0.8250 Cl    1 <1>  -0.1770 
  2 C        1.4300     2.1680     1.3140 C.ar  1 <1>   0.1770 
  3 C        1.6500     3.4120     0.7510 C.ar  1 <1>  -0.1500 
  4 C        2.2950     1.6400     2.2530 C.ar  1 <1>  -0.1500 
  5 C        2.7610     4.1500     1.1340 C.ar  1 <1>  -0.1440 
  6 C        3.4030     2.3760     2.6370 C.ar  1 <1>  -0.1500 
  7 C        3.6320     3.6240     2.0780 C.ar  1 <1>  -0.1500 
  8 C        3.0270     5.5170     0.5260 C.3   1 <1>  -0.0160 
  9 C        3.9960     5.3900    -0.6500 C.3   1 <1>   0.1400 
 10 N        4.2420     6.7240    -1.2610 N.am  1 <1>  -0.7300 
 11 C        5.3370     7.4900    -0.9970 C.2   1 <1>   0.5690 
 12 O        6.1880     7.1440    -0.2110 O.2   1 <1>  -0.5700 
 13 C        5.5530     8.8470    -1.6910 C.3   1 <1>   0.4040 
 14 N        6.9980     9.2840    -1.6120 N.4   1 <1>  -0.9590 
 15 C        7.1610    10.7570    -1.3600 C.3   1 <1>   0.3430 
 16 C        7.7810     8.7930    -2.7740 C.3   1 <1>   0.3430 
 17 C        6.6980    11.1930     0.0420 C.3   1 <1>   0.2000 
 18 C        9.2600     8.7570    -2.4090 C.3   1 <1>  -0.2400 
 19 O        6.9440    12.5610     0.1260 O.3   1 <1>  -0.5600 
 20 C        7.4540    10.4730     1.1760 C.3   1 <1>  -0.1600 
 21 C        6.5050    13.1820     1.2990 C.3   1 <1>   0.1200 
 22 C        7.0890    11.0640     2.5420 C.3   1 <1>  -0.1600 
 23 C        7.2460    12.5880     2.5010 C.3   1 <1>  -0.1600 
 24 H        0.9530     3.7870     0.0240 H     1 <1>   0.1500 
 25 H        2.1010     0.6710     2.6750 H     1 <1>   0.1500 
 26 H        4.0860     1.9790     3.3690 H     1 <1>   0.1500 
 27 H        4.4990     4.1850     2.3870 H     1 <1>   0.1500 
 28 H        3.4520     6.1610     1.2760 H     1 <1>   0.0800 
 29 H        2.1000     5.9490     0.1930 H     1 <1>   0.0800 
 30 H        3.5870     4.7240    -1.3910 H     1 <1>   0.0800 
 31 H        4.9250     4.9670    -0.3010 H     1 <1>   0.0800 
 32 H        3.5050     7.0300    -1.9030 H     1 <1>   0.3700 
 33 H        4.9260     9.5660    -1.1940 H     1 <1>   0.0800 
 34 H        5.2390     8.7790    -2.7180 H     1 <1>   0.0800 
 35 H        7.3640     8.7700    -0.7870 H     1 <1>   0.4500 
 36 H        6.6120    11.3170    -2.0990 H     1 <1>   0.0800 
 37 H        8.2010    11.0220    -1.4480 H     1 <1>   0.0800 
 38 H        7.6220     9.4290    -3.6320 H     1 <1>   0.0800 
 39 H        7.4660     7.7930    -3.0280 H     1 <1>   0.0800 
 40 H        5.6360    11.0520     0.1450 H     1 <1>   0.0800 
 41 H        9.6490     9.7420    -2.2270 H     1 <1>   0.0800 
 42 H        9.8140     8.3350    -3.2290 H     1 <1>   0.0800 
 43 H        9.4230     8.1360    -1.5460 H     1 <1>   0.0800 
 44 H        8.5140    10.5750     1.0170 H     1 <1>   0.0800 
 45 H        7.2180     9.4230     1.1800 H     1 <1>   0.0800 
 46 H        5.4410    13.0450     1.3890 H     1 <1>   0.0800 
 47 H        6.7150    14.2350     1.2130 H     1 <1>   0.0800 
 48 H        7.7210    10.6490     3.3090 H     1 <1>   0.0800 
 49 H        6.0680    10.8180     2.7810 H     1 <1>   0.0800 
 50 H        6.8620    13.0190     3.4090 H     1 <1>   0.0800 
 51 H        8.2880    12.8480     2.4300 H     1 <1>   0.0800 
@<TRIPOS>BOND
  1   1   2  1   
  2   2   3  ar  
  3   2   4  ar  
  4   3   5  ar  
  5   3  24  1   
  6   4   6  ar  
  7   4  25  1   
  8   5   7  ar  
  9   5   8  1   
 10   6   7  ar  
 11   6  26  1   
 12   7  27  1   
 13   8   9  1   
 14   8  28  1   
 15   8  29  1   
 16   9  10  1   
 17   9  30  1   
 18   9  31  1   
 19  10  11  am  
 20  10  32  1   
 21  11  12  2   
 22  11  13  1   
 23  13  14  1   
 24  13  33  1   
 25  13  34  1   
 26  14  15  1   
 27  14  16  1   
 28  14  35  1   
 29  15  17  1   
 30  15  36  1   
 31  15  37  1   
 32  16  18  1   
 33  16  38  1   
 34  16  39  1   
 35  17  19  1   
 36  17  20  1   
 37  17  40  1   
 38  18  41  1   
 39  18  42  1   
 40  18  43  1   
 41  19  21  1   
 42  20  22  1   
 43  20  44  1   
 44  20  45  1   
 45  21  23  1   
 46  21  46  1   
 47  21  47  1   
 48  22  23  1   
 49  22  48  1   
 50  22  49  1   
 51  23  50  1   
 52  23  51  1   
@<TRIPOS>SUBSTRUCTURE
  1 ****  12 GROUP 4 **** **** 0

# MOE 2024.06 (io_trps.svl 2023.06)
