@<TRIPOS>MOLECULE
NONAME
40 42 1 0 0 
SMALL
USER_CHARGES


@<TRIPOS>ATOM
  1 O       -0.4530     0.2100     0.3670 O.2   1 <1>  -0.5700 
  2 C       -1.4550     0.8320     0.0480 C.2   1 <1>   0.5440 
  3 N       -2.5730     0.0780    -0.2710 N.am  1 <1>  -0.6600 
  4 C       -1.4110     2.3030     0.0490 C.ar  1 <1>   0.3960 
  5 C       -3.9140     0.5970    -0.6450 C.3   1 <1>   0.1400 
  6 C       -2.6020    -1.4030    -0.1670 C.3   1 <1>   0.1400 
  7 N       -2.2180     3.0280    -0.7540 N.ar  1 <1>  -0.6200 
  8 C       -0.5020     2.9410     0.9020 C.ar  1 <1>  -0.1500 
  9 C       -4.7810    -0.6440    -0.8620 C.3   1 <1>   0.2000 
 10 C       -4.0830    -1.7720    -0.1060 C.3   1 <1>  -0.0800 
 11 C       -2.1110     4.3430    -0.6990 C.ar  1 <1>   0.1600 
 12 C       -0.3990     4.3130     0.9550 C.ar  1 <1>  -0.1500 
 13 O       -6.0650    -0.4640    -0.3720 O.3   1 <1>  -0.6800 
 14 C       -4.3960    -3.1630    -0.6760 C.3   1 <1>   0.0210 
 15 C       -1.2310     5.0310     0.1270 C.ar  1 <1>   0.0830 
 16 C       -3.6190    -4.2390     0.0560 C.2   1 <1>   0.1080 
 17 O       -1.1670     6.3730     0.1430 O.3   1 <1>  -0.5320 
 18 N       -3.8510    -4.5560     1.2920 N.2   1 <1>  -0.7070 
 19 C       -2.5850    -4.9890    -0.4940 C.2   1 <1>  -0.1500 
 20 N       -2.9610    -5.5280     1.5660 N.pl3 1 <1>   0.3000 
 21 C       -2.1820    -5.8080     0.5000 C.2   1 <1>  -0.3320 
 22 C       -1.0830    -6.8540     0.4980 C.3   1 <1>  -0.0600 
 23 H       -4.2980     1.2050     0.1560 H     1 <1>   0.0800 
 24 H       -3.8540     1.1700    -1.5530 H     1 <1>   0.0800 
 25 H       -2.1320    -1.8210    -1.0400 H     1 <1>   0.0800 
 26 H       -2.0800    -1.7420     0.7130 H     1 <1>   0.0800 
 27 H        0.1330     2.3400     1.5290 H     1 <1>   0.1500 
 28 H       -4.8470    -0.8570    -1.9150 H     1 <1>   0.0800 
 29 H       -4.3700    -1.7450     0.9310 H     1 <1>   0.0800 
 30 H       -2.7570     4.9090    -1.3460 H     1 <1>   0.1500 
 31 H        0.2960     4.8120     1.6070 H     1 <1>   0.1500 
 32 H       -6.0460    -0.4040     0.6030 H     1 <1>   0.4000 
 33 H       -4.1550    -3.1990    -1.7230 H     1 <1>   0.0800 
 34 H       -5.4470    -3.3660    -0.5680 H     1 <1>   0.0800 
 35 H       -1.7730     6.8240    -0.4730 H     1 <1>   0.4500 
 36 H       -2.2070    -4.9120    -1.4980 H     1 <1>   0.1500 
 37 H       -2.9120    -5.9790     2.4870 H     1 <1>   0.2700 
 38 H       -0.6060    -6.8880    -0.4660 H     1 <1>   0.0800 
 39 H       -1.4940    -7.8260     0.7110 H     1 <1>   0.0800 
 40 H       -0.3410    -6.6160     1.2390 H     1 <1>   0.0800 
@<TRIPOS>BOND
  1   1   2  2   
  2   2   3  am  
  3   2   4  1   
  4   3   5  1   
  5   3   6  1   
  6   4   7  ar  
  7   4   8  ar  
  8   5   9  1   
  9   5  23  1   
 10   5  24  1   
 11   6  10  1   
 12   6  25  1   
 13   6  26  1   
 14   7  11  ar  
 15   8  12  ar  
 16   8  27  1   
 17   9  10  1   
 18   9  13  1   
 19   9  28  1   
 20  10  14  1   
 21  10  29  1   
 22  11  15  ar  
 23  11  30  1   
 24  12  15  ar  
 25  12  31  1   
 26  13  32  1   
 27  14  16  1   
 28  14  33  1   
 29  14  34  1   
 30  15  17  1   
 31  16  18  2   
 32  16  19  1   
 33  17  35  1   
 34  18  20  1   
 35  19  21  2   
 36  19  36  1   
 37  20  21  1   
 38  20  37  1   
 39  21  22  1   
 40  22  38  1   
 41  22  39  1   
 42  22  40  1   
@<TRIPOS>SUBSTRUCTURE
  1 ****   3 GROUP 4 **** **** 0

# MOE 2024.06 (io_trps.svl 2023.06)
