@<TRIPOS>MOLECULE
NONAME
40 42 1 0 0 
SMALL
USER_CHARGES


@<TRIPOS>ATOM
  1 N        4.1420     3.1570     0.1890 N.2   1 <1>  -0.5650 
  2 C        5.4680     3.2810    -0.0890 C.ar  1 <1>   0.2270 
  3 C        3.6500     4.3280    -0.0580 C.2   1 <1>   0.0060 
  4 C        5.7550     4.5660    -0.5090 C.ar  1 <1>  -0.1520 
  5 C        6.4810     2.3280     0.0000 C.ar  1 <1>  -0.1500 
  6 N        4.5720     5.2400    -0.4870 N.pl3 1 <1>   0.0480 
  7 C        2.1690     4.6410     0.1260 C.3   1 <1>   0.6030 
  8 C        7.0620     4.9330    -0.8470 C.ar  1 <1>  -0.1500 
  9 C        7.7690     2.6830    -0.3340 C.ar  1 <1>  -0.1500 
 10 C        4.3900     6.6620    -0.8730 C.3   1 <1>   0.0960 
 11 N        1.5690     3.5090     0.8570 N.4   1 <1>  -0.9060 
 12 C        1.4000     4.7040    -1.1900 C.3   1 <1>  -0.1600 
 13 C        8.0570     3.9860    -0.7560 C.ar  1 <1>  -0.1500 
 14 C        4.2440     7.5850     0.3520 C.3   1 <1>  -0.0800 
 15 C        0.3290     3.0490     0.1900 C.3   1 <1>   0.3430 
 16 C        0.0370     4.0990    -0.8710 C.3   1 <1>  -0.1600 
 17 C        3.9780     9.0220    -0.1110 C.3   1 <1>  -0.2400 
 18 C        5.4930     7.5610     1.2460 C.3   1 <1>  -0.2400 
 19 H        6.2360     1.3340     0.3270 H     1 <1>   0.1500 
 20 H        2.0320     5.5510     0.6860 H     1 <1>   0.0800 
 21 H        7.2870     5.9330    -1.1690 H     1 <1>   0.1500 
 22 H        8.5650     1.9620    -0.2720 H     1 <1>   0.1500 
 23 H        3.5230     6.7420    -1.5020 H     1 <1>   0.0800 
 24 H        5.2390     6.9720    -1.4570 H     1 <1>   0.0800 
 25 H        1.4580     3.7290     1.8490 H     1 <1>   0.4500 
 26 H        2.3160     2.7910     0.7910 H     1 <1>   0.4500 
 27 H        1.9040     4.1040    -1.9300 H     1 <1>   0.0800 
 28 H        1.3210     5.7120    -1.5580 H     1 <1>   0.0800 
 29 H        9.0730     4.2400    -1.0100 H     1 <1>   0.1500 
 30 H        3.3980     7.2690     0.9380 H     1 <1>   0.0800 
 31 H       -0.4880     2.9560     0.8880 H     1 <1>   0.0800 
 32 H        0.5060     2.0940    -0.2810 H     1 <1>   0.0800 
 33 H       -0.4310     3.6650    -1.7390 H     1 <1>   0.0800 
 34 H       -0.6200     4.8460    -0.4610 H     1 <1>   0.0800 
 35 H        4.8040     9.3970    -0.6900 H     1 <1>   0.0800 
 36 H        3.8430     9.6700     0.7390 H     1 <1>   0.0800 
 37 H        3.0870     9.0730    -0.7130 H     1 <1>   0.0800 
 38 H        6.3650     7.8610     0.6910 H     1 <1>   0.0800 
 39 H        5.6660     6.5760     1.6440 H     1 <1>   0.0800 
 40 H        5.3730     8.2350     2.0760 H     1 <1>   0.0800 
@<TRIPOS>BOND
  1   1   2  1   
  2   1   3  2   
  3   2   4  ar  
  4   2   5  ar  
  5   3   6  1   
  6   3   7  1   
  7   4   6  1   
  8   4   8  ar  
  9   5   9  ar  
 10   5  19  1   
 11   6  10  1   
 12   7  11  1   
 13   7  12  1   
 14   7  20  1   
 15   8  13  ar  
 16   8  21  1   
 17   9  13  ar  
 18   9  22  1   
 19  10  14  1   
 20  10  23  1   
 21  10  24  1   
 22  11  15  1   
 23  11  25  1   
 24  11  26  1   
 25  12  16  1   
 26  12  27  1   
 27  12  28  1   
 28  13  29  1   
 29  14  17  1   
 30  14  18  1   
 31  14  30  1   
 32  15  16  1   
 33  15  31  1   
 34  15  32  1   
 35  16  33  1   
 36  16  34  1   
 37  17  35  1   
 38  17  36  1   
 39  17  37  1   
 40  18  38  1   
 41  18  39  1   
 42  18  40  1   
@<TRIPOS>SUBSTRUCTURE
  1 ****   6 GROUP 4 **** **** 0

# MOE 2024.06 (io_trps.svl 2023.06)
