@<TRIPOS>MOLECULE
NONAME
57 59 1 0 0 
SMALL
USER_CHARGES


@<TRIPOS>ATOM
  1 O        1.0500    -0.2390    -1.7990 O.2   1 <1>  -0.5700 
  2 C        2.0110    -0.8940    -1.4430 C.2   1 <1>   0.7160 
  3 N        3.2360    -0.2750    -1.2970 N.am  1 <1>  -0.6600 
  4 C        1.8110    -2.2970    -1.1610 C.2   1 <1>  -0.0860 
  5 C        3.4810     1.0920    -1.8390 C.3   1 <1>   0.1400 
  6 C        4.3110    -0.7940    -0.4070 C.3   1 <1>   0.1400 
  7 C        2.5220    -3.4080    -1.5020 C.2   1 <1>  -0.0400 
  8 C        0.7090    -2.8040    -0.4440 C.2   1 <1>  -0.1500 
  9 C        3.6930     2.0750    -0.6860 C.3   1 <1>  -0.1600 
 10 C        4.5340     0.1800     0.7510 C.3   1 <1>  -0.1600 
 11 O        1.9520    -4.4930    -1.0380 O.3   1 <1>  -0.2800 
 12 C        3.7870    -3.5660    -2.3240 C.3   1 <1>  -0.0600 
 13 C        0.8510    -4.1460    -0.4100 C.2   1 <1>  -0.0400 
 14 C        4.8190     1.5930     0.2370 C.3   1 <1>   0.2000 
 15 C       -0.0030    -5.2550     0.1790 C.3   1 <1>   0.5230 
 16 O        4.8970     2.4410     1.3620 O.3   1 <1>  -0.3630 
 17 N       -1.3970    -4.7720     0.4340 N.4   1 <1>  -0.9590 
 18 C        5.4670     3.6750     1.3280 C.ar  1 <1>   0.0820 
 19 C       -2.1760    -5.7340     1.2570 C.3   1 <1>   0.3430 
 20 C       -2.0760    -4.4630    -0.8560 C.3   1 <1>   0.3430 
 21 C        5.3400     4.4700     2.4620 C.ar  1 <1>   0.1600 
 22 C        6.1630     4.1830     0.2400 C.ar  1 <1>  -0.1500 
 23 C       -1.6940    -5.6840     2.7030 C.3   1 <1>  -0.2400 
 24 C       -3.2420    -3.5140    -0.6040 C.3   1 <1>  -0.2400 
 25 N        5.8320     5.6940     2.6000 N.ar  1 <1>  -0.6200 
 26 C        6.6800     5.4550     0.3690 C.ar  1 <1>  -0.1500 
 27 C        6.4900     6.1560     1.5490 C.ar  1 <1>   0.1600 
 28 H        2.6520     1.4190    -2.4440 H     1 <1>   0.0800 
 29 H        4.3550     1.0680    -2.4670 H     1 <1>   0.0800 
 30 H        5.2180    -0.9030    -0.9770 H     1 <1>   0.0800 
 31 H        4.0490    -1.7570    -0.0060 H     1 <1>   0.0800 
 32 H       -0.0620    -2.1700    -0.0410 H     1 <1>   0.1500 
 33 H        2.7750     2.1560    -0.1300 H     1 <1>   0.0800 
 34 H        3.9280     3.0410    -1.0910 H     1 <1>   0.0800 
 35 H        5.3640    -0.1580     1.3450 H     1 <1>   0.0800 
 36 H        3.6550     0.1910     1.3710 H     1 <1>   0.0800 
 37 H        4.1010    -2.6200    -2.7260 H     1 <1>   0.0800 
 38 H        3.6040    -4.2390    -3.1420 H     1 <1>   0.0800 
 39 H        4.5730    -3.9690    -1.7130 H     1 <1>   0.0800 
 40 H        5.7680     1.5950    -0.2680 H     1 <1>   0.0800 
 41 H        0.4570    -5.5920     1.0920 H     1 <1>   0.0800 
 42 H       -0.0260    -6.0820    -0.5110 H     1 <1>   0.0800 
 43 H       -1.3100    -3.8930     0.9560 H     1 <1>   0.4500 
 44 H       -2.0760    -6.7340     0.8630 H     1 <1>   0.0800 
 45 H       -3.2210    -5.4710     1.2360 H     1 <1>   0.0800 
 46 H       -2.4260    -5.3700    -1.3240 H     1 <1>   0.0800 
 47 H       -1.3860    -3.9830    -1.5330 H     1 <1>   0.0800 
 48 H        4.8000     4.0630     3.2970 H     1 <1>   0.1500 
 49 H        6.3080     3.6350    -0.6700 H     1 <1>   0.1500 
 50 H       -0.6820    -6.0310     2.7990 H     1 <1>   0.0800 
 51 H       -2.3150    -6.3290     3.3000 H     1 <1>   0.0800 
 52 H       -1.7780    -4.6880     3.1000 H     1 <1>   0.0800 
 53 H       -4.0030    -3.9700     0.0020 H     1 <1>   0.0800 
 54 H       -3.6900    -3.2530    -1.5470 H     1 <1>   0.0800 
 55 H       -2.9020    -2.6050    -0.1410 H     1 <1>   0.0800 
 56 H        7.2300     5.9060    -0.4370 H     1 <1>   0.1500 
 57 H        6.9010     7.1480     1.6330 H     1 <1>   0.1500 
@<TRIPOS>BOND
  1   1   2  2   
  2   2   3  am  
  3   2   4  1   
  4   3   5  1   
  5   3   6  1   
  6   4   7  2   
  7   4   8  1   
  8   5   9  1   
  9   5  28  1   
 10   5  29  1   
 11   6  10  1   
 12   6  30  1   
 13   6  31  1   
 14   7  11  1   
 15   7  12  1   
 16   8  13  2   
 17   8  32  1   
 18   9  14  1   
 19   9  33  1   
 20   9  34  1   
 21  10  14  1   
 22  10  35  1   
 23  10  36  1   
 24  11  13  1   
 25  12  37  1   
 26  12  38  1   
 27  12  39  1   
 28  13  15  1   
 29  14  16  1   
 30  14  40  1   
 31  15  17  1   
 32  15  41  1   
 33  15  42  1   
 34  16  18  1   
 35  17  19  1   
 36  17  20  1   
 37  17  43  1   
 38  18  21  ar  
 39  18  22  ar  
 40  19  23  1   
 41  19  44  1   
 42  19  45  1   
 43  20  24  1   
 44  20  46  1   
 45  20  47  1   
 46  21  25  ar  
 47  21  48  1   
 48  22  26  ar  
 49  22  49  1   
 50  23  50  1   
 51  23  51  1   
 52  23  52  1   
 53  24  53  1   
 54  24  54  1   
 55  24  55  1   
 56  25  27  ar  
 57  26  27  ar  
 58  26  56  1   
 59  27  57  1   
@<TRIPOS>SUBSTRUCTURE
  1 ****   3 GROUP 4 **** **** 0

# MOE 2024.06 (io_trps.svl 2023.06)
