@<TRIPOS>MOLECULE
NONAME
47 49 1 0 0 
SMALL
USER_CHARGES


@<TRIPOS>ATOM
  1 O       -0.6600     0.0120     2.2010 O.2   1 <1>  -0.5700 
  2 C       -1.5700     0.6910     1.7590 C.2   1 <1>   0.5440 
  3 N       -2.8060     0.0820     1.6130 N.am  1 <1>  -0.6600 
  4 C       -1.3040     2.0930     1.4230 C.ar  1 <1>   0.3960 
  5 C       -2.9430    -1.4000     1.4640 C.3   1 <1>   0.1400 
  6 C       -4.0780     0.7880     1.2800 C.3   1 <1>   0.1400 
  7 N       -1.8290     2.6620     0.3340 N.ar  1 <1>  -0.6200 
  8 C       -0.4750     2.8410     2.2390 C.ar  1 <1>  -0.1500 
  9 C       -3.5150    -1.7500     0.0760 C.3   1 <1>   0.3440 
 10 C       -4.5540     0.3710    -0.1270 C.3   1 <1>   0.2000 
 11 C       -1.5250     3.9240     0.1130 C.ar  1 <1>   0.4760 
 12 C       -0.2310     4.1490     1.9110 C.ar  1 <1>   0.1600 
 13 O       -4.6980    -1.0260    -0.1630 O.3   1 <1>  -0.5600 
 14 C       -3.8010    -3.2450    -0.0280 C.ar  1 <1>  -0.1440 
 15 C       -5.9010     1.0120    -0.5350 C.3   1 <1>  -0.0800 
 16 N       -0.7570     4.7080     0.8460 N.ar  1 <1>  -0.6200 
 17 C       -2.1290     4.5560    -1.1180 C.3   1 <1>  -0.0970 
 18 C       -5.0200    -3.7790     0.3700 C.ar  1 <1>  -0.1500 
 19 C       -2.8210    -4.0980    -0.5170 C.ar  1 <1>  -0.1500 
 20 C       -6.3710     0.5080    -1.9110 C.3   1 <1>  -0.2400 
 21 C       -5.8200     2.5480    -0.5790 C.3   1 <1>  -0.2400 
 22 C       -5.2550    -5.1400     0.2820 C.ar  1 <1>  -0.1500 
 23 C       -3.0540    -5.4600    -0.6060 C.ar  1 <1>  -0.1500 
 24 C       -4.2710    -5.9820    -0.2060 C.ar  1 <1>  -0.1500 
 25 H       -1.9910    -1.8870     1.5820 H     1 <1>   0.0800 
 26 H       -3.6010    -1.7770     2.2260 H     1 <1>   0.0800 
 27 H       -4.8310     0.5170     2.0000 H     1 <1>   0.0800 
 28 H       -3.9490     1.8510     1.3390 H     1 <1>   0.0800 
 29 H       -0.0320     2.3970     3.1110 H     1 <1>   0.1500 
 30 H       -2.8050    -1.4720    -0.6830 H     1 <1>   0.0800 
 31 H       -3.8060     0.6480    -0.8500 H     1 <1>   0.0800 
 32 H        0.4100     4.7520     2.5330 H     1 <1>   0.1500 
 33 H       -6.6410     0.7340     0.1970 H     1 <1>   0.0800 
 34 H       -1.4030     5.1870    -1.5950 H     1 <1>   0.0800 
 35 H       -2.9770     5.1480    -0.8330 H     1 <1>   0.0800 
 36 H       -2.4420     3.8000    -1.8140 H     1 <1>   0.0800 
 37 H       -5.7920    -3.1310     0.7480 H     1 <1>   0.1500 
 38 H       -1.8690    -3.7060    -0.8310 H     1 <1>   0.1500 
 39 H       -5.6450     0.7430    -2.6690 H     1 <1>   0.0800 
 40 H       -7.3100     0.9590    -2.1790 H     1 <1>   0.0800 
 41 H       -6.5100    -0.5590    -1.8930 H     1 <1>   0.0800 
 42 H       -5.0370     2.8650    -1.2450 H     1 <1>   0.0800 
 43 H       -5.6300     2.9550     0.3970 H     1 <1>   0.0800 
 44 H       -6.7510     2.9600    -0.9260 H     1 <1>   0.0800 
 45 H       -6.2030    -5.5420     0.5920 H     1 <1>   0.1500 
 46 H       -2.2880    -6.1130    -0.9870 H     1 <1>   0.1500 
 47 H       -4.4530    -7.0400    -0.2750 H     1 <1>   0.1500 
@<TRIPOS>BOND
  1   1   2  2   
  2   2   3  am  
  3   2   4  1   
  4   3   5  1   
  5   3   6  1   
  6   4   7  ar  
  7   4   8  ar  
  8   5   9  1   
  9   5  25  1   
 10   5  26  1   
 11   6  10  1   
 12   6  27  1   
 13   6  28  1   
 14   7  11  ar  
 15   8  12  ar  
 16   8  29  1   
 17   9  13  1   
 18   9  14  1   
 19   9  30  1   
 20  10  13  1   
 21  10  15  1   
 22  10  31  1   
 23  11  16  ar  
 24  11  17  1   
 25  12  16  ar  
 26  12  32  1   
 27  14  18  ar  
 28  14  19  ar  
 29  15  20  1   
 30  15  21  1   
 31  15  33  1   
 32  17  34  1   
 33  17  35  1   
 34  17  36  1   
 35  18  22  ar  
 36  18  37  1   
 37  19  23  ar  
 38  19  38  1   
 39  20  39  1   
 40  20  40  1   
 41  20  41  1   
 42  21  42  1   
 43  21  43  1   
 44  21  44  1   
 45  22  24  ar  
 46  22  45  1   
 47  23  24  ar  
 48  23  46  1   
 49  24  47  1   
@<TRIPOS>SUBSTRUCTURE
  1 ****   3 GROUP 4 **** **** 0

# MOE 2024.06 (io_trps.svl 2023.06)
