@<TRIPOS>MOLECULE
NONAME
48 51 1 0 0 
SMALL
USER_CHARGES


@<TRIPOS>ATOM
  1 O        2.0210     1.1340    -1.5450 O.2   1 <1>  -0.5700 
  2 C        1.7260     2.0970    -0.8740 C.2   1 <1>   0.7800 
  3 O        1.9650     3.3330    -1.2810 O.3   1 <1>  -0.4300 
  4 N        1.1350     2.0740     0.3440 N.am  1 <1>  -0.6600 
  5 C        1.5690     4.2830    -0.3040 C.3   1 <1>   0.2800 
  6 C        0.9050     3.4400     0.8060 C.3   1 <1>   0.1400 
  7 C        0.6690     0.8790     1.0870 C.3   1 <1>   0.0600 
  8 C        2.8280     5.0130     0.2170 C.3   1 <1>   0.2090 
  9 C        0.5900     5.2710    -0.9650 C.3   1 <1>  -0.1600 
 10 N        3.4400     5.9050    -0.8140 N.pl3 1 <1>  -0.8380 
 11 C        1.2970     6.1550    -2.0100 C.3   1 <1>  -0.1600 
 12 C        4.7680     6.2460    -0.6480 C.ar  1 <1>   0.4100 
 13 C        2.5060     6.8890    -1.4170 C.3   1 <1>   0.2090 
 14 N        5.0130     7.4760    -0.2310 N.ar  1 <1>  -0.6200 
 15 C        5.7840     5.3120    -0.8980 C.ar  1 <1>   0.1600 
 16 C        6.3200     7.7430    -0.0600 C.ar  1 <1>   0.3960 
 17 N        7.0720     5.5360    -0.7350 N.ar  1 <1>  -0.6200 
 18 C        6.7740     9.0580     0.4050 C.2   1 <1>   0.5440 
 19 C        7.2960     6.7710    -0.3080 C.ar  1 <1>   0.1600 
 20 O        7.8180     9.1340     1.0330 O.2   1 <1>  -0.5700 
 21 N        6.1050    10.2430     0.1590 N.am  1 <1>  -0.6600 
 22 C        6.5730    11.5480     0.6760 C.3   1 <1>   0.1400 
 23 C        4.9080    10.4130    -0.6950 C.3   1 <1>   0.1400 
 24 C        5.4780    12.5380     0.2950 C.3   1 <1>  -0.1600 
 25 C        4.8030    11.9160    -0.9240 C.3   1 <1>  -0.1600 
 26 H        1.3660     3.6020     1.7650 H     1 <1>   0.0800 
 27 H       -0.1510     3.6370     0.8730 H     1 <1>   0.0800 
 28 H        0.9260    -0.0130     0.5410 H     1 <1>   0.0800 
 29 H       -0.4000     0.9180     1.2070 H     1 <1>   0.0800 
 30 H        1.1390     0.8430     2.0540 H     1 <1>   0.0800 
 31 H        3.5480     4.2850     0.5500 H     1 <1>   0.0800 
 32 H        2.5580     5.6190     1.0640 H     1 <1>   0.0800 
 33 H        0.1680     5.9080    -0.2070 H     1 <1>   0.0800 
 34 H       -0.2160     4.7290    -1.4280 H     1 <1>   0.0800 
 35 H        0.6040     6.8760    -2.4040 H     1 <1>   0.0800 
 36 H        1.6360     5.5460    -2.8300 H     1 <1>   0.0800 
 37 H        3.0140     7.4390    -2.1920 H     1 <1>   0.0800 
 38 H        2.1860     7.5860    -0.6610 H     1 <1>   0.0800 
 39 H        5.4810     4.3420    -1.2490 H     1 <1>   0.1500 
 40 H        8.3250     7.0390    -0.1430 H     1 <1>   0.1500 
 41 H        7.5020    11.8020     0.1930 H     1 <1>   0.0800 
 42 H        6.7210    11.5050     1.7420 H     1 <1>   0.0800 
 43 H        4.0450    10.0530    -0.1630 H     1 <1>   0.0800 
 44 H        5.0130     9.8780    -1.6240 H     1 <1>   0.0800 
 45 H        5.8770    13.5160     0.0920 H     1 <1>   0.0800 
 46 H        4.7750    12.6080     1.1070 H     1 <1>   0.0800 
 47 H        3.7820    12.2340    -1.0360 H     1 <1>   0.0800 
 48 H        5.3500    12.1730    -1.8150 H     1 <1>   0.0800 
@<TRIPOS>BOND
  1   1   2  2   
  2   2   3  1   
  3   2   4  am  
  4   3   5  1   
  5   4   6  1   
  6   4   7  1   
  7   5   6  1   
  8   5   8  1   
  9   5   9  1   
 10   6  26  1   
 11   6  27  1   
 12   7  28  1   
 13   7  29  1   
 14   7  30  1   
 15   8  10  1   
 16   8  31  1   
 17   8  32  1   
 18   9  11  1   
 19   9  33  1   
 20   9  34  1   
 21  10  12  1   
 22  10  13  1   
 23  11  13  1   
 24  11  35  1   
 25  11  36  1   
 26  12  14  ar  
 27  12  15  ar  
 28  13  37  1   
 29  13  38  1   
 30  14  16  ar  
 31  15  17  ar  
 32  15  39  1   
 33  16  18  1   
 34  16  19  ar  
 35  17  19  ar  
 36  18  20  2   
 37  18  21  am  
 38  19  40  1   
 39  21  22  1   
 40  21  23  1   
 41  22  24  1   
 42  22  41  1   
 43  22  42  1   
 44  23  25  1   
 45  23  43  1   
 46  23  44  1   
 47  24  25  1   
 48  24  45  1   
 49  24  46  1   
 50  25  47  1   
 51  25  48  1   
@<TRIPOS>SUBSTRUCTURE
  1 ****  12 GROUP 4 **** **** 0

# MOE 2024.06 (io_trps.svl 2023.06)
