@<TRIPOS>MOLECULE
NONAME
47 50 1 0 0 
SMALL
USER_CHARGES


@<TRIPOS>ATOM
  1 S       -0.2100     0.5920     0.1580 S.3   1 <1>  -0.0800 
  2 C        0.7970    -0.8680     0.0380 C.ar  1 <1>   0.0400 
  3 C        1.1600     1.6510    -0.1390 C.2   1 <1>  -0.1100 
  4 C        0.4560    -2.2260     0.1850 C.ar  1 <1>   0.4100 
  5 C        2.0910    -0.4780    -0.1820 C.ar  1 <1>   0.3070 
  6 C        2.2880     0.9350    -0.2960 C.2   1 <1>  -0.1500 
  7 N        1.4510    -3.1370     0.1510 N.ar  1 <1>  -0.6200 
  8 N       -0.7980    -2.7210     0.3520 N.pl3 1 <1>  -0.8380 
  9 N        3.0300    -1.4510    -0.2410 N.ar  1 <1>  -0.1250 
 10 C        2.6750    -2.7400    -0.0620 C.ar  1 <1>   0.5280 
 11 C       -1.0870    -4.0070     1.0810 C.3   1 <1>   0.2090 
 12 C       -2.0520    -2.0740    -0.1580 C.3   1 <1>   0.2090 
 13 C        3.7660    -3.7920    -0.1100 C.3   1 <1>  -0.0970 
 14 C       -1.8200    -5.0020     0.1460 C.3   1 <1>   0.4230 
 15 C       -2.8230    -3.0600    -1.0510 C.3   1 <1>  -0.1600 
 16 N       -2.0740    -6.3720     0.7180 N.4   1 <1>  -0.9590 
 17 C       -3.1570    -4.3970    -0.3350 C.3   1 <1>  -0.1060 
 18 C       -2.6770    -7.3350    -0.2510 C.3   1 <1>   0.3430 
 19 C       -0.9830    -6.9730     1.5280 C.3   1 <1>   0.2630 
 20 C       -4.0450    -4.1550     0.9000 C.2   1 <1>   0.9060 
 21 C       -3.8880    -5.3560    -1.3200 C.3   1 <1>  -0.1600 
 22 C       -3.1170    -6.6640    -1.5610 C.3   1 <1>  -0.1600 
 23 O       -4.0460    -5.0120     1.7980 O.co2 1 <1>  -0.9000 
 24 O       -4.7180    -3.1290     0.9840 O.co2 1 <1>  -0.9000 
 25 H        0.9660     2.7120    -0.1620 H     1 <1>   0.1500 
 26 H        3.2570     1.3650    -0.4870 H     1 <1>   0.1500 
 27 H        4.0060    -1.2050    -0.4040 H     1 <1>   0.4570 
 28 H       -0.1720    -4.4440     1.4320 H     1 <1>   0.0800 
 29 H       -1.6970    -3.7880     1.9410 H     1 <1>   0.0800 
 30 H       -2.6620    -1.7560     0.6730 H     1 <1>   0.0800 
 31 H       -1.8280    -1.2130    -0.7570 H     1 <1>   0.0800 
 32 H        3.3410    -4.7710     0.0310 H     1 <1>   0.0800 
 33 H        4.4850    -3.6240     0.6710 H     1 <1>   0.0800 
 34 H        4.2620    -3.7780    -1.0640 H     1 <1>   0.0800 
 35 H       -1.1840    -5.1210    -0.7130 H     1 <1>   0.0800 
 36 H       -3.7390    -2.5840    -1.3590 H     1 <1>   0.0800 
 37 H       -2.2430    -3.2460    -1.9370 H     1 <1>   0.0800 
 38 H       -2.8660    -6.1390     1.3780 H     1 <1>   0.4500 
 39 H       -1.9710    -8.1160    -0.4810 H     1 <1>   0.0800 
 40 H       -3.5380    -7.7900     0.2120 H     1 <1>   0.0800 
 41 H       -0.1130    -7.1430     0.9150 H     1 <1>   0.0800 
 42 H       -1.3080    -7.9130     1.9440 H     1 <1>   0.0800 
 43 H       -0.7200    -6.3180     2.3420 H     1 <1>   0.0800 
 44 H       -4.8580    -5.6020    -0.9150 H     1 <1>   0.0800 
 45 H       -4.0690    -4.8720    -2.2640 H     1 <1>   0.0800 
 46 H       -2.2490    -6.4680    -2.1660 H     1 <1>   0.0800 
 47 H       -3.7370    -7.3480    -2.1120 H     1 <1>   0.0800 
@<TRIPOS>BOND
  1   1   2  1   
  2   1   3  1   
  3   2   4  ar  
  4   2   5  ar  
  5   3   6  2   
  6   3  25  1   
  7   4   7  ar  
  8   4   8  1   
  9   5   6  1   
 10   5   9  ar  
 11   6  26  1   
 12   7  10  ar  
 13   8  11  1   
 14   8  12  1   
 15   9  10  ar  
 16   9  27  1   
 17  10  13  1   
 18  11  14  1   
 19  11  28  1   
 20  11  29  1   
 21  12  15  1   
 22  12  30  1   
 23  12  31  1   
 24  13  32  1   
 25  13  33  1   
 26  13  34  1   
 27  14  16  1   
 28  14  17  1   
 29  14  35  1   
 30  15  17  1   
 31  15  36  1   
 32  15  37  1   
 33  16  18  1   
 34  16  19  1   
 35  16  38  1   
 36  17  20  1   
 37  17  21  1   
 38  18  22  1   
 39  18  39  1   
 40  18  40  1   
 41  19  41  1   
 42  19  42  1   
 43  19  43  1   
 44  20  23  ar  
 45  20  24  ar  
 46  21  22  1   
 47  21  44  1   
 48  21  45  1   
 49  22  46  1   
 50  22  47  1   
@<TRIPOS>SUBSTRUCTURE
  1 ****   8 GROUP 4 **** **** 0

# MOE 2024.06 (io_trps.svl 2023.06)
