@<TRIPOS>MOLECULE
NONAME
44 47 1 0 0 
SMALL
USER_CHARGES


@<TRIPOS>ATOM
  1 S        0.5460     0.2400     0.4790 S.3   1 <1>  -0.0800 
  2 C        1.4570    -1.2830     0.4020 C.ar  1 <1>   0.0400 
  3 C        2.0250     1.1670     0.7290 C.2   1 <1>  -0.1100 
  4 C        1.0120    -2.5820     0.2060 C.ar  1 <1>   0.4100 
  5 C        2.7950    -1.0330     0.5530 C.ar  1 <1>   0.2560 
  6 C        3.0980     0.3550     0.7420 C.2   1 <1>  -0.1500 
  7 N        1.8970    -3.5630     0.1530 N.ar  1 <1>  -0.6200 
  8 N       -0.3220    -2.9040     0.0650 N.pl3 1 <1>  -0.8380 
  9 N        3.6870    -2.0170     0.5140 N.ar  1 <1>  -0.5660 
 10 C        3.1700    -3.2150     0.3140 C.ar  1 <1>   0.4700 
 11 C       -0.7660    -3.9410    -0.9370 C.3   1 <1>   0.2090 
 12 C       -1.2470    -2.6740     1.2190 C.3   1 <1>   0.2090 
 13 C       -1.9010    -4.8080    -0.3740 C.3   1 <1>   0.2000 
 14 C       -2.6790    -2.6290     0.6910 C.3   1 <1>  -0.1600 
 15 O       -2.2830    -5.7870    -1.2820 O.3   1 <1>  -0.6800 
 16 C       -3.1390    -3.9910     0.0780 C.3   1 <1>  -0.1060 
 17 C       -3.8050    -4.9180     1.0980 C.2   1 <1>   0.9060 
 18 C       -4.1180    -3.6980    -1.0990 C.3   1 <1>  -0.0170 
 19 O       -3.8100    -4.6370     2.3010 O.co2 1 <1>  -0.9000 
 20 O       -4.2640    -5.9950     0.6830 O.co2 1 <1>  -0.9000 
 21 C       -5.2360    -2.7110    -0.7690 C.ar  1 <1>  -0.1430 
 22 C       -6.2690    -3.0800     0.0780 C.ar  1 <1>  -0.1500 
 23 C       -5.2360    -1.4370    -1.3180 C.ar  1 <1>  -0.1500 
 24 C       -7.2850    -2.1880     0.3770 C.ar  1 <1>  -0.1500 
 25 C       -6.2520    -0.5440    -1.0230 C.ar  1 <1>  -0.1500 
 26 C       -7.2780    -0.9190    -0.1730 C.ar  1 <1>  -0.1500 
 27 H        1.9250     2.2320     0.8400 H     1 <1>   0.1500 
 28 H        4.1200     0.6590     0.8760 H     1 <1>   0.1500 
 29 H        3.8740    -4.0290     0.2750 H     1 <1>   0.1500 
 30 H       -1.1130    -3.4370    -1.8200 H     1 <1>   0.0800 
 31 H        0.0560    -4.5790    -1.2060 H     1 <1>   0.0800 
 32 H       -1.1460    -3.4710     1.9380 H     1 <1>   0.0800 
 33 H       -1.0110    -1.7470     1.7090 H     1 <1>   0.0800 
 34 H       -1.4960    -5.3340     0.4760 H     1 <1>   0.0800 
 35 H       -3.3480    -2.3370     1.4820 H     1 <1>   0.0800 
 36 H       -2.7130    -1.8500    -0.0480 H     1 <1>   0.0800 
 37 H       -3.0490    -6.2530    -0.8520 H     1 <1>   0.4000 
 38 H       -3.5540    -3.3180    -1.9300 H     1 <1>   0.0800 
 39 H       -4.5760    -4.6130    -1.4340 H     1 <1>   0.0800 
 40 H       -6.2810    -4.0660     0.5140 H     1 <1>   0.1500 
 41 H       -4.4410    -1.1370    -1.9770 H     1 <1>   0.1500 
 42 H       -8.0750    -2.4900     1.0420 H     1 <1>   0.1500 
 43 H       -6.2420     0.4420    -1.4520 H     1 <1>   0.1500 
 44 H       -8.0670    -0.2270     0.0610 H     1 <1>   0.1500 
@<TRIPOS>BOND
  1   1   2  1   
  2   1   3  1   
  3   2   4  ar  
  4   2   5  ar  
  5   3   6  2   
  6   3  27  1   
  7   4   7  ar  
  8   4   8  1   
  9   5   6  1   
 10   5   9  ar  
 11   6  28  1   
 12   7  10  ar  
 13   8  11  1   
 14   8  12  1   
 15   9  10  ar  
 16  10  29  1   
 17  11  13  1   
 18  11  30  1   
 19  11  31  1   
 20  12  14  1   
 21  12  32  1   
 22  12  33  1   
 23  13  15  1   
 24  13  16  1   
 25  13  34  1   
 26  14  16  1   
 27  14  35  1   
 28  14  36  1   
 29  15  37  1   
 30  16  17  1   
 31  16  18  1   
 32  17  19  ar  
 33  17  20  ar  
 34  18  21  1   
 35  18  38  1   
 36  18  39  1   
 37  21  22  ar  
 38  21  23  ar  
 39  22  24  ar  
 40  22  40  1   
 41  23  25  ar  
 42  23  41  1   
 43  24  26  ar  
 44  24  42  1   
 45  25  26  ar  
 46  25  43  1   
 47  26  44  1   
@<TRIPOS>SUBSTRUCTURE
  1 ****  14 GROUP 4 **** **** 0

# MOE 2024.06 (io_trps.svl 2023.06)
