@<TRIPOS>MOLECULE
NONAME
38 39 1 0 0 
SMALL
USER_CHARGES


@<TRIPOS>ATOM
  1 O        0.6270     0.7770     0.5430 O.co2 1 <1>  -0.9000 
  2 C       -0.1210     1.7640     0.6770 C.2   1 <1>   1.0330 
  3 O       -1.2640     1.5780     1.1420 O.co2 1 <1>  -0.9000 
  4 C        0.2930     3.1240     0.3270 C.2   1 <1>  -0.0060 
  5 N        1.4770     3.5350    -0.2430 N.2   1 <1>  -0.5650 
  6 C       -0.4510     4.2300     0.5240 C.2   1 <1>  -0.0100 
  7 C        1.3570     4.8120    -0.3370 C.2   1 <1>   0.5620 
  8 O        0.2120     5.2800     0.1150 O.3   1 <1>  -0.2800 
  9 N        2.3170     5.6850    -0.8310 N.pl3 1 <1>  -0.8220 
 10 C        3.5530     5.1000    -1.4060 C.3   1 <1>   0.2090 
 11 C        2.4160     7.0390    -0.2440 C.3   1 <1>   0.2090 
 12 C        4.6340     5.0800    -0.3240 C.3   1 <1>  -0.1600 
 13 C        3.5060     7.0230     0.8320 C.3   1 <1>  -0.1600 
 14 C        4.8340     6.4740     0.2860 C.3   1 <1>   0.2800 
 15 O        5.6900     6.3280     1.3720 O.3   1 <1>  -0.6800 
 16 C        5.5080     7.4350    -0.7370 C.3   1 <1>   0.3430 
 17 N        6.4330     8.4110    -0.0660 N.4   1 <1>  -0.9590 
 18 C        5.7920     9.7230     0.2440 C.3   1 <1>   0.2630 
 19 C        7.7080     8.5830    -0.8210 C.3   1 <1>   0.2630 
 20 H       -1.4370     4.3290     0.9420 H     1 <1>   0.1500 
 21 H        3.8600     5.6860    -2.2540 H     1 <1>   0.0800 
 22 H        3.3680     4.0970    -1.7580 H     1 <1>   0.0800 
 23 H        1.4770     7.3310     0.1950 H     1 <1>   0.0800 
 24 H        2.6440     7.7450    -1.0230 H     1 <1>   0.0800 
 25 H        5.5510     4.7130    -0.7470 H     1 <1>   0.0800 
 26 H        4.3150     4.3840     0.4340 H     1 <1>   0.0800 
 27 H        3.1560     6.3930     1.6310 H     1 <1>   0.0800 
 28 H        3.6290     8.0130     1.2260 H     1 <1>   0.0800 
 29 H        5.3330     5.6330     1.9680 H     1 <1>   0.4000 
 30 H        4.7620     7.9470    -1.3190 H     1 <1>   0.0800 
 31 H        6.0800     6.8270    -1.4170 H     1 <1>   0.0800 
 32 H        6.6450     7.9270     0.8340 H     1 <1>   0.4500 
 33 H        5.4910    10.2180    -0.6650 H     1 <1>   0.0800 
 34 H        6.4850    10.3590     0.7700 H     1 <1>   0.0800 
 35 H        4.9240     9.5810     0.8660 H     1 <1>   0.0800 
 36 H        7.5190     9.0340    -1.7820 H     1 <1>   0.0800 
 37 H        8.1830     7.6270    -0.9740 H     1 <1>   0.0800 
 38 H        8.3860     9.2160    -0.2700 H     1 <1>   0.0800 
@<TRIPOS>BOND
  1   1   2  ar  
  2   2   3  ar  
  3   2   4  1   
  4   4   5  1   
  5   4   6  2   
  6   5   7  2   
  7   6   8  1   
  8   6  20  1   
  9   7   8  1   
 10   7   9  1   
 11   9  10  1   
 12   9  11  1   
 13  10  12  1   
 14  10  21  1   
 15  10  22  1   
 16  11  13  1   
 17  11  23  1   
 18  11  24  1   
 19  12  14  1   
 20  12  25  1   
 21  12  26  1   
 22  13  14  1   
 23  13  27  1   
 24  13  28  1   
 25  14  15  1   
 26  14  16  1   
 27  15  29  1   
 28  16  17  1   
 29  16  30  1   
 30  16  31  1   
 31  17  18  1   
 32  17  19  1   
 33  17  32  1   
 34  18  33  1   
 35  18  34  1   
 36  18  35  1   
 37  19  36  1   
 38  19  37  1   
 39  19  38  1   
@<TRIPOS>SUBSTRUCTURE
  1 ****   9 GROUP 4 **** **** 0

# MOE 2024.06 (io_trps.svl 2023.06)
