@<TRIPOS>MOLECULE
NONAME
46 48 1 0 0 
SMALL
USER_CHARGES


@<TRIPOS>ATOM
  1 O        1.1600    -0.9870     2.5750 O.2   1 <1>  -0.5700 
  2 C        1.2190    -1.6060     1.5250 C.2   1 <1>   0.5440 
  3 N        0.8530    -0.9310     0.3730 N.am  1 <1>  -0.6600 
  4 C        1.7020    -2.9890     1.5490 C.ar  1 <1>   0.3960 
  5 C        0.4750     0.5000     0.3690 C.3   1 <1>   0.1400 
  6 C        0.9610    -1.4490    -1.0110 C.3   1 <1>   0.1400 
  7 N        1.2300    -3.9140     0.6930 N.ar  1 <1>  -0.6200 
  8 C        2.6720    -3.3140     2.5050 C.ar  1 <1>   0.1600 
  9 C        0.7140     0.9580    -1.0630 C.3   1 <1>  -0.1600 
 10 C        0.5120    -0.2980    -1.9050 C.3   1 <1>  -0.1600 
 11 C        1.7710    -5.1030     0.8480 C.ar  1 <1>   0.4100 
 12 N        3.2360    -4.5040     2.6660 N.ar  1 <1>  -0.6200 
 13 N        1.2750    -6.0400    -0.0190 N.pl3 1 <1>  -0.8690 
 14 C        2.7600    -5.3790     1.8050 C.ar  1 <1>   0.1600 
 15 C        0.8160    -7.3640     0.4460 C.3   1 <1>   0.2090 
 16 C       -0.7100    -7.3920     0.4220 C.3   1 <1>  -0.1600 
 17 C       -1.2290    -8.7340     0.9290 C.3   1 <1>   0.2090 
 18 N       -2.7050    -8.7340     0.8590 N.pl3 1 <1>  -0.8690 
 19 C       -3.3650    -9.6850     0.0770 C.ar  1 <1>   0.1000 
 20 C       -4.3580    -9.3280    -0.8390 C.ar  1 <1>   0.1600 
 21 C       -3.0620   -11.0320     0.1920 C.ar  1 <1>  -0.1500 
 22 N       -5.0260   -10.1590    -1.6250 N.ar  1 <1>  -0.6200 
 23 C       -3.7460   -11.9160    -0.6130 C.ar  1 <1>  -0.1500 
 24 C       -4.7020   -11.4360    -1.4930 C.ar  1 <1>   0.1600 
 25 H        1.0680     1.0630     1.0710 H     1 <1>   0.0800 
 26 H       -0.5670     0.5850     0.6270 H     1 <1>   0.0800 
 27 H        0.3280    -2.3090    -1.1490 H     1 <1>   0.0800 
 28 H        1.9850    -1.7130    -1.2140 H     1 <1>   0.0800 
 29 H        2.9990    -2.5350     3.1720 H     1 <1>   0.1500 
 30 H        1.7300     1.3000    -1.1540 H     1 <1>   0.0800 
 31 H        0.0480     1.7550    -1.3450 H     1 <1>   0.0800 
 32 H       -0.5330    -0.4200    -2.1310 H     1 <1>   0.0800 
 33 H        1.0670    -0.2690    -2.8260 H     1 <1>   0.0800 
 34 H        0.6260    -5.6060    -0.6820 H     1 <1>   0.4000 
 35 H        3.1620    -6.3740     1.8360 H     1 <1>   0.1500 
 36 H        1.1700    -7.5540     1.4450 H     1 <1>   0.0800 
 37 H        1.2120    -8.1230    -0.2090 H     1 <1>   0.0800 
 38 H       -1.0510    -7.2420    -0.5870 H     1 <1>   0.0800 
 39 H       -1.0860    -6.6050     1.0530 H     1 <1>   0.0800 
 40 H       -0.9270    -8.8900     1.9520 H     1 <1>   0.0800 
 41 H       -0.8300    -9.5330     0.3250 H     1 <1>   0.0800 
 42 H       -3.0930    -7.7850     0.8180 H     1 <1>   0.4000 
 43 H       -4.6060    -8.2860    -0.9230 H     1 <1>   0.1500 
 44 H       -2.3250   -11.3700     0.8950 H     1 <1>   0.1500 
 45 H       -3.5450   -12.9700    -0.5610 H     1 <1>   0.1500 
 46 H       -5.2300   -12.1370    -2.1170 H     1 <1>   0.1500 
@<TRIPOS>BOND
  1   1   2  2   
  2   2   3  am  
  3   2   4  1   
  4   3   5  1   
  5   3   6  1   
  6   4   7  ar  
  7   4   8  ar  
  8   5   9  1   
  9   5  25  1   
 10   5  26  1   
 11   6  10  1   
 12   6  27  1   
 13   6  28  1   
 14   7  11  ar  
 15   8  12  ar  
 16   8  29  1   
 17   9  10  1   
 18   9  30  1   
 19   9  31  1   
 20  10  32  1   
 21  10  33  1   
 22  11  13  1   
 23  11  14  ar  
 24  12  14  ar  
 25  13  15  1   
 26  13  34  1   
 27  14  35  1   
 28  15  16  1   
 29  15  36  1   
 30  15  37  1   
 31  16  17  1   
 32  16  38  1   
 33  16  39  1   
 34  17  18  1   
 35  17  40  1   
 36  17  41  1   
 37  18  19  1   
 38  18  42  1   
 39  19  20  ar  
 40  19  21  ar  
 41  20  22  ar  
 42  20  43  1   
 43  21  23  ar  
 44  21  44  1   
 45  22  24  ar  
 46  23  24  ar  
 47  23  45  1   
 48  24  46  1   
@<TRIPOS>SUBSTRUCTURE
  1 ****  13 GROUP 4 **** **** 0

# MOE 2024.06 (io_trps.svl 2023.06)
