@<TRIPOS>MOLECULE
NONAME
48 51 1 0 0 
SMALL
USER_CHARGES


@<TRIPOS>ATOM
  1 O        0.1880    -0.4010     0.3770 O.2   1 <1>  -0.5700 
  2 C        0.1890    -1.6240     0.3780 C.2   1 <1>   0.5440 
  3 N       -0.9100    -2.3280     0.8500 N.am  1 <1>  -0.2980 
  4 C        1.3010    -2.3870    -0.1110 C.ar  1 <1>   0.0860 
  5 N       -0.9960    -3.6830     0.9010 N.2   1 <1>  -0.5120 
  6 C       -2.0790    -1.5760     1.3660 C.3   1 <1>   0.0600 
  7 C        1.2140    -3.7890    -0.0690 C.ar  1 <1>   0.0860 
  8 C        2.4470    -1.7760    -0.6310 C.ar  1 <1>  -0.1500 
  9 C        0.0170    -4.3960     0.4780 C.2   1 <1>   0.3640 
 10 C        2.2990    -4.5210    -0.5800 C.ar  1 <1>  -0.1500 
 11 C        3.4970    -2.5210    -1.1170 C.ar  1 <1>  -0.1500 
 12 C       -0.0520    -5.8450     0.5520 C.2   1 <1>   0.6300 
 13 C        3.4190    -3.9030    -1.0930 C.ar  1 <1>  -0.1500 
 14 O        0.7870    -6.4700     1.1840 O.2   1 <1>  -0.5700 
 15 N       -1.0310    -6.5840    -0.0900 N.am  1 <1>  -0.6600 
 16 C       -2.1970    -6.0480    -0.8450 C.3   1 <1>   0.1400 
 17 C       -1.0970    -8.0680    -0.0350 C.3   1 <1>   0.1400 
 18 C       -3.2120    -7.1890    -0.8280 C.3   1 <1>   0.2000 
 19 C       -2.3380    -8.4450    -0.8520 C.3   1 <1>  -0.0800 
 20 O       -3.9060    -7.1270     0.3720 O.3   1 <1>  -0.6800 
 21 C       -3.0200    -9.7420    -0.3800 C.3   1 <1>   0.0210 
 22 C       -2.0560   -10.9110    -0.4390 C.2   1 <1>   0.1080 
 23 N       -1.5030   -11.3140    -1.5420 N.2   1 <1>  -0.7070 
 24 C       -1.6530   -11.6650     0.6570 C.2   1 <1>  -0.1500 
 25 N       -0.7270   -12.3510    -1.1740 N.pl3 1 <1>   0.3000 
 26 C       -0.7990   -12.5810     0.1540 C.2   1 <1>  -0.3320 
 27 C       -0.0360   -13.6800     0.8710 C.3   1 <1>  -0.0600 
 28 H       -2.4730    -0.9480     0.5870 H     1 <1>   0.0800 
 29 H       -1.7720    -0.9630     2.1940 H     1 <1>   0.0800 
 30 H       -2.8430    -2.2580     1.6940 H     1 <1>   0.0800 
 31 H        2.5020    -0.7000    -0.6500 H     1 <1>   0.1500 
 32 H        2.2800    -5.5970    -0.5800 H     1 <1>   0.1500 
 33 H        4.3730    -2.0370    -1.5150 H     1 <1>   0.1500 
 34 H        4.2380    -4.4910    -1.4740 H     1 <1>   0.1500 
 35 H       -2.6070    -5.1570    -0.4020 H     1 <1>   0.0800 
 36 H       -1.8940    -5.8420    -1.8570 H     1 <1>   0.0800 
 37 H       -0.2070    -8.5100    -0.4510 H     1 <1>   0.0800 
 38 H       -1.2000    -8.3790     0.9910 H     1 <1>   0.0800 
 39 H       -3.9200    -7.1440    -1.6380 H     1 <1>   0.0800 
 40 H       -2.0130    -8.5960    -1.8670 H     1 <1>   0.0800 
 41 H       -3.2640    -6.9700     1.0940 H     1 <1>   0.4000 
 42 H       -3.8610    -9.9560    -1.0140 H     1 <1>   0.0800 
 43 H       -3.3810    -9.6370     0.6270 H     1 <1>   0.0800 
 44 H       -1.9690   -11.5260     1.6750 H     1 <1>   0.1500 
 45 H       -0.1630   -12.8790    -1.8500 H     1 <1>   0.2700 
 46 H       -0.2600   -13.6590     1.9230 H     1 <1>   0.0800 
 47 H        1.0240   -13.5410     0.7450 H     1 <1>   0.0800 
 48 H       -0.3140   -14.6420     0.4800 H     1 <1>   0.0800 
@<TRIPOS>BOND
  1   1   2  2   
  2   2   3  am  
  3   2   4  1   
  4   3   5  1   
  5   3   6  1   
  6   4   7  ar  
  7   4   8  ar  
  8   5   9  2   
  9   6  28  1   
 10   6  29  1   
 11   6  30  1   
 12   7   9  1   
 13   7  10  ar  
 14   8  11  ar  
 15   8  31  1   
 16   9  12  1   
 17  10  13  ar  
 18  10  32  1   
 19  11  13  ar  
 20  11  33  1   
 21  12  14  2   
 22  12  15  am  
 23  13  34  1   
 24  15  16  1   
 25  15  17  1   
 26  16  18  1   
 27  16  35  1   
 28  16  36  1   
 29  17  19  1   
 30  17  37  1   
 31  17  38  1   
 32  18  19  1   
 33  18  20  1   
 34  18  39  1   
 35  19  21  1   
 36  19  40  1   
 37  20  41  1   
 38  21  22  1   
 39  21  42  1   
 40  21  43  1   
 41  22  23  2   
 42  22  24  1   
 43  23  25  1   
 44  24  26  2   
 45  24  44  1   
 46  25  26  1   
 47  25  45  1   
 48  26  27  1   
 49  27  46  1   
 50  27  47  1   
 51  27  48  1   
@<TRIPOS>SUBSTRUCTURE
  1 ****  15 GROUP 4 **** **** 0

# MOE 2024.06 (io_trps.svl 2023.06)
