@<TRIPOS>MOLECULE
NONAME
54 57 1 0 0 
SMALL
USER_CHARGES


@<TRIPOS>ATOM
  1 O       -1.4830     0.2580     0.2610 O.2   1 <1>  -0.5700 
  2 C       -2.3240     1.1060     0.5060 C.2   1 <1>   0.5440 
  3 N       -3.5550     0.6740     0.9470 N.am  1 <1>  -0.6600 
  4 C       -2.0270     2.5130     0.3070 C.ar  1 <1>   0.0860 
  5 C       -3.7220    -0.7130     1.4690 C.3   1 <1>   0.1400 
  6 C       -4.8270     1.2660     0.4410 C.3   1 <1>   0.1400 
  7 C       -2.5430     3.5020     1.1460 C.ar  1 <1>  -0.1500 
  8 C       -1.2020     2.9370    -0.7350 C.ar  1 <1>  -0.1500 
  9 C       -4.1940    -1.6070     0.3020 C.3   1 <1>   0.4230 
 10 C       -5.3960     0.3640    -0.6700 C.3   1 <1>  -0.1600 
 11 C       -2.2640     4.8400     0.9440 C.ar  1 <1>  -0.1500 
 12 C       -0.9220     4.2750    -0.9380 C.ar  1 <1>  -0.1500 
 13 N       -4.2630    -3.0750     0.6080 N.4   1 <1>  -0.9590 
 14 C       -5.5670    -1.1180    -0.2190 C.3   1 <1>  -0.1060 
 15 C       -1.4500     5.2550    -0.1050 C.ar  1 <1>   0.0000 
 16 C       -4.6280    -3.9210    -0.5670 C.3   1 <1>   0.3430 
 17 C       -3.1140    -3.6230     1.3770 C.3   1 <1>   0.2630 
 18 C       -6.5760    -1.2360     0.9380 C.2   1 <1>   0.9060 
 19 C       -6.0510    -1.9810    -1.4210 C.3   1 <1>  -0.1600 
 20 C       -1.1620     6.6540    -0.3190 C.ar  1 <1>   0.0000 
 21 C       -5.0580    -3.0960    -1.7880 C.3   1 <1>  -0.1600 
 22 O       -6.5410    -2.2570     1.6440 O.co2 1 <1>  -0.9000 
 23 O       -7.3740    -0.3270     1.1580 O.co2 1 <1>  -0.9000 
 24 C        0.1490     7.1230    -0.3340 C.ar  1 <1>  -0.1500 
 25 C       -2.1870     7.5760    -0.5170 C.ar  1 <1>  -0.1500 
 26 C        0.4280     8.4620    -0.5380 C.ar  1 <1>  -0.1500 
 27 C       -1.9140     8.9170    -0.7210 C.ar  1 <1>  -0.1500 
 28 C       -0.6040     9.3620    -0.7330 C.ar  1 <1>  -0.1500 
 29 H       -2.7790    -1.0550     1.8520 H     1 <1>   0.0800 
 30 H       -4.4360    -0.7090     2.2750 H     1 <1>   0.0800 
 31 H       -5.5310     1.3510     1.2530 H     1 <1>   0.0800 
 32 H       -4.6610     2.2530     0.0450 H     1 <1>   0.0800 
 33 H       -3.1700     3.2110     1.9710 H     1 <1>   0.1500 
 34 H       -0.7760     2.1970    -1.3920 H     1 <1>   0.1500 
 35 H       -3.4710    -1.4720    -0.4840 H     1 <1>   0.0800 
 36 H       -6.3520     0.7590    -0.9700 H     1 <1>   0.0800 
 37 H       -4.7420     0.4190    -1.5220 H     1 <1>   0.0800 
 38 H       -2.6760     5.5780     1.6090 H     1 <1>   0.1500 
 39 H       -0.2870     4.5700    -1.7550 H     1 <1>   0.1500 
 40 H       -5.1210    -3.0900     1.2240 H     1 <1>   0.4500 
 41 H       -3.7920    -4.5420    -0.8450 H     1 <1>   0.0800 
 42 H       -5.4420    -4.5680    -0.2800 H     1 <1>   0.0800 
 43 H       -2.2020    -3.5080     0.8150 H     1 <1>   0.0800 
 44 H       -3.2720    -4.6690     1.5830 H     1 <1>   0.0800 
 45 H       -3.0150    -3.1050     2.3160 H     1 <1>   0.0800 
 46 H       -6.9960    -2.4350    -1.1690 H     1 <1>   0.0800 
 47 H       -6.2310    -1.3670    -2.2870 H     1 <1>   0.0800 
 48 H       -4.1860    -2.6690    -2.2500 H     1 <1>   0.0800 
 49 H       -5.5090    -3.7520    -2.5120 H     1 <1>   0.0800 
 50 H        0.9550     6.4280    -0.1790 H     1 <1>   0.1500 
 51 H       -3.2070     7.2360    -0.5130 H     1 <1>   0.1500 
 52 H        1.4480     8.8050    -0.5460 H     1 <1>   0.1500 
 53 H       -2.7190     9.6150    -0.8730 H     1 <1>   0.1500 
 54 H       -0.3890    10.4040    -0.8920 H     1 <1>   0.1500 
@<TRIPOS>BOND
  1   1   2  2   
  2   2   3  am  
  3   2   4  1   
  4   3   5  1   
  5   3   6  1   
  6   4   7  ar  
  7   4   8  ar  
  8   5   9  1   
  9   5  29  1   
 10   5  30  1   
 11   6  10  1   
 12   6  31  1   
 13   6  32  1   
 14   7  11  ar  
 15   7  33  1   
 16   8  12  ar  
 17   8  34  1   
 18   9  13  1   
 19   9  14  1   
 20   9  35  1   
 21  10  14  1   
 22  10  36  1   
 23  10  37  1   
 24  11  15  ar  
 25  11  38  1   
 26  12  15  ar  
 27  12  39  1   
 28  13  16  1   
 29  13  17  1   
 30  13  40  1   
 31  14  18  1   
 32  14  19  1   
 33  15  20  1   
 34  16  21  1   
 35  16  41  1   
 36  16  42  1   
 37  17  43  1   
 38  17  44  1   
 39  17  45  1   
 40  18  22  ar  
 41  18  23  ar  
 42  19  21  1   
 43  19  46  1   
 44  19  47  1   
 45  20  24  ar  
 46  20  25  ar  
 47  21  48  1   
 48  21  49  1   
 49  24  26  ar  
 50  24  50  1   
 51  25  27  ar  
 52  25  51  1   
 53  26  28  ar  
 54  26  52  1   
 55  27  28  ar  
 56  27  53  1   
 57  28  54  1   
@<TRIPOS>SUBSTRUCTURE
  1 ****   2 GROUP 4 **** **** 0

# MOE 2024.06 (io_trps.svl 2023.06)
