@<TRIPOS>MOLECULE
NONAME
54 56 1 0 0 
SMALL
USER_CHARGES


@<TRIPOS>ATOM
  1 O        0.5090     0.2650     0.9090 O.2   1 <1>  -0.5700 
  2 C        1.1850    -0.2390     0.0330 C.2   1 <1>   0.5440 
  3 N        2.0440     0.5340    -0.7110 N.am  1 <1>  -0.4940 
  4 C        1.1200    -1.6670    -0.2130 C.ar  1 <1>   0.0860 
  5 C        2.1920     1.9430    -0.7280 C.2   1 <1>  -0.0880 
  6 C        1.2290    -2.1990    -1.4990 C.ar  1 <1>  -0.1500 
  7 C        0.9480    -2.5680     0.8370 C.ar  1 <1>  -0.1500 
  8 N        3.3860     2.5980    -0.7140 N.pl3 1 <1>   0.3140 
  9 C        1.2370     2.9040    -0.7700 C.2   1 <1>  -0.1810 
 10 C        1.1840    -3.5640    -1.7230 C.ar  1 <1>  -0.1500 
 11 C        0.9030    -3.9320     0.6200 C.ar  1 <1>  -0.1500 
 12 N        3.2200     3.9390    -0.7690 N.2   1 <1>  -0.7070 
 13 C        4.7380     2.0040    -0.6240 C.3   1 <1>   0.0960 
 14 C        1.9350     4.1060    -0.7910 C.2   1 <1>   0.1390 
 15 C       -0.2730     2.7600    -0.7910 C.3   1 <1>  -0.0590 
 16 C        1.0210    -4.4430    -0.6630 C.ar  1 <1>  -0.1430 
 17 C        5.0220     1.3850     0.7610 C.3   1 <1>  -0.0800 
 18 C        0.9670    -5.9500    -0.9040 C.3   1 <1>   0.2390 
 19 C        4.9790     2.4380     1.8780 C.3   1 <1>  -0.2400 
 20 C        6.3930     0.6970     0.7570 C.3   1 <1>  -0.2400 
 21 N       -0.1970    -6.5840    -0.2430 N.pl3 1 <1>   0.3140 
 22 N       -0.0240    -7.5150     0.7160 N.2   1 <1>  -0.7070 
 23 C       -1.5140    -6.3750    -0.4880 C.2   1 <1>  -0.3320 
 24 C       -1.2200    -7.8710     1.0580 C.2   1 <1>   0.1080 
 25 C       -2.1960    -7.1940     0.3400 C.2   1 <1>  -0.1500 
 26 C       -2.0730    -5.3930    -1.5030 C.3   1 <1>  -0.0600 
 27 C       -1.4820    -8.9100     2.1230 C.3   1 <1>  -0.0590 
 28 H        2.7120     0.0090    -1.2710 H     1 <1>   0.3700 
 29 H        1.3390    -1.5370    -2.3400 H     1 <1>   0.1500 
 30 H        0.8470    -2.1860     1.8390 H     1 <1>   0.1500 
 31 H        1.2720    -3.9370    -2.7290 H     1 <1>   0.1500 
 32 H        0.7680    -4.6000     1.4570 H     1 <1>   0.1500 
 33 H        5.4550     2.7770    -0.8300 H     1 <1>   0.0800 
 34 H        4.8240     1.2560    -1.3890 H     1 <1>   0.0800 
 35 H        1.4680     5.0760    -0.8240 H     1 <1>   0.1500 
 36 H       -0.5500     1.7940    -1.1720 H     1 <1>   0.0800 
 37 H       -0.7120     3.5160    -1.4150 H     1 <1>   0.0800 
 38 H       -0.6570     2.8570     0.2080 H     1 <1>   0.0800 
 39 H        4.2760     0.6370     0.9690 H     1 <1>   0.0800 
 40 H        1.8600    -6.4050    -0.5150 H     1 <1>   0.0800 
 41 H        0.9090    -6.1650    -1.9540 H     1 <1>   0.0800 
 42 H        5.6940     3.2210     1.6910 H     1 <1>   0.0800 
 43 H        5.2000     1.9880     2.8290 H     1 <1>   0.0800 
 44 H        4.0000     2.8820     1.9400 H     1 <1>   0.0800 
 45 H        7.1750     1.4100     0.5630 H     1 <1>   0.0800 
 46 H        6.4300    -0.0690     0.0020 H     1 <1>   0.0800 
 47 H        6.5800     0.2360     1.7120 H     1 <1>   0.0800 
 48 H       -3.2590    -7.3150     0.4440 H     1 <1>   0.1500 
 49 H       -1.6940    -5.6120    -2.4850 H     1 <1>   0.0800 
 50 H       -1.8020    -4.3880    -1.2360 H     1 <1>   0.0800 
 51 H       -3.1460    -5.4600    -1.5280 H     1 <1>   0.0800 
 52 H       -1.0250    -9.8390     1.8340 H     1 <1>   0.0800 
 53 H       -2.5370    -9.0590     2.2520 H     1 <1>   0.0800 
 54 H       -1.0530    -8.5840     3.0520 H     1 <1>   0.0800 
@<TRIPOS>BOND
  1   1   2  2   
  2   2   3  am  
  3   2   4  1   
  4   3   5  1   
  5   3  28  1   
  6   4   6  ar  
  7   4   7  ar  
  8   5   8  1   
  9   5   9  2   
 10   6  10  ar  
 11   6  29  1   
 12   7  11  ar  
 13   7  30  1   
 14   8  12  1   
 15   8  13  1   
 16   9  14  1   
 17   9  15  1   
 18  10  16  ar  
 19  10  31  1   
 20  11  16  ar  
 21  11  32  1   
 22  12  14  2   
 23  13  17  1   
 24  13  33  1   
 25  13  34  1   
 26  14  35  1   
 27  15  36  1   
 28  15  37  1   
 29  15  38  1   
 30  16  18  1   
 31  17  19  1   
 32  17  20  1   
 33  17  39  1   
 34  18  21  1   
 35  18  40  1   
 36  18  41  1   
 37  19  42  1   
 38  19  43  1   
 39  19  44  1   
 40  20  45  1   
 41  20  46  1   
 42  20  47  1   
 43  21  22  1   
 44  21  23  1   
 45  22  24  2   
 46  23  25  2   
 47  23  26  1   
 48  24  25  1   
 49  24  27  1   
 50  25  48  1   
 51  26  49  1   
 52  26  50  1   
 53  26  51  1   
 54  27  52  1   
 55  27  53  1   
 56  27  54  1   
@<TRIPOS>SUBSTRUCTURE
  1 ****   4 GROUP 4 **** **** 0

# MOE 2024.06 (io_trps.svl 2023.06)
