@<TRIPOS>MOLECULE
NONAME
52 54 1 0 0 
SMALL
USER_CHARGES


@<TRIPOS>ATOM
  1 O       -0.5670     0.3340     0.2580 O.2   1 <1>  -0.5700 
  2 C       -1.6410     0.9010     0.1790 C.2   1 <1>   0.5440 
  3 N       -2.7830     0.1350     0.1040 N.am  1 <1>  -0.6600 
  4 C       -1.6850     2.3510     0.1430 C.ar  1 <1>   0.0860 
  5 C       -4.0700     0.5860    -0.4860 C.3   1 <1>   0.1400 
  6 C       -2.7460    -1.3460     0.1960 C.3   1 <1>   0.1400 
  7 C       -0.7760     3.0680    -0.6310 C.ar  1 <1>  -0.1500 
  8 C       -2.6220     3.0760     0.8760 C.ar  1 <1>  -0.1500 
  9 C       -4.7220    -0.6900    -1.0140 C.3   1 <1>   0.2000 
 10 C       -4.1630    -1.8110    -0.1430 C.3   1 <1>  -0.0800 
 11 C       -0.7980     4.4570    -0.6870 C.ar  1 <1>   0.0830 
 12 C       -2.6820     4.4560     0.8260 C.ar  1 <1>   0.0830 
 13 O       -6.1030    -0.6420    -0.9100 O.3   1 <1>  -0.6800 
 14 C       -4.2130    -3.1890    -0.8180 C.3   1 <1>   0.0210 
 15 O        0.0870     5.1690    -1.4460 O.3   1 <1>  -0.3630 
 16 C       -1.7520     5.1620     0.0530 C.ar  1 <1>   0.0830 
 17 O       -3.6720     5.0240     1.5680 O.3   1 <1>  -0.3630 
 18 C       -3.5580    -4.2420     0.0540 C.2   1 <1>   0.1080 
 19 C        1.0840     4.5350    -2.2160 C.3   1 <1>   0.0400 
 20 O       -1.7580     6.5190     0.0200 O.3   1 <1>  -0.3630 
 21 C       -4.3760     6.1410     1.0690 C.3   1 <1>   0.0400 
 22 N       -4.0030    -4.5550     1.2320 N.2   1 <1>  -0.7070 
 23 C       -2.4230    -4.9690    -0.2900 C.2   1 <1>  -0.1500 
 24 C       -0.7860     7.1580     0.8150 C.3   1 <1>   0.0400 
 25 N       -3.1550    -5.5030     1.6740 N.pl3 1 <1>   0.3000 
 26 C       -2.1880    -5.7690     0.7700 C.2   1 <1>  -0.3320 
 27 C       -1.0820    -6.7870     0.9800 C.3   1 <1>  -0.0600 
 28 H       -4.6770     1.0270     0.2850 H     1 <1>   0.0800 
 29 H       -3.9030     1.2900    -1.2820 H     1 <1>   0.0800 
 30 H       -2.0330    -1.7260    -0.5160 H     1 <1>   0.0800 
 31 H       -2.4570    -1.6600     1.1850 H     1 <1>   0.0800 
 32 H       -0.0510     2.4990    -1.1820 H     1 <1>   0.1500 
 33 H       -3.3200     2.5530     1.5030 H     1 <1>   0.1500 
 34 H       -4.4630    -0.8280    -2.0500 H     1 <1>   0.0800 
 35 H       -4.7080    -1.8540     0.7830 H     1 <1>   0.0800 
 36 H       -6.3720    -0.6820     0.0290 H     1 <1>   0.4000 
 37 H       -3.7160    -3.1550    -1.7700 H     1 <1>   0.0800 
 38 H       -5.2370    -3.4700    -0.9850 H     1 <1>   0.0800 
 39 H        1.6540     5.2970    -2.7160 H     1 <1>   0.0800 
 40 H        0.6130     3.8970    -2.9420 H     1 <1>   0.0800 
 41 H        1.7250     3.9690    -1.5620 H     1 <1>   0.0800 
 42 H       -5.3320     6.1820     1.5600 H     1 <1>   0.0800 
 43 H       -4.5100     6.0310     0.0080 H     1 <1>   0.0800 
 44 H       -3.8180     7.0320     1.2900 H     1 <1>   0.0800 
 45 H       -1.8710    -4.8880    -1.2090 H     1 <1>   0.1500 
 46 H       -0.9260     8.2200     0.7290 H     1 <1>   0.0800 
 47 H        0.1930     6.8860     0.4610 H     1 <1>   0.0800 
 48 H       -0.9150     6.8470     1.8370 H     1 <1>   0.0800 
 49 H       -3.2630    -5.9460     2.5940 H     1 <1>   0.2700 
 50 H       -0.4380    -6.8150     0.1190 H     1 <1>   0.0800 
 51 H       -1.5010    -7.7670     1.1260 H     1 <1>   0.0800 
 52 H       -0.4920    -6.5230     1.8390 H     1 <1>   0.0800 
@<TRIPOS>BOND
  1   1   2  2   
  2   2   3  am  
  3   2   4  1   
  4   3   5  1   
  5   3   6  1   
  6   4   7  ar  
  7   4   8  ar  
  8   5   9  1   
  9   5  28  1   
 10   5  29  1   
 11   6  10  1   
 12   6  30  1   
 13   6  31  1   
 14   7  11  ar  
 15   7  32  1   
 16   8  12  ar  
 17   8  33  1   
 18   9  10  1   
 19   9  13  1   
 20   9  34  1   
 21  10  14  1   
 22  10  35  1   
 23  11  15  1   
 24  11  16  ar  
 25  12  16  ar  
 26  12  17  1   
 27  13  36  1   
 28  14  18  1   
 29  14  37  1   
 30  14  38  1   
 31  15  19  1   
 32  16  20  1   
 33  17  21  1   
 34  18  22  2   
 35  18  23  1   
 36  19  39  1   
 37  19  40  1   
 38  19  41  1   
 39  20  24  1   
 40  21  42  1   
 41  21  43  1   
 42  21  44  1   
 43  22  25  1   
 44  23  26  2   
 45  23  45  1   
 46  24  46  1   
 47  24  47  1   
 48  24  48  1   
 49  25  26  1   
 50  25  49  1   
 51  26  27  1   
 52  27  50  1   
 53  27  51  1   
 54  27  52  1   
@<TRIPOS>SUBSTRUCTURE
  1 ****   3 GROUP 4 **** **** 0

# MOE 2024.06 (io_trps.svl 2023.06)
