@<TRIPOS>MOLECULE
NONAME
44 47 1 0 0 
SMALL
USER_CHARGES


@<TRIPOS>ATOM
  1 S        0.7570     0.2820     1.2180 S.3   1 <1>  -0.0800 
  2 C        0.7210     2.0240     1.0710 C.ar  1 <1>   0.0400 
  3 C       -0.5650     0.1770     0.0600 C.2   1 <1>   0.1980 
  4 C       -0.2740     2.3600     0.1740 C.ar  1 <1>   0.2270 
  5 C        1.5130     2.9610     1.7060 C.ar  1 <1>  -0.1500 
  6 N       -0.9790     1.2940    -0.3790 N.2   1 <1>  -0.5650 
  7 C       -1.0630    -1.2060    -0.2870 C.3   1 <1>  -0.0600 
  8 C       -0.4880     3.6980    -0.1030 C.ar  1 <1>  -0.1500 
  9 C        1.2850     4.2930     1.4120 C.ar  1 <1>  -0.1500 
 10 C        0.2910     4.6870     0.4990 C.ar  1 <1>   0.0860 
 11 C        0.0820     6.0830     0.1780 C.2   1 <1>   0.5440 
 12 O       -1.0440     6.5300     0.0820 O.2   1 <1>  -0.5700 
 13 N        1.1760     6.8860    -0.0430 N.am  1 <1>  -0.4940 
 14 C        1.2390     8.2880    -0.2390 C.2   1 <1>  -0.0880 
 15 N        2.3160     8.9710    -0.7230 N.pl3 1 <1>   0.3140 
 16 C        0.2880     9.2170     0.0160 C.2   1 <1>  -0.1500 
 17 N        2.0680    10.3070    -0.7650 N.2   1 <1>  -0.7070 
 18 C        3.5970     8.3590    -1.1960 C.3   1 <1>   0.2710 
 19 C        0.8590    10.4350    -0.3250 C.2   1 <1>   0.1080 
 20 C        4.5000     8.0430     0.0220 C.3   1 <1>  -0.1950 
 21 C        4.2710     9.2190    -2.2830 C.3   1 <1>  -0.2400 
 22 C        0.1770    11.7780    -0.2110 C.3   1 <1>  -0.0590 
 23 C        5.3310     9.0800     0.7120 C.3   1 <1>  -0.2000 
 24 C        5.9960     7.9570    -0.0350 C.3   1 <1>  -0.2000 
 25 H        2.2710     2.6520     2.4050 H     1 <1>   0.1500 
 26 H       -0.2650    -1.7840    -0.7160 H     1 <1>   0.0800 
 27 H       -1.8650    -1.1350    -0.9980 H     1 <1>   0.0800 
 28 H       -1.4230    -1.6970     0.5980 H     1 <1>   0.0800 
 29 H       -1.2680     3.9680    -0.7930 H     1 <1>   0.1500 
 30 H        1.8760     5.0460     1.9050 H     1 <1>   0.1500 
 31 H        2.0630     6.3870    -0.0650 H     1 <1>   0.3700 
 32 H       -0.7030     9.0600     0.4020 H     1 <1>   0.1500 
 33 H        3.3400     7.4250    -1.6610 H     1 <1>   0.0800 
 34 H        4.0220     7.3300     0.6700 H     1 <1>   0.1000 
 35 H        4.5870    10.1640    -1.8810 H     1 <1>   0.0800 
 36 H        3.5760     9.4030    -3.0830 H     1 <1>   0.0800 
 37 H        5.1240     8.7110    -2.6910 H     1 <1>   0.0800 
 38 H       -0.8210    11.6610     0.1680 H     1 <1>   0.0800 
 39 H        0.1370    12.2410    -1.1790 H     1 <1>   0.0800 
 40 H        0.7380    12.4070     0.4550 H     1 <1>   0.0800 
 41 H        5.3580     9.0810     1.7880 H     1 <1>   0.1000 
 42 H        5.3710    10.0770     0.3070 H     1 <1>   0.1000 
 43 H        6.5400     8.2130    -0.9280 H     1 <1>   0.1000 
 44 H        6.4960     7.1930     0.5360 H     1 <1>   0.1000 
@<TRIPOS>BOND
  1   1   2  1   
  2   1   3  1   
  3   2   4  ar  
  4   2   5  ar  
  5   3   6  2   
  6   3   7  1   
  7   4   6  1   
  8   4   8  ar  
  9   5   9  ar  
 10   5  25  1   
 11   7  26  1   
 12   7  27  1   
 13   7  28  1   
 14   8  10  ar  
 15   8  29  1   
 16   9  10  ar  
 17   9  30  1   
 18  10  11  1   
 19  11  12  2   
 20  11  13  am  
 21  13  14  1   
 22  13  31  1   
 23  14  15  1   
 24  14  16  2   
 25  15  17  1   
 26  15  18  1   
 27  16  19  1   
 28  16  32  1   
 29  17  19  2   
 30  18  20  1   
 31  18  21  1   
 32  18  33  1   
 33  19  22  1   
 34  20  23  1   
 35  20  24  1   
 36  20  34  1   
 37  21  35  1   
 38  21  36  1   
 39  21  37  1   
 40  22  38  1   
 41  22  39  1   
 42  22  40  1   
 43  23  24  1   
 44  23  41  1   
 45  23  42  1   
 46  24  43  1   
 47  24  44  1   
@<TRIPOS>SUBSTRUCTURE
  1 ****  13 GROUP 4 **** **** 0

# MOE 2024.06 (io_trps.svl 2023.06)
