@<TRIPOS>MOLECULE
NONAME
42 44 1 0 0 
SMALL
USER_CHARGES


@<TRIPOS>ATOM
  1 O        0.3510     0.2630    -0.2430 O.3   1 <1>  -0.5600 
  2 C        0.2230     1.5680     0.2500 C.3   1 <1>   0.2950 
  3 C        1.4800    -0.4200     0.2240 C.3   1 <1>   0.2000 
  4 C       -1.0790     2.1460    -0.3150 C.3   1 <1>  -0.1950 
  5 C        1.4470     2.4200    -0.1440 C.3   1 <1>   0.2090 
  6 C        2.7730     0.3320    -0.1760 C.3   1 <1>   0.2090 
  7 C        1.4030    -1.8400    -0.3520 C.3   1 <1>  -0.1600 
  8 C       -1.8380     3.2050     0.4220 C.3   1 <1>  -0.2000 
  9 C       -2.4040     1.8190     0.2980 C.3   1 <1>  -0.2000 
 10 N        2.7310     1.7600     0.2600 N.pl3 1 <1>  -0.8380 
 11 C        2.4920    -2.7770     0.1960 C.3   1 <1>  -0.1600 
 12 C        3.9100     2.4920     0.1950 C.ar  1 <1>   0.4100 
 13 C        2.3050    -4.2030    -0.3360 C.3   1 <1>  -0.1600 
 14 N        3.9360     3.5210    -0.6440 N.ar  1 <1>  -0.6200 
 15 C        5.0210     2.1440     0.9840 C.ar  1 <1>   0.1600 
 16 C        3.3850    -5.1420     0.2080 C.3   1 <1>  -0.2400 
 17 C        5.1020     4.1440    -0.6490 C.ar  1 <1>   0.1600 
 18 N        6.1880     2.7610     0.9780 N.ar  1 <1>  -0.6200 
 19 C        6.1910     3.7790     0.1310 C.ar  1 <1>   0.1600 
 20 H        0.1570     1.5130     1.3230 H     1 <1>   0.0800 
 21 H        1.4140    -0.4700     1.2980 H     1 <1>   0.0800 
 22 H       -1.0450     2.2290    -1.3870 H     1 <1>   0.1000 
 23 H        1.3750     3.3840     0.3300 H     1 <1>   0.0800 
 24 H        1.4440     2.5730    -1.2090 H     1 <1>   0.0800 
 25 H        2.8880     0.2930    -1.2450 H     1 <1>   0.0800 
 26 H        3.6220    -0.1550     0.2690 H     1 <1>   0.0800 
 27 H        0.4390    -2.2480    -0.1030 H     1 <1>   0.0800 
 28 H        1.4770    -1.7900    -1.4250 H     1 <1>   0.0800 
 29 H       -1.4950     3.5300     1.3900 H     1 <1>   0.1000 
 30 H       -2.2940     4.0010    -0.1410 H     1 <1>   0.1000 
 31 H       -3.2410     1.6500    -0.3580 H     1 <1>   0.1000 
 32 H       -2.4260     1.1790     1.1630 H     1 <1>   0.1000 
 33 H        3.4660    -2.4230    -0.0940 H     1 <1>   0.0800 
 34 H        2.4440    -2.7920     1.2720 H     1 <1>   0.0800 
 35 H        1.3360    -4.5730    -0.0470 H     1 <1>   0.0800 
 36 H        2.3510    -4.1970    -1.4120 H     1 <1>   0.0800 
 37 H        4.9070     1.3100     1.6490 H     1 <1>   0.1500 
 38 H        3.3450    -5.1800     1.2830 H     1 <1>   0.0800 
 39 H        4.3620    -4.8070    -0.0920 H     1 <1>   0.0800 
 40 H        3.2330    -6.1370    -0.1740 H     1 <1>   0.0800 
 41 H        5.2000     4.9890    -1.3070 H     1 <1>   0.1500 
 42 H        7.1000     4.3500     0.0530 H     1 <1>   0.1500 
@<TRIPOS>BOND
  1   1   2  1   
  2   1   3  1   
  3   2   4  1   
  4   2   5  1   
  5   2  20  1   
  6   3   6  1   
  7   3   7  1   
  8   3  21  1   
  9   4   8  1   
 10   4   9  1   
 11   4  22  1   
 12   5  10  1   
 13   5  23  1   
 14   5  24  1   
 15   6  10  1   
 16   6  25  1   
 17   6  26  1   
 18   7  11  1   
 19   7  27  1   
 20   7  28  1   
 21   8   9  1   
 22   8  29  1   
 23   8  30  1   
 24   9  31  1   
 25   9  32  1   
 26  10  12  1   
 27  11  13  1   
 28  11  33  1   
 29  11  34  1   
 30  12  14  ar  
 31  12  15  ar  
 32  13  16  1   
 33  13  35  1   
 34  13  36  1   
 35  14  17  ar  
 36  15  18  ar  
 37  15  37  1   
 38  16  38  1   
 39  16  39  1   
 40  16  40  1   
 41  17  19  ar  
 42  17  41  1   
 43  18  19  ar  
 44  19  42  1   
@<TRIPOS>SUBSTRUCTURE
  1 ****   6 GROUP 4 **** **** 0

# MOE 2024.06 (io_trps.svl 2023.06)
