@<TRIPOS>MOLECULE
NONAME
45 48 1 0 0 
SMALL
USER_CHARGES


@<TRIPOS>ATOM
  1 CL       1.1220     0.4260    -0.4480 Cl    1 <1>  -0.1770 
  2 C        0.7260     2.0330     0.1230 C.ar  1 <1>   0.1770 
  3 C        1.7100     2.9160     0.5590 C.ar  1 <1>  -0.1440 
  4 C       -0.6120     2.3850     0.1210 C.ar  1 <1>  -0.1500 
  5 C        1.3100     4.1750     0.9920 C.ar  1 <1>  -0.1500 
  6 C        3.1970     2.5690     0.5840 C.3   1 <1>   0.3640 
  7 C       -0.9910     3.6410     0.5580 C.ar  1 <1>  -0.1500 
  8 C       -0.0280     4.5340     0.9910 C.ar  1 <1>  -0.1500 
  9 N        3.4070     1.4120     1.4870 N.am  1 <1>  -0.7300 
 10 C        3.8020     2.3500    -0.8290 C.3   1 <1>   0.2610 
 11 C        4.1870     0.3550     1.1730 C.2   1 <1>   0.5690 
 12 O        5.0140     1.6090    -0.7580 O.3   1 <1>  -0.5600 
 13 C        4.0320     3.7140    -1.4840 C.2   1 <1>   0.5690 
 14 O        4.3330    -0.5550     1.9490 O.2   1 <1>  -0.5700 
 15 C        4.8720     0.3220    -0.1960 C.3   1 <1>   0.1810 
 16 O        3.0970     4.3050    -1.9690 O.2   1 <1>  -0.5700 
 17 N        5.2760     4.2510    -1.4850 N.am  1 <1>  -0.7300 
 18 C        5.6460     5.6010    -1.9490 C.3   1 <1>   0.3210 
 19 C        6.5940     6.2300    -0.9370 C.2   1 <1>   0.1080 
 20 N        7.6660     5.6390    -0.4920 N.2   1 <1>  -0.7070 
 21 C        6.4210     7.4900    -0.3720 C.2   1 <1>  -0.1500 
 22 N        8.2060     6.5220     0.3720 N.pl3 1 <1>   0.3000 
 23 C        7.4710     7.6480     0.4620 C.2   1 <1>  -0.2370 
 24 C        7.8360     8.8110     1.3610 C.3   1 <1>  -0.0150 
 25 C        7.4960    10.2090     0.9560 C.3   1 <1>  -0.2000 
 26 C        8.9230     9.7470     0.9450 C.3   1 <1>  -0.2000 
 27 H       -1.3480     1.6790    -0.2210 H     1 <1>   0.1500 
 28 H        2.0370     4.8940     1.3300 H     1 <1>   0.1500 
 29 H        3.7260     3.3990     1.0220 H     1 <1>   0.0800 
 30 H       -2.0310     3.9230     0.5580 H     1 <1>   0.1500 
 31 H       -0.3200     5.5140     1.3270 H     1 <1>   0.1500 
 32 H        2.9150     1.4080     2.3810 H     1 <1>   0.3700 
 33 H        3.1210     1.8010    -1.4520 H     1 <1>   0.0800 
 34 H        4.2980    -0.2850    -0.8710 H     1 <1>   0.0800 
 35 H        5.8540    -0.1020    -0.0930 H     1 <1>   0.0800 
 36 H        6.0600     3.7350    -1.0680 H     1 <1>   0.3700 
 37 H        6.1430     5.5250    -2.8990 H     1 <1>   0.0800 
 38 H        4.7660     6.2100    -2.0640 H     1 <1>   0.0800 
 39 H        5.6160     8.1750    -0.5710 H     1 <1>   0.1500 
 40 H        9.0760     6.3330     0.8830 H     1 <1>   0.2700 
 41 H        7.7530     8.5720     2.4080 H     1 <1>   0.1000 
 42 H        7.0050    10.3760     0.0130 H     1 <1>   0.1000 
 43 H        7.1790    10.9020     1.7160 H     1 <1>   0.1000 
 44 H        9.5960    10.1280     1.6940 H     1 <1>   0.1000 
 45 H        9.4030     9.5970    -0.0070 H     1 <1>   0.1000 
@<TRIPOS>BOND
  1   1   2  1   
  2   2   3  ar  
  3   2   4  ar  
  4   3   5  ar  
  5   3   6  1   
  6   4   7  ar  
  7   4  27  1   
  8   5   8  ar  
  9   5  28  1   
 10   6   9  1   
 11   6  10  1   
 12   6  29  1   
 13   7   8  ar  
 14   7  30  1   
 15   8  31  1   
 16   9  11  am  
 17   9  32  1   
 18  10  12  1   
 19  10  13  1   
 20  10  33  1   
 21  11  14  2   
 22  11  15  1   
 23  12  15  1   
 24  13  16  2   
 25  13  17  am  
 26  15  34  1   
 27  15  35  1   
 28  17  18  1   
 29  17  36  1   
 30  18  19  1   
 31  18  37  1   
 32  18  38  1   
 33  19  20  2   
 34  19  21  1   
 35  20  22  1   
 36  21  23  2   
 37  21  39  1   
 38  22  23  1   
 39  22  40  1   
 40  23  24  1   
 41  24  25  1   
 42  24  26  1   
 43  24  41  1   
 44  25  26  1   
 45  25  42  1   
 46  25  43  1   
 47  26  44  1   
 48  26  45  1   
@<TRIPOS>SUBSTRUCTURE
  1 ****  13 GROUP 4 **** **** 0

# MOE 2024.06 (io_trps.svl 2023.06)
