@<TRIPOS>MOLECULE
NONAME
49 51 1 0 0 
SMALL
USER_CHARGES


@<TRIPOS>ATOM
  1 O       -1.1600     0.6720     1.7050 O.2   1 <1>  -0.5700 
  2 C       -1.7040     0.8470     0.6400 C.2   1 <1>   0.5770 
  3 N       -2.1910    -0.2040    -0.0930 N.am  1 <1>  -0.6600 
  4 C       -1.8360     2.2750     0.1070 C.3   1 <1>   0.0530 
  5 C       -2.0960    -1.6100     0.4350 C.3   1 <1>   0.3640 
  6 C       -2.8880    -0.0430    -1.4090 C.3   1 <1>   0.1400 
  7 C       -1.2640     3.4190     0.9940 C.3   1 <1>   0.0000 
  8 C       -3.2320     2.9160     0.3320 C.3   1 <1>   0.0000 
  9 C       -0.8810    -2.3640    -0.1380 C.ar  1 <1>  -0.1440 
 10 C       -3.4250    -2.3960     0.1900 C.3   1 <1>   0.2000 
 11 C       -3.4000    -1.3790    -1.9670 C.3   1 <1>   0.1200 
 12 C       -2.4920     4.2590     0.5590 C.3   1 <1>   0.0000 
 13 C       -0.5890    -3.6210     0.3790 C.ar  1 <1>  -0.1500 
 14 C       -0.0510    -1.8530    -1.1330 C.ar  1 <1>  -0.1500 
 15 O       -4.1300    -2.0410    -0.9830 O.3   1 <1>  -0.5600 
 16 C       -4.4010    -2.2080     1.3570 C.3   1 <1>   0.1200 
 17 C        0.4750    -4.3680    -0.0960 C.ar  1 <1>   0.0830 
 18 C        1.0290    -2.5830    -1.6020 C.ar  1 <1>  -0.1500 
 19 O       -3.9460    -2.8940     2.4800 O.3   1 <1>  -0.6800 
 20 O        0.6500    -5.6050     0.4330 O.3   1 <1>  -0.3630 
 21 C        1.3080    -3.8330    -1.0830 C.ar  1 <1>   0.0830 
 22 C        0.5300    -6.6960    -0.4540 C.3   1 <1>   0.0400 
 23 O        2.4010    -4.4790    -1.5560 O.3   1 <1>  -0.3630 
 24 C        3.4660    -4.6400    -0.6450 C.3   1 <1>   0.0400 
 25 H       -1.5060     2.3760    -0.9130 H     1 <1>   0.0000 
 26 H       -1.9390    -1.5720     1.4990 H     1 <1>   0.0800 
 27 H       -3.7300     0.6140    -1.2850 H     1 <1>   0.0800 
 28 H       -2.2160     0.4020    -2.1210 H     1 <1>   0.0800 
 29 H       -1.2780     3.2100     2.0510 H     1 <1>   0.0000 
 30 H       -0.3250     3.8120     0.6470 H     1 <1>   0.0000 
 31 H       -3.8620     2.9120    -0.5390 H     1 <1>   0.0000 
 32 H       -3.7220     2.5580     1.2220 H     1 <1>   0.0000 
 33 H       -3.2120    -3.4450     0.1010 H     1 <1>   0.0800 
 34 H       -2.5920    -2.0120    -2.2890 H     1 <1>   0.0800 
 35 H       -4.0540    -1.2070    -2.8030 H     1 <1>   0.0800 
 36 H       -2.3220     4.8010    -0.3560 H     1 <1>   0.0000 
 37 H       -2.9110     4.8600     1.3460 H     1 <1>   0.0000 
 38 H       -1.1910    -4.0420     1.1640 H     1 <1>   0.1500 
 39 H       -0.2210    -0.8790    -1.5500 H     1 <1>   0.1500 
 40 H       -5.3740    -2.5900     1.1050 H     1 <1>   0.0800 
 41 H       -4.4770    -1.1650     1.6130 H     1 <1>   0.0800 
 42 H        1.6670    -2.1790    -2.3670 H     1 <1>   0.1500 
 43 H       -4.1320    -3.8510     2.4030 H     1 <1>   0.4000 
 44 H        0.5340    -7.6010     0.1250 H     1 <1>   0.0800 
 45 H        1.3600    -6.6960    -1.1360 H     1 <1>   0.0800 
 46 H       -0.3960    -6.6060    -0.9930 H     1 <1>   0.0800 
 47 H        4.2910    -5.0900    -1.1660 H     1 <1>   0.0800 
 48 H        3.1510    -5.2760     0.1630 H     1 <1>   0.0800 
 49 H        3.7490    -3.6730    -0.2690 H     1 <1>   0.0800 
@<TRIPOS>BOND
  1   1   2  2   
  2   2   3  am  
  3   2   4  1   
  4   3   5  1   
  5   3   6  1   
  6   4   7  1   
  7   4   8  1   
  8   4  25  1   
  9   5   9  1   
 10   5  10  1   
 11   5  26  1   
 12   6  11  1   
 13   6  27  1   
 14   6  28  1   
 15   7  12  1   
 16   7  29  1   
 17   7  30  1   
 18   8  12  1   
 19   8  31  1   
 20   8  32  1   
 21   9  13  ar  
 22   9  14  ar  
 23  10  15  1   
 24  10  16  1   
 25  10  33  1   
 26  11  15  1   
 27  11  34  1   
 28  11  35  1   
 29  12  36  1   
 30  12  37  1   
 31  13  17  ar  
 32  13  38  1   
 33  14  18  ar  
 34  14  39  1   
 35  16  19  1   
 36  16  40  1   
 37  16  41  1   
 38  17  20  1   
 39  17  21  ar  
 40  18  21  ar  
 41  18  42  1   
 42  19  43  1   
 43  20  22  1   
 44  21  23  1   
 45  22  44  1   
 46  22  45  1   
 47  22  46  1   
 48  23  24  1   
 49  24  47  1   
 50  24  48  1   
 51  24  49  1   
@<TRIPOS>SUBSTRUCTURE
  1 ****   9 GROUP 4 **** **** 0

# MOE 2024.06 (io_trps.svl 2023.06)
