@<TRIPOS>MOLECULE
NONAME
43 46 1 0 0 
SMALL
USER_CHARGES


@<TRIPOS>ATOM
  1 O       -0.3720     0.1540    -0.0260 O.2   1 <1>  -0.5700 
  2 C       -1.4250     0.7740     0.0250 C.2   1 <1>   0.7160 
  3 N       -2.5880     0.0340    -0.1030 N.am  1 <1>  -0.6600 
  4 C       -1.4040     2.2290     0.2090 C.2   1 <1>   0.2030 
  5 C       -3.9670     0.5810    -0.1250 C.3   1 <1>   0.1400 
  6 C       -2.6060    -1.4400    -0.2510 C.3   1 <1>   0.1400 
  7 N       -2.4230     3.0140     0.5450 N.2   1 <1>  -0.7070 
  8 C       -0.2520     3.0170     0.0550 C.2   1 <1>  -0.1810 
  9 C       -4.8690    -0.6290    -0.3720 C.3   1 <1>   0.2000 
 10 C       -4.0490    -1.8450     0.0520 C.3   1 <1>  -0.0800 
 11 N       -1.9260     4.2600     0.6040 N.pl3 1 <1>   0.3000 
 12 C       -0.6150     4.2780     0.3190 C.2   1 <1>  -0.3320 
 13 C        1.1730     2.6390    -0.3280 C.3   1 <1>   0.3010 
 14 O       -6.0340    -0.5640     0.3760 O.3   1 <1>  -0.6800 
 15 C       -4.5010    -3.1380    -0.6460 C.3   1 <1>  -0.0170 
 16 C        0.3610     5.4350     0.2640 C.3   1 <1>   0.0200 
 17 O        1.8950     3.8010    -0.6690 O.3   1 <1>  -0.5600 
 18 C       -3.6870    -4.3360    -0.1860 C.ar  1 <1>   0.1670 
 19 C        1.7950     4.8650     0.2420 C.3   1 <1>   0.1200 
 20 N       -2.5480    -4.5580    -0.8220 N.ar  1 <1>  -0.6200 
 21 C       -4.1510    -5.1290     0.8620 C.ar  1 <1>   0.1600 
 22 C       -1.9110    -5.6150    -0.3450 C.ar  1 <1>   0.1600 
 23 N       -3.5150    -6.1850     1.3410 N.ar  1 <1>  -0.6200 
 24 C       -2.3790    -6.4010     0.7010 C.ar  1 <1>   0.1600 
 25 H       -4.1820     1.0370     0.8260 H     1 <1>   0.0800 
 26 H       -4.0690     1.3060    -0.9140 H     1 <1>   0.0800 
 27 H       -2.3370    -1.6940    -1.2630 H     1 <1>   0.0800 
 28 H       -1.9120    -1.9080     0.4270 H     1 <1>   0.0800 
 29 H       -5.1350    -0.6780    -1.4140 H     1 <1>   0.0800 
 30 H       -4.1230    -1.9700     1.1180 H     1 <1>   0.0800 
 31 H       -2.5030     5.0770     0.8420 H     1 <1>   0.2700 
 32 H        1.1780     1.9870    -1.1830 H     1 <1>   0.0800 
 33 H        1.6710     2.1520     0.4920 H     1 <1>   0.0800 
 34 H       -5.8220    -0.4150     1.3190 H     1 <1>   0.4000 
 35 H       -4.4030    -3.0350    -1.7130 H     1 <1>   0.0800 
 36 H       -5.5420    -3.3090    -0.4330 H     1 <1>   0.0800 
 37 H        0.2430     6.0750     1.1190 H     1 <1>   0.0800 
 38 H        0.1930     6.0150    -0.6260 H     1 <1>   0.0800 
 39 H        2.0710     4.4980     1.2160 H     1 <1>   0.0800 
 40 H        2.4960     5.6240    -0.0560 H     1 <1>   0.0800 
 41 H       -5.0890    -4.8780     1.3250 H     1 <1>   0.1500 
 42 H       -0.9730    -5.8720    -0.8040 H     1 <1>   0.1500 
 43 H       -1.7880    -7.2420     1.0180 H     1 <1>   0.1500 
@<TRIPOS>BOND
  1   1   2  2   
  2   2   3  am  
  3   2   4  1   
  4   3   5  1   
  5   3   6  1   
  6   4   7  2   
  7   4   8  1   
  8   5   9  1   
  9   5  25  1   
 10   5  26  1   
 11   6  10  1   
 12   6  27  1   
 13   6  28  1   
 14   7  11  1   
 15   8  12  2   
 16   8  13  1   
 17   9  10  1   
 18   9  14  1   
 19   9  29  1   
 20  10  15  1   
 21  10  30  1   
 22  11  12  1   
 23  11  31  1   
 24  12  16  1   
 25  13  17  1   
 26  13  32  1   
 27  13  33  1   
 28  14  34  1   
 29  15  18  1   
 30  15  35  1   
 31  15  36  1   
 32  16  19  1   
 33  16  37  1   
 34  16  38  1   
 35  17  19  1   
 36  18  20  ar  
 37  18  21  ar  
 38  19  39  1   
 39  19  40  1   
 40  20  22  ar  
 41  21  23  ar  
 42  21  41  1   
 43  22  24  ar  
 44  22  42  1   
 45  23  24  ar  
 46  24  43  1   
@<TRIPOS>SUBSTRUCTURE
  1 ****   3 GROUP 4 **** **** 0

# MOE 2024.06 (io_trps.svl 2023.06)
