@<TRIPOS>MOLECULE
NONAME
51 53 1 0 0 
SMALL
USER_CHARGES


@<TRIPOS>ATOM
  1 O        0.2420    -1.8970     0.3830 O.2   1 <1>  -0.5700 
  2 C       -0.7090    -2.5230    -0.0080 C.2   1 <1>   0.5690 
  3 N       -0.5740    -3.8440    -0.2590 N.am  1 <1>  -0.7300 
  4 C       -2.0250    -1.8010    -0.1970 C.3   1 <1>  -0.0990 
  5 C       -1.6090    -4.8260    -0.6740 C.3   1 <1>   0.1400 
  6 C       -3.1300    -2.3750     0.6880 C.3   1 <1>   0.1400 
  7 C       -2.8100    -4.8360     0.2830 C.3   1 <1>   0.1400 
  8 N       -3.6720    -3.6290     0.0890 N.am  1 <1>  -0.6600 
  9 C       -4.8060    -3.5920    -0.7010 C.2   1 <1>   0.5690 
 10 O       -5.4230    -2.5610    -0.8460 O.2   1 <1>  -0.5700 
 11 C       -5.3750    -4.8340    -1.4020 C.3   1 <1>   0.2610 
 12 O       -4.3750    -5.5300    -2.1310 O.3   1 <1>  -0.5600 
 13 C       -6.1170    -5.6990    -0.3450 C.3   1 <1>   0.3640 
 14 C       -4.8090    -6.7570    -2.6540 C.3   1 <1>   0.1810 
 15 N       -5.8890    -7.1800    -0.4500 N.am  1 <1>  -0.6600 
 16 C       -7.6130    -5.3880    -0.3940 C.ar  1 <1>  -0.1440 
 17 C       -5.2380    -7.7050    -1.5390 C.2   1 <1>   0.5690 
 18 C       -6.3390    -7.9660     0.7330 C.3   1 <1>   0.2200 
 19 C       -8.4650    -6.0420    -1.2760 C.ar  1 <1>  -0.1500 
 20 C       -8.1360    -4.4170     0.4490 C.ar  1 <1>  -0.1500 
 21 O       -4.9730    -8.8770    -1.6650 O.2   1 <1>  -0.5700 
 22 C       -5.1270    -8.5040     1.4930 C.3   1 <1>  -0.2400 
 23 C       -7.3050    -9.0820     0.3340 C.3   1 <1>  -0.2400 
 24 C       -9.8140    -5.7370    -1.3070 C.ar  1 <1>  -0.1500 
 25 C       -9.4850    -4.1110     0.4180 C.ar  1 <1>  -0.1500 
 26 C      -10.3250    -4.7720    -0.4590 C.ar  1 <1>  -0.1500 
 27 H        0.3740    -4.2080    -0.1380 H     1 <1>   0.3700 
 28 H       -1.8780    -0.7710     0.0710 H     1 <1>   0.0800 
 29 H       -2.3180    -1.8300    -1.2300 H     1 <1>   0.0800 
 30 H       -1.9390    -4.6100    -1.6760 H     1 <1>   0.0800 
 31 H       -1.1640    -5.8060    -0.6770 H     1 <1>   0.0800 
 32 H       -3.9180    -1.6470     0.7800 H     1 <1>   0.0800 
 33 H       -2.7530    -2.5700     1.6780 H     1 <1>   0.0800 
 34 H       -2.4590    -4.8770     1.3000 H     1 <1>   0.0800 
 35 H       -3.3790    -5.7310     0.1130 H     1 <1>   0.0800 
 36 H       -6.0910    -4.4890    -2.1260 H     1 <1>   0.0800 
 37 H       -5.7590    -5.4010     0.6250 H     1 <1>   0.0800 
 38 H       -5.6270    -6.5820    -3.3290 H     1 <1>   0.0800 
 39 H       -3.9900    -7.1910    -3.1990 H     1 <1>   0.0800 
 40 H       -6.8760    -7.3090     1.3980 H     1 <1>   0.0800 
 41 H       -8.0860    -6.7970    -1.9420 H     1 <1>   0.1500 
 42 H       -7.4980    -3.8830     1.1330 H     1 <1>   0.1500 
 43 H       -4.5850    -9.2120     0.8930 H     1 <1>   0.0800 
 44 H       -5.4530    -9.0040     2.3870 H     1 <1>   0.0800 
 45 H       -4.4740    -7.6990     1.7720 H     1 <1>   0.0800 
 46 H       -6.8140    -9.8330    -0.2560 H     1 <1>   0.0800 
 47 H       -8.1330    -8.6790    -0.2190 H     1 <1>   0.0800 
 48 H       -7.6920    -9.5570     1.2170 H     1 <1>   0.0800 
 49 H      -10.4670    -6.2520    -1.9910 H     1 <1>   0.1500 
 50 H       -9.8810    -3.3560     1.0750 H     1 <1>   0.1500 
 51 H      -11.3750    -4.5340    -0.4830 H     1 <1>   0.1500 
@<TRIPOS>BOND
  1   1   2  2   
  2   2   3  am  
  3   2   4  1   
  4   3   5  1   
  5   3  27  1   
  6   4   6  1   
  7   4  28  1   
  8   4  29  1   
  9   5   7  1   
 10   5  30  1   
 11   5  31  1   
 12   6   8  1   
 13   6  32  1   
 14   6  33  1   
 15   7   8  1   
 16   7  34  1   
 17   7  35  1   
 18   8   9  am  
 19   9  10  2   
 20   9  11  1   
 21  11  12  1   
 22  11  13  1   
 23  11  36  1   
 24  12  14  1   
 25  13  15  1   
 26  13  16  1   
 27  13  37  1   
 28  14  17  1   
 29  14  38  1   
 30  14  39  1   
 31  15  17  am  
 32  15  18  1   
 33  16  19  ar  
 34  16  20  ar  
 35  17  21  2   
 36  18  22  1   
 37  18  23  1   
 38  18  40  1   
 39  19  24  ar  
 40  19  41  1   
 41  20  25  ar  
 42  20  42  1   
 43  22  43  1   
 44  22  44  1   
 45  22  45  1   
 46  23  46  1   
 47  23  47  1   
 48  23  48  1   
 49  24  26  ar  
 50  24  49  1   
 51  25  26  ar  
 52  25  50  1   
 53  26  51  1   
@<TRIPOS>SUBSTRUCTURE
  1 ****  11 GROUP 4 **** **** 0

# MOE 2024.06 (io_trps.svl 2023.06)
