@<TRIPOS>MOLECULE
NONAME
50 52 1 0 0 
SMALL
USER_CHARGES


@<TRIPOS>ATOM
  1 O        0.1100     0.0300     0.8650 O.2   1 <1>  -0.5700 
  2 C        1.1120    -0.3460     0.2850 C.2   1 <1>   0.7150 
  3 N        2.0210     0.5920    -0.1030 N.am  1 <1>  -0.7300 
  4 C        1.3300    -1.7490     0.0020 C.2   1 <1>   0.0550 
  5 C        1.9120     2.0470     0.1880 C.3   1 <1>   0.3200 
  6 O        0.4850    -2.6660     0.4640 O.3   1 <1>  -0.2800 
  7 C        2.3000    -2.3950    -0.7060 C.2   1 <1>  -0.1500 
  8 C        3.2820     2.6530     0.4450 C.2   1 <1>   0.2980 
  9 C        0.8710    -3.8590     0.0760 C.2   1 <1>  -0.0400 
 10 C        2.0000    -3.7580    -0.6590 C.2   1 <1>  -0.1500 
 11 O        3.8500     2.4490     1.6070 O.3   1 <1>  -0.0190 
 12 N        3.9590     3.3440    -0.3830 N.2   1 <1>  -0.5650 
 13 C        0.0440    -5.0690     0.4820 C.3   1 <1>   0.5230 
 14 N        4.9910     3.0600     1.5100 N.2   1 <1>  -0.4100 
 15 C        5.0500     3.5690     0.3420 C.2   1 <1>   0.3350 
 16 N       -1.3610    -4.8970     0.0100 N.4   1 <1>  -0.9590 
 17 C        6.2280     4.3800    -0.1940 C.3   1 <1>   0.3010 
 18 C       -2.1440    -4.0140     0.9290 C.3   1 <1>   0.3430 
 19 C       -2.0340    -6.2040    -0.2160 C.3   1 <1>   0.3430 
 20 O        6.9890     3.6260    -1.1000 O.3   1 <1>  -0.5600 
 21 C       -3.5250    -3.7470     0.3310 C.3   1 <1>  -0.1600 
 22 C       -3.4130    -5.9730    -0.8360 C.3   1 <1>  -0.1600 
 23 C        8.0790     4.3060    -1.6320 C.3   1 <1>   0.0400 
 24 C       -4.2790    -5.0520     0.0350 C.3   1 <1>  -0.0800 
 25 C       -5.6160    -4.7580    -0.6530 C.3   1 <1>  -0.2400 
 26 H        2.8780     0.3130    -0.5820 H     1 <1>   0.3700 
 27 H        1.2840     2.2130     1.0470 H     1 <1>   0.0800 
 28 H        1.4660     2.5390    -0.6580 H     1 <1>   0.0800 
 29 H        3.1460    -1.9680    -1.2160 H     1 <1>   0.1500 
 30 H        2.5830    -4.5330    -1.1290 H     1 <1>   0.1500 
 31 H        0.0670    -5.1840     1.5530 H     1 <1>   0.0800 
 32 H        0.4790    -5.9470     0.0340 H     1 <1>   0.0800 
 33 H       -1.3020    -4.3990    -0.8870 H     1 <1>   0.4500 
 34 H        6.8630     4.6710     0.6240 H     1 <1>   0.0800 
 35 H        5.8590     5.2550    -0.6980 H     1 <1>   0.0800 
 36 H       -1.6380    -3.0720     1.0740 H     1 <1>   0.0800 
 37 H       -2.2540    -4.4890     1.8900 H     1 <1>   0.0800 
 38 H       -2.1470    -6.7250     0.7210 H     1 <1>   0.0800 
 39 H       -1.4440    -6.8170    -0.8790 H     1 <1>   0.0800 
 40 H       -3.4140    -3.1660    -0.5670 H     1 <1>   0.0800 
 41 H       -4.0940    -3.1550     1.0270 H     1 <1>   0.0800 
 42 H       -3.9060    -6.9230    -0.9510 H     1 <1>   0.0800 
 43 H       -3.2940    -5.5520    -1.8200 H     1 <1>   0.0800 
 44 H        8.5890     3.6420    -2.3080 H     1 <1>   0.0800 
 45 H        8.7460     4.5920    -0.8350 H     1 <1>   0.0800 
 46 H        7.7330     5.1720    -2.1690 H     1 <1>   0.0800 
 47 H       -4.4850    -5.5510     0.9690 H     1 <1>   0.0800 
 48 H       -5.4650    -4.2540    -1.5920 H     1 <1>   0.0800 
 49 H       -6.2300    -4.1330    -0.0280 H     1 <1>   0.0800 
 50 H       -6.1530    -5.6720    -0.8390 H     1 <1>   0.0800 
@<TRIPOS>BOND
  1   1   2  2   
  2   2   3  am  
  3   2   4  1   
  4   3   5  1   
  5   3  26  1   
  6   4   6  1   
  7   4   7  2   
  8   5   8  1   
  9   5  27  1   
 10   5  28  1   
 11   6   9  1   
 12   7  10  1   
 13   7  29  1   
 14   8  11  1   
 15   8  12  2   
 16   9  10  2   
 17   9  13  1   
 18  10  30  1   
 19  11  14  1   
 20  12  15  1   
 21  13  16  1   
 22  13  31  1   
 23  13  32  1   
 24  14  15  2   
 25  15  17  1   
 26  16  18  1   
 27  16  19  1   
 28  16  33  1   
 29  17  20  1   
 30  17  34  1   
 31  17  35  1   
 32  18  21  1   
 33  18  36  1   
 34  18  37  1   
 35  19  22  1   
 36  19  38  1   
 37  19  39  1   
 38  20  23  1   
 39  21  24  1   
 40  21  40  1   
 41  21  41  1   
 42  22  24  1   
 43  22  42  1   
 44  22  43  1   
 45  23  44  1   
 46  23  45  1   
 47  23  46  1   
 48  24  25  1   
 49  24  47  1   
 50  25  48  1   
 51  25  49  1   
 52  25  50  1   
@<TRIPOS>SUBSTRUCTURE
  1 ****   2 GROUP 4 **** **** 0

# MOE 2024.06 (io_trps.svl 2023.06)
