@<TRIPOS>MOLECULE
NONAME
50 53 1 0 0 
SMALL
USER_CHARGES


@<TRIPOS>ATOM
  1 S       -1.0320     0.6710    -0.5750 S.3   1 <1>  -0.0800 
  2 C       -0.5480    -1.0200    -0.7720 C.2   1 <1>  -0.0450 
  3 C       -2.7190     0.2080    -0.3640 C.2   1 <1>  -0.1100 
  4 C        0.7490    -1.5470    -0.9950 C.2   1 <1>   0.8660 
  5 C       -1.6350    -1.8170    -0.6740 C.2   1 <1>   0.0830 
  6 C       -2.8650    -1.1300    -0.4420 C.2   1 <1>  -0.1500 
  7 O        1.7430    -0.8410    -1.0800 O.2   1 <1>  -0.5700 
  8 N        0.9030    -2.9090    -1.1160 N.2   1 <1>  -0.6610 
  9 N       -1.4080    -3.1610    -0.8050 N.pl3 1 <1>  -0.5330 
 10 C       -0.1490    -3.6470    -1.0220 C.2   1 <1>   0.4390 
 11 C       -0.0430    -5.1660    -1.1490 C.3   1 <1>   0.1710 
 12 N       -1.0830    -5.8850    -0.3620 N.3   1 <1>  -0.8100 
 13 C       -1.2370    -7.2760    -0.8580 C.3   1 <1>   0.1100 
 14 C       -0.8060    -5.8330     1.0780 C.3   1 <1>   0.1100 
 15 C       -2.0640    -8.2120     0.0760 C.3   1 <1>   0.0000 
 16 C       -2.0260    -6.3430     1.8570 C.3   1 <1>  -0.1600 
 17 C       -2.8890    -7.3060     1.0270 C.3   1 <1>   0.2000 
 18 C       -3.0700    -9.0210    -0.7820 C.3   1 <1>   0.1200 
 19 C       -1.1470    -9.1700     0.9030 C.3   1 <1>  -0.0170 
 20 O       -3.6770    -8.0480     1.8930 O.3   1 <1>  -0.6800 
 21 O       -2.4470    -9.6230    -1.8690 O.3   1 <1>  -0.6800 
 22 C       -0.3280   -10.1830     0.1080 C.ar  1 <1>  -0.1430 
 23 C        0.9470    -9.8700    -0.3420 C.ar  1 <1>  -0.1500 
 24 C       -0.8440   -11.4440    -0.1550 C.ar  1 <1>  -0.1500 
 25 C        1.6810   -10.7910    -1.0680 C.ar  1 <1>  -0.1500 
 26 C       -0.1110   -12.3660    -0.8810 C.ar  1 <1>  -0.1500 
 27 C        1.1510   -12.0390    -1.3410 C.ar  1 <1>  -0.1500 
 28 H       -3.4300     0.9990    -0.2010 H     1 <1>   0.1500 
 29 H       -3.7920    -1.6670    -0.3480 H     1 <1>   0.1500 
 30 H       -2.1410    -3.8720    -0.6840 H     1 <1>   0.4000 
 31 H        0.9400    -5.4850    -0.8460 H     1 <1>   0.0800 
 32 H       -0.1600    -5.4050    -2.1920 H     1 <1>   0.0800 
 33 H       -1.7280    -7.2120    -1.8150 H     1 <1>   0.0800 
 34 H       -0.2710    -7.7040    -1.0420 H     1 <1>   0.0800 
 35 H        0.0610    -6.4340     1.2970 H     1 <1>   0.0800 
 36 H       -0.5910    -4.8230     1.3860 H     1 <1>   0.0800 
 37 H       -2.6320    -5.5000     2.1370 H     1 <1>   0.0800 
 38 H       -1.6780    -6.8120     2.7590 H     1 <1>   0.0800 
 39 H       -3.5620    -6.7170     0.4250 H     1 <1>   0.0800 
 40 H       -3.8350    -8.3740    -1.1760 H     1 <1>   0.0800 
 41 H       -3.5450    -9.7880    -0.1950 H     1 <1>   0.0800 
 42 H       -0.4640    -8.5990     1.5020 H     1 <1>   0.0800 
 43 H       -1.7540    -9.7280     1.5930 H     1 <1>   0.0800 
 44 H       -3.1340    -8.4420     2.6010 H     1 <1>   0.4000 
 45 H       -1.6890   -10.1720    -1.5610 H     1 <1>   0.4000 
 46 H        1.3800    -8.9090    -0.1290 H     1 <1>   0.1500 
 47 H       -1.8230   -11.7190     0.2020 H     1 <1>   0.1500 
 48 H        2.6670   -10.5380    -1.4190 H     1 <1>   0.1500 
 49 H       -0.5230   -13.3390    -1.0870 H     1 <1>   0.1500 
 50 H        1.7210   -12.7550    -1.9070 H     1 <1>   0.1500 
@<TRIPOS>BOND
  1   1   2  1   
  2   1   3  1   
  3   2   4  1   
  4   2   5  2   
  5   3   6  2   
  6   3  28  1   
  7   4   7  2   
  8   4   8  1   
  9   5   6  1   
 10   5   9  1   
 11   6  29  1   
 12   8  10  2   
 13   9  10  1   
 14   9  30  1   
 15  10  11  1   
 16  11  12  1   
 17  11  31  1   
 18  11  32  1   
 19  12  13  1   
 20  12  14  1   
 21  13  15  1   
 22  13  33  1   
 23  13  34  1   
 24  14  16  1   
 25  14  35  1   
 26  14  36  1   
 27  15  17  1   
 28  15  18  1   
 29  15  19  1   
 30  16  17  1   
 31  16  37  1   
 32  16  38  1   
 33  17  20  1   
 34  17  39  1   
 35  18  21  1   
 36  18  40  1   
 37  18  41  1   
 38  19  22  1   
 39  19  42  1   
 40  19  43  1   
 41  20  44  1   
 42  21  45  1   
 43  22  23  ar  
 44  22  24  ar  
 45  23  25  ar  
 46  23  46  1   
 47  24  26  ar  
 48  24  47  1   
 49  25  27  ar  
 50  25  48  1   
 51  26  27  ar  
 52  26  49  1   
 53  27  50  1   
@<TRIPOS>SUBSTRUCTURE
  1 ****  12 GROUP 4 **** **** 0

# MOE 2024.06 (io_trps.svl 2023.06)
