@<TRIPOS>MOLECULE
NONAME
53 55 1 0 0 
SMALL
USER_CHARGES


@<TRIPOS>ATOM
  1 O       -0.5770     0.2280     1.0250 O.2   1 <1>  -0.5700 
  2 C       -1.3530     0.7570     0.2620 C.2   1 <1>   0.5690 
  3 N       -2.2570    -0.0030    -0.4450 N.am  1 <1>  -0.6600 
  4 C       -1.2420     2.2860     0.1600 C.3   1 <1>  -0.0190 
  5 C       -3.1940     0.4870    -1.5000 C.3   1 <1>   0.3200 
  6 C       -2.3360    -1.4750    -0.2000 C.3   1 <1>   0.1400 
  7 C       -2.5200     3.0440     0.5840 C.3   1 <1>  -0.1600 
  8 C       -0.6630     2.7770    -1.1900 C.3   1 <1>  -0.1600 
  9 C       -4.6440     0.2790    -1.0920 C.2   1 <1>  -0.0400 
 10 C       -3.0890    -1.7760     1.1000 C.3   1 <1>  -0.0160 
 11 C       -2.2910     4.5670     0.6880 C.3   1 <1>   0.2000 
 12 C       -1.0480     4.2310    -1.5230 C.3   1 <1>  -0.1600 
 13 O       -5.1460     0.9790    -0.0910 O.3   1 <1>  -0.2800 
 14 C       -5.5810    -0.5540    -1.5990 C.2   1 <1>  -0.1500 
 15 C       -3.3920    -3.2620     1.1900 C.ar  1 <1>  -0.1440 
 16 O       -3.4930     5.2170     0.3540 O.3   1 <1>  -0.5600 
 17 C       -1.1620     5.0750    -0.2510 C.3   1 <1>   0.2000 
 18 C       -6.4010     0.6110     0.0650 C.2   1 <1>  -0.0100 
 19 C       -6.7360    -0.3360    -0.8370 C.2   1 <1>  -0.1500 
 20 C       -4.6160    -3.7500     0.7610 C.ar  1 <1>  -0.1500 
 21 C       -2.4460    -4.1400     1.6930 C.ar  1 <1>  -0.1500 
 22 C       -4.4780     5.1950     1.3410 C.3   1 <1>   0.0400 
 23 O       -1.4330     6.3750    -0.6260 O.3   1 <1>  -0.6800 
 24 C       -4.8920    -5.1050     0.8340 C.ar  1 <1>  -0.1500 
 25 C       -2.7200    -5.4950     1.7670 C.ar  1 <1>  -0.1500 
 26 C       -3.9430    -5.9780     1.3360 C.ar  1 <1>  -0.1500 
 27 H       -0.5090     2.5580     0.9010 H     1 <1>   0.0800 
 28 H       -3.0390     1.5240    -1.7200 H     1 <1>   0.0800 
 29 H       -3.0040    -0.0600    -2.4070 H     1 <1>   0.0800 
 30 H       -2.8370    -1.9580    -1.0210 H     1 <1>   0.0800 
 31 H       -1.3420    -1.8850    -0.1370 H     1 <1>   0.0800 
 32 H       -2.8510     2.6690     1.5360 H     1 <1>   0.0800 
 33 H       -3.3010     2.8700    -0.1290 H     1 <1>   0.0800 
 34 H        0.4100     2.7030    -1.1340 H     1 <1>   0.0800 
 35 H       -0.9690     2.1420    -2.0010 H     1 <1>   0.0800 
 36 H       -2.4900    -1.4750     1.9410 H     1 <1>   0.0800 
 37 H       -4.0090    -1.2230     1.1320 H     1 <1>   0.0800 
 38 H       -2.0230     4.8340     1.6960 H     1 <1>   0.0800 
 39 H       -1.9990     4.2400    -2.0280 H     1 <1>   0.0800 
 40 H       -0.3100     4.6570    -2.1810 H     1 <1>   0.0800 
 41 H       -5.4970    -1.2540    -2.4110 H     1 <1>   0.1500 
 42 H       -0.2170     5.0710     0.2640 H     1 <1>   0.0800 
 43 H       -6.9850     1.0730     0.8410 H     1 <1>   0.1500 
 44 H       -7.6780    -0.8370    -0.9700 H     1 <1>   0.1500 
 45 H       -5.3590    -3.0760     0.3700 H     1 <1>   0.1500 
 46 H       -1.4920    -3.7710     2.0300 H     1 <1>   0.1500 
 47 H       -5.3200     5.7610     0.9850 H     1 <1>   0.0800 
 48 H       -4.0930     5.6470     2.2390 H     1 <1>   0.0800 
 49 H       -4.7820     4.1800     1.5260 H     1 <1>   0.0800 
 50 H       -2.4140     6.4610    -0.5870 H     1 <1>   0.4000 
 51 H       -5.8440    -5.4790     0.5000 H     1 <1>   0.1500 
 52 H       -1.9810    -6.1710     2.1590 H     1 <1>   0.1500 
 53 H       -4.1570    -7.0310     1.3940 H     1 <1>   0.1500 
@<TRIPOS>BOND
  1   1   2  2   
  2   2   3  am  
  3   2   4  1   
  4   3   5  1   
  5   3   6  1   
  6   4   7  1   
  7   4   8  1   
  8   4  27  1   
  9   5   9  1   
 10   5  28  1   
 11   5  29  1   
 12   6  10  1   
 13   6  30  1   
 14   6  31  1   
 15   7  11  1   
 16   7  32  1   
 17   7  33  1   
 18   8  12  1   
 19   8  34  1   
 20   8  35  1   
 21   9  13  1   
 22   9  14  2   
 23  10  15  1   
 24  10  36  1   
 25  10  37  1   
 26  11  16  1   
 27  11  17  1   
 28  11  38  1   
 29  12  17  1   
 30  12  39  1   
 31  12  40  1   
 32  13  18  1   
 33  14  19  1   
 34  14  41  1   
 35  15  20  ar  
 36  15  21  ar  
 37  16  22  1   
 38  17  23  1   
 39  17  42  1   
 40  18  19  2   
 41  18  43  1   
 42  19  44  1   
 43  20  24  ar  
 44  20  45  1   
 45  21  25  ar  
 46  21  46  1   
 47  22  47  1   
 48  22  48  1   
 49  22  49  1   
 50  23  50  1   
 51  24  26  ar  
 52  24  51  1   
 53  25  26  ar  
 54  25  52  1   
 55  26  53  1   
@<TRIPOS>SUBSTRUCTURE
  1 ****   3 GROUP 4 **** **** 0

# MOE 2024.06 (io_trps.svl 2023.06)
