@<TRIPOS>MOLECULE
NONAME
41 43 1 0 0 
SMALL
USER_CHARGES


@<TRIPOS>ATOM
  1 S       -0.8010    -0.3000     1.0760 S.o2  1 <1>   1.4470 
  2 O       -1.6960    -1.2480     1.6970 O.2   1 <1>  -0.6500 
  3 O       -0.4020     0.8820     1.8130 O.2   1 <1>  -0.6500 
  4 N       -1.5550     0.2240    -0.3520 N.am  1 <1>  -0.8490 
  5 C        0.6660    -1.1780     0.4610 C.ar  1 <1>  -0.0090 
  6 C       -0.8810     1.3450    -1.0160 C.3   1 <1>   0.1960 
  7 C       -2.9110     0.7350    -0.1200 C.3   1 <1>   0.1960 
  8 C        0.5270    -2.2360    -0.4350 C.ar  1 <1>  -0.1500 
  9 C        1.9520    -0.8130     0.8660 C.ar  1 <1>  -0.1500 
 10 C       -1.4790     2.6430    -0.4580 C.3   1 <1>   0.2000 
 11 C       -2.7920     2.2290     0.2310 C.3   1 <1>   0.1900 
 12 C        1.6490    -2.8930    -0.9040 C.ar  1 <1>   0.1900 
 13 C        3.0800    -1.4720     0.3970 C.ar  1 <1>  -0.1500 
 14 O       -0.6100     3.2090     0.4710 O.3   1 <1>  -0.6800 
 15 N       -3.9610     3.0300    -0.2180 N.3   1 <1>  -0.8100 
 16 F        1.4930    -3.8800    -1.7470 F     1 <1>  -0.1900 
 17 C        2.9150    -2.5150    -0.4930 C.ar  1 <1>   0.1900 
 18 C       -5.2290     2.5390     0.3730 C.3   1 <1>   0.1100 
 19 C       -3.7940     4.4540     0.1650 C.3   1 <1>   0.1100 
 20 F        3.9740    -3.1390    -0.9400 F     1 <1>  -0.1900 
 21 C       -6.4180     3.4310    -0.0270 C.3   1 <1>   0.1200 
 22 C       -5.0250     5.2930    -0.2230 C.3   1 <1>   0.1200 
 23 O       -6.1830     4.7570     0.3470 O.3   1 <1>  -0.5600 
 24 H        0.1900     1.3100    -0.9020 H     1 <1>   0.0800 
 25 H       -1.1120     1.2940    -2.0660 H     1 <1>   0.0800 
 26 H       -3.4680     0.6360    -1.0360 H     1 <1>   0.0800 
 27 H       -3.4200     0.1870     0.6550 H     1 <1>   0.0800 
 28 H       -0.4500    -2.5440    -0.7650 H     1 <1>   0.1500 
 29 H        2.0740     0.0020     1.5620 H     1 <1>   0.1500 
 30 H       -1.6340     3.3530    -1.2520 H     1 <1>   0.0800 
 31 H       -2.6870     2.3180     1.2990 H     1 <1>   0.0800 
 32 H        4.0680    -1.1850     0.7140 H     1 <1>   0.1500 
 33 H       -0.4370     2.5510     1.1920 H     1 <1>   0.4000 
 34 H       -5.4320     1.5390     0.0330 H     1 <1>   0.0800 
 35 H       -5.1550     2.5220     1.4480 H     1 <1>   0.0800 
 36 H       -3.6400     4.5350     1.2280 H     1 <1>   0.0800 
 37 H       -2.9320     4.8720    -0.3250 H     1 <1>   0.0800 
 38 H       -7.3140     3.1050     0.4700 H     1 <1>   0.0800 
 39 H       -6.5770     3.3960    -1.0910 H     1 <1>   0.0800 
 40 H       -5.1440     5.3140    -1.2930 H     1 <1>   0.0800 
 41 H       -4.9170     6.3000     0.1360 H     1 <1>   0.0800 
@<TRIPOS>BOND
  1   1   2  2   
  2   1   3  2   
  3   1   4  am  
  4   1   5  1   
  5   4   6  1   
  6   4   7  1   
  7   5   8  ar  
  8   5   9  ar  
  9   6  10  1   
 10   6  24  1   
 11   6  25  1   
 12   7  11  1   
 13   7  26  1   
 14   7  27  1   
 15   8  12  ar  
 16   8  28  1   
 17   9  13  ar  
 18   9  29  1   
 19  10  11  1   
 20  10  14  1   
 21  10  30  1   
 22  11  15  1   
 23  11  31  1   
 24  12  16  1   
 25  12  17  ar  
 26  13  17  ar  
 27  13  32  1   
 28  14  33  1   
 29  15  18  1   
 30  15  19  1   
 31  17  20  1   
 32  18  21  1   
 33  18  34  1   
 34  18  35  1   
 35  19  22  1   
 36  19  36  1   
 37  19  37  1   
 38  21  23  1   
 39  21  38  1   
 40  21  39  1   
 41  22  23  1   
 42  22  40  1   
 43  22  41  1   
@<TRIPOS>SUBSTRUCTURE
  1 ****   4 GROUP 4 **** **** 0

# MOE 2024.06 (io_trps.svl 2023.06)
