@<TRIPOS>MOLECULE
NONAME
46 48 1 0 0 
SMALL
USER_CHARGES


@<TRIPOS>ATOM
  1 F        1.1250    -0.2530     2.5370 F     1 <1>  -0.1900 
  2 C        1.8290    -1.0130     1.7390 C.ar  1 <1>   0.1900 
  3 C        1.6350    -2.3790     1.7810 C.ar  1 <1>  -0.1500 
  4 C        2.7370    -0.4200     0.8850 C.ar  1 <1>  -0.1500 
  5 C        2.3740    -3.1920     0.9320 C.ar  1 <1>  -0.1440 
  6 C        3.4810    -1.2310     0.0450 C.ar  1 <1>  -0.1500 
  7 C        3.3060    -2.6170     0.0660 C.ar  1 <1>   0.0830 
  8 C        2.1620    -4.7030     0.9680 C.3   1 <1>   0.2540 
  9 O        4.0240    -3.4520    -0.7310 O.3   1 <1>  -0.3630 
 10 N        1.2510    -5.1570    -0.1070 N.3   1 <1>  -0.8100 
 11 C        4.9010    -2.9700    -1.7230 C.3   1 <1>   0.0400 
 12 C        1.1370    -6.6380    -0.1530 C.3   1 <1>   0.3330 
 13 C       -0.0880    -4.5430    -0.0030 C.3   1 <1>   0.1100 
 14 C        2.5060    -7.2870    -0.3720 C.ar  1 <1>  -0.1430 
 15 C        0.1380    -7.0820    -1.2580 C.3   1 <1>   0.2000 
 16 C       -1.0370    -5.0680    -1.0930 C.3   1 <1>   0.1200 
 17 C        2.9190    -8.3370     0.4380 C.ar  1 <1>  -0.1500 
 18 C        3.3420    -6.8490    -1.3880 C.ar  1 <1>  -0.1500 
 19 O       -1.1060    -6.4630    -1.0480 O.3   1 <1>  -0.5600 
 20 C       -0.1100    -8.6000    -1.2960 C.3   1 <1>   0.1200 
 21 C        4.1430    -8.9460     0.2250 C.ar  1 <1>  -0.1500 
 22 C        4.5670    -7.4570    -1.6020 C.ar  1 <1>  -0.1500 
 23 O        0.9640    -9.2750    -1.8730 O.3   1 <1>  -0.6800 
 24 C        4.9670    -8.5070    -0.7970 C.ar  1 <1>  -0.1500 
 25 H        0.9160    -2.7910     2.4650 H     1 <1>   0.1500 
 26 H        2.8580     0.6480     0.8830 H     1 <1>   0.1500 
 27 H        4.1900    -0.7680    -0.6140 H     1 <1>   0.1500 
 28 H        1.7640    -4.9930     1.9250 H     1 <1>   0.0800 
 29 H        3.1230    -5.1760     0.8610 H     1 <1>   0.0800 
 30 H        5.3060    -3.8170    -2.2470 H     1 <1>   0.0800 
 31 H        5.6950    -2.4200    -1.2500 H     1 <1>   0.0800 
 32 H        4.3480    -2.3490    -2.4040 H     1 <1>   0.0800 
 33 H        0.7470    -6.9780     0.7910 H     1 <1>   0.0800 
 34 H       -0.5160    -4.7460     0.9630 H     1 <1>   0.0800 
 35 H       -0.0050    -3.4760    -0.1190 H     1 <1>   0.0800 
 36 H        0.4970    -6.7700    -2.2230 H     1 <1>   0.0800 
 37 H       -0.6930    -4.7670    -2.0680 H     1 <1>   0.0800 
 38 H       -2.0290    -4.6830    -0.9410 H     1 <1>   0.0800 
 39 H        2.2900    -8.6900     1.2360 H     1 <1>   0.1500 
 40 H        3.0380    -6.0230    -2.0100 H     1 <1>   0.1500 
 41 H       -0.9770    -8.8130    -1.8960 H     1 <1>   0.0800 
 42 H       -0.2580    -8.9860    -0.3040 H     1 <1>   0.0800 
 43 H        4.4570    -9.7610     0.8540 H     1 <1>   0.1500 
 44 H        5.2070    -7.1090    -2.3940 H     1 <1>   0.1500 
 45 H        1.8160    -8.9840    -1.4750 H     1 <1>   0.4000 
 46 H        5.9190    -8.9810    -0.9630 H     1 <1>   0.1500 
@<TRIPOS>BOND
  1   1   2  1   
  2   2   3  ar  
  3   2   4  ar  
  4   3   5  ar  
  5   3  25  1   
  6   4   6  ar  
  7   4  26  1   
  8   5   7  ar  
  9   5   8  1   
 10   6   7  ar  
 11   6  27  1   
 12   7   9  1   
 13   8  10  1   
 14   8  28  1   
 15   8  29  1   
 16   9  11  1   
 17  10  12  1   
 18  10  13  1   
 19  11  30  1   
 20  11  31  1   
 21  11  32  1   
 22  12  14  1   
 23  12  15  1   
 24  12  33  1   
 25  13  16  1   
 26  13  34  1   
 27  13  35  1   
 28  14  17  ar  
 29  14  18  ar  
 30  15  19  1   
 31  15  20  1   
 32  15  36  1   
 33  16  19  1   
 34  16  37  1   
 35  16  38  1   
 36  17  21  ar  
 37  17  39  1   
 38  18  22  ar  
 39  18  40  1   
 40  20  23  1   
 41  20  41  1   
 42  20  42  1   
 43  21  24  ar  
 44  21  43  1   
 45  22  24  ar  
 46  22  44  1   
 47  23  45  1   
 48  24  46  1   
@<TRIPOS>SUBSTRUCTURE
  1 ****  10 GROUP 4 **** **** 0

# MOE 2024.06 (io_trps.svl 2023.06)
