@<TRIPOS>MOLECULE
NONAME
57 60 1 0 0 
SMALL
USER_CHARGES


@<TRIPOS>ATOM
  1 CL       0.2460    -0.4910     1.3280 Cl    1 <1>  -0.1770 
  2 C        1.0150    -1.2800    -0.0370 C.ar  1 <1>   0.1770 
  3 C        0.4870    -2.4640    -0.5690 C.ar  1 <1>   0.1000 
  4 C        2.1500    -0.6910    -0.5610 C.ar  1 <1>  -0.1500 
  5 N       -0.6570    -3.1070    -0.0840 N.pl3 1 <1>  -0.8380 
  6 C        1.1490    -3.0320    -1.6500 C.ar  1 <1>  -0.1500 
  7 C        2.7910    -1.2780    -1.6390 C.ar  1 <1>  -0.1500 
  8 C       -1.9460    -2.4220    -0.3340 C.3   1 <1>   0.2090 
  9 C       -0.5330    -3.7510     1.2430 C.3   1 <1>   0.2090 
 10 C        2.2870    -2.4490    -2.1810 C.ar  1 <1>  -0.1500 
 11 C       -3.0550    -3.4650    -0.2520 C.3   1 <1>  -0.1600 
 12 C       -1.6220    -4.8120     1.3560 C.3   1 <1>  -0.1600 
 13 C       -2.9950    -4.1810     1.1080 C.3   1 <1>   0.4230 
 14 N       -4.0520    -5.2230     1.2640 N.4   1 <1>  -0.9590 
 15 C       -5.4320    -4.6660     1.3320 C.3   1 <1>   0.3430 
 16 C       -4.0990    -6.2530     0.1950 C.3   1 <1>   0.3430 
 17 C       -6.3880    -5.7590     0.8450 C.3   1 <1>  -0.0800 
 18 C       -5.4650    -6.9000     0.3570 C.3   1 <1>  -0.0800 
 19 C       -7.3730    -5.2380    -0.2330 C.3   1 <1>   0.2800 
 20 C       -5.9120    -7.6030    -0.9360 C.3   1 <1>  -0.1600 
 21 O       -6.6120    -4.6340    -1.2170 O.3   1 <1>  -0.6800 
 22 C       -8.1550    -6.4040    -0.8870 C.3   1 <1>  -0.1600 
 23 C       -8.3940    -4.1860     0.2710 C.3   1 <1>  -0.1600 
 24 C       -7.4300    -7.7630    -0.9490 C.3   1 <1>  -0.1600 
 25 C       -7.8700    -2.8080     0.7190 C.3   1 <1>  -0.2400 
 26 H        2.5270     0.2170    -0.1280 H     1 <1>   0.1500 
 27 H        0.7610    -3.9400    -2.0730 H     1 <1>   0.1500 
 28 H        3.6760    -0.8270    -2.0540 H     1 <1>   0.1500 
 29 H       -2.0970    -1.6460     0.3980 H     1 <1>   0.0800 
 30 H       -1.9310    -1.9710    -1.3130 H     1 <1>   0.0800 
 31 H        0.4410    -4.2040     1.3340 H     1 <1>   0.0800 
 32 H       -0.6390    -3.0120     2.0200 H     1 <1>   0.0800 
 33 H        2.7820    -2.9080    -3.0200 H     1 <1>   0.1500 
 34 H       -2.9070    -4.1520    -1.0640 H     1 <1>   0.0800 
 35 H       -3.9960    -2.9680    -0.3880 H     1 <1>   0.0800 
 36 H       -1.5800    -5.2420     2.3400 H     1 <1>   0.0800 
 37 H       -1.4150    -5.5780     0.6300 H     1 <1>   0.0800 
 38 H       -3.1430    -3.4330     1.8710 H     1 <1>   0.0800 
 39 H       -3.8800    -5.7170     2.1460 H     1 <1>   0.4500 
 40 H       -5.6770    -4.3530     2.3340 H     1 <1>   0.0800 
 41 H       -5.5120    -3.8170     0.6750 H     1 <1>   0.0800 
 42 H       -4.0550    -5.7830    -0.7730 H     1 <1>   0.0800 
 43 H       -3.2990    -6.9700     0.2860 H     1 <1>   0.0800 
 44 H       -6.9690    -6.1160     1.6760 H     1 <1>   0.0800 
 45 H       -5.3980    -7.6380     1.1380 H     1 <1>   0.0800 
 46 H       -5.6210    -7.0310    -1.8020 H     1 <1>   0.0800 
 47 H       -5.4420    -8.5690    -1.0110 H     1 <1>   0.0800 
 48 H       -7.1980    -4.3600    -1.9500 H     1 <1>   0.4000 
 49 H       -9.0650    -6.5700    -0.3360 H     1 <1>   0.0800 
 50 H       -8.4540    -6.1170    -1.8810 H     1 <1>   0.0800 
 51 H       -9.1070    -4.0150    -0.5170 H     1 <1>   0.0800 
 52 H       -8.9510    -4.6120     1.0880 H     1 <1>   0.0800 
 53 H       -7.7210    -8.3600    -0.1010 H     1 <1>   0.0800 
 54 H       -7.7350    -8.2940    -1.8350 H     1 <1>   0.0800 
 55 H       -7.2240    -2.3750    -0.0250 H     1 <1>   0.0800 
 56 H       -7.3520    -2.8660     1.6570 H     1 <1>   0.0800 
 57 H       -8.7040    -2.1410     0.8570 H     1 <1>   0.0800 
@<TRIPOS>BOND
  1   1   2  1   
  2   2   3  ar  
  3   2   4  ar  
  4   3   5  1   
  5   3   6  ar  
  6   4   7  ar  
  7   4  26  1   
  8   5   8  1   
  9   5   9  1   
 10   6  10  ar  
 11   6  27  1   
 12   7  10  ar  
 13   7  28  1   
 14   8  11  1   
 15   8  29  1   
 16   8  30  1   
 17   9  12  1   
 18   9  31  1   
 19   9  32  1   
 20  10  33  1   
 21  11  13  1   
 22  11  34  1   
 23  11  35  1   
 24  12  13  1   
 25  12  36  1   
 26  12  37  1   
 27  13  14  1   
 28  13  38  1   
 29  14  15  1   
 30  14  16  1   
 31  14  39  1   
 32  15  17  1   
 33  15  40  1   
 34  15  41  1   
 35  16  18  1   
 36  16  42  1   
 37  16  43  1   
 38  17  18  1   
 39  17  19  1   
 40  17  44  1   
 41  18  20  1   
 42  18  45  1   
 43  19  21  1   
 44  19  22  1   
 45  19  23  1   
 46  20  24  1   
 47  20  46  1   
 48  20  47  1   
 49  21  48  1   
 50  22  24  1   
 51  22  49  1   
 52  22  50  1   
 53  23  25  1   
 54  23  51  1   
 55  23  52  1   
 56  24  53  1   
 57  24  54  1   
 58  25  55  1   
 59  25  56  1   
 60  25  57  1   
@<TRIPOS>SUBSTRUCTURE
  1 ****  11 GROUP 4 **** **** 0

# MOE 2024.06 (io_trps.svl 2023.06)
