@<TRIPOS>MOLECULE
NONAME
44 46 1 0 0 
SMALL
USER_CHARGES


@<TRIPOS>ATOM
  1 F       -1.3380     0.5240    -0.7240 F     1 <1>  -0.1900 
  2 C       -2.0730    -0.4790    -0.2970 C.ar  1 <1>   0.1900 
  3 C       -3.0500    -0.3530     0.6860 C.ar  1 <1>   0.3920 
  4 C       -1.8640    -1.7140    -0.8550 C.ar  1 <1>   0.1600 
  5 O       -3.3830     0.7890     1.3310 O.3   1 <1>  -0.3630 
  6 N       -3.7510    -1.4000     1.0670 N.ar  1 <1>  -0.6200 
  7 N       -2.5610    -2.7690    -0.4820 N.ar  1 <1>  -0.6200 
  8 C       -2.7470     2.0340     1.1410 C.3   1 <1>   0.0400 
  9 C       -3.4620    -2.5410     0.4700 C.ar  1 <1>   0.7200 
 10 N       -4.2020    -3.5830     0.9070 N.pl3 1 <1>  -0.8690 
 11 C       -4.4770    -4.7720     0.1040 C.3   1 <1>   0.2890 
 12 C       -5.9080    -5.2280     0.3690 C.3   1 <1>  -0.1600 
 13 C       -3.4760    -5.8550     0.4970 C.3   1 <1>  -0.1600 
 14 C       -6.1880    -6.5470    -0.3430 C.3   1 <1>   0.3430 
 15 C       -3.7880    -7.1620    -0.2190 C.3   1 <1>   0.3430 
 16 N       -5.1890    -7.5750     0.0860 N.4   1 <1>  -0.9590 
 17 C       -5.4930    -8.9210    -0.4820 C.3   1 <1>   0.4860 
 18 C       -6.8550    -9.3670     0.0050 C.ar  1 <1>  -0.1430 
 19 C       -7.0210    -9.7820     1.3180 C.ar  1 <1>   0.1600 
 20 C       -7.9520    -9.3620    -0.8380 C.ar  1 <1>  -0.1500 
 21 N       -8.1700   -10.1540     1.8490 N.ar  1 <1>  -0.6200 
 22 C       -9.1550    -9.7620    -0.2980 C.ar  1 <1>  -0.1500 
 23 C       -9.2110   -10.1420     1.0330 C.ar  1 <1>   0.1600 
 24 H       -1.1140    -1.8340    -1.6180 H     1 <1>   0.1500 
 25 H       -3.2030     2.7450     1.8050 H     1 <1>   0.0800 
 26 H       -2.8860     2.3470     0.1220 H     1 <1>   0.0800 
 27 H       -1.7020     1.9350     1.3770 H     1 <1>   0.0800 
 28 H       -4.9310    -3.2640     1.5460 H     1 <1>   0.4000 
 29 H       -4.3660    -4.5360    -0.9440 H     1 <1>   0.0800 
 30 H       -6.5920    -4.4820     0.0040 H     1 <1>   0.0800 
 31 H       -6.0750    -5.3500     1.4250 H     1 <1>   0.0800 
 32 H       -3.4920    -6.0090     1.5610 H     1 <1>   0.0800 
 33 H       -2.4870    -5.5350     0.2220 H     1 <1>   0.0800 
 34 H       -6.1310    -6.4020    -1.4100 H     1 <1>   0.0800 
 35 H       -7.1870    -6.8740    -0.0980 H     1 <1>   0.0800 
 36 H       -3.0950    -7.9210     0.1090 H     1 <1>   0.0800 
 37 H       -3.6670    -7.0270    -1.2820 H     1 <1>   0.0800 
 38 H       -5.2750    -7.6540     1.1090 H     1 <1>   0.4500 
 39 H       -4.7510    -9.6350    -0.1630 H     1 <1>   0.0800 
 40 H       -5.4850    -8.8810    -1.5590 H     1 <1>   0.0800 
 41 H       -6.1720    -9.8110     1.9800 H     1 <1>   0.1500 
 42 H       -7.8910    -9.0660    -1.8720 H     1 <1>   0.1500 
 43 H      -10.0490    -9.7850    -0.8970 H     1 <1>   0.1500 
 44 H      -10.1580   -10.4520     1.4450 H     1 <1>   0.1500 
@<TRIPOS>BOND
  1   1   2  1   
  2   2   3  ar  
  3   2   4  ar  
  4   3   5  1   
  5   3   6  ar  
  6   4   7  ar  
  7   4  24  1   
  8   5   8  1   
  9   6   9  ar  
 10   7   9  ar  
 11   8  25  1   
 12   8  26  1   
 13   8  27  1   
 14   9  10  1   
 15  10  11  1   
 16  10  28  1   
 17  11  12  1   
 18  11  13  1   
 19  11  29  1   
 20  12  14  1   
 21  12  30  1   
 22  12  31  1   
 23  13  15  1   
 24  13  32  1   
 25  13  33  1   
 26  14  16  1   
 27  14  34  1   
 28  14  35  1   
 29  15  16  1   
 30  15  36  1   
 31  15  37  1   
 32  16  17  1   
 33  16  38  1   
 34  17  18  1   
 35  17  39  1   
 36  17  40  1   
 37  18  19  ar  
 38  18  20  ar  
 39  19  21  ar  
 40  19  41  1   
 41  20  22  ar  
 42  20  42  1   
 43  21  23  ar  
 44  22  23  ar  
 45  22  43  1   
 46  23  44  1   
@<TRIPOS>SUBSTRUCTURE
  1 ****  11 GROUP 4 **** **** 0

# MOE 2024.06 (io_trps.svl 2023.06)
