@<TRIPOS>MOLECULE
NONAME
24 24 1 0 0 
SMALL
USER_CHARGES


@<TRIPOS>ATOM
  1 O       -9.6840    -3.2660     0.1070 O.2   1 <1>  -0.5700 
  2 C       -9.7340    -2.0640     0.1330 C.2   1 <1>   0.6590 
  3 O      -10.8680    -1.3870     0.0830 O.3   1 <1>  -0.4300 
  4 C       -8.4690    -1.2370     0.2390 C.3   1 <1>  -0.0990 
  5 C      -12.1140    -2.0400    -0.0060 C.3   1 <1>   0.1200 
  6 C       -7.2830    -1.9140    -0.4760 C.3   1 <1>   0.0000 
  7 C      -13.2030    -0.9730    -0.0460 C.3   1 <1>  -0.2400 
  8 C       -6.8090    -3.2520     0.1420 C.3   1 <1>   0.4720 
  9 C       -5.8880    -1.3780    -0.0880 C.3   1 <1>   0.4720 
 10 N       -5.4080    -2.7970    -0.1320 N.4   1 <1>  -0.8440 
 11 H       -8.2570    -1.0940     1.2830 H     1 <1>   0.0800 
 12 H       -8.6520    -0.2740    -0.2020 H     1 <1>   0.0800 
 13 H      -12.2300    -2.6770     0.8550 H     1 <1>   0.0800 
 14 H      -12.1260    -2.6370    -0.9020 H     1 <1>   0.0800 
 15 H       -7.4170    -1.9820    -1.5430 H     1 <1>   0.0000 
 16 H      -13.1760    -0.3790     0.8490 H     1 <1>   0.0800 
 17 H      -14.1680    -1.4440    -0.1140 H     1 <1>   0.0800 
 18 H      -13.0720    -0.3390    -0.9050 H     1 <1>   0.0800 
 19 H       -7.0760    -4.1260    -0.4240 H     1 <1>   0.0000 
 20 H       -6.9940    -3.3210     1.1990 H     1 <1>   0.0000 
 21 H       -5.8460    -0.9860     0.9130 H     1 <1>   0.0000 
 22 H       -5.4210    -0.7630    -0.8360 H     1 <1>   0.0000 
 23 H       -5.0940    -3.0780    -1.0670 H     1 <1>   0.4500 
 24 H       -4.7460    -3.0420     0.6110 H     1 <1>   0.4500 
@<TRIPOS>BOND
  1   1   2  2   
  2   2   3  1   
  3   2   4  1   
  4   3   5  1   
  5   4   6  1   
  6   4  11  1   
  7   4  12  1   
  8   5   7  1   
  9   5  13  1   
 10   5  14  1   
 11   6   8  1   
 12   6   9  1   
 13   6  15  1   
 14   7  16  1   
 15   7  17  1   
 16   7  18  1   
 17   8  10  1   
 18   8  19  1   
 19   8  20  1   
 20   9  10  1   
 21   9  21  1   
 22   9  22  1   
 23  10  23  1   
 24  10  24  1   
@<TRIPOS>SUBSTRUCTURE
  1 ****   2 GROUP 4 **** **** 0

# MOE 2024.06 (io_trps.svl 2023.06)
