@<TRIPOS>MOLECULE
NONAME
52 53 1 0 0 
SMALL
USER_CHARGES


@<TRIPOS>ATOM
  1 S        1.7650     1.4970    -0.0880 S.o2  1 <1>   1.4470 
  2 O        2.8380     2.3590    -0.5160 O.2   1 <1>  -0.6500 
  3 O        0.8820     1.8910     0.9810 O.2   1 <1>  -0.6500 
  4 N        0.7560     1.4950    -1.3980 N.am  1 <1>  -0.9780 
  5 C        2.3020    -0.2300     0.0590 C.ar  1 <1>  -0.0090 
  6 C        1.5440    -1.1680     0.7450 C.ar  1 <1>  -0.1500 
  7 C        3.4820    -0.6650    -0.5330 C.ar  1 <1>  -0.1500 
  8 C        1.9190    -2.5060     0.8640 C.ar  1 <1>   0.0860 
  9 C        3.8920    -1.9800    -0.4290 C.ar  1 <1>  -0.1500 
 10 C        3.1250    -2.9050     0.2730 C.ar  1 <1>   0.0830 
 11 C        1.0700    -3.4120     1.6120 C.2   1 <1>   0.5440 
 12 O        3.5100    -4.1960     0.4130 O.3   1 <1>  -0.3630 
 13 O        0.8230    -3.1390     2.7720 O.2   1 <1>  -0.5700 
 14 N        0.4920    -4.5430     1.0590 N.am  1 <1>  -0.6600 
 15 C        4.7830    -4.6620     0.0180 C.3   1 <1>   0.0400 
 16 C        0.6020    -4.8850    -0.3950 C.3   1 <1>   0.1400 
 17 C       -0.1820    -5.5590     1.9200 C.3   1 <1>   0.1400 
 18 C       -0.7490    -5.3480    -0.9690 C.3   1 <1>   0.2000 
 19 C       -1.5340    -5.9600     1.3160 C.3   1 <1>  -0.1600 
 20 O       -0.5670    -5.7360    -2.2940 O.3   1 <1>  -0.6800 
 21 C       -1.4200    -6.4800    -0.1400 C.3   1 <1>   0.0000 
 22 C       -0.5380    -7.7610    -0.1910 C.3   1 <1>   0.1200 
 23 C       -2.8310    -6.8400    -0.6950 C.3   1 <1>  -0.1600 
 24 O       -1.0510    -8.7710     0.6100 O.3   1 <1>  -0.6800 
 25 C       -3.8330    -5.6800    -0.8510 C.3   1 <1>  -0.1600 
 26 C       -5.1830    -6.1960    -1.3580 C.3   1 <1>  -0.2400 
 27 H        1.1170     2.2560    -1.9690 H     1 <1>   0.4200 
 28 H       -0.1250     1.8250    -1.0110 H     1 <1>   0.4200 
 29 H        0.6260    -0.8560     1.2160 H     1 <1>   0.1500 
 30 H        4.0880     0.0390    -1.0800 H     1 <1>   0.1500 
 31 H        4.8150    -2.2640    -0.9000 H     1 <1>   0.1500 
 32 H        4.8640    -5.6940     0.3080 H     1 <1>   0.0800 
 33 H        5.5380    -4.0830     0.5200 H     1 <1>   0.0800 
 34 H        4.8730    -4.5740    -1.0500 H     1 <1>   0.0800 
 35 H        0.9220    -4.0250    -0.9530 H     1 <1>   0.0800 
 36 H        1.3430    -5.6560    -0.5100 H     1 <1>   0.0800 
 37 H        0.4620    -6.4140     2.0200 H     1 <1>   0.0800 
 38 H       -0.3490    -5.1670     2.9090 H     1 <1>   0.0800 
 39 H       -1.3900    -4.4850    -0.9880 H     1 <1>   0.0800 
 40 H       -1.9960    -6.6980     1.9450 H     1 <1>   0.0800 
 41 H       -2.1610    -5.0880     1.3500 H     1 <1>   0.0800 
 42 H       -0.1630    -6.6210    -2.3490 H     1 <1>   0.4000 
 43 H        0.4670    -7.5690     0.1390 H     1 <1>   0.0800 
 44 H       -0.4950    -8.1500    -1.1930 H     1 <1>   0.0800 
 45 H       -2.7110    -7.3010    -1.6600 H     1 <1>   0.0800 
 46 H       -3.2760    -7.5810    -0.0530 H     1 <1>   0.0800 
 47 H       -1.1580    -8.4630     1.5300 H     1 <1>   0.4000 
 48 H       -3.9900    -5.1830     0.0890 H     1 <1>   0.0800 
 49 H       -3.4600    -4.9600    -1.5580 H     1 <1>   0.0800 
 50 H       -5.6020    -6.9030    -0.6640 H     1 <1>   0.0800 
 51 H       -5.0660    -6.6750    -2.3150 H     1 <1>   0.0800 
 52 H       -5.8720    -5.3770    -1.4690 H     1 <1>   0.0800 
@<TRIPOS>BOND
  1   1   2  2   
  2   1   3  2   
  3   1   4  am  
  4   1   5  1   
  5   4  27  1   
  6   4  28  1   
  7   5   6  ar  
  8   5   7  ar  
  9   6   8  ar  
 10   6  29  1   
 11   7   9  ar  
 12   7  30  1   
 13   8  10  ar  
 14   8  11  1   
 15   9  10  ar  
 16   9  31  1   
 17  10  12  1   
 18  11  13  2   
 19  11  14  am  
 20  12  15  1   
 21  14  16  1   
 22  14  17  1   
 23  15  32  1   
 24  15  33  1   
 25  15  34  1   
 26  16  18  1   
 27  16  35  1   
 28  16  36  1   
 29  17  19  1   
 30  17  37  1   
 31  17  38  1   
 32  18  20  1   
 33  18  21  1   
 34  18  39  1   
 35  19  21  1   
 36  19  40  1   
 37  19  41  1   
 38  20  42  1   
 39  21  22  1   
 40  21  23  1   
 41  22  24  1   
 42  22  43  1   
 43  22  44  1   
 44  23  25  1   
 45  23  45  1   
 46  23  46  1   
 47  24  47  1   
 48  25  26  1   
 49  25  48  1   
 50  25  49  1   
 51  26  50  1   
 52  26  51  1   
 53  26  52  1   
@<TRIPOS>SUBSTRUCTURE
  1 ****  14 GROUP 4 **** **** 0

# MOE 2024.06 (io_trps.svl 2023.06)
