@<TRIPOS>MOLECULE
NONAME
64 67 1 0 0 
SMALL
USER_CHARGES


@<TRIPOS>ATOM
  1 O        0.8120    -1.0550    -1.6310 O.2   1 <1>  -0.5700 
  2 C        1.6850    -1.2690    -0.8200 C.2   1 <1>   0.5690 
  3 N        2.8610    -0.5580    -0.8220 N.am  1 <1>  -0.6600 
  4 C        1.4430    -2.3550     0.2210 C.3   1 <1>  -0.0990 
  5 C        3.9910    -0.7880     0.1180 C.3   1 <1>   0.1400 
  6 C        3.0610     0.5530    -1.7930 C.3   1 <1>   0.1400 
  7 C        0.0220    -2.9550     0.1820 C.3   1 <1>  -0.0990 
  8 C        4.1530     0.3830     1.0940 C.3   1 <1>  -0.1600 
  9 C        2.6380     1.8760    -1.1490 C.3   1 <1>  -0.1600 
 10 C       -0.2280    -4.0320     1.2280 C.2   1 <1>   0.5690 
 11 C        4.7290     1.6450     0.4310 C.3   1 <1>  -0.1600 
 12 C        3.6890     2.5530    -0.2470 C.3   1 <1>  -0.1600 
 13 O        0.6710    -4.3120     1.9880 O.2   1 <1>  -0.5700 
 14 N       -1.4490    -4.6570     1.2900 N.am  1 <1>  -0.6600 
 15 C       -1.7170    -5.7440     2.2750 C.3   1 <1>   0.1400 
 16 C       -2.6170    -4.3610     0.4120 C.3   1 <1>   0.1400 
 17 C       -2.0980    -7.0260     1.5290 C.3   1 <1>  -0.1600 
 18 C       -2.9930    -5.6220    -0.3690 C.3   1 <1>  -0.1600 
 19 C       -3.2810    -6.8110     0.5680 C.3   1 <1>   0.4240 
 20 O       -4.3340    -6.4100     1.4190 O.3   1 <1>  -0.5600 
 21 C       -3.6360    -8.1140    -0.2080 C.ar  1 <1>  -0.1440 
 22 C       -5.6370    -6.5560     0.9570 C.3   1 <1>   0.1200 
 23 C       -2.7270    -8.7410    -1.0710 C.ar  1 <1>   0.0820 
 24 C       -4.8970    -8.6910    -0.0550 C.ar  1 <1>  -0.1440 
 25 C       -5.9310    -8.0430     0.8420 C.3   1 <1>  -0.0170 
 26 O       -1.5010    -8.1830    -1.2540 O.3   1 <1>  -0.3620 
 27 C       -3.0820    -9.9140    -1.7340 C.ar  1 <1>  -0.1500 
 28 C       -5.2380    -9.8580    -0.7170 C.ar  1 <1>  -0.1500 
 29 C       -0.4780    -8.8070    -1.9990 C.3   1 <1>   0.0400 
 30 C       -4.3310   -10.4720    -1.5560 C.ar  1 <1>  -0.1500 
 31 H        1.6090    -1.9350     1.1960 H     1 <1>   0.0800 
 32 H        2.1560    -3.1430     0.0610 H     1 <1>   0.0800 
 33 H        4.8970    -0.9220    -0.4480 H     1 <1>   0.0800 
 34 H        3.8390    -1.6900     0.6820 H     1 <1>   0.0800 
 35 H        2.4530     0.3770    -2.6650 H     1 <1>   0.0800 
 36 H        4.0860     0.5910    -2.1180 H     1 <1>   0.0800 
 37 H       -0.1460    -3.3840    -0.7890 H     1 <1>   0.0800 
 38 H       -0.6880    -2.1640     0.3340 H     1 <1>   0.0800 
 39 H        4.8450     0.0680     1.8550 H     1 <1>   0.0800 
 40 H        3.2180     0.5960     1.5810 H     1 <1>   0.0800 
 41 H        1.7360     1.7060    -0.5880 H     1 <1>   0.0800 
 42 H        2.3840     2.5650    -1.9350 H     1 <1>   0.0800 
 43 H        5.4820     1.3630    -0.2840 H     1 <1>   0.0800 
 44 H        5.2250     2.2300     1.1870 H     1 <1>   0.0800 
 45 H        3.1640     3.1040     0.5140 H     1 <1>   0.0800 
 46 H        4.2270     3.2760    -0.8360 H     1 <1>   0.0800 
 47 H       -2.5210    -5.4410     2.9230 H     1 <1>   0.0800 
 48 H       -0.8510    -5.9290     2.8860 H     1 <1>   0.0800 
 49 H       -2.4030    -3.5650    -0.2780 H     1 <1>   0.0800 
 50 H       -3.4450    -4.0490     1.0260 H     1 <1>   0.0800 
 51 H       -2.3550    -7.7950     2.2340 H     1 <1>   0.0800 
 52 H       -1.2280    -7.3600     0.9990 H     1 <1>   0.0800 
 53 H       -2.1770    -5.8530    -1.0240 H     1 <1>   0.0800 
 54 H       -3.8450    -5.4300    -0.9920 H     1 <1>   0.0800 
 55 H       -5.7390    -6.0620     0.0070 H     1 <1>   0.0800 
 56 H       -6.2950    -6.0940     1.6720 H     1 <1>   0.0800 
 57 H       -6.9170    -8.1770     0.4350 H     1 <1>   0.0800 
 58 H       -5.9010    -8.4930     1.8180 H     1 <1>   0.0800 
 59 H       -2.4030   -10.4110    -2.3980 H     1 <1>   0.1500 
 60 H       -6.2120   -10.2950    -0.5830 H     1 <1>   0.1500 
 61 H        0.4010    -8.1910    -1.9370 H     1 <1>   0.0800 
 62 H       -0.7940    -8.8910    -3.0230 H     1 <1>   0.0800 
 63 H       -0.2770    -9.7740    -1.5730 H     1 <1>   0.0800 
 64 H       -4.5990   -11.3790    -2.0690 H     1 <1>   0.1500 
@<TRIPOS>BOND
  1   1   2  2   
  2   2   3  am  
  3   2   4  1   
  4   3   5  1   
  5   3   6  1   
  6   4   7  1   
  7   4  31  1   
  8   4  32  1   
  9   5   8  1   
 10   5  33  1   
 11   5  34  1   
 12   6   9  1   
 13   6  35  1   
 14   6  36  1   
 15   7  10  1   
 16   7  37  1   
 17   7  38  1   
 18   8  11  1   
 19   8  39  1   
 20   8  40  1   
 21   9  12  1   
 22   9  41  1   
 23   9  42  1   
 24  10  13  2   
 25  10  14  am  
 26  11  12  1   
 27  11  43  1   
 28  11  44  1   
 29  12  45  1   
 30  12  46  1   
 31  14  15  1   
 32  14  16  1   
 33  15  17  1   
 34  15  47  1   
 35  15  48  1   
 36  16  18  1   
 37  16  49  1   
 38  16  50  1   
 39  17  19  1   
 40  17  51  1   
 41  17  52  1   
 42  18  19  1   
 43  18  53  1   
 44  18  54  1   
 45  19  20  1   
 46  19  21  1   
 47  20  22  1   
 48  21  23  ar  
 49  21  24  ar  
 50  22  25  1   
 51  22  55  1   
 52  22  56  1   
 53  23  26  1   
 54  23  27  ar  
 55  24  25  1   
 56  24  28  ar  
 57  25  57  1   
 58  25  58  1   
 59  26  29  1   
 60  27  30  ar  
 61  27  59  1   
 62  28  30  ar  
 63  28  60  1   
 64  29  61  1   
 65  29  62  1   
 66  29  63  1   
 67  30  64  1   
@<TRIPOS>SUBSTRUCTURE
  1 ****  14 GROUP 4 **** **** 0

# MOE 2024.06 (io_trps.svl 2023.06)
