@<TRIPOS>MOLECULE
NONAME
66 69 1 0 0 
SMALL
USER_CHARGES


@<TRIPOS>ATOM
  1 CL      -2.4220     0.3490     3.7040 Cl    1 <1>  -0.1770 
  2 C       -3.2590     0.8400     2.2530 C.ar  1 <1>   0.1770 
  3 C       -4.4470     0.2250     1.9170 C.ar  1 <1>  -0.1500 
  4 C       -2.7150     1.8370     1.4650 C.ar  1 <1>  -0.1500 
  5 C       -5.1200     0.6070     0.7660 C.ar  1 <1>   0.1000 
  6 C       -3.3810     2.2250     0.3140 C.ar  1 <1>  -0.1500 
  7 N       -6.3170    -0.0150     0.4330 N.pl3 1 <1>  -0.8380 
  8 C       -4.5740     1.6120    -0.0300 C.ar  1 <1>  -0.1500 
  9 C       -6.2930    -0.9130    -0.7560 C.3   1 <1>   0.2090 
 10 C       -7.5540     0.8010     0.5760 C.3   1 <1>   0.2090 
 11 C       -7.5600    -1.7930    -0.7930 C.3   1 <1>   0.3430 
 12 C       -8.8090    -0.0990     0.5200 C.3   1 <1>   0.3430 
 13 N       -8.8450    -0.9900    -0.7100 N.4   1 <1>  -0.9590 
 14 C      -10.0270    -1.9010    -0.7370 C.3   1 <1>   0.3430 
 15 C      -11.3240    -1.1290    -1.0070 C.3   1 <1>  -0.1600 
 16 C      -12.5080    -2.0960    -1.1440 C.3   1 <1>   0.3430 
 17 N      -13.7820    -1.3530    -1.3080 N.4   1 <1>  -0.9590 
 18 C      -14.9650    -2.2160    -1.0290 C.3   1 <1>   0.3430 
 19 C      -13.9300    -0.6150    -2.6080 C.3   1 <1>   0.3430 
 20 C      -16.1840    -1.3120    -0.7240 C.3   1 <1>   0.0000 
 21 C      -15.4020    -0.3430    -2.9600 C.3   1 <1>  -0.1600 
 22 C      -16.1320    -0.8260     0.7360 C.3   1 <1>   0.2000 
 23 C      -16.2740    -0.1200    -1.7140 C.3   1 <1>  -0.1600 
 24 C      -17.4480    -2.1830    -0.7210 C.3   1 <1>  -0.1600 
 25 O      -14.8290    -0.4380     1.0850 O.3   1 <1>  -0.5600 
 26 C      -16.6210    -2.0070     1.5820 C.3   1 <1>  -0.1600 
 27 C      -17.4410    -2.8960     0.6350 C.3   1 <1>  -0.1600 
 28 C      -14.7600     0.2940     2.2740 C.3   1 <1>   0.0400 
 29 H       -4.8480    -0.5470     2.5450 H     1 <1>   0.1500 
 30 H       -1.7870     2.3000     1.7510 H     1 <1>   0.1500 
 31 H       -2.9690     3.0000    -0.3090 H     1 <1>   0.1500 
 32 H       -5.0850     1.9180    -0.9240 H     1 <1>   0.1500 
 33 H       -6.2220    -0.3250    -1.6550 H     1 <1>   0.0800 
 34 H       -5.4200    -1.5430    -0.7040 H     1 <1>   0.0800 
 35 H       -7.5270     1.3180     1.5210 H     1 <1>   0.0800 
 36 H       -7.5940     1.5410    -0.2040 H     1 <1>   0.0800 
 37 H       -7.5080    -2.4770     0.0380 H     1 <1>   0.0800 
 38 H       -7.5480    -2.3760    -1.6990 H     1 <1>   0.0800 
 39 H       -9.6830     0.5290     0.5480 H     1 <1>   0.0800 
 40 H       -8.8130    -0.7110     1.4070 H     1 <1>   0.0800 
 41 H       -8.8580    -0.3750    -1.5340 H     1 <1>   0.4500 
 42 H       -9.8880    -2.6330    -1.5180 H     1 <1>   0.0800 
 43 H      -10.0980    -2.4290     0.2020 H     1 <1>   0.0800 
 44 H      -11.5230    -0.4590    -0.1890 H     1 <1>   0.0800 
 45 H      -11.2160    -0.5680    -1.9180 H     1 <1>   0.0800 
 46 H      -12.5710    -2.7020    -0.2540 H     1 <1>   0.0800 
 47 H      -12.3610    -2.7540    -1.9870 H     1 <1>   0.0800 
 48 H      -13.8710    -0.6610    -0.5330 H     1 <1>   0.4500 
 49 H      -15.1750    -2.8390    -1.8830 H     1 <1>   0.0800 
 50 H      -14.7780    -2.8510    -0.1780 H     1 <1>   0.0800 
 51 H      -13.4090     0.3270    -2.5370 H     1 <1>   0.0800 
 52 H      -13.4850    -1.1820    -3.4100 H     1 <1>   0.0800 
 53 H      -15.4570     0.5190    -3.6030 H     1 <1>   0.0800 
 54 H      -15.7900    -1.1750    -3.5220 H     1 <1>   0.0800 
 55 H      -16.8010     0.0120     0.8580 H     1 <1>   0.0800 
 56 H      -17.2940     0.0570    -2.0130 H     1 <1>   0.0800 
 57 H      -15.9330     0.7800    -1.2280 H     1 <1>   0.0800 
 58 H      -18.3250    -1.5570    -0.7670 H     1 <1>   0.0800 
 59 H      -17.4840    -2.8770    -1.5440 H     1 <1>   0.0800 
 60 H      -15.7920    -2.5650     1.9820 H     1 <1>   0.0800 
 61 H      -17.2350    -1.6540     2.3910 H     1 <1>   0.0800 
 62 H      -16.9750    -3.8640     0.5470 H     1 <1>   0.0800 
 63 H      -18.4460    -3.0360     1.0000 H     1 <1>   0.0800 
 64 H      -13.7340     0.5600     2.4540 H     1 <1>   0.0800 
 65 H      -15.1220    -0.3060     3.0920 H     1 <1>   0.0800 
 66 H      -15.3520     1.1890     2.1800 H     1 <1>   0.0800 
@<TRIPOS>BOND
  1   1   2  1   
  2   2   3  ar  
  3   2   4  ar  
  4   3   5  ar  
  5   3  29  1   
  6   4   6  ar  
  7   4  30  1   
  8   5   7  1   
  9   5   8  ar  
 10   6   8  ar  
 11   6  31  1   
 12   7   9  1   
 13   7  10  1   
 14   8  32  1   
 15   9  11  1   
 16   9  33  1   
 17   9  34  1   
 18  10  12  1   
 19  10  35  1   
 20  10  36  1   
 21  11  13  1   
 22  11  37  1   
 23  11  38  1   
 24  12  13  1   
 25  12  39  1   
 26  12  40  1   
 27  13  14  1   
 28  13  41  1   
 29  14  15  1   
 30  14  42  1   
 31  14  43  1   
 32  15  16  1   
 33  15  44  1   
 34  15  45  1   
 35  16  17  1   
 36  16  46  1   
 37  16  47  1   
 38  17  18  1   
 39  17  19  1   
 40  17  48  1   
 41  18  20  1   
 42  18  49  1   
 43  18  50  1   
 44  19  21  1   
 45  19  51  1   
 46  19  52  1   
 47  20  22  1   
 48  20  23  1   
 49  20  24  1   
 50  21  23  1   
 51  21  53  1   
 52  21  54  1   
 53  22  25  1   
 54  22  26  1   
 55  22  55  1   
 56  23  56  1   
 57  23  57  1   
 58  24  27  1   
 59  24  58  1   
 60  24  59  1   
 61  25  28  1   
 62  26  27  1   
 63  26  60  1   
 64  26  61  1   
 65  27  62  1   
 66  27  63  1   
 67  28  64  1   
 68  28  65  1   
 69  28  66  1   
@<TRIPOS>SUBSTRUCTURE
  1 ****  15 GROUP 4 **** **** 0

# MOE 2024.06 (io_trps.svl 2023.06)
