@<TRIPOS>MOLECULE
NONAME
47 50 1 0 0 
SMALL
USER_CHARGES


@<TRIPOS>ATOM
  1 CL       1.9780    -4.8360     1.1040 Cl    1 <1>  -0.1230 
  2 C        0.2520    -5.0440     0.8720 C.2   1 <1>   0.1230 
  3 C       -0.7400    -4.2030     1.3500 C.2   1 <1>   0.1390 
  4 C       -0.3720    -6.0330     0.2080 C.2   1 <1>  -0.3020 
  5 N       -1.9230    -4.6330     1.0100 N.2   1 <1>  -0.7070 
  6 N       -1.6910    -5.7630     0.3030 N.pl3 1 <1>   0.3140 
  7 C       -2.7910    -6.5550    -0.2670 C.3   1 <1>   0.0960 
  8 C       -4.0750    -6.2660     0.5200 C.3   1 <1>   0.3430 
  9 N       -5.2250    -7.0810     0.0230 N.4   1 <1>  -0.9590 
 10 C       -5.7650    -6.7140    -1.3220 C.3   1 <1>   0.3430 
 11 C       -6.3970    -7.1430     0.9300 C.3   1 <1>   0.3430 
 12 C       -7.2280    -7.1840    -1.3270 C.3   1 <1>   0.2000 
 13 C       -7.5060    -7.7560     0.0710 C.3   1 <1>  -0.0800 
 14 O       -8.0600    -6.0930    -1.5480 O.3   1 <1>  -0.6800 
 15 C       -7.5060    -9.3090     0.0950 C.3   1 <1>  -0.0160 
 16 C       -6.1250    -9.9640     0.1110 C.ar  1 <1>   0.1670 
 17 N       -5.3460    -9.7700    -0.9120 N.ar  1 <1>  -0.6200 
 18 C       -5.7440   -10.7150     1.2350 C.ar  1 <1>  -0.1500 
 19 C       -4.1140   -10.3460    -0.8990 C.ar  1 <1>   0.3100 
 20 C       -4.5020   -11.2700     1.2920 C.ar  1 <1>  -0.1500 
 21 C       -3.6340   -11.0810     0.2050 C.ar  1 <1>   0.0000 
 22 C       -3.2720   -10.1740    -2.0090 C.ar  1 <1>  -0.1500 
 23 C       -2.3200   -11.5880     0.1690 C.ar  1 <1>  -0.1500 
 24 C       -1.9980   -10.6770    -2.0240 C.ar  1 <1>  -0.1500 
 25 C       -1.5170   -11.3870    -0.9200 C.ar  1 <1>  -0.1500 
 26 H       -0.5570    -3.3110     1.9260 H     1 <1>   0.1500 
 27 H        0.0440    -6.8790    -0.3070 H     1 <1>   0.1500 
 28 H       -2.9050    -6.2720    -1.2960 H     1 <1>   0.0800 
 29 H       -2.5330    -7.5950    -0.1970 H     1 <1>   0.0800 
 30 H       -4.3100    -5.2160     0.4470 H     1 <1>   0.0800 
 31 H       -3.8930    -6.4970     1.5570 H     1 <1>   0.0800 
 32 H       -4.9280    -8.0730    -0.0870 H     1 <1>   0.4500 
 33 H       -5.7240    -5.6490    -1.4760 H     1 <1>   0.0800 
 34 H       -5.2100    -7.2180    -2.0960 H     1 <1>   0.0800 
 35 H       -6.1920    -7.7410     1.8040 H     1 <1>   0.0800 
 36 H       -6.6760    -6.1470     1.2340 H     1 <1>   0.0800 
 37 H       -7.4060    -7.8960    -2.1160 H     1 <1>   0.0800 
 38 H       -8.4700    -7.4300     0.4230 H     1 <1>   0.0800 
 39 H       -8.0920    -5.4690    -0.7970 H     1 <1>   0.4000 
 40 H       -8.0540    -9.6840    -0.7520 H     1 <1>   0.0800 
 41 H       -8.0470    -9.6290     0.9680 H     1 <1>   0.0800 
 42 H       -6.4350   -10.8540     2.0480 H     1 <1>   0.1500 
 43 H       -4.1750   -11.8500     2.1390 H     1 <1>   0.1500 
 44 H       -3.6580    -9.6410    -2.8580 H     1 <1>   0.1500 
 45 H       -1.9570   -12.1440     1.0160 H     1 <1>   0.1500 
 46 H       -1.3570   -10.5440    -2.8810 H     1 <1>   0.1500 
 47 H       -0.5140   -11.7800    -0.9460 H     1 <1>   0.1500 
@<TRIPOS>BOND
  1   1   2  1   
  2   2   3  1   
  3   2   4  2   
  4   3   5  2   
  5   3  26  1   
  6   4   6  1   
  7   4  27  1   
  8   5   6  1   
  9   6   7  1   
 10   7   8  1   
 11   7  28  1   
 12   7  29  1   
 13   8   9  1   
 14   8  30  1   
 15   8  31  1   
 16   9  10  1   
 17   9  11  1   
 18   9  32  1   
 19  10  12  1   
 20  10  33  1   
 21  10  34  1   
 22  11  13  1   
 23  11  35  1   
 24  11  36  1   
 25  12  13  1   
 26  12  14  1   
 27  12  37  1   
 28  13  15  1   
 29  13  38  1   
 30  14  39  1   
 31  15  16  1   
 32  15  40  1   
 33  15  41  1   
 34  16  17  ar  
 35  16  18  ar  
 36  17  19  ar  
 37  18  20  ar  
 38  18  42  1   
 39  19  21  ar  
 40  19  22  ar  
 41  20  21  ar  
 42  20  43  1   
 43  21  23  ar  
 44  22  24  ar  
 45  22  44  1   
 46  23  25  ar  
 47  23  45  1   
 48  24  25  ar  
 49  24  46  1   
 50  25  47  1   
@<TRIPOS>SUBSTRUCTURE
  1 ****   9 GROUP 4 **** **** 0

# MOE 2024.06 (io_trps.svl 2023.06)
