@<TRIPOS>MOLECULE
NONAME
44 46 1 0 0 
SMALL
USER_CHARGES


@<TRIPOS>ATOM
  1 S        0.2050     0.0550     0.1250 S.3   1 <1>  -0.0800 
  2 C        0.6250    -0.6510    -1.4240 C.2   1 <1>   0.4620 
  3 C        0.0010    -1.5510     0.7660 C.2   1 <1>  -0.1100 
  4 N        0.6110    -1.9290    -1.4430 N.2   1 <1>  -0.5650 
  5 N        0.9260     0.1680    -2.4590 N.pl3 1 <1>  -0.8840 
  6 C        0.2570    -2.4410    -0.2090 C.2   1 <1>   0.0460 
  7 C        0.2010    -3.9560    -0.1160 C.3   1 <1>   0.0210 
  8 C       -0.4870    -4.4590     1.1590 C.3   1 <1>  -0.0990 
  9 C       -0.6350    -5.9670     1.1320 C.2   1 <1>   0.5690 
 10 O        0.1520    -6.6200     1.7730 O.2   1 <1>  -0.5700 
 11 N       -1.6240    -6.5570     0.3960 N.am  1 <1>  -0.6600 
 12 C       -2.7070    -5.8930    -0.3780 C.3   1 <1>   0.1400 
 13 C       -1.7600    -8.0330     0.2900 C.3   1 <1>   0.1400 
 14 C       -3.7850    -6.9650    -0.5090 C.3   1 <1>   0.2000 
 15 C       -2.9790    -8.2630    -0.6100 C.3   1 <1>  -0.0800 
 16 O       -4.5270    -6.9680     0.6630 O.3   1 <1>  -0.6800 
 17 C       -3.7520    -9.5560    -0.2920 C.3   1 <1>   0.0210 
 18 C       -2.8470   -10.7660    -0.4140 C.2   1 <1>   0.1080 
 19 N       -2.2370   -11.0820    -1.5140 N.2   1 <1>  -0.7070 
 20 C       -2.5600   -11.6530     0.6190 C.2   1 <1>  -0.1500 
 21 N       -1.5390   -12.1920    -1.2100 N.pl3 1 <1>   0.3000 
 22 C       -1.7170   -12.5560     0.0780 C.2   1 <1>  -0.3320 
 23 C       -1.0600   -13.7640     0.7210 C.3   1 <1>  -0.0600 
 24 H       -0.2870    -1.6430     1.7970 H     1 <1>   0.1500 
 25 H        1.0160     1.1770    -2.3420 H     1 <1>   0.4000 
 26 H        1.2540    -0.2390    -3.3350 H     1 <1>   0.4000 
 27 H       -0.3300    -4.3210    -0.9760 H     1 <1>   0.0800 
 28 H        1.2020    -4.3460    -0.1650 H     1 <1>   0.0800 
 29 H       -1.4530    -4.0050     1.2700 H     1 <1>   0.0800 
 30 H        0.1050    -4.1900     2.0140 H     1 <1>   0.0800 
 31 H       -3.0870    -5.0130     0.1110 H     1 <1>   0.0800 
 32 H       -2.3330    -5.6340    -1.3540 H     1 <1>   0.0800 
 33 H       -0.8720    -8.4690    -0.1370 H     1 <1>   0.0800 
 34 H       -1.9170    -8.4450     1.2720 H     1 <1>   0.0800 
 35 H       -4.4500    -6.8040    -1.3400 H     1 <1>   0.0800 
 36 H       -2.6140    -8.3400    -1.6200 H     1 <1>   0.0800 
 37 H       -3.9080    -7.0070     1.4210 H     1 <1>   0.4000 
 38 H       -4.5690    -9.6660    -0.9820 H     1 <1>   0.0800 
 39 H       -4.1580    -9.5210     0.7030 H     1 <1>   0.0800 
 40 H       -2.9420   -11.6040     1.6230 H     1 <1>   0.1500 
 41 H       -0.9520   -12.6750    -1.9000 H     1 <1>   0.2700 
 42 H       -1.3580   -13.8410     1.7520 H     1 <1>   0.0800 
 43 H        0.0110   -13.6700     0.6810 H     1 <1>   0.0800 
 44 H       -1.3540   -14.6640     0.2110 H     1 <1>   0.0800 
@<TRIPOS>BOND
  1   1   2  1   
  2   1   3  1   
  3   2   4  2   
  4   2   5  1   
  5   3   6  2   
  6   3  24  1   
  7   4   6  1   
  8   5  25  1   
  9   5  26  1   
 10   6   7  1   
 11   7   8  1   
 12   7  27  1   
 13   7  28  1   
 14   8   9  1   
 15   8  29  1   
 16   8  30  1   
 17   9  10  2   
 18   9  11  am  
 19  11  12  1   
 20  11  13  1   
 21  12  14  1   
 22  12  31  1   
 23  12  32  1   
 24  13  15  1   
 25  13  33  1   
 26  13  34  1   
 27  14  15  1   
 28  14  16  1   
 29  14  35  1   
 30  15  17  1   
 31  15  36  1   
 32  16  37  1   
 33  17  18  1   
 34  17  38  1   
 35  17  39  1   
 36  18  19  2   
 37  18  20  1   
 38  19  21  1   
 39  20  22  2   
 40  20  40  1   
 41  21  22  1   
 42  21  41  1   
 43  22  23  1   
 44  23  42  1   
 45  23  43  1   
 46  23  44  1   
@<TRIPOS>SUBSTRUCTURE
  1 ****  11 GROUP 4 **** **** 0

# MOE 2024.06 (io_trps.svl 2023.06)
