@<TRIPOS>MOLECULE
NONAME
46 48 1 0 0 
SMALL
USER_CHARGES


@<TRIPOS>ATOM
  1 O       -0.4280    -0.3750    -0.4150 O.2   1 <1>  -0.5700 
  2 C       -0.3240    -1.5350    -0.0650 C.2   1 <1>   0.5440 
  3 N        0.9200    -2.0100     0.2510 N.am  1 <1>  -0.7300 
  4 C       -1.4910    -2.3820     0.0280 C.ar  1 <1>   0.0860 
  5 C        2.1720    -1.2330     0.1680 C.3   1 <1>   0.1400 
  6 C       -2.7630    -1.8260     0.1440 C.ar  1 <1>   0.1600 
  7 C       -1.4240    -3.7730     0.0100 C.ar  1 <1>  -0.1500 
  8 C        3.2920    -2.1610    -0.2860 C.3   1 <1>  -0.2400 
  9 N       -3.9000    -2.4920     0.2480 N.ar  1 <1>  -0.6200 
 10 C       -2.5960    -4.4810     0.1160 C.ar  1 <1>  -0.1500 
 11 C       -3.8200    -3.8190     0.2310 C.ar  1 <1>   0.4100 
 12 N       -5.0090    -4.5160     0.3390 N.pl3 1 <1>  -0.8380 
 13 C       -6.3300    -3.8320     0.2540 C.3   1 <1>   0.2090 
 14 C       -5.1580    -5.9510    -0.0040 C.3   1 <1>   0.2090 
 15 C       -7.3190    -4.9070    -0.2020 C.3   1 <1>   0.2000 
 16 C       -6.6520    -6.2430     0.1160 C.3   1 <1>  -0.0800 
 17 O       -8.5330    -4.8170     0.4650 O.3   1 <1>  -0.6800 
 18 C       -7.1370    -7.3840    -0.7940 C.3   1 <1>  -0.0170 
 19 C       -6.4760    -8.7080    -0.4460 C.ar  1 <1>   0.1670 
 20 N       -5.2460    -8.8940    -0.9020 N.ar  1 <1>  -0.6200 
 21 C       -7.1700    -9.6410     0.3120 C.ar  1 <1>  -0.1500 
 22 C       -4.6910   -10.0570    -0.5970 C.ar  1 <1>   0.1600 
 23 C       -6.5780   -10.8450     0.6240 C.ar  1 <1>  -0.1500 
 24 C       -5.3010   -11.0500     0.1500 C.ar  1 <1>  -0.1500 
 25 H        1.0100    -2.9330     0.6740 H     1 <1>   0.3700 
 26 H        2.0560    -0.4230    -0.5350 H     1 <1>   0.0800 
 27 H        2.3980    -0.8160     1.1350 H     1 <1>   0.0800 
 28 H       -2.8370    -0.7520     0.1520 H     1 <1>   0.1500 
 29 H       -0.4840    -4.2830    -0.0920 H     1 <1>   0.1500 
 30 H        3.0620    -2.5730    -1.2520 H     1 <1>   0.0800 
 31 H        3.4350    -2.9560     0.4230 H     1 <1>   0.0800 
 32 H        4.2090    -1.6050    -0.3640 H     1 <1>   0.0800 
 33 H       -2.5720    -5.5520     0.1100 H     1 <1>   0.1500 
 34 H       -6.5870    -3.4460     1.2240 H     1 <1>   0.0800 
 35 H       -6.2980    -3.0280    -0.4620 H     1 <1>   0.0800 
 36 H       -4.8190    -6.1110    -1.0150 H     1 <1>   0.0800 
 37 H       -4.5920    -6.5720     0.6690 H     1 <1>   0.0800 
 38 H       -7.5010    -4.8030    -1.2580 H     1 <1>   0.0800 
 39 H       -6.8400    -6.5010     1.1440 H     1 <1>   0.0800 
 40 H       -8.3870    -4.8630     1.4300 H     1 <1>   0.4000 
 41 H       -6.9260    -7.1500    -1.8220 H     1 <1>   0.0800 
 42 H       -8.2040    -7.4790    -0.6990 H     1 <1>   0.0800 
 43 H       -8.1670    -9.4290     0.6550 H     1 <1>   0.1500 
 44 H       -3.6930   -10.2300    -0.9640 H     1 <1>   0.1500 
 45 H       -7.0890   -11.5910     1.2090 H     1 <1>   0.1500 
 46 H       -4.7820   -11.9680     0.3550 H     1 <1>   0.1500 
@<TRIPOS>BOND
  1   1   2  2   
  2   2   3  am  
  3   2   4  1   
  4   3   5  1   
  5   3  25  1   
  6   4   6  ar  
  7   4   7  ar  
  8   5   8  1   
  9   5  26  1   
 10   5  27  1   
 11   6   9  ar  
 12   6  28  1   
 13   7  10  ar  
 14   7  29  1   
 15   8  30  1   
 16   8  31  1   
 17   8  32  1   
 18   9  11  ar  
 19  10  11  ar  
 20  10  33  1   
 21  11  12  1   
 22  12  13  1   
 23  12  14  1   
 24  13  15  1   
 25  13  34  1   
 26  13  35  1   
 27  14  16  1   
 28  14  36  1   
 29  14  37  1   
 30  15  16  1   
 31  15  17  1   
 32  15  38  1   
 33  16  18  1   
 34  16  39  1   
 35  17  40  1   
 36  18  19  1   
 37  18  41  1   
 38  18  42  1   
 39  19  20  ar  
 40  19  21  ar  
 41  20  22  ar  
 42  21  23  ar  
 43  21  43  1   
 44  22  24  ar  
 45  22  44  1   
 46  23  24  ar  
 47  23  45  1   
 48  24  46  1   
@<TRIPOS>SUBSTRUCTURE
  1 ****  11 GROUP 4 **** **** 0

# MOE 2024.06 (io_trps.svl 2023.06)
