@<TRIPOS>MOLECULE
NONAME
51 54 1 0 0 
SMALL
USER_CHARGES


@<TRIPOS>ATOM
  1 O       -0.7250     0.4520     1.9500 O.2   1 <1>  -0.5700 
  2 C       -1.1740     1.2810     1.1740 C.2   1 <1>   0.7150 
  3 N       -2.3530     0.9770     0.5080 N.am  1 <1>  -0.6600 
  4 C       -0.4500     2.5220     0.9790 C.2   1 <1>   0.1020 
  5 C       -3.1710    -0.2260     0.8610 C.3   1 <1>   0.1400 
  6 C       -2.9120     1.8270    -0.5810 C.3   1 <1>   0.1400 
  7 N       -0.9750     3.7190     0.9130 N.2   1 <1>  -0.3380 
  8 N        0.8910     2.6110     0.8530 N.pl3 1 <1>   0.0480 
  9 C       -4.5720     0.1580     1.3610 C.3   1 <1>   0.1400 
 10 C       -4.0130     2.7300    -0.0140 C.3   1 <1>  -0.1600 
 11 N        0.0080     4.5890     0.7420 N.2   1 <1>  -0.3380 
 12 C        1.1060     3.9160     0.7120 C.2   1 <1>   0.0070 
 13 C        1.9140     1.5350     0.8430 C.3   1 <1>   0.0960 
 14 N       -5.4450     0.6400     0.2440 N.am  1 <1>  -0.6600 
 15 C       -5.4170     2.1100    -0.0300 C.3   1 <1>   0.1400 
 16 C        2.4720     4.5520     0.5350 C.3   1 <1>   0.0200 
 17 C        2.7110     1.5150    -0.4690 C.3   1 <1>  -0.1600 
 18 C       -6.3630    -0.1780    -0.4060 C.2   1 <1>   0.7160 
 19 C        3.1890     4.0460    -0.7230 C.3   1 <1>  -0.1600 
 20 C        3.7650     2.6280    -0.5860 C.3   1 <1>  -0.1600 
 21 O       -7.2470     0.3680    -1.0480 O.2   1 <1>  -0.5700 
 22 C       -6.3470    -1.6380    -0.3680 C.2   1 <1>   0.2030 
 23 N       -5.3920    -2.4340     0.0240 N.2   1 <1>  -0.4100 
 24 C       -7.4070    -2.4300    -0.7870 C.2   1 <1>  -0.1500 
 25 O       -5.7530    -3.6880    -0.1020 O.3   1 <1>  -0.0190 
 26 C       -6.9710    -3.6770    -0.5950 C.2   1 <1>  -0.0400 
 27 C       -7.6590    -4.9990    -0.8590 C.3   1 <1>  -0.0600 
 28 H       -2.6870    -0.7920     1.6360 H     1 <1>   0.0800 
 29 H       -3.2500    -0.8680     0.0020 H     1 <1>   0.0800 
 30 H       -3.3010     1.2070    -1.3710 H     1 <1>   0.0800 
 31 H       -2.1330     2.4350    -1.0070 H     1 <1>   0.0800 
 32 H       -4.4870     0.9170     2.1180 H     1 <1>   0.0800 
 33 H       -5.0250    -0.6970     1.8290 H     1 <1>   0.0800 
 34 H       -4.0500     3.6270    -0.6040 H     1 <1>   0.0800 
 35 H       -3.7570     3.0360     0.9850 H     1 <1>   0.0800 
 36 H        1.4340     0.5830     0.9600 H     1 <1>   0.0800 
 37 H        2.5730     1.6760     1.6810 H     1 <1>   0.0800 
 38 H       -5.8410     2.2930    -1.0040 H     1 <1>   0.0800 
 39 H       -6.0400     2.6140     0.6890 H     1 <1>   0.0800 
 40 H        3.0720     4.3730     1.4090 H     1 <1>   0.0800 
 41 H        2.3360     5.6160     0.4500 H     1 <1>   0.0800 
 42 H        2.0360     1.5490    -1.3080 H     1 <1>   0.0800 
 43 H        3.2280     0.5730    -0.5190 H     1 <1>   0.0800 
 44 H        4.0040     4.7170    -0.9330 H     1 <1>   0.0800 
 45 H        2.5150     4.0910    -1.5620 H     1 <1>   0.0800 
 46 H        4.3600     2.4290    -1.4620 H     1 <1>   0.0800 
 47 H        4.4300     2.5880     0.2600 H     1 <1>   0.0800 
 48 H       -8.3430    -2.0700    -1.1740 H     1 <1>   0.1500 
 49 H       -8.6430    -4.8340    -1.2600 H     1 <1>   0.0800 
 50 H       -7.7440    -5.5550     0.0570 H     1 <1>   0.0800 
 51 H       -7.0860    -5.5730    -1.5650 H     1 <1>   0.0800 
@<TRIPOS>BOND
  1   1   2  2   
  2   2   3  am  
  3   2   4  1   
  4   3   5  1   
  5   3   6  1   
  6   4   7  2   
  7   4   8  1   
  8   5   9  1   
  9   5  28  1   
 10   5  29  1   
 11   6  10  1   
 12   6  30  1   
 13   6  31  1   
 14   7  11  1   
 15   8  12  1   
 16   8  13  1   
 17   9  14  1   
 18   9  32  1   
 19   9  33  1   
 20  10  15  1   
 21  10  34  1   
 22  10  35  1   
 23  11  12  2   
 24  12  16  1   
 25  13  17  1   
 26  13  36  1   
 27  13  37  1   
 28  14  15  1   
 29  14  18  am  
 30  15  38  1   
 31  15  39  1   
 32  16  19  1   
 33  16  40  1   
 34  16  41  1   
 35  17  20  1   
 36  17  42  1   
 37  17  43  1   
 38  18  21  2   
 39  18  22  1   
 40  19  20  1   
 41  19  44  1   
 42  19  45  1   
 43  20  46  1   
 44  20  47  1   
 45  22  23  2   
 46  22  24  1   
 47  23  25  1   
 48  24  26  2   
 49  24  48  1   
 50  25  26  1   
 51  26  27  1   
 52  27  49  1   
 53  27  50  1   
 54  27  51  1   
@<TRIPOS>SUBSTRUCTURE
  1 ****   3 GROUP 4 **** **** 0

# MOE 2024.06 (io_trps.svl 2023.06)
