@<TRIPOS>MOLECULE
NONAME
39 41 1 0 0 
SMALL
USER_CHARGES


@<TRIPOS>ATOM
  1 F       -3.2580    -3.1490     1.8680 F     1 <1>  -0.3400 
  2 C       -1.9950    -2.8570     1.5670 C.3   1 <1>   1.1640 
  3 F       -1.3360    -2.8220     2.7230 F     1 <1>  -0.3400 
  4 F       -2.0150    -1.5990     1.1300 F     1 <1>  -0.3400 
  5 C       -1.3710    -3.8520     0.5460 C.ar  1 <1>   0.1660 
  6 N       -1.3920    -5.1570     0.8390 N.ar  1 <1>  -0.6200 
  7 C       -0.8160    -3.3660    -0.6360 C.ar  1 <1>  -0.1500 
  8 C       -0.8690    -5.9830    -0.0460 C.ar  1 <1>   0.4100 
  9 C       -0.2610    -4.2350    -1.5540 C.ar  1 <1>  -0.1500 
 10 N       -0.9480    -7.2960     0.3140 N.pl3 1 <1>  -0.8690 
 11 C       -0.2920    -5.5710    -1.2410 C.ar  1 <1>  -0.1500 
 12 C       -1.4890    -8.3470    -0.5830 C.3   1 <1>   0.2890 
 13 C       -2.9940    -8.5310    -0.4230 C.3   1 <1>  -0.0800 
 14 C       -0.9860    -9.7100    -0.1140 C.3   1 <1>   0.1200 
 15 C       -3.0980    -9.4720     0.7770 C.3   1 <1>   0.1200 
 16 C       -3.8420    -7.2540    -0.2830 C.3   1 <1>  -0.0160 
 17 O       -1.8830   -10.1540     0.8630 O.3   1 <1>  -0.5600 
 18 C       -5.3240    -7.5860    -0.2100 C.ar  1 <1>  -0.1430 
 19 C       -6.0160    -7.5670     0.9840 C.ar  1 <1>  -0.1500 
 20 C       -6.0550    -7.9200    -1.3320 C.ar  1 <1>  -0.1500 
 21 C       -7.3650    -7.8800     0.9990 C.ar  1 <1>   0.1600 
 22 C       -7.4020    -8.2170    -1.2080 C.ar  1 <1>   0.1600 
 23 N       -8.0740    -8.2080    -0.0680 N.ar  1 <1>  -0.6200 
 24 H       -0.8050    -2.3120    -0.8550 H     1 <1>   0.1500 
 25 H        0.1790    -3.8790    -2.4710 H     1 <1>   0.1500 
 26 H       -1.2760    -7.4080     1.2770 H     1 <1>   0.4000 
 27 H        0.1330    -6.3000    -1.9030 H     1 <1>   0.1500 
 28 H       -1.2070    -8.1550    -1.6030 H     1 <1>   0.0800 
 29 H       -3.3470    -9.0750    -1.2820 H     1 <1>   0.0800 
 30 H        0.0050    -9.6600     0.3030 H     1 <1>   0.0800 
 31 H       -1.0100   -10.4200    -0.9210 H     1 <1>   0.0800 
 32 H       -3.8970   -10.1840     0.6660 H     1 <1>   0.0800 
 33 H       -3.2250    -8.9230     1.6950 H     1 <1>   0.0800 
 34 H       -3.6630    -6.6050    -1.1220 H     1 <1>   0.0800 
 35 H       -3.5640    -6.7180     0.6070 H     1 <1>   0.0800 
 36 H       -5.5200    -7.3110     1.9030 H     1 <1>   0.1500 
 37 H       -5.5920    -7.9510    -2.3010 H     1 <1>   0.1500 
 38 H       -7.8870    -7.8600     1.9400 H     1 <1>   0.1500 
 39 H       -7.9570    -8.4760    -2.0940 H     1 <1>   0.1500 
@<TRIPOS>BOND
  1   1   2  1   
  2   2   3  1   
  3   2   4  1   
  4   2   5  1   
  5   5   6  ar  
  6   5   7  ar  
  7   6   8  ar  
  8   7   9  ar  
  9   7  24  1   
 10   8  10  1   
 11   8  11  ar  
 12   9  11  ar  
 13   9  25  1   
 14  10  12  1   
 15  10  26  1   
 16  11  27  1   
 17  12  13  1   
 18  12  14  1   
 19  12  28  1   
 20  13  15  1   
 21  13  16  1   
 22  13  29  1   
 23  14  17  1   
 24  14  30  1   
 25  14  31  1   
 26  15  17  1   
 27  15  32  1   
 28  15  33  1   
 29  16  18  1   
 30  16  34  1   
 31  16  35  1   
 32  18  19  ar  
 33  18  20  ar  
 34  19  21  ar  
 35  19  36  1   
 36  20  22  ar  
 37  20  37  1   
 38  21  23  ar  
 39  21  38  1   
 40  22  23  ar  
 41  22  39  1   
@<TRIPOS>SUBSTRUCTURE
  1 ****  16 GROUP 4 **** **** 0

# MOE 2024.06 (io_trps.svl 2023.06)
