@<TRIPOS>MOLECULE
NONAME
51 53 1 0 0 
SMALL
USER_CHARGES


@<TRIPOS>ATOM
  1 O        0.4280     0.3430    -0.0460 O.2   1 <1>  -0.5700 
  2 C        1.6370     0.3410    -0.0870 C.2   1 <1>   0.7150 
  3 N        2.2610    -0.8610    -0.0170 N.am  1 <1>  -0.7300 
  4 C        2.4020     1.5510    -0.1620 C.2   1 <1>  -0.2370 
  5 C        3.6810    -1.0040     0.3980 C.3   1 <1>   0.1400 
  6 N        3.6170     1.6450    -0.7570 N.pl3 1 <1>   0.3140 
  7 C        2.1420     2.7930     0.3180 C.2   1 <1>  -0.1500 
  8 C        4.6340    -0.6640    -0.7630 C.3   1 <1>   0.2000 
  9 N        4.1450     2.8680    -0.6520 N.2   1 <1>  -0.7070 
 10 C        4.2680     0.5950    -1.5710 C.3   1 <1>   0.0960 
 11 C        3.2450     3.5850     0.0060 C.2   1 <1>   0.2030 
 12 O        4.6270    -1.7380    -1.6410 O.3   1 <1>  -0.6800 
 13 C        3.3760     4.9920     0.3540 C.2   1 <1>   0.7160 
 14 O        2.5280     5.5790     1.0030 O.2   1 <1>  -0.5700 
 15 N        4.4860     5.6830    -0.0460 N.am  1 <1>  -0.7300 
 16 C        4.7420     7.1290     0.1660 C.3   1 <1>   0.1400 
 17 C        5.4480     7.3510     1.5050 C.3   1 <1>   0.1200 
 18 O        5.7090     8.7290     1.7070 O.3   1 <1>  -0.3630 
 19 C        6.6500     9.3200     0.9310 C.ar  1 <1>   0.0830 
 20 C        6.2410    10.1940    -0.0740 C.ar  1 <1>  -0.1430 
 21 C        8.0080     9.0750     1.1420 C.ar  1 <1>  -0.1430 
 22 C        7.1910    10.7700    -0.9000 C.ar  1 <1>  -0.1500 
 23 C        4.7740    10.5430    -0.2910 C.3   1 <1>  -0.0970 
 24 C        8.9370     9.6620     0.3000 C.ar  1 <1>  -0.1500 
 25 C        8.5170     8.2030     2.2820 C.3   1 <1>  -0.0970 
 26 C        8.5380    10.5020    -0.7250 C.ar  1 <1>  -0.1430 
 27 C        9.5700    11.1370    -1.6390 C.3   1 <1>  -0.0970 
 28 H        1.6350    -1.6470     0.1750 H     1 <1>   0.3700 
 29 H        3.8680    -2.0060     0.7450 H     1 <1>   0.0800 
 30 H        3.8720    -0.3350     1.2200 H     1 <1>   0.0800 
 31 H        1.2660     3.1260     0.8480 H     1 <1>   0.1500 
 32 H        5.6390    -0.5720    -0.3870 H     1 <1>   0.0800 
 33 H        5.1560     1.0070    -2.0130 H     1 <1>   0.0800 
 34 H        3.5840     0.3370    -2.3580 H     1 <1>   0.0800 
 35 H        3.7040    -1.9680    -1.8760 H     1 <1>   0.4000 
 36 H        5.1730     5.1460    -0.5840 H     1 <1>   0.3700 
 37 H        3.8050     7.6590     0.1680 H     1 <1>   0.0800 
 38 H        5.3530     7.4960    -0.6400 H     1 <1>   0.0800 
 39 H        6.3750     6.8110     1.5350 H     1 <1>   0.0800 
 40 H        4.8140     7.0250     2.3100 H     1 <1>   0.0800 
 41 H        6.8820    11.4370    -1.6850 H     1 <1>   0.1500 
 42 H        4.2320    10.5020     0.6370 H     1 <1>   0.0800 
 43 H        4.3310     9.8540    -0.9860 H     1 <1>   0.0800 
 44 H        4.6800    11.5380    -0.6850 H     1 <1>   0.0800 
 45 H        9.9850     9.4690     0.4470 H     1 <1>   0.1500 
 46 H        7.8320     8.2220     3.1110 H     1 <1>   0.0800 
 47 H        9.4670     8.5650     2.6330 H     1 <1>   0.0800 
 48 H        8.6380     7.1900     1.9460 H     1 <1>   0.0800 
 49 H        9.1520    11.3140    -2.6140 H     1 <1>   0.0800 
 50 H       10.4240    10.4920    -1.7480 H     1 <1>   0.0800 
 51 H        9.8930    12.0750    -1.2240 H     1 <1>   0.0800 
@<TRIPOS>BOND
  1   1   2  2   
  2   2   3  am  
  3   2   4  1   
  4   3   5  1   
  5   3  28  1   
  6   4   6  1   
  7   4   7  2   
  8   5   8  1   
  9   5  29  1   
 10   5  30  1   
 11   6   9  1   
 12   6  10  1   
 13   7  11  1   
 14   7  31  1   
 15   8  10  1   
 16   8  12  1   
 17   8  32  1   
 18   9  11  2   
 19  10  33  1   
 20  10  34  1   
 21  11  13  1   
 22  12  35  1   
 23  13  14  2   
 24  13  15  am  
 25  15  16  1   
 26  15  36  1   
 27  16  17  1   
 28  16  37  1   
 29  16  38  1   
 30  17  18  1   
 31  17  39  1   
 32  17  40  1   
 33  18  19  1   
 34  19  20  ar  
 35  19  21  ar  
 36  20  22  ar  
 37  20  23  1   
 38  21  24  ar  
 39  21  25  1   
 40  22  26  ar  
 41  22  41  1   
 42  23  42  1   
 43  23  43  1   
 44  23  44  1   
 45  24  26  ar  
 46  24  45  1   
 47  25  46  1   
 48  25  47  1   
 49  25  48  1   
 50  26  27  1   
 51  27  49  1   
 52  27  50  1   
 53  27  51  1   
@<TRIPOS>SUBSTRUCTURE
  1 ****  15 GROUP 4 **** **** 0

# MOE 2024.06 (io_trps.svl 2023.06)
