@<TRIPOS>MOLECULE
NONAME
45 47 1 0 0 
SMALL
USER_CHARGES


@<TRIPOS>ATOM
  1 CL       0.9570     3.3140     2.9630 Cl    1 <1>  -0.1770 
  2 C        0.5670     3.0930     1.2740 C.ar  1 <1>   0.1770 
  3 C        1.4160     2.3950     0.4210 C.ar  1 <1>  -0.1440 
  4 C       -0.6290     3.6240     0.8270 C.ar  1 <1>  -0.1500 
  5 C        1.0140     2.2190    -0.8990 C.ar  1 <1>  -0.1500 
  6 C        2.7510     1.8270     0.9040 C.3   1 <1>   0.3640 
  7 C       -1.0050     3.4530    -0.4920 C.ar  1 <1>  -0.1500 
  8 C       -0.1840     2.7460    -1.3520 C.ar  1 <1>  -0.1500 
  9 N        2.7020     0.3560     0.7290 N.am  1 <1>  -0.7300 
 10 C        3.9510     2.4390     0.1300 C.3   1 <1>   0.2610 
 11 C        3.7420    -0.3800     0.2810 C.2   1 <1>   0.5690 
 12 O        5.1240     1.6590     0.3130 O.3   1 <1>  -0.5600 
 13 C        4.2000     3.9070     0.5180 C.2   1 <1>   0.5690 
 14 O        3.6550    -1.5780     0.1950 O.2   1 <1>  -0.5700 
 15 C        5.0300     0.3290    -0.1530 C.3   1 <1>   0.1810 
 16 O        3.7790     4.3080     1.5810 O.2   1 <1>  -0.5700 
 17 N        4.8720     4.7590    -0.3310 N.am  1 <1>  -0.6600 
 18 C        4.9820     6.2130    -0.0130 C.3   1 <1>   0.1400 
 19 C        5.5790     4.3370    -1.5740 C.3   1 <1>   0.0600 
 20 C        6.1730     6.4730     0.9100 C.3   1 <1>   0.0210 
 21 C        6.3970     7.9610     1.0700 C.2   1 <1>   0.3350 
 22 N        6.2540     8.6150     2.1520 N.2   1 <1>  -0.4100 
 23 N        6.7760     8.7100     0.0440 N.2   1 <1>  -0.5650 
 24 O        6.5370     9.8540     1.8890 O.3   1 <1>  -0.0190 
 25 C        6.8420     9.8440     0.6160 C.2   1 <1>   0.2980 
 26 C        7.2340    11.1430    -0.0490 C.3   1 <1>  -0.0600 
 27 H       -1.2580     4.1640     1.5120 H     1 <1>   0.1500 
 28 H        1.6280     1.6620    -1.5870 H     1 <1>   0.1500 
 29 H        2.8920     2.0250     1.9510 H     1 <1>   0.0800 
 30 H       -1.9350     3.8640    -0.8470 H     1 <1>   0.1500 
 31 H       -0.4800     2.6040    -2.3780 H     1 <1>   0.1500 
 32 H        1.8580    -0.1250     1.0450 H     1 <1>   0.3700 
 33 H        3.7230     2.4230    -0.9180 H     1 <1>   0.0800 
 34 H        5.0830     0.3420    -1.2260 H     1 <1>   0.0800 
 35 H        5.8770    -0.2110     0.2290 H     1 <1>   0.0800 
 36 H        5.0940     6.7730    -0.9260 H     1 <1>   0.0800 
 37 H        4.0790     6.5490     0.4700 H     1 <1>   0.0800 
 38 H        6.5020     4.8830    -1.6740 H     1 <1>   0.0800 
 39 H        4.9600     4.5410    -2.4300 H     1 <1>   0.0800 
 40 H        5.8170     3.2880    -1.5480 H     1 <1>   0.0800 
 41 H        7.0640     6.0380     0.4980 H     1 <1>   0.0800 
 42 H        5.9840     6.0350     1.8740 H     1 <1>   0.0800 
 43 H        7.4540    10.9710    -1.0870 H     1 <1>   0.0800 
 44 H        8.1050    11.5470     0.4330 H     1 <1>   0.0800 
 45 H        6.4270    11.8470     0.0280 H     1 <1>   0.0800 
@<TRIPOS>BOND
  1   1   2  1   
  2   2   3  ar  
  3   2   4  ar  
  4   3   5  ar  
  5   3   6  1   
  6   4   7  ar  
  7   4  27  1   
  8   5   8  ar  
  9   5  28  1   
 10   6   9  1   
 11   6  10  1   
 12   6  29  1   
 13   7   8  ar  
 14   7  30  1   
 15   8  31  1   
 16   9  11  am  
 17   9  32  1   
 18  10  12  1   
 19  10  13  1   
 20  10  33  1   
 21  11  14  2   
 22  11  15  1   
 23  12  15  1   
 24  13  16  2   
 25  13  17  am  
 26  15  34  1   
 27  15  35  1   
 28  17  18  1   
 29  17  19  1   
 30  18  20  1   
 31  18  36  1   
 32  18  37  1   
 33  19  38  1   
 34  19  39  1   
 35  19  40  1   
 36  20  21  1   
 37  20  41  1   
 38  20  42  1   
 39  21  22  2   
 40  21  23  1   
 41  22  24  1   
 42  23  25  2   
 43  24  25  1   
 44  25  26  1   
 45  26  43  1   
 46  26  44  1   
 47  26  45  1   
@<TRIPOS>SUBSTRUCTURE
  1 ****  13 GROUP 4 **** **** 0

# MOE 2024.06 (io_trps.svl 2023.06)
