@<TRIPOS>MOLECULE
NONAME
52 54 1 0 0 
SMALL
USER_CHARGES


@<TRIPOS>ATOM
  1 CL       4.1580     0.0780    -0.6380 Cl    1 <1>  -0.1770 
  2 C        3.5370    -1.4710    -1.1590 C.ar  1 <1>   0.1770 
  3 C        3.6620    -1.8750    -2.4790 C.ar  1 <1>   0.1770 
  4 C        2.9170    -2.2830    -0.2270 C.ar  1 <1>  -0.1500 
  5 CL       4.4440    -0.8490    -3.6600 Cl    1 <1>  -0.1770 
  6 C        3.1700    -3.1030    -2.8830 C.ar  1 <1>  -0.1500 
  7 C        2.4150    -3.5190    -0.6310 C.ar  1 <1>   0.0830 
  8 C        2.5480    -3.9210    -1.9540 C.ar  1 <1>  -0.1500 
  9 O        1.7850    -4.3800     0.2020 O.3   1 <1>  -0.3630 
 10 C        1.4850    -4.0270     1.5470 C.3   1 <1>   0.1810 
 11 C        0.6590    -5.1110     2.2370 C.2   1 <1>   0.5690 
 12 O        1.1810    -5.6660     3.1770 O.2   1 <1>  -0.5700 
 13 N       -0.6250    -5.4290     1.8400 N.am  1 <1>  -0.6600 
 14 C       -1.2950    -4.7990     0.6590 C.3   1 <1>   0.2200 
 15 C       -1.3410    -6.5330     2.5550 C.3   1 <1>   0.0600 
 16 C       -2.5330    -3.9890     1.0250 C.3   1 <1>  -0.1600 
 17 C       -1.7990    -5.7970    -0.3770 C.3   1 <1>  -0.1600 
 18 C       -3.3020    -3.8510    -0.2990 C.3   1 <1>  -0.0800 
 19 C       -2.8200    -5.0000    -1.2020 C.3   1 <1>  -0.0800 
 20 C       -4.8210    -4.0110    -0.1570 C.3   1 <1>  -0.1600 
 21 C       -4.0670    -5.8050    -1.5890 C.3   1 <1>  -0.1600 
 22 C       -5.0890    -5.4750    -0.5060 C.3   1 <1>   0.4230 
 23 N       -6.4960    -5.7730    -0.9180 N.4   1 <1>  -0.9590 
 24 C       -7.0110    -4.9740    -2.0800 C.3   1 <1>   0.2630 
 25 C       -7.4270    -5.6390     0.2460 C.3   1 <1>   0.2630 
 26 H        2.8460    -1.9360     0.7850 H     1 <1>   0.1500 
 27 H        3.2740    -3.4110    -3.9090 H     1 <1>   0.1500 
 28 H        2.1610    -4.8810    -2.2490 H     1 <1>   0.1500 
 29 H        2.4140    -3.9000     2.0730 H     1 <1>   0.0800 
 30 H        0.9360    -3.1040     1.5490 H     1 <1>   0.0800 
 31 H       -0.6210    -4.1320     0.1520 H     1 <1>   0.0800 
 32 H       -2.4050    -6.4090     2.5030 H     1 <1>   0.0800 
 33 H       -1.0560    -6.5500     3.5940 H     1 <1>   0.0800 
 34 H       -1.0720    -7.4770     2.1140 H     1 <1>   0.0800 
 35 H       -3.1230    -4.5150     1.7510 H     1 <1>   0.0800 
 36 H       -2.2600    -3.0270     1.4220 H     1 <1>   0.0800 
 37 H       -0.9890    -6.1550    -0.9890 H     1 <1>   0.0800 
 38 H       -2.2780    -6.6310     0.1020 H     1 <1>   0.0800 
 39 H       -3.0610    -2.9020    -0.7520 H     1 <1>   0.0800 
 40 H       -2.3350    -4.6020    -2.0790 H     1 <1>   0.0800 
 41 H       -5.2870    -3.3520    -0.8650 H     1 <1>   0.0800 
 42 H       -5.1590    -3.7620     0.8340 H     1 <1>   0.0800 
 43 H       -3.8630    -6.8600    -1.6440 H     1 <1>   0.0800 
 44 H       -4.3960    -5.4590    -2.5510 H     1 <1>   0.0800 
 45 H       -4.8390    -6.0670     0.3610 H     1 <1>   0.0800 
 46 H       -6.5010    -6.7640    -1.2050 H     1 <1>   0.4500 
 47 H       -7.0510    -3.9270    -1.8310 H     1 <1>   0.0800 
 48 H       -8.0050    -5.2990    -2.3430 H     1 <1>   0.0800 
 49 H       -6.3760    -5.1010    -2.9410 H     1 <1>   0.0800 
 50 H       -7.4620    -4.6150     0.5810 H     1 <1>   0.0800 
 51 H       -7.0960    -6.2580     1.0640 H     1 <1>   0.0800 
 52 H       -8.4220    -5.9440    -0.0340 H     1 <1>   0.0800 
@<TRIPOS>BOND
  1   1   2  1   
  2   2   3  ar  
  3   2   4  ar  
  4   3   5  1   
  5   3   6  ar  
  6   4   7  ar  
  7   4  26  1   
  8   6   8  ar  
  9   6  27  1   
 10   7   8  ar  
 11   7   9  1   
 12   8  28  1   
 13   9  10  1   
 14  10  11  1   
 15  10  29  1   
 16  10  30  1   
 17  11  12  2   
 18  11  13  am  
 19  13  14  1   
 20  13  15  1   
 21  14  16  1   
 22  14  17  1   
 23  14  31  1   
 24  15  32  1   
 25  15  33  1   
 26  15  34  1   
 27  16  18  1   
 28  16  35  1   
 29  16  36  1   
 30  17  19  1   
 31  17  37  1   
 32  17  38  1   
 33  18  19  1   
 34  18  20  1   
 35  18  39  1   
 36  19  21  1   
 37  19  40  1   
 38  20  22  1   
 39  20  41  1   
 40  20  42  1   
 41  21  22  1   
 42  21  43  1   
 43  21  44  1   
 44  22  23  1   
 45  22  45  1   
 46  23  24  1   
 47  23  25  1   
 48  23  46  1   
 49  24  47  1   
 50  24  48  1   
 51  24  49  1   
 52  25  50  1   
 53  25  51  1   
 54  25  52  1   
@<TRIPOS>SUBSTRUCTURE
  1 ****  14 GROUP 4 **** **** 0

# MOE 2024.06 (io_trps.svl 2023.06)
