@<TRIPOS>MOLECULE
NONAME
52 55 1 0 0 
SMALL
USER_CHARGES


@<TRIPOS>ATOM
  1 O       -2.1540     0.4410     2.5040 O.2   1 <1>  -0.5700 
  2 C       -2.0840     1.0370     1.4400 C.2   1 <1>   0.7160 
  3 N       -2.4400     0.3320     0.3050 N.am  1 <1>  -0.6600 
  4 C       -1.6440     2.4340     1.4030 C.2   1 <1>   0.1410 
  5 C       -2.5310     0.8840    -1.0680 C.3   1 <1>   0.1400 
  6 C       -2.9210    -1.0640     0.3240 C.3   1 <1>   0.1400 
  7 N       -0.9900     2.9950     0.3410 N.2   1 <1>  -0.5650 
  8 C       -1.7780     3.3930     2.3730 C.2   1 <1>  -0.3320 
  9 C       -3.2200    -0.2000    -1.9080 C.3   1 <1>   0.2000 
 10 C       -2.9190    -1.4950    -1.1440 C.3   1 <1>  -0.0800 
 11 C       -0.7500     4.2310     0.6690 C.2   1 <1>   0.1330 
 12 N       -1.2110     4.5110     1.9090 N.pl3 1 <1>   0.0330 
 13 C       -2.4200     3.3260     3.7510 C.3   1 <1>  -0.0600 
 14 O       -4.6060     0.0010    -1.9210 O.3   1 <1>  -0.5600 
 15 C       -3.8830    -2.6570    -1.4450 C.3   1 <1>   0.0200 
 16 C       -0.0700     5.2050    -0.1560 C.ar  1 <1>   0.0530 
 17 C       -5.0640     0.9230    -2.8600 C.3   1 <1>   0.0400 
 18 C       -3.4520    -3.9700    -0.8140 C.2   1 <1>  -0.0400 
 19 C        0.9300     4.8080    -1.0420 C.ar  1 <1>  -0.1500 
 20 C       -0.3790     6.5650    -0.1020 C.ar  1 <1>  -0.1500 
 21 O       -4.2390    -5.0080    -0.9250 O.3   1 <1>  -0.0190 
 22 C       -2.3690    -4.3530    -0.1170 C.2   1 <1>  -0.1500 
 23 C        1.6010     5.7230    -1.8320 C.ar  1 <1>  -0.1500 
 24 C        0.2890     7.4860    -0.8890 C.ar  1 <1>  -0.1500 
 25 N       -3.7440    -6.0600    -0.3400 N.2   1 <1>  -0.4100 
 26 C       -2.6180    -5.6950     0.1570 C.2   1 <1>   0.1080 
 27 C        1.2830     7.0670    -1.7550 C.ar  1 <1>  -0.1500 
 28 C       -1.6950    -6.6070     0.9330 C.3   1 <1>  -0.0590 
 29 H       -3.0750     1.8120    -1.0750 H     1 <1>   0.0800 
 30 H       -1.5340     1.0510    -1.4370 H     1 <1>   0.0800 
 31 H       -2.2810    -1.6810     0.9320 H     1 <1>   0.0800 
 32 H       -3.9210    -1.0790     0.7240 H     1 <1>   0.0800 
 33 H       -2.8570    -0.2340    -2.9200 H     1 <1>   0.0800 
 34 H       -1.9190    -1.7970    -1.3980 H     1 <1>   0.0800 
 35 H       -1.1170     5.4100     2.3860 H     1 <1>   0.2700 
 36 H       -2.9390     2.3960     3.8910 H     1 <1>   0.0800 
 37 H       -3.1310     4.1250     3.8700 H     1 <1>   0.0800 
 38 H       -1.6670     3.4110     4.5130 H     1 <1>   0.0800 
 39 H       -3.9480    -2.7980    -2.5090 H     1 <1>   0.0800 
 40 H       -4.8690    -2.4130    -1.0900 H     1 <1>   0.0800 
 41 H       -6.1340     0.9840    -2.7720 H     1 <1>   0.0800 
 42 H       -4.8020     0.5850    -3.8480 H     1 <1>   0.0800 
 43 H       -4.6320     1.8880    -2.6620 H     1 <1>   0.0800 
 44 H        1.1790     3.7630    -1.1050 H     1 <1>   0.1500 
 45 H       -1.1560     6.9110     0.5540 H     1 <1>   0.1500 
 46 H       -1.4990    -3.7990     0.1800 H     1 <1>   0.1500 
 47 H        2.3710     5.3890    -2.5060 H     1 <1>   0.1500 
 48 H        0.0360     8.5310    -0.8320 H     1 <1>   0.1500 
 49 H        1.8040     7.7810    -2.3690 H     1 <1>   0.1500 
 50 H       -0.7460    -6.6770     0.4330 H     1 <1>   0.0800 
 51 H       -2.1250    -7.5900     1.0030 H     1 <1>   0.0800 
 52 H       -1.5480    -6.2190     1.9240 H     1 <1>   0.0800 
@<TRIPOS>BOND
  1   1   2  2   
  2   2   3  am  
  3   2   4  1   
  4   3   5  1   
  5   3   6  1   
  6   4   7  1   
  7   4   8  2   
  8   5   9  1   
  9   5  29  1   
 10   5  30  1   
 11   6  10  1   
 12   6  31  1   
 13   6  32  1   
 14   7  11  2   
 15   8  12  1   
 16   8  13  1   
 17   9  10  1   
 18   9  14  1   
 19   9  33  1   
 20  10  15  1   
 21  10  34  1   
 22  11  12  1   
 23  11  16  1   
 24  12  35  1   
 25  13  36  1   
 26  13  37  1   
 27  13  38  1   
 28  14  17  1   
 29  15  18  1   
 30  15  39  1   
 31  15  40  1   
 32  16  19  ar  
 33  16  20  ar  
 34  17  41  1   
 35  17  42  1   
 36  17  43  1   
 37  18  21  1   
 38  18  22  2   
 39  19  23  ar  
 40  19  44  1   
 41  20  24  ar  
 42  20  45  1   
 43  21  25  1   
 44  22  26  1   
 45  22  46  1   
 46  23  27  ar  
 47  23  47  1   
 48  24  27  ar  
 49  24  48  1   
 50  25  26  2   
 51  26  28  1   
 52  27  49  1   
 53  28  50  1   
 54  28  51  1   
 55  28  52  1   
@<TRIPOS>SUBSTRUCTURE
  1 ****   3 GROUP 4 **** **** 0

# MOE 2024.06 (io_trps.svl 2023.06)
