@<TRIPOS>MOLECULE
NONAME
51 55 1 0 0 
SMALL
USER_CHARGES


@<TRIPOS>ATOM
  1 S        0.4900     1.1440     2.6090 S.3   1 <1>  -0.0800 
  2 C        0.4410     2.1160     1.1540 C.2   1 <1>  -0.1400 
  3 C        2.0840     1.7750     2.9990 C.2   1 <1>  -0.1100 
  4 C        1.5580     2.8380     0.9960 C.2   1 <1>  -0.1810 
  5 C       -0.7360     2.1200     0.2170 C.3   1 <1>   0.0200 
  6 C        2.5010     2.6480     2.0610 C.2   1 <1>  -0.1500 
  7 C        1.7440     3.7520    -0.2170 C.3   1 <1>   0.4610 
  8 C       -0.6180     3.3800    -0.6550 C.3   1 <1>   0.1200 
  9 O        0.6930     3.5400    -1.1450 O.3   1 <1>  -0.5600 
 10 C        3.0380     3.3960    -0.9540 C.3   1 <1>  -0.1600 
 11 C        1.7550     5.2270     0.2030 C.3   1 <1>  -0.1600 
 12 C        3.3030     4.3440    -2.1230 C.3   1 <1>   0.2090 
 13 C        2.0050     6.1470    -0.9900 C.3   1 <1>   0.2090 
 14 N        3.2770     5.7540    -1.6450 N.pl3 1 <1>  -0.8380 
 15 C        4.4550     6.4000    -1.2960 C.ar  1 <1>   0.4100 
 16 N        5.4650     5.6730    -0.8010 N.ar  1 <1>  -0.3100 
 17 C        4.5670     7.7690    -1.4550 C.ar  1 <1>  -0.1500 
 18 N        6.5850     6.2470    -0.4350 N.ar  1 <1>  -0.3100 
 19 C        5.7410     8.3680    -1.0760 C.ar  1 <1>  -0.1500 
 20 C        6.7490     7.5720    -0.5530 C.ar  1 <1>   0.3100 
 21 C        8.0170     8.1410    -0.1510 C.ar  1 <1>   0.0000 
 22 C        8.1150     9.2260     0.7320 C.ar  1 <1>   0.0820 
 23 C        9.2020     7.6000    -0.6530 C.ar  1 <1>  -0.1500 
 24 O        6.9620     9.7380     1.2370 O.3   1 <1>  -0.3630 
 25 C        9.3630     9.7420     1.0750 C.ar  1 <1>  -0.1500 
 26 C       10.4370     8.1130    -0.3080 C.ar  1 <1>  -0.1500 
 27 C        6.9520    10.7150     2.2550 C.3   1 <1>   0.0400 
 28 C       10.5180     9.1890     0.5560 C.ar  1 <1>  -0.1500 
 29 H        2.5470     1.4210     3.9030 H     1 <1>   0.1500 
 30 H       -1.6580     2.1430     0.7700 H     1 <1>   0.0800 
 31 H       -0.7200     1.2380    -0.3960 H     1 <1>   0.0800 
 32 H        3.4430     3.1710     2.0730 H     1 <1>   0.1500 
 33 H       -0.8780     4.2550    -0.0860 H     1 <1>   0.0800 
 34 H       -1.2790     3.3100    -1.5010 H     1 <1>   0.0800 
 35 H        2.9780     2.3840    -1.3090 H     1 <1>   0.0800 
 36 H        3.8690     3.4530    -0.2780 H     1 <1>   0.0800 
 37 H        2.5410     5.3820     0.9200 H     1 <1>   0.0800 
 38 H        0.8310     5.4840     0.6840 H     1 <1>   0.0800 
 39 H        2.5480     4.2150    -2.8800 H     1 <1>   0.0800 
 40 H        4.2600     4.1230    -2.5660 H     1 <1>   0.0800 
 41 H        2.0570     7.1680    -0.6530 H     1 <1>   0.0800 
 42 H        1.2000     6.0640    -1.7000 H     1 <1>   0.0800 
 43 H        3.7550     8.3320    -1.8700 H     1 <1>   0.1500 
 44 H        5.8860     9.4270    -1.1770 H     1 <1>   0.1500 
 45 H        9.1470     6.7600    -1.3240 H     1 <1>   0.1500 
 46 H        9.4580    10.5750     1.7440 H     1 <1>   0.1500 
 47 H       11.3340     7.6750    -0.7110 H     1 <1>   0.1500 
 48 H        5.9300    10.9020     2.5290 H     1 <1>   0.0800 
 49 H        7.4000    11.6170     1.8780 H     1 <1>   0.0800 
 50 H        7.4950    10.3390     3.1040 H     1 <1>   0.0800 
 51 H       11.4800     9.5910     0.8250 H     1 <1>   0.1500 
@<TRIPOS>BOND
  1   1   2  1   
  2   1   3  1   
  3   2   4  2   
  4   2   5  1   
  5   3   6  2   
  6   3  29  1   
  7   4   6  1   
  8   4   7  1   
  9   5   8  1   
 10   5  30  1   
 11   5  31  1   
 12   6  32  1   
 13   7   9  1   
 14   7  10  1   
 15   7  11  1   
 16   8   9  1   
 17   8  33  1   
 18   8  34  1   
 19  10  12  1   
 20  10  35  1   
 21  10  36  1   
 22  11  13  1   
 23  11  37  1   
 24  11  38  1   
 25  12  14  1   
 26  12  39  1   
 27  12  40  1   
 28  13  14  1   
 29  13  41  1   
 30  13  42  1   
 31  14  15  1   
 32  15  16  ar  
 33  15  17  ar  
 34  16  18  ar  
 35  17  19  ar  
 36  17  43  1   
 37  18  20  ar  
 38  19  20  ar  
 39  19  44  1   
 40  20  21  1   
 41  21  22  ar  
 42  21  23  ar  
 43  22  24  1   
 44  22  25  ar  
 45  23  26  ar  
 46  23  45  1   
 47  24  27  1   
 48  25  28  ar  
 49  25  46  1   
 50  26  28  ar  
 51  26  47  1   
 52  27  48  1   
 53  27  49  1   
 54  27  50  1   
 55  28  51  1   
@<TRIPOS>SUBSTRUCTURE
  1 ****  16 GROUP 4 **** **** 0

# MOE 2024.06 (io_trps.svl 2023.06)
