@<TRIPOS>MOLECULE
NONAME
44 46 1 0 0 
SMALL
USER_CHARGES


@<TRIPOS>ATOM
  1 CL      -0.3950    -0.2460     0.3920 Cl    1 <1>  -0.1770 
  2 C       -0.2720    -1.9870     0.3890 C.ar  1 <1>   0.1770 
  3 C        0.0110    -2.6440    -0.7930 C.ar  1 <1>  -0.1500 
  4 C       -0.4590    -2.6820     1.5690 C.ar  1 <1>  -0.1500 
  5 C        0.1070    -4.0260    -0.7920 C.ar  1 <1>  -0.1500 
  6 C       -0.3630    -4.0630     1.5630 C.ar  1 <1>  -0.1500 
  7 C       -0.0800    -4.7390     0.3840 C.ar  1 <1>  -0.1430 
  8 C        0.0180    -6.2570     0.3790 C.3   1 <1>  -0.0160 
  9 C       -1.3560    -6.8790     0.0930 C.3   1 <1>  -0.0990 
 10 C       -1.3480    -8.3990     0.0610 C.2   1 <1>   0.5690 
 11 O       -0.3250    -8.9910     0.3150 O.2   1 <1>  -0.5700 
 12 N       -2.4980    -9.0670    -0.2510 N.am  1 <1>  -0.6600 
 13 C       -3.8240    -8.4630    -0.5310 C.3   1 <1>   0.1400 
 14 C       -2.5770   -10.5470    -0.2940 C.3   1 <1>   0.1400 
 15 C       -4.7590    -9.6490    -0.7730 C.3   1 <1>   0.2000 
 16 C       -4.0670   -10.8640    -0.1570 C.3   1 <1>  -0.0800 
 17 O       -5.9940    -9.4560    -0.1740 O.3   1 <1>  -0.6800 
 18 C       -4.4960   -12.1860    -0.8180 C.3   1 <1>  -0.0170 
 19 C       -3.8260   -13.3870    -0.1710 C.ar  1 <1>   0.1670 
 20 N       -2.6010   -13.6720    -0.5810 N.ar  1 <1>  -0.6200 
 21 C       -4.5010   -14.1230     0.8020 C.ar  1 <1>   0.1600 
 22 C       -2.0990   -14.7250     0.0420 C.ar  1 <1>   0.1600 
 23 N       -4.0020   -15.1770     1.4270 N.ar  1 <1>  -0.6200 
 24 C       -2.7770   -15.4520     1.0130 C.ar  1 <1>   0.1600 
 25 H        0.1540    -2.0810    -1.6970 H     1 <1>   0.1500 
 26 H       -0.6770    -2.1470     2.4750 H     1 <1>   0.1500 
 27 H        0.3280    -4.5430    -1.7100 H     1 <1>   0.1500 
 28 H       -0.5070    -4.6100     2.4790 H     1 <1>   0.1500 
 29 H        0.7240    -6.5750    -0.3690 H     1 <1>   0.0800 
 30 H        0.3820    -6.6020     1.3320 H     1 <1>   0.0800 
 31 H       -1.7050    -6.5200    -0.8580 H     1 <1>   0.0800 
 32 H       -2.0470    -6.5580     0.8500 H     1 <1>   0.0800 
 33 H       -4.1430    -7.8870     0.3210 H     1 <1>   0.0800 
 34 H       -3.7720    -7.8390    -1.4060 H     1 <1>   0.0800 
 35 H       -2.1930   -10.8910    -1.2390 H     1 <1>   0.0800 
 36 H       -2.0020   -10.9910     0.5020 H     1 <1>   0.0800 
 37 H       -4.9130    -9.7800    -1.8310 H     1 <1>   0.0800 
 38 H       -4.2840   -10.9050     0.8960 H     1 <1>   0.0800 
 39 H       -5.8910    -9.3470     0.7920 H     1 <1>   0.4000 
 40 H       -4.2490   -12.1710    -1.8650 H     1 <1>   0.0800 
 41 H       -5.5640   -12.2870    -0.7410 H     1 <1>   0.0800 
 42 H       -5.4970   -13.8250     1.0780 H     1 <1>   0.1500 
 43 H       -1.1030   -15.0280    -0.2280 H     1 <1>   0.1500 
 44 H       -2.2840   -16.2950     1.4640 H     1 <1>   0.1500 
@<TRIPOS>BOND
  1   1   2  1   
  2   2   3  ar  
  3   2   4  ar  
  4   3   5  ar  
  5   3  25  1   
  6   4   6  ar  
  7   4  26  1   
  8   5   7  ar  
  9   5  27  1   
 10   6   7  ar  
 11   6  28  1   
 12   7   8  1   
 13   8   9  1   
 14   8  29  1   
 15   8  30  1   
 16   9  10  1   
 17   9  31  1   
 18   9  32  1   
 19  10  11  2   
 20  10  12  am  
 21  12  13  1   
 22  12  14  1   
 23  13  15  1   
 24  13  33  1   
 25  13  34  1   
 26  14  16  1   
 27  14  35  1   
 28  14  36  1   
 29  15  16  1   
 30  15  17  1   
 31  15  37  1   
 32  16  18  1   
 33  16  38  1   
 34  17  39  1   
 35  18  19  1   
 36  18  40  1   
 37  18  41  1   
 38  19  20  ar  
 39  19  21  ar  
 40  20  22  ar  
 41  21  23  ar  
 42  21  42  1   
 43  22  24  ar  
 44  22  43  1   
 45  23  24  ar  
 46  24  44  1   
@<TRIPOS>SUBSTRUCTURE
  1 ****  12 GROUP 4 **** **** 0

# MOE 2024.06 (io_trps.svl 2023.06)
