@<TRIPOS>MOLECULE
NONAME
50 52 1 0 0 
SMALL
USER_CHARGES


@<TRIPOS>ATOM
  1 CL      -0.0780     0.0560    -0.4100 Cl    1 <1>  -0.1770 
  2 C       -1.7700     0.4510    -0.2740 C.ar  1 <1>   0.1770 
  3 C       -2.2680     1.5550    -0.9400 C.ar  1 <1>  -0.1500 
  4 C       -2.5950    -0.3430     0.4990 C.ar  1 <1>  -0.1500 
  5 C       -3.6120     1.8610    -0.8300 C.ar  1 <1>  -0.1500 
  6 C       -3.9380    -0.0250     0.6030 C.ar  1 <1>  -0.1500 
  7 C       -4.4790     1.0770    -0.0630 C.ar  1 <1>   0.0530 
  8 C       -5.8780     1.4120     0.0260 C.2   1 <1>   0.0870 
  9 O       -6.2610     2.6640    -0.0150 O.3   1 <1>  -0.0190 
 10 C       -7.0070     0.6630     0.1270 C.2   1 <1>  -0.0860 
 11 N       -7.5590     2.8040     0.0560 N.2   1 <1>  -0.4100 
 12 C       -8.0300     1.6110     0.1500 C.2   1 <1>   0.3720 
 13 C       -7.2120    -0.7480     0.1670 C.2   1 <1>   0.7160 
 14 N       -9.3850     1.3020     0.2550 N.pl3 1 <1>  -0.8520 
 15 O       -6.9330    -1.3640     1.1790 O.2   1 <1>  -0.5700 
 16 N       -7.7590    -1.4230    -0.9070 N.am  1 <1>  -0.6600 
 17 C      -10.3000     2.3740     0.7340 C.3   1 <1>   0.2090 
 18 C       -8.2070    -2.8420    -0.7990 C.3   1 <1>   0.1400 
 19 C       -8.0610    -0.7520    -2.2050 C.3   1 <1>   0.0600 
 20 C      -11.7530     1.9300     0.5720 C.3   1 <1>   0.1200 
 21 C       -9.7370    -2.9190    -0.7050 C.3   1 <1>   0.0000 
 22 O      -12.5860     2.9070     1.1120 O.3   1 <1>  -0.5600 
 23 C      -10.3640    -2.2850     0.5660 C.3   1 <1>   0.0000 
 24 C      -10.2820    -4.2820    -0.2010 C.3   1 <1>   0.0000 
 25 C      -13.9420     2.6230     0.9900 C.3   1 <1>   0.0400 
 26 C      -11.3580    -3.4740     0.5720 C.3   1 <1>   0.0000 
 27 H       -1.6080     2.1620    -1.5330 H     1 <1>   0.1500 
 28 H       -2.1880    -1.1950     1.0130 H     1 <1>   0.1500 
 29 H       -4.0000     2.7210    -1.3490 H     1 <1>   0.1500 
 30 H       -4.5690    -0.6410     1.2180 H     1 <1>   0.1500 
 31 H       -9.5310     0.4300     0.7730 H     1 <1>   0.4000 
 32 H      -10.1410     3.2710     0.1590 H     1 <1>   0.0800 
 33 H      -10.0960     2.5810     1.7710 H     1 <1>   0.0800 
 34 H       -7.7690    -3.3030     0.0700 H     1 <1>   0.0800 
 35 H       -7.8680    -3.3910    -1.6600 H     1 <1>   0.0800 
 36 H       -7.3840     0.0670    -2.3790 H     1 <1>   0.0800 
 37 H       -9.0680    -0.3720    -2.1900 H     1 <1>   0.0800 
 38 H       -7.9600    -1.4510    -3.0160 H     1 <1>   0.0800 
 39 H      -11.9230     1.0090     1.1010 H     1 <1>   0.0800 
 40 H      -11.9870     1.8130    -0.4720 H     1 <1>   0.0800 
 41 H      -10.2360    -2.6080    -1.6070 H     1 <1>   0.0000 
 42 H      -10.8290    -1.3310     0.3930 H     1 <1>   0.0000 
 43 H       -9.7050    -2.2960     1.4180 H     1 <1>   0.0000 
 44 H       -9.6030    -4.7960     0.4590 H     1 <1>   0.0000 
 45 H      -10.6820    -4.9060    -0.9800 H     1 <1>   0.0000 
 46 H      -14.4950     3.4320     1.4350 H     1 <1>   0.0800 
 47 H      -14.1620     1.7060     1.5080 H     1 <1>   0.0800 
 48 H      -14.1960     2.5410    -0.0530 H     1 <1>   0.0800 
 49 H      -12.2380    -3.2830    -0.0190 H     1 <1>   0.0000 
 50 H      -11.5710    -3.8600     1.5530 H     1 <1>   0.0000 
@<TRIPOS>BOND
  1   1   2  1   
  2   2   3  ar  
  3   2   4  ar  
  4   3   5  ar  
  5   3  27  1   
  6   4   6  ar  
  7   4  28  1   
  8   5   7  ar  
  9   5  29  1   
 10   6   7  ar  
 11   6  30  1   
 12   7   8  1   
 13   8   9  1   
 14   8  10  2   
 15   9  11  1   
 16  10  12  1   
 17  10  13  1   
 18  11  12  2   
 19  12  14  1   
 20  13  15  2   
 21  13  16  am  
 22  14  17  1   
 23  14  31  1   
 24  16  18  1   
 25  16  19  1   
 26  17  20  1   
 27  17  32  1   
 28  17  33  1   
 29  18  21  1   
 30  18  34  1   
 31  18  35  1   
 32  19  36  1   
 33  19  37  1   
 34  19  38  1   
 35  20  22  1   
 36  20  39  1   
 37  20  40  1   
 38  21  23  1   
 39  21  24  1   
 40  21  41  1   
 41  22  25  1   
 42  23  26  1   
 43  23  42  1   
 44  23  43  1   
 45  24  26  1   
 46  24  44  1   
 47  24  45  1   
 48  25  46  1   
 49  25  47  1   
 50  25  48  1   
 51  26  49  1   
 52  26  50  1   
@<TRIPOS>SUBSTRUCTURE
  1 ****  10 GROUP 4 **** **** 0

# MOE 2024.06 (io_trps.svl 2023.06)
