@<TRIPOS>MOLECULE
NONAME
48 51 1 0 0 
SMALL
USER_CHARGES


@<TRIPOS>ATOM
  1 CL       1.3540    -1.5540     0.7980 Cl    1 <1>  -0.1770 
  2 C        0.0180    -2.5870     0.3610 C.ar  1 <1>   0.1770 
  3 C       -1.1920    -2.4520     1.0140 C.ar  1 <1>  -0.1500 
  4 C        0.1840    -3.5300    -0.6360 C.ar  1 <1>  -0.1500 
  5 C       -2.2470    -3.2730     0.6610 C.ar  1 <1>  -0.1500 
  6 C       -0.8790    -4.3460    -0.9780 C.ar  1 <1>  -0.1500 
  7 C       -2.1180    -4.2410    -0.3390 C.ar  1 <1>   0.0530 
  8 C       -3.2120    -5.1050    -0.7160 C.2   1 <1>   0.0870 
  9 O       -3.2710    -5.5940    -1.9300 O.3   1 <1>  -0.0190 
 10 C       -4.2920    -5.5850    -0.0500 C.2   1 <1>  -0.2330 
 11 N       -4.3130    -6.3580    -2.1190 N.2   1 <1>  -0.4100 
 12 C       -4.9590    -6.3670    -1.0020 C.2   1 <1>   0.3720 
 13 C       -4.6500    -5.3820     1.3140 C.2   1 <1>   1.0330 
 14 N       -6.1570    -7.0940    -0.8750 N.pl3 1 <1>  -0.8210 
 15 O       -5.2840    -4.3690     1.6550 O.co2 1 <1>  -0.9000 
 16 O       -4.3590    -6.2230     2.1810 O.co2 1 <1>  -0.9000 
 17 C       -6.9710    -6.9260     0.3760 C.3   1 <1>   0.2090 
 18 C       -6.0540    -8.5340    -1.2720 C.3   1 <1>   0.2090 
 19 C       -8.3470    -7.6090     0.2710 C.3   1 <1>   0.2090 
 20 C       -7.4370    -9.2070    -1.3760 C.3   1 <1>   0.2090 
 21 N       -8.2210    -9.0490    -0.1130 N.pl3 1 <1>  -0.8380 
 22 C       -9.3160    -9.8700     0.1110 C.ar  1 <1>   0.4100 
 23 N      -10.0660   -10.1260    -0.9540 N.ar  1 <1>  -0.6200 
 24 C       -9.6180   -10.3860     1.3940 C.ar  1 <1>   0.1670 
 25 C      -11.1100   -10.8840    -0.6820 C.ar  1 <1>   0.1670 
 26 N      -10.6690   -11.1390     1.6630 N.ar  1 <1>  -0.6200 
 27 C       -8.7160   -10.0980     2.5850 C.3   1 <1>  -0.0970 
 28 C      -11.4020   -11.3710     0.5860 C.ar  1 <1>   0.1600 
 29 C      -12.0090   -11.2090    -1.8580 C.3   1 <1>  -0.0970 
 30 H       -1.3080    -1.7160     1.7880 H     1 <1>   0.1500 
 31 H        1.1330    -3.6200    -1.1320 H     1 <1>   0.1500 
 32 H       -3.1890    -3.1570     1.1700 H     1 <1>   0.1500 
 33 H       -0.7510    -5.0840    -1.7500 H     1 <1>   0.1500 
 34 H       -7.1230    -5.8780     0.5660 H     1 <1>   0.0800 
 35 H       -6.4410    -7.3500     1.2120 H     1 <1>   0.0800 
 36 H       -5.4610    -9.0580    -0.5430 H     1 <1>   0.0800 
 37 H       -5.5600    -8.6120    -2.2240 H     1 <1>   0.0800 
 38 H       -8.9330    -7.0960    -0.4710 H     1 <1>   0.0800 
 39 H       -8.8540    -7.5250     1.2140 H     1 <1>   0.0800 
 40 H       -7.3110   -10.2540    -1.5890 H     1 <1>   0.0800 
 41 H       -7.9810    -8.7640    -2.1910 H     1 <1>   0.0800 
 42 H       -7.7070    -9.9040     2.2710 H     1 <1>   0.0800 
 43 H       -8.7040   -10.9430     3.2480 H     1 <1>   0.0800 
 44 H       -9.0870    -9.2430     3.1190 H     1 <1>   0.0800 
 45 H      -12.2770   -11.9810     0.7230 H     1 <1>   0.1500 
 46 H      -11.4420   -11.7270    -2.6090 H     1 <1>   0.0800 
 47 H      -12.3890   -10.2960    -2.2800 H     1 <1>   0.0800 
 48 H      -12.8360   -11.8250    -1.5580 H     1 <1>   0.0800 
@<TRIPOS>BOND
  1   1   2  1   
  2   2   3  ar  
  3   2   4  ar  
  4   3   5  ar  
  5   3  30  1   
  6   4   6  ar  
  7   4  31  1   
  8   5   7  ar  
  9   5  32  1   
 10   6   7  ar  
 11   6  33  1   
 12   7   8  1   
 13   8   9  1   
 14   8  10  2   
 15   9  11  1   
 16  10  12  1   
 17  10  13  1   
 18  11  12  2   
 19  12  14  1   
 20  13  15  ar  
 21  13  16  ar  
 22  14  17  1   
 23  14  18  1   
 24  17  19  1   
 25  17  34  1   
 26  17  35  1   
 27  18  20  1   
 28  18  36  1   
 29  18  37  1   
 30  19  21  1   
 31  19  38  1   
 32  19  39  1   
 33  20  21  1   
 34  20  40  1   
 35  20  41  1   
 36  21  22  1   
 37  22  23  ar  
 38  22  24  ar  
 39  23  25  ar  
 40  24  26  ar  
 41  24  27  1   
 42  25  28  ar  
 43  25  29  1   
 44  26  28  ar  
 45  27  42  1   
 46  27  43  1   
 47  27  44  1   
 48  28  45  1   
 49  29  46  1   
 50  29  47  1   
 51  29  48  1   
@<TRIPOS>SUBSTRUCTURE
  1 ****  14 GROUP 4 **** **** 0

# MOE 2024.06 (io_trps.svl 2023.06)
