@<TRIPOS>MOLECULE
NONAME
45 47 1 0 0 
SMALL
USER_CHARGES


@<TRIPOS>ATOM
  1 O       -0.4060     0.1560    -0.2830 O.2   1 <1>  -0.5700 
  2 C       -1.3530     0.7580     0.1910 C.2   1 <1>   0.7160 
  3 N       -2.5160     0.0620     0.4370 N.am  1 <1>  -0.6600 
  4 C       -1.2440     2.1700     0.4590 C.2   1 <1>  -0.0860 
  5 C       -3.8680     0.6780     0.4390 C.3   1 <1>   0.1400 
  6 C       -2.6140    -1.3980     0.1840 C.3   1 <1>   0.1400 
  7 C       -1.8390     2.8770     1.5070 C.2   1 <1>   0.1390 
  8 C       -0.5480     3.1370    -0.2010 C.2   1 <1>  -0.3020 
  9 C       -4.8020    -0.4210    -0.0670 C.3   1 <1>   0.2000 
 10 C       -4.1030    -1.7350     0.2740 C.3   1 <1>  -0.0800 
 11 N       -1.5650     4.1420     1.4890 N.2   1 <1>  -0.7070 
 12 N       -0.7540     4.3060     0.4270 N.pl3 1 <1>   0.3140 
 13 O       -6.0410    -0.3630     0.5500 O.3   1 <1>  -0.6800 
 14 C       -4.5310    -2.8940    -0.6390 C.3   1 <1>  -0.0170 
 15 C       -0.1920     5.6390     0.0720 C.3   1 <1>   0.1760 
 16 C       -3.8060    -4.1780    -0.2690 C.ar  1 <1>  -0.1430 
 17 C       -0.6590     6.0730    -1.3240 C.3   1 <1>  -0.2400 
 18 C        1.3410     5.6220     0.1580 C.3   1 <1>  -0.2400 
 19 C       -2.6600    -4.5900    -0.9200 C.ar  1 <1>  -0.1500 
 20 C       -4.2600    -4.9990     0.7430 C.ar  1 <1>  -0.1500 
 21 C       -2.0390    -5.7660    -0.5330 C.ar  1 <1>   0.1600 
 22 C       -3.5640    -6.1570     1.0500 C.ar  1 <1>   0.1600 
 23 N       -2.4630    -6.5590     0.4370 N.ar  1 <1>  -0.6200 
 24 H       -4.1260     0.9610     1.4440 H     1 <1>   0.0800 
 25 H       -3.9010     1.5360    -0.2110 H     1 <1>   0.0800 
 26 H       -2.2330    -1.6080    -0.8020 H     1 <1>   0.0800 
 27 H       -2.0390    -1.9500     0.9090 H     1 <1>   0.0800 
 28 H       -2.4580     2.4230     2.2610 H     1 <1>   0.1500 
 29 H        0.0730     3.0300    -1.0710 H     1 <1>   0.1500 
 30 H       -4.9450    -0.3160    -1.1290 H     1 <1>   0.0800 
 31 H       -4.3080    -1.9940     1.2990 H     1 <1>   0.0800 
 32 H       -5.9530    -0.4890     1.5140 H     1 <1>   0.4000 
 33 H       -4.3280    -2.6470    -1.6670 H     1 <1>   0.0800 
 34 H       -5.5930    -3.0460    -0.5490 H     1 <1>   0.0800 
 35 H       -0.5680     6.3430     0.7940 H     1 <1>   0.0800 
 36 H       -0.2920     5.3990    -2.0770 H     1 <1>   0.0800 
 37 H       -0.2960     7.0610    -1.5430 H     1 <1>   0.0800 
 38 H       -1.7340     6.0920    -1.3600 H     1 <1>   0.0800 
 39 H        1.7570     4.9380    -0.5600 H     1 <1>   0.0800 
 40 H        1.6480     5.3270     1.1460 H     1 <1>   0.0800 
 41 H        1.7310     6.6040    -0.0370 H     1 <1>   0.0800 
 42 H       -2.2420    -4.0100    -1.7220 H     1 <1>   0.1500 
 43 H       -5.1480    -4.7520     1.2950 H     1 <1>   0.1500 
 44 H       -1.1450    -6.0700    -1.0510 H     1 <1>   0.1500 
 45 H       -3.9330    -6.7860     1.8430 H     1 <1>   0.1500 
@<TRIPOS>BOND
  1   1   2  2   
  2   2   3  am  
  3   2   4  1   
  4   3   5  1   
  5   3   6  1   
  6   4   7  1   
  7   4   8  2   
  8   5   9  1   
  9   5  24  1   
 10   5  25  1   
 11   6  10  1   
 12   6  26  1   
 13   6  27  1   
 14   7  11  2   
 15   7  28  1   
 16   8  12  1   
 17   8  29  1   
 18   9  10  1   
 19   9  13  1   
 20   9  30  1   
 21  10  14  1   
 22  10  31  1   
 23  11  12  1   
 24  12  15  1   
 25  13  32  1   
 26  14  16  1   
 27  14  33  1   
 28  14  34  1   
 29  15  17  1   
 30  15  18  1   
 31  15  35  1   
 32  16  19  ar  
 33  16  20  ar  
 34  17  36  1   
 35  17  37  1   
 36  17  38  1   
 37  18  39  1   
 38  18  40  1   
 39  18  41  1   
 40  19  21  ar  
 41  19  42  1   
 42  20  22  ar  
 43  20  43  1   
 44  21  23  ar  
 45  21  44  1   
 46  22  23  ar  
 47  22  45  1   
@<TRIPOS>SUBSTRUCTURE
  1 ****   3 GROUP 4 **** **** 0

# MOE 2024.06 (io_trps.svl 2023.06)
