@<TRIPOS>MOLECULE
NONAME
49 51 1 0 0 
SMALL
USER_CHARGES


@<TRIPOS>ATOM
  1 F       -3.3120     1.0830     2.8060 F     1 <1>  -0.1900 
  2 C       -2.7680     1.3870     1.6590 C.ar  1 <1>   0.1900 
  3 C       -2.5760     2.7160     1.3470 C.ar  1 <1>  -0.1500 
  4 C       -2.4040     0.3670     0.8050 C.ar  1 <1>  -0.1500 
  5 C       -1.9910     3.0620     0.1310 C.ar  1 <1>   0.0860 
  6 C       -1.8280     0.7000    -0.4080 C.ar  1 <1>  -0.1500 
  7 C       -1.6230     2.0310    -0.7470 C.ar  1 <1>  -0.1440 
  8 C       -1.7670     4.4600    -0.1800 C.2   1 <1>   0.5440 
  9 C       -0.9940     2.3650    -2.0940 C.3   1 <1>  -0.0960 
 10 O       -2.5300     5.0270    -0.9400 O.2   1 <1>  -0.5700 
 11 N       -0.7030     5.1580     0.3570 N.am  1 <1>  -0.6600 
 12 C        0.3750     4.5110     1.1710 C.3   1 <1>   0.1400 
 13 C       -0.5140     6.6070     0.0700 C.3   1 <1>   0.1400 
 14 C        1.7400     4.5850     0.4760 C.3   1 <1>   0.1400 
 15 C        0.4940     6.7810    -1.0720 C.3   1 <1>  -0.1600 
 16 N        2.2920     5.9720     0.5290 N.am  1 <1>  -0.6600 
 17 C        1.9600     6.8660    -0.6210 C.3   1 <1>   0.1400 
 18 C        3.0990     6.3370     1.5830 C.2   1 <1>   0.5690 
 19 O        3.2640     5.5970     2.5260 O.2   1 <1>  -0.5700 
 20 C        3.8160     7.6830     1.6310 C.3   1 <1>   0.0440 
 21 C        4.7290     7.9400     0.4330 C.ar  1 <1>  -0.1430 
 22 C        4.6840     9.1530    -0.2370 C.ar  1 <1>  -0.1500 
 23 C        5.6110     6.9600     0.0030 C.ar  1 <1>  -0.1500 
 24 C        5.5020     9.3800    -1.3300 C.ar  1 <1>  -0.1500 
 25 C        6.4300     7.1850    -1.0890 C.ar  1 <1>  -0.1500 
 26 C        6.3750     8.3950    -1.7580 C.ar  1 <1>  -0.1500 
 27 H       -2.8770     3.4810     2.0380 H     1 <1>   0.1500 
 28 H       -2.5700    -0.6580     1.0840 H     1 <1>   0.1500 
 29 H       -1.5440    -0.0860    -1.0870 H     1 <1>   0.1500 
 30 H       -0.0920     2.9330    -1.9530 H     1 <1>   0.0800 
 31 H       -1.6800     2.9510    -2.6810 H     1 <1>   0.0800 
 32 H       -0.7540     1.4740    -2.6450 H     1 <1>   0.0800 
 33 H        0.1460     3.4760     1.3430 H     1 <1>   0.0800 
 34 H        0.4380     4.9890     2.1330 H     1 <1>   0.0800 
 35 H       -0.1820     7.1190     0.9570 H     1 <1>   0.0800 
 36 H       -1.4560     7.0410    -0.2210 H     1 <1>   0.0800 
 37 H        1.6580     4.2510    -0.5420 H     1 <1>   0.0800 
 38 H        2.4180     3.9160     0.9800 H     1 <1>   0.0800 
 39 H        0.2640     7.6950    -1.5890 H     1 <1>   0.0800 
 40 H        0.3690     5.9870    -1.7870 H     1 <1>   0.0800 
 41 H        2.1500     7.8860    -0.3450 H     1 <1>   0.0800 
 42 H        2.6070     6.6290    -1.4480 H     1 <1>   0.0800 
 43 H        4.4150     7.7190     2.5230 H     1 <1>   0.0800 
 44 H        3.0760     8.4550     1.7140 H     1 <1>   0.0800 
 45 H        4.0140     9.9310     0.0850 H     1 <1>   0.1500 
 46 H        5.6640     6.0140     0.5170 H     1 <1>   0.1500 
 47 H        5.4630    10.3220    -1.8470 H     1 <1>   0.1500 
 48 H        7.1110     6.4190    -1.4170 H     1 <1>   0.1500 
 49 H        7.0130     8.5700    -2.6070 H     1 <1>   0.1500 
@<TRIPOS>BOND
  1   1   2  1   
  2   2   3  ar  
  3   2   4  ar  
  4   3   5  ar  
  5   3  27  1   
  6   4   6  ar  
  7   4  28  1   
  8   5   7  ar  
  9   5   8  1   
 10   6   7  ar  
 11   6  29  1   
 12   7   9  1   
 13   8  10  2   
 14   8  11  am  
 15   9  30  1   
 16   9  31  1   
 17   9  32  1   
 18  11  12  1   
 19  11  13  1   
 20  12  14  1   
 21  12  33  1   
 22  12  34  1   
 23  13  15  1   
 24  13  35  1   
 25  13  36  1   
 26  14  16  1   
 27  14  37  1   
 28  14  38  1   
 29  15  17  1   
 30  15  39  1   
 31  15  40  1   
 32  16  17  1   
 33  16  18  am  
 34  17  41  1   
 35  17  42  1   
 36  18  19  2   
 37  18  20  1   
 38  20  21  1   
 39  20  43  1   
 40  20  44  1   
 41  21  22  ar  
 42  21  23  ar  
 43  22  24  ar  
 44  22  45  1   
 45  23  25  ar  
 46  23  46  1   
 47  24  26  ar  
 48  24  47  1   
 49  25  26  ar  
 50  25  48  1   
 51  26  49  1   
@<TRIPOS>SUBSTRUCTURE
  1 ****  14 GROUP 4 **** **** 0

# MOE 2024.06 (io_trps.svl 2023.06)
