@<TRIPOS>MOLECULE
NONAME
43 45 1 0 0 
SMALL
USER_CHARGES


@<TRIPOS>ATOM
  1 F       -1.8900    -0.1550     0.8630 F     1 <1>  -0.3400 
  2 C       -2.9700     0.5660     1.1260 C.3   1 <1>   1.1640 
  3 F       -2.6250     1.3780     2.1190 F     1 <1>  -0.3400 
  4 F       -3.8700    -0.2600     1.6450 F     1 <1>  -0.3400 
  5 C       -3.5040     1.3280    -0.0990 C.ar  1 <1>  -0.1440 
  6 C       -4.0110     0.6190    -1.1970 C.ar  1 <1>   0.0860 
  7 C       -3.4940     2.7210    -0.1310 C.ar  1 <1>  -0.1500 
  8 C       -4.0670    -0.8280    -1.2460 C.2   1 <1>   0.5440 
  9 C       -4.4870     1.3390    -2.2920 C.ar  1 <1>  -0.1500 
 10 C       -3.9770     3.4120    -1.2270 C.ar  1 <1>  -0.1500 
 11 O       -3.0850    -1.4590    -1.5780 O.2   1 <1>  -0.5700 
 12 N       -5.2200    -1.4980    -0.9240 N.am  1 <1>  -0.6600 
 13 C       -4.4750     2.7190    -2.3110 C.ar  1 <1>  -0.1500 
 14 C       -6.4740    -0.8660    -0.4460 C.3   1 <1>   0.1400 
 15 C       -5.2720    -2.9700    -0.7530 C.3   1 <1>   0.1400 
 16 C       -7.3860    -2.0340    -0.0690 C.3   1 <1>   0.2000 
 17 C       -6.4530    -3.2150     0.1860 C.3   1 <1>  -0.0800 
 18 O       -8.1260    -1.7540     1.0670 O.3   1 <1>  -0.6800 
 19 C       -7.1280    -4.5790    -0.0160 C.3   1 <1>   0.0210 
 20 C       -6.1270    -5.7040     0.1530 C.2   1 <1>   0.1080 
 21 N       -5.5370    -5.9550     1.2800 N.2   1 <1>  -0.7070 
 22 C       -5.7170    -6.5680    -0.8580 C.2   1 <1>  -0.1500 
 23 N       -4.7250    -6.9950     1.0160 N.pl3 1 <1>   0.3000 
 24 C       -4.8150    -7.3840    -0.2730 C.2   1 <1>  -0.3320 
 25 C       -4.0200    -8.5270    -0.8760 C.3   1 <1>  -0.0600 
 26 H       -3.1080     3.2920     0.6980 H     1 <1>   0.1500 
 27 H       -4.8690     0.7980    -3.1410 H     1 <1>   0.1500 
 28 H       -3.9630     4.4890    -1.2360 H     1 <1>   0.1500 
 29 H       -4.8480     3.2530    -3.1690 H     1 <1>   0.1500 
 30 H       -6.2650    -0.2540     0.4140 H     1 <1>   0.0800 
 31 H       -6.9170    -0.2740    -1.2270 H     1 <1>   0.0800 
 32 H       -5.4360    -3.4270    -1.7130 H     1 <1>   0.0800 
 33 H       -4.3540    -3.3470    -0.3320 H     1 <1>   0.0800 
 34 H       -8.0680    -2.2360    -0.8780 H     1 <1>   0.0800 
 35 H       -6.0680    -3.1610     1.1900 H     1 <1>   0.0800 
 36 H       -7.5430    -1.7410     1.8520 H     1 <1>   0.4000 
 37 H       -7.5660    -4.6360    -0.9960 H     1 <1>   0.0800 
 38 H       -7.9120    -4.7030     0.7090 H     1 <1>   0.0800 
 39 H       -6.0590    -6.5630    -1.8770 H     1 <1>   0.1500 
 40 H       -4.1220    -7.4130     1.7350 H     1 <1>   0.2700 
 41 H       -4.2660    -8.6390    -1.9170 H     1 <1>   0.0800 
 42 H       -4.2480    -9.4470    -0.3690 H     1 <1>   0.0800 
 43 H       -2.9660    -8.3300    -0.7930 H     1 <1>   0.0800 
@<TRIPOS>BOND
  1   1   2  1   
  2   2   3  1   
  3   2   4  1   
  4   2   5  1   
  5   5   6  ar  
  6   5   7  ar  
  7   6   8  1   
  8   6   9  ar  
  9   7  10  ar  
 10   7  26  1   
 11   8  11  2   
 12   8  12  am  
 13   9  13  ar  
 14   9  27  1   
 15  10  13  ar  
 16  10  28  1   
 17  12  14  1   
 18  12  15  1   
 19  13  29  1   
 20  14  16  1   
 21  14  30  1   
 22  14  31  1   
 23  15  17  1   
 24  15  32  1   
 25  15  33  1   
 26  16  17  1   
 27  16  18  1   
 28  16  34  1   
 29  17  19  1   
 30  17  35  1   
 31  18  36  1   
 32  19  20  1   
 33  19  37  1   
 34  19  38  1   
 35  20  21  2   
 36  20  22  1   
 37  21  23  1   
 38  22  24  2   
 39  22  39  1   
 40  23  24  1   
 41  23  40  1   
 42  24  25  1   
 43  25  41  1   
 44  25  42  1   
 45  25  43  1   
@<TRIPOS>SUBSTRUCTURE
  1 ****  12 GROUP 4 **** **** 0

# MOE 2024.06 (io_trps.svl 2023.06)
