@<TRIPOS>MOLECULE
NONAME
47 50 1 0 0 
SMALL
USER_CHARGES


@<TRIPOS>ATOM
  1 O       -1.2690     0.2280     2.9470 O.2   1 <1>  -0.5700 
  2 C       -1.4490     0.8650     1.9220 C.2   1 <1>   0.7160 
  3 N       -2.0140     0.2060     0.8520 N.am  1 <1>  -0.6600 
  4 C       -1.1000     2.2580     1.9090 C.2   1 <1>  -0.0860 
  5 C       -2.6000     0.8560    -0.3450 C.3   1 <1>   0.1400 
  6 C       -2.5100    -1.1850     0.9580 C.3   1 <1>   0.1400 
  7 C       -0.6200     3.1090     0.9410 C.2   1 <1>  -0.0260 
  8 C       -1.1800     3.0670     3.0420 C.2   1 <1>   0.1390 
  9 C       -3.6830    -0.1030    -0.8500 C.3   1 <1>   0.2000 
 10 C       -3.1840    -1.4750    -0.3860 C.3   1 <1>  -0.0800 
 11 N       -0.2960     2.8950    -0.3810 N.2   1 <1>  -0.5760 
 12 N       -0.4620     4.3310     1.5500 N.pl3 1 <1>   0.6010 
 13 N       -0.8160     4.2990     2.8460 N.2   1 <1>  -0.7070 
 14 O       -4.9050     0.1680    -0.2210 O.3   1 <1>  -0.5600 
 15 C       -4.2750    -2.5590    -0.3070 C.3   1 <1>   0.0200 
 16 C        0.1770     3.9090    -1.0350 C.2   1 <1>   0.3760 
 17 C        0.0360     5.3970     0.8380 C.2   1 <1>  -0.1810 
 18 C       -5.6610     1.1850    -0.8000 C.3   1 <1>   0.0400 
 19 C       -3.7210    -3.9440    -0.0140 C.2   1 <1>  -0.0400 
 20 C        0.3650     5.2020    -0.4670 C.2   1 <1>  -0.1240 
 21 O       -4.5590    -4.9310     0.1610 O.3   1 <1>  -0.0190 
 22 C       -2.4780    -4.4390     0.1120 C.2   1 <1>  -0.1500 
 23 C        0.9260     6.3200    -1.3310 C.3   1 <1>  -0.1020 
 24 N       -3.9480    -6.0550     0.4000 N.2   1 <1>  -0.4100 
 25 C       -2.6920    -5.7880     0.3780 C.2   1 <1>   0.1080 
 26 C       -1.6020    -6.8100     0.6110 C.3   1 <1>  -0.0590 
 27 H       -2.9940     1.8300    -0.1130 H     1 <1>   0.0800 
 28 H       -1.8330     0.9460    -1.0930 H     1 <1>   0.0800 
 29 H       -1.6990    -1.8620     1.1600 H     1 <1>   0.0800 
 30 H       -3.2280    -1.2370     1.7600 H     1 <1>   0.0800 
 31 H       -1.5140     2.7010     4.0000 H     1 <1>   0.1500 
 32 H       -3.8150    -0.0600    -1.9180 H     1 <1>   0.0800 
 33 H       -2.4240    -1.7960    -1.0750 H     1 <1>   0.0800 
 34 H       -4.8060    -2.5980    -1.2410 H     1 <1>   0.0800 
 35 H       -4.9850    -2.3060     0.4610 H     1 <1>   0.0800 
 36 H        0.4440     3.7760    -2.0690 H     1 <1>   0.0600 
 37 H        0.1340     6.3210     1.3750 H     1 <1>   0.1500 
 38 H       -6.5660     1.2910    -0.2290 H     1 <1>   0.0800 
 39 H       -5.9030     0.9150    -1.8130 H     1 <1>   0.0800 
 40 H       -5.1090     2.1080    -0.7740 H     1 <1>   0.0800 
 41 H       -1.5230    -3.9560     0.0340 H     1 <1>   0.1500 
 42 H        1.9030     6.0520    -1.6940 H     1 <1>   0.0800 
 43 H        1.0110     7.2320    -0.7670 H     1 <1>   0.0800 
 44 H        0.2790     6.4980    -2.1720 H     1 <1>   0.0800 
 45 H       -0.9830    -6.5020     1.4340 H     1 <1>   0.0800 
 46 H       -0.9980    -6.9060    -0.2720 H     1 <1>   0.0800 
 47 H       -2.0380    -7.7650     0.8410 H     1 <1>   0.0800 
@<TRIPOS>BOND
  1   1   2  2   
  2   2   3  am  
  3   2   4  1   
  4   3   5  1   
  5   3   6  1   
  6   4   7  2   
  7   4   8  1   
  8   5   9  1   
  9   5  27  1   
 10   5  28  1   
 11   6  10  1   
 12   6  29  1   
 13   6  30  1   
 14   7  11  1   
 15   7  12  1   
 16   8  13  2   
 17   8  31  1   
 18   9  10  1   
 19   9  14  1   
 20   9  32  1   
 21  10  15  1   
 22  10  33  1   
 23  11  16  2   
 24  12  13  1   
 25  12  17  1   
 26  14  18  1   
 27  15  19  1   
 28  15  34  1   
 29  15  35  1   
 30  16  20  1   
 31  16  36  1   
 32  17  20  2   
 33  17  37  1   
 34  18  38  1   
 35  18  39  1   
 36  18  40  1   
 37  19  21  1   
 38  19  22  2   
 39  20  23  1   
 40  21  24  1   
 41  22  25  1   
 42  22  41  1   
 43  23  42  1   
 44  23  43  1   
 45  23  44  1   
 46  24  25  2   
 47  25  26  1   
 48  26  45  1   
 49  26  46  1   
 50  26  47  1   
@<TRIPOS>SUBSTRUCTURE
  1 ****   3 GROUP 4 **** **** 0

# MOE 2024.06 (io_trps.svl 2023.06)
