@<TRIPOS>MOLECULE
NONAME
61 64 1 0 0 
SMALL
USER_CHARGES


@<TRIPOS>ATOM
  1 O       -0.5830    -1.2630     0.3870 O.2   1 <1>  -0.5700 
  2 C       -0.0410    -2.2430    -0.0680 C.2   1 <1>   0.5690 
  3 N        1.0500    -2.1280    -0.8970 N.am  1 <1>  -0.6600 
  4 C       -0.6570    -3.5690     0.3300 C.3   1 <1>  -0.0990 
  5 C        1.9190    -3.2510    -1.3890 C.3   1 <1>   0.1400 
  6 C        1.4200    -0.7880    -1.4350 C.3   1 <1>   0.1400 
  7 C       -0.2760    -4.7600    -0.5410 C.3   1 <1>   0.1200 
  8 C        2.1460    -4.4540    -0.4240 C.3   1 <1>   0.2800 
  9 C        2.5830    -0.2150    -0.6270 C.3   1 <1>  -0.1600 
 10 O        0.9940    -5.2290    -0.2080 O.3   1 <1>  -0.5600 
 11 C        3.1610    -5.4280    -1.0700 C.3   1 <1>  -0.1600 
 12 C        2.6470    -4.0200     0.9710 C.3   1 <1>  -0.1600 
 13 C        2.8740     1.2440    -0.9840 C.3   1 <1>  -0.0170 
 14 C        4.5710    -5.3530    -0.4740 C.3   1 <1>   0.1400 
 15 C        4.0320    -3.3570     0.9410 C.3   1 <1>   0.1400 
 16 C        4.0640     1.7310    -0.1750 C.ar  1 <1>  -0.1430 
 17 N        4.8980    -3.9450    -0.1200 N.am  1 <1>  -0.6600 
 18 C        5.3450     1.6670    -0.7010 C.ar  1 <1>  -0.1500 
 19 C        3.8800     2.2320     1.1040 C.ar  1 <1>  -0.1500 
 20 C        5.9080    -3.2720    -0.7650 C.2   1 <1>   0.5690 
 21 C        6.4290     2.0960     0.0440 C.ar  1 <1>  -0.1500 
 22 C        4.9630     2.6640     1.8500 C.ar  1 <1>  -0.1500 
 23 O        6.3940    -3.7140    -1.7810 O.2   1 <1>  -0.5700 
 24 C        6.4450    -1.9440    -0.2250 C.3   1 <1>  -0.0190 
 25 C        6.2390     2.5950     1.3200 C.ar  1 <1>  -0.1500 
 26 C        7.6220    -1.3900    -1.0210 C.3   1 <1>   0.1200 
 27 C        7.0470    -2.0150     1.1710 C.3   1 <1>  -0.1600 
 28 O        8.3130    -0.5480    -0.1510 O.3   1 <1>  -0.5600 
 29 C        8.0620    -0.8780     1.1800 C.3   1 <1>   0.1200 
 30 H       -1.7220    -3.4460     0.2640 H     1 <1>   0.0800 
 31 H       -0.4280    -3.7780     1.3580 H     1 <1>   0.0800 
 32 H        2.8890    -2.8470    -1.6150 H     1 <1>   0.0800 
 33 H        1.5250    -3.6130    -2.3220 H     1 <1>   0.0800 
 34 H        0.5760    -0.1210    -1.3730 H     1 <1>   0.0800 
 35 H        1.6910    -0.8740    -2.4730 H     1 <1>   0.0800 
 36 H       -0.3250    -4.5320    -1.5910 H     1 <1>   0.0800 
 37 H       -0.9580    -5.5690    -0.3460 H     1 <1>   0.0800 
 38 H        3.4650    -0.7940    -0.8210 H     1 <1>   0.0800 
 39 H        2.3470    -0.2750     0.4210 H     1 <1>   0.0800 
 40 H        3.2380    -5.2400    -2.1250 H     1 <1>   0.0800 
 41 H        2.8230    -6.4430    -0.9610 H     1 <1>   0.0800 
 42 H        2.7040    -4.8900     1.6000 H     1 <1>   0.0800 
 43 H        1.9590    -3.3400     1.4350 H     1 <1>   0.0800 
 44 H        2.0140     1.8540    -0.7660 H     1 <1>   0.0800 
 45 H        3.0870     1.3340    -2.0350 H     1 <1>   0.0800 
 46 H        5.2860    -5.7560    -1.1710 H     1 <1>   0.0800 
 47 H        4.6180    -5.9500     0.4200 H     1 <1>   0.0800 
 48 H        4.5060    -3.4810     1.9000 H     1 <1>   0.0800 
 49 H        3.9100    -2.3040     0.7630 H     1 <1>   0.0800 
 50 H        5.5090     1.2810    -1.6920 H     1 <1>   0.1500 
 51 H        2.8910     2.2860     1.5250 H     1 <1>   0.1500 
 52 H        7.4220     2.0350    -0.3680 H     1 <1>   0.1500 
 53 H        4.8120     3.0530     2.8420 H     1 <1>   0.1500 
 54 H        5.6650    -1.2080    -0.2470 H     1 <1>   0.0800 
 55 H        7.0840     2.9290     1.8970 H     1 <1>   0.1500 
 56 H        7.3080    -0.8320    -1.8860 H     1 <1>   0.0800 
 57 H        8.2990    -2.1730    -1.3160 H     1 <1>   0.0800 
 58 H        7.5620    -2.9500     1.3110 H     1 <1>   0.0800 
 59 H        6.3160    -1.8910     1.9490 H     1 <1>   0.0800 
 60 H        8.9880    -1.1660     1.6470 H     1 <1>   0.0800 
 61 H        7.6620    -0.0040     1.6620 H     1 <1>   0.0800 
@<TRIPOS>BOND
  1   1   2  2   
  2   2   3  am  
  3   2   4  1   
  4   3   5  1   
  5   3   6  1   
  6   4   7  1   
  7   4  30  1   
  8   4  31  1   
  9   5   8  1   
 10   5  32  1   
 11   5  33  1   
 12   6   9  1   
 13   6  34  1   
 14   6  35  1   
 15   7  10  1   
 16   7  36  1   
 17   7  37  1   
 18   8  10  1   
 19   8  11  1   
 20   8  12  1   
 21   9  13  1   
 22   9  38  1   
 23   9  39  1   
 24  11  14  1   
 25  11  40  1   
 26  11  41  1   
 27  12  15  1   
 28  12  42  1   
 29  12  43  1   
 30  13  16  1   
 31  13  44  1   
 32  13  45  1   
 33  14  17  1   
 34  14  46  1   
 35  14  47  1   
 36  15  17  1   
 37  15  48  1   
 38  15  49  1   
 39  16  18  ar  
 40  16  19  ar  
 41  17  20  am  
 42  18  21  ar  
 43  18  50  1   
 44  19  22  ar  
 45  19  51  1   
 46  20  23  2   
 47  20  24  1   
 48  21  25  ar  
 49  21  52  1   
 50  22  25  ar  
 51  22  53  1   
 52  24  26  1   
 53  24  27  1   
 54  24  54  1   
 55  25  55  1   
 56  26  28  1   
 57  26  56  1   
 58  26  57  1   
 59  27  29  1   
 60  27  58  1   
 61  27  59  1   
 62  28  29  1   
 63  29  60  1   
 64  29  61  1   
@<TRIPOS>SUBSTRUCTURE
  1 ****  15 GROUP 4 **** **** 0

# MOE 2024.06 (io_trps.svl 2023.06)
