@<TRIPOS>MOLECULE
NONAME
60 63 1 0 0 
SMALL
USER_CHARGES


@<TRIPOS>ATOM
  1 O       -0.1540     0.0570     1.5450 O.2   1 <1>  -0.5700 
  2 C       -1.0010     0.6420     0.8920 C.2   1 <1>   0.7150 
  3 N       -2.2630     0.1030     0.8210 N.am  1 <1>  -0.6600 
  4 C       -0.6470     1.8880     0.2430 C.2   1 <1>   0.0550 
  5 C       -2.3980    -1.3920     0.7860 C.3   1 <1>   0.3640 
  6 C       -3.4300     0.8810     1.3190 C.3   1 <1>   0.1400 
  7 O       -1.5170     2.6240    -0.4420 O.3   1 <1>  -0.2800 
  8 C        0.5590     2.5120     0.1890 C.2   1 <1>  -0.1500 
  9 C       -1.6020    -1.9050    -0.4210 C.ar  1 <1>  -0.1440 
 10 C       -3.8660    -1.9120     0.6860 C.3   1 <1>   0.2000 
 11 C       -4.7500     0.2580     0.8670 C.3   1 <1>   0.1200 
 12 C       -0.9180     3.6880    -0.9260 C.2   1 <1>  -0.0400 
 13 C        0.3870     3.6800    -0.5580 C.2   1 <1>  -0.1810 
 14 C       -1.8630    -1.4320    -1.7010 C.ar  1 <1>  -0.1500 
 15 C       -0.6030    -2.8520    -0.2470 C.ar  1 <1>  -0.1500 
 16 O       -4.7990    -1.0620     1.3030 O.3   1 <1>  -0.5600 
 17 C       -4.0670    -3.2960     1.3280 C.3   1 <1>   0.1200 
 18 C       -1.8020     4.6220    -1.7450 C.3   1 <1>   0.0200 
 19 C        1.5030     4.6630    -0.8350 C.3   1 <1>   0.5240 
 20 C       -1.1490    -1.9070    -2.7870 C.ar  1 <1>  -0.1500 
 21 C        0.1130    -3.3290    -1.3320 C.ar  1 <1>  -0.1500 
 22 O       -3.1270    -4.2260     0.8940 O.3   1 <1>  -0.6800 
 23 C       -1.0850     5.8300    -2.3560 C.3   1 <1>  -0.2400 
 24 N        1.5330     5.6380     0.2820 N.4   1 <1>  -0.9590 
 25 C       -0.1620    -2.8580    -2.6030 C.ar  1 <1>  -0.1500 
 26 C        2.3930     6.8160     0.0340 C.3   1 <1>   0.3430 
 27 C        1.9800     5.0570     1.5700 C.3   1 <1>   0.3430 
 28 C        2.6300     7.4040     1.4180 C.3   1 <1>  -0.1600 
 29 C        2.3750     6.2640     2.4100 C.3   1 <1>  -0.1600 
 30 H       -1.9640    -1.7860     1.6890 H     1 <1>   0.0800 
 31 H       -3.4050     0.9030     2.3950 H     1 <1>   0.0800 
 32 H       -3.3830     1.8950     0.9660 H     1 <1>   0.0800 
 33 H        1.4700     2.1500     0.6350 H     1 <1>   0.1500 
 34 H       -4.1500    -1.9780    -0.3490 H     1 <1>   0.0800 
 35 H       -4.8490     0.2860    -0.2040 H     1 <1>   0.0800 
 36 H       -5.5780     0.7810     1.3110 H     1 <1>   0.0800 
 37 H       -2.6220    -0.6850    -1.8560 H     1 <1>   0.1500 
 38 H       -0.3780    -3.2240     0.7380 H     1 <1>   0.1500 
 39 H       -5.0440    -3.6750     1.0860 H     1 <1>   0.0800 
 40 H       -3.9720    -3.2220     2.3980 H     1 <1>   0.0800 
 41 H       -2.2480     4.0480    -2.5400 H     1 <1>   0.0800 
 42 H       -2.6030     4.9700    -1.1160 H     1 <1>   0.0800 
 43 H        1.3150     5.1700    -1.7660 H     1 <1>   0.0800 
 44 H        2.4440     4.1430    -0.9140 H     1 <1>   0.0800 
 45 H       -1.3590    -1.5340    -3.7740 H     1 <1>   0.1500 
 46 H        0.8840    -4.0640    -1.1830 H     1 <1>   0.1500 
 47 H       -3.0400    -4.2200    -0.0820 H     1 <1>   0.4000 
 48 H       -0.3210     5.5070    -3.0400 H     1 <1>   0.0800 
 49 H       -0.6600     6.4520    -1.5910 H     1 <1>   0.0800 
 50 H       -1.7950     6.4210    -2.9100 H     1 <1>   0.0800 
 51 H        0.5670     5.9580     0.4230 H     1 <1>   0.4500 
 52 H        0.3950    -3.2290    -3.4460 H     1 <1>   0.1500 
 53 H        3.3350     6.5010    -0.3870 H     1 <1>   0.0800 
 54 H        1.9220     7.5270    -0.6270 H     1 <1>   0.0800 
 55 H        1.1990     4.4780     2.0400 H     1 <1>   0.0800 
 56 H        2.8440     4.4300     1.4110 H     1 <1>   0.0800 
 57 H        3.6330     7.7870     1.4980 H     1 <1>   0.0800 
 58 H        1.9420     8.2130     1.5930 H     1 <1>   0.0800 
 59 H        1.5710     6.5200     3.0800 H     1 <1>   0.0800 
 60 H        3.2490     6.0410     2.9980 H     1 <1>   0.0800 
@<TRIPOS>BOND
  1   1   2  2   
  2   2   3  am  
  3   2   4  1   
  4   3   5  1   
  5   3   6  1   
  6   4   7  1   
  7   4   8  2   
  8   5   9  1   
  9   5  10  1   
 10   5  30  1   
 11   6  11  1   
 12   6  31  1   
 13   6  32  1   
 14   7  12  1   
 15   8  13  1   
 16   8  33  1   
 17   9  14  ar  
 18   9  15  ar  
 19  10  16  1   
 20  10  17  1   
 21  10  34  1   
 22  11  16  1   
 23  11  35  1   
 24  11  36  1   
 25  12  13  2   
 26  12  18  1   
 27  13  19  1   
 28  14  20  ar  
 29  14  37  1   
 30  15  21  ar  
 31  15  38  1   
 32  17  22  1   
 33  17  39  1   
 34  17  40  1   
 35  18  23  1   
 36  18  41  1   
 37  18  42  1   
 38  19  24  1   
 39  19  43  1   
 40  19  44  1   
 41  20  25  ar  
 42  20  45  1   
 43  21  25  ar  
 44  21  46  1   
 45  22  47  1   
 46  23  48  1   
 47  23  49  1   
 48  23  50  1   
 49  24  26  1   
 50  24  27  1   
 51  24  51  1   
 52  25  52  1   
 53  26  28  1   
 54  26  53  1   
 55  26  54  1   
 56  27  29  1   
 57  27  55  1   
 58  27  56  1   
 59  28  29  1   
 60  28  57  1   
 61  28  58  1   
 62  29  59  1   
 63  29  60  1   
@<TRIPOS>SUBSTRUCTURE
  1 ****   4 GROUP 4 **** **** 0

# MOE 2024.06 (io_trps.svl 2023.06)
