@<TRIPOS>MOLECULE
NONAME
41 42 1 0 0 
SMALL
USER_CHARGES


@<TRIPOS>ATOM
  1 O        0.5810    -0.0700    -1.3980 O.2   1 <1>  -0.5700 
  2 C        1.2900    -0.6070    -0.5700 C.2   1 <1>   0.5440 
  3 N        2.0820     0.1420     0.2690 N.am  1 <1>  -0.4940 
  4 C        1.3260    -2.0370    -0.4610 C.ar  1 <1>   0.0860 
  5 C        2.2610     1.5450     0.3190 C.2   1 <1>  -0.0880 
  6 C        0.2220    -2.8270    -0.1780 C.ar  1 <1>   0.1670 
  7 C        2.5150    -2.7220    -0.6250 C.ar  1 <1>   0.1600 
  8 N        3.4710     2.1610     0.4150 N.pl3 1 <1>   0.3140 
  9 C        1.3360     2.5370     0.2930 C.2   1 <1>  -0.1810 
 10 N        0.3080    -4.1270    -0.0470 N.ar  1 <1>  -0.6200 
 11 C       -1.1610    -2.2230     0.0040 C.3   1 <1>  -0.0960 
 12 N        2.6290    -4.0170    -0.4920 N.ar  1 <1>  -0.6200 
 13 N        3.3450     3.5050     0.4600 N.2   1 <1>  -0.7070 
 14 C        4.8060     1.5260     0.4320 C.3   1 <1>   0.0960 
 15 C        2.0680     3.7150     0.3780 C.2   1 <1>   0.1390 
 16 C       -0.1750     2.4470     0.1960 C.3   1 <1>  -0.0590 
 17 C        1.5100    -4.6830    -0.2050 C.ar  1 <1>   0.7200 
 18 C        5.2400     1.1090    -0.9790 C.3   1 <1>  -0.2400 
 19 N        1.6030    -6.0460    -0.0580 N.pl3 1 <1>  -0.8380 
 20 C        2.9090    -6.7600     0.0080 C.3   1 <1>   0.1290 
 21 C        0.3990    -6.9230     0.0070 C.3   1 <1>   0.1290 
 22 H        2.6090    -0.3890     0.9640 H     1 <1>   0.3700 
 23 H        3.4040    -2.1710    -0.8780 H     1 <1>   0.1500 
 24 H       -1.1140    -1.3430     0.6180 H     1 <1>   0.0800 
 25 H       -1.8210    -2.9310     0.4730 H     1 <1>   0.0800 
 26 H       -1.5660    -1.9590    -0.9560 H     1 <1>   0.0800 
 27 H        4.7740     0.6750     1.0850 H     1 <1>   0.0800 
 28 H        5.5070     2.2360     0.8340 H     1 <1>   0.0800 
 29 H        1.6340     4.7000     0.3800 H     1 <1>   0.1500 
 30 H       -0.5160     1.4990     0.5710 H     1 <1>   0.0800 
 31 H       -0.4760     2.5380    -0.8320 H     1 <1>   0.0800 
 32 H       -0.6340     3.2310     0.7700 H     1 <1>   0.0800 
 33 H        4.5450     0.4040    -1.3970 H     1 <1>   0.0800 
 34 H        6.2140     0.6560    -0.9440 H     1 <1>   0.0800 
 35 H        5.2890     1.9750    -1.6160 H     1 <1>   0.0800 
 36 H        3.6750    -6.1180     0.4080 H     1 <1>   0.0800 
 37 H        3.1970    -7.0740    -0.9800 H     1 <1>   0.0800 
 38 H        2.8280    -7.6230     0.6450 H     1 <1>   0.0800 
 39 H       -0.4270    -6.4770    -0.5180 H     1 <1>   0.0800 
 40 H        0.1190    -7.0730     1.0350 H     1 <1>   0.0800 
 41 H        0.6100    -7.8760    -0.4460 H     1 <1>   0.0800 
@<TRIPOS>BOND
  1   1   2  2   
  2   2   3  am  
  3   2   4  1   
  4   3   5  1   
  5   3  22  1   
  6   4   6  ar  
  7   4   7  ar  
  8   5   8  1   
  9   5   9  2   
 10   6  10  ar  
 11   6  11  1   
 12   7  12  ar  
 13   7  23  1   
 14   8  13  1   
 15   8  14  1   
 16   9  15  1   
 17   9  16  1   
 18  10  17  ar  
 19  11  24  1   
 20  11  25  1   
 21  11  26  1   
 22  12  17  ar  
 23  13  15  2   
 24  14  18  1   
 25  14  27  1   
 26  14  28  1   
 27  15  29  1   
 28  16  30  1   
 29  16  31  1   
 30  16  32  1   
 31  17  19  1   
 32  18  33  1   
 33  18  34  1   
 34  18  35  1   
 35  19  20  1   
 36  19  21  1   
 37  20  36  1   
 38  20  37  1   
 39  20  38  1   
 40  21  39  1   
 41  21  40  1   
 42  21  41  1   
@<TRIPOS>SUBSTRUCTURE
  1 ****   2 GROUP 4 **** **** 0

# MOE 2024.06 (io_trps.svl 2023.06)
