@<TRIPOS>MOLECULE
NONAME
47 50 1 0 0 
SMALL
USER_CHARGES


@<TRIPOS>ATOM
  1 O        1.1820    -0.3960    -1.7860 O.2   1 <1>  -0.5700 
  2 C        1.8530    -0.6710    -0.8070 C.2   1 <1>   0.7160 
  3 N        2.7390     0.3000    -0.3630 N.am  1 <1>  -0.6600 
  4 C        1.7580    -1.9900    -0.1800 C.2   1 <1>   0.2030 
  5 C        3.2850     0.2860     1.0450 C.3   1 <1>   0.2200 
  6 C        3.2020     1.3570    -1.3130 C.3   1 <1>   0.1400 
  7 N        2.7500    -2.6300     0.4320 N.2   1 <1>  -0.7070 
  8 C        0.5960    -2.7790    -0.1460 C.2   1 <1>  -0.1810 
  9 C        3.3170     1.6820     1.6890 C.3   1 <1>   0.1200 
 10 C        4.6890    -0.3620     1.0860 C.3   1 <1>   0.3430 
 11 C        4.5970     1.9320    -1.0010 C.3   1 <1>  -0.0800 
 12 N        2.2210    -3.7990     0.8430 N.pl3 1 <1>   0.3000 
 13 C        0.9240    -3.9000     0.5140 C.2   1 <1>  -0.3320 
 14 C       -0.7950    -2.5130    -0.7020 C.3   1 <1>   0.0210 
 15 O        4.5090     2.3440     1.3790 O.3   1 <1>  -0.5600 
 16 N        5.3180    -0.4330    -0.2780 N.4   1 <1>  -0.9590 
 17 C        4.5510     2.9620     0.1380 C.3   1 <1>   0.1200 
 18 C        5.7360     0.9010    -0.8210 C.3   1 <1>   0.3430 
 19 C       -0.0080    -5.0610     0.8110 C.3   1 <1>   0.0200 
 20 C       -1.6260    -3.8110    -0.7190 C.3   1 <1>  -0.1600 
 21 C        6.4210    -1.4320    -0.3090 C.3   1 <1>   0.2630 
 22 C       -1.4650    -4.6220     0.5830 C.3   1 <1>  -0.1600 
 23 H        2.6260    -0.3030     1.6590 H     1 <1>   0.0800 
 24 H        3.2200     0.9410    -2.3080 H     1 <1>   0.0800 
 25 H        2.4740     2.1520    -1.3220 H     1 <1>   0.0800 
 26 H        3.3000     1.5750     2.7600 H     1 <1>   0.0800 
 27 H        2.4690     2.2800     1.3980 H     1 <1>   0.0800 
 28 H        4.5750    -1.3610     1.4720 H     1 <1>   0.0800 
 29 H        5.3250     0.1780     1.7680 H     1 <1>   0.0800 
 30 H        4.8640     2.5120    -1.8660 H     1 <1>   0.0800 
 31 H        2.7580    -4.5170     1.3460 H     1 <1>   0.2700 
 32 H       -1.2810    -1.7790    -0.0830 H     1 <1>   0.0800 
 33 H       -0.7320    -2.1230    -1.7020 H     1 <1>   0.0800 
 34 H        4.5420    -0.7730    -0.8710 H     1 <1>   0.4500 
 35 H        3.7050     3.6240     0.0460 H     1 <1>   0.0800 
 36 H        5.4440     3.5640     0.1230 H     1 <1>   0.0800 
 37 H        6.4900     1.3280    -0.1800 H     1 <1>   0.0800 
 38 H        6.1870     0.7410    -1.7860 H     1 <1>   0.0800 
 39 H        0.2300    -5.8790     0.1540 H     1 <1>   0.0800 
 40 H        0.1130    -5.3920     1.8280 H     1 <1>   0.0800 
 41 H       -2.6620    -3.5670    -0.8740 H     1 <1>   0.0800 
 42 H       -1.3030    -4.4170    -1.5480 H     1 <1>   0.0800 
 43 H        7.2250    -1.1220     0.3380 H     1 <1>   0.0800 
 44 H        6.8010    -1.5370    -1.3120 H     1 <1>   0.0800 
 45 H        6.0580    -2.3920     0.0210 H     1 <1>   0.0800 
 46 H       -2.1000    -5.4900     0.5530 H     1 <1>   0.0800 
 47 H       -1.7790    -4.0110     1.4120 H     1 <1>   0.0800 
@<TRIPOS>BOND
  1   1   2  2   
  2   2   3  am  
  3   2   4  1   
  4   3   5  1   
  5   3   6  1   
  6   4   7  2   
  7   4   8  1   
  8   5   9  1   
  9   5  10  1   
 10   5  23  1   
 11   6  11  1   
 12   6  24  1   
 13   6  25  1   
 14   7  12  1   
 15   8  13  2   
 16   8  14  1   
 17   9  15  1   
 18   9  26  1   
 19   9  27  1   
 20  10  16  1   
 21  10  28  1   
 22  10  29  1   
 23  11  17  1   
 24  11  18  1   
 25  11  30  1   
 26  12  13  1   
 27  12  31  1   
 28  13  19  1   
 29  14  20  1   
 30  14  32  1   
 31  14  33  1   
 32  15  17  1   
 33  16  18  1   
 34  16  21  1   
 35  16  34  1   
 36  17  35  1   
 37  17  36  1   
 38  18  37  1   
 39  18  38  1   
 40  19  22  1   
 41  19  39  1   
 42  19  40  1   
 43  20  22  1   
 44  20  41  1   
 45  20  42  1   
 46  21  43  1   
 47  21  44  1   
 48  21  45  1   
 49  22  46  1   
 50  22  47  1   
@<TRIPOS>SUBSTRUCTURE
  1 ****   2 GROUP 4 **** **** 0

# MOE 2024.06 (io_trps.svl 2023.06)
