@<TRIPOS>MOLECULE
NONAME
30 32 1 0 0 
SMALL
USER_CHARGES


@<TRIPOS>ATOM
  1 O       -0.4720     1.2290     1.0790 O.3   1 <1>  -0.2170 
  2 N       -0.1360     1.9440     0.0300 N.2   1 <1>  -0.5130 
  3 C       -1.5820     0.3930     0.8920 C.3   1 <1>   0.0400 
  4 C        0.8550     2.7270     0.1110 C.2   1 <1>   0.3280 
  5 C        1.3010     3.5870    -1.0700 C.3   1 <1>  -0.0190 
  6 C        1.7500     2.9510     1.3370 C.3   1 <1>  -0.0190 
  7 C        1.2330     5.0710    -0.6590 C.3   1 <1>  -0.1600 
  8 C        2.7550     3.2220    -1.4310 C.3   1 <1>  -0.1600 
  9 C        1.6810     4.4400     1.7340 C.3   1 <1>  -0.1600 
 10 C        3.2020     2.5910     0.9620 C.3   1 <1>  -0.1600 
 11 C        2.1450     5.3220     0.5580 C.3   1 <1>  -0.0800 
 12 C        3.6750     3.4640    -0.2180 C.3   1 <1>  -0.0800 
 13 C        3.5940     4.9490     0.1890 C.3   1 <1>  -0.1600 
 14 H       -1.7630    -0.1380     1.8080 H     1 <1>   0.0800 
 15 H       -1.3620    -0.2950     0.0960 H     1 <1>   0.0800 
 16 H       -2.4310     1.0030     0.6380 H     1 <1>   0.0800 
 17 H        0.6570     3.4080    -1.9120 H     1 <1>   0.0800 
 18 H        1.4320     2.3440     2.1640 H     1 <1>   0.0800 
 19 H        0.2170     5.3280    -0.4120 H     1 <1>   0.0800 
 20 H        1.5390     5.6930    -1.4820 H     1 <1>   0.0800 
 21 H        3.0840     3.8160    -2.2660 H     1 <1>   0.0800 
 22 H        2.8020     2.1870    -1.7240 H     1 <1>   0.0800 
 23 H        2.3020     4.6170     2.5950 H     1 <1>   0.0800 
 24 H        0.6690     4.6910     2.0020 H     1 <1>   0.0800 
 25 H        3.2530     1.5510     0.6910 H     1 <1>   0.0800 
 26 H        3.8460     2.7420     1.8110 H     1 <1>   0.0800 
 27 H        2.0970     6.3600     0.8410 H     1 <1>   0.0800 
 28 H        4.6900     3.2110    -0.4740 H     1 <1>   0.0800 
 29 H        4.2420     5.1320     1.0280 H     1 <1>   0.0800 
 30 H        3.9330     5.5670    -0.6240 H     1 <1>   0.0800 
@<TRIPOS>BOND
  1   1   2  1   
  2   1   3  1   
  3   2   4  2   
  4   3  14  1   
  5   3  15  1   
  6   3  16  1   
  7   4   5  1   
  8   4   6  1   
  9   5   7  1   
 10   5   8  1   
 11   5  17  1   
 12   6   9  1   
 13   6  10  1   
 14   6  18  1   
 15   7  11  1   
 16   7  19  1   
 17   7  20  1   
 18   8  12  1   
 19   8  21  1   
 20   8  22  1   
 21   9  11  1   
 22   9  23  1   
 23   9  24  1   
 24  10  12  1   
 25  10  25  1   
 26  10  26  1   
 27  11  13  1   
 28  11  27  1   
 29  12  13  1   
 30  12  28  1   
 31  13  29  1   
 32  13  30  1   
@<TRIPOS>SUBSTRUCTURE
  1 ****   4 GROUP 4 **** **** 0

# MOE 2024.06 (io_trps.svl 2023.06)
