@<TRIPOS>MOLECULE
NONAME
42 43 1 0 0 
SMALL
USER_CHARGES


@<TRIPOS>ATOM
  1 O       -1.0480    -1.2130     0.7120 O.2   1 <1>  -0.5700 
  2 C       -0.2840    -1.3510    -0.2200 C.2   1 <1>   0.5440 
  3 N       -0.4520    -0.5170    -1.2730 N.am  1 <1>  -0.8000 
  4 C        0.7680    -2.3300    -0.1960 C.ar  1 <1>   0.0860 
  5 C        0.5710    -3.6660    -0.5940 C.ar  1 <1>   0.4100 
  6 C        2.0340    -1.9530     0.2210 C.ar  1 <1>  -0.1500 
  7 N        1.5510    -4.5700    -0.5950 N.ar  1 <1>  -0.6200 
  8 N       -0.6650    -4.1510    -1.0140 N.pl3 1 <1>  -0.8380 
  9 C        3.0450    -2.8880     0.2180 C.ar  1 <1>  -0.1430 
 10 C        2.7490    -4.1780    -0.2070 C.ar  1 <1>   0.1670 
 11 C       -0.8210    -5.3810    -1.8360 C.3   1 <1>   0.2090 
 12 C       -1.9020    -3.9440    -0.2160 C.3   1 <1>   0.2090 
 13 C        4.4380    -2.4750     0.6760 C.3   1 <1>  -0.0970 
 14 C        3.8260    -5.2470    -0.2470 C.3   1 <1>  -0.0970 
 15 C       -1.8570    -6.2410    -1.0960 C.3   1 <1>   0.4230 
 16 C       -2.7590    -5.1960    -0.4320 C.3   1 <1>  -0.1600 
 17 N       -1.2380    -7.1940    -0.0940 N.4   1 <1>  -0.9590 
 18 C       -2.2260    -8.2030     0.3950 C.3   1 <1>   0.2630 
 19 C       -0.5530    -6.5240     1.0620 C.3   1 <1>   0.2630 
 20 H       -1.1940     0.1820    -1.2440 H     1 <1>   0.3700 
 21 H        0.1080    -0.5660    -2.1240 H     1 <1>   0.3700 
 22 H        2.2080    -0.9400     0.5400 H     1 <1>   0.1500 
 23 H       -1.2160    -5.0920    -2.7940 H     1 <1>   0.0800 
 24 H        0.1000    -5.9130    -1.9960 H     1 <1>   0.0800 
 25 H       -1.6520    -3.8180     0.8250 H     1 <1>   0.0800 
 26 H       -2.4240    -3.0640    -0.5580 H     1 <1>   0.0800 
 27 H        4.4340    -1.4750     1.0730 H     1 <1>   0.0800 
 28 H        5.1230    -2.5050    -0.1530 H     1 <1>   0.0800 
 29 H        4.7900    -3.1370     1.4460 H     1 <1>   0.0800 
 30 H        4.7030    -4.8770    -0.7460 H     1 <1>   0.0800 
 31 H        3.4800    -6.1130    -0.7820 H     1 <1>   0.0800 
 32 H        4.0850    -5.5420     0.7530 H     1 <1>   0.0800 
 33 H       -2.4160    -6.8120    -1.8170 H     1 <1>   0.0800 
 34 H       -3.5430    -4.9340    -1.1200 H     1 <1>   0.0800 
 35 H       -3.2180    -5.5300     0.4790 H     1 <1>   0.0800 
 36 H       -0.4950    -7.6940    -0.6030 H     1 <1>   0.4500 
 37 H       -3.0120    -7.7190     0.9520 H     1 <1>   0.0800 
 38 H       -1.7410    -8.9190     1.0380 H     1 <1>   0.0800 
 39 H       -2.6660    -8.7310    -0.4360 H     1 <1>   0.0800 
 40 H       -1.2610    -5.9620     1.6480 H     1 <1>   0.0800 
 41 H        0.2050    -5.8500     0.7100 H     1 <1>   0.0800 
 42 H       -0.0840    -7.2570     1.6970 H     1 <1>   0.0800 
@<TRIPOS>BOND
  1   1   2  2   
  2   2   3  am  
  3   2   4  1   
  4   3  20  1   
  5   3  21  1   
  6   4   5  ar  
  7   4   6  ar  
  8   5   7  ar  
  9   5   8  1   
 10   6   9  ar  
 11   6  22  1   
 12   7  10  ar  
 13   8  11  1   
 14   8  12  1   
 15   9  10  ar  
 16   9  13  1   
 17  10  14  1   
 18  11  15  1   
 19  11  23  1   
 20  11  24  1   
 21  12  16  1   
 22  12  25  1   
 23  12  26  1   
 24  13  27  1   
 25  13  28  1   
 26  13  29  1   
 27  14  30  1   
 28  14  31  1   
 29  14  32  1   
 30  15  16  1   
 31  15  17  1   
 32  15  33  1   
 33  16  34  1   
 34  16  35  1   
 35  17  18  1   
 36  17  19  1   
 37  17  36  1   
 38  18  37  1   
 39  18  38  1   
 40  18  39  1   
 41  19  40  1   
 42  19  41  1   
 43  19  42  1   
@<TRIPOS>SUBSTRUCTURE
  1 ****   5 GROUP 4 **** **** 0

# MOE 2024.06 (io_trps.svl 2023.06)
