@<TRIPOS>MOLECULE
NONAME
48 51 1 0 0 
SMALL
USER_CHARGES


@<TRIPOS>ATOM
  1 O       -1.1090    -0.5340    -2.3930 O.2   1 <1>  -0.5700 
  2 C       -1.6700    -0.9060    -1.3930 C.2   1 <1>   0.5690 
  3 N       -2.0070    -0.0250    -0.4390 N.am  1 <1>  -0.7300 
  4 C       -2.0030    -2.3650    -1.2090 C.3   1 <1>  -0.0190 
  5 C       -2.6710    -0.3940     0.8290 C.3   1 <1>   0.2200 
  6 C       -1.2220    -2.9700    -0.0220 C.3   1 <1>   0.1200 
  7 C       -3.5300    -2.5790    -1.2310 C.3   1 <1>   0.1100 
  8 C       -1.7660    -1.3340     1.6650 C.3   1 <1>   0.1200 
  9 C       -4.1090    -0.9120     0.5670 C.3   1 <1>   0.1100 
 10 O       -1.7390    -2.6710     1.2430 O.3   1 <1>  -0.5600 
 11 N       -4.2330    -2.2930     0.0400 N.3   1 <1>  -0.8100 
 12 C       -5.6250    -2.7610     0.0350 C.3   1 <1>   0.2530 
 13 C       -5.6810    -4.2760    -0.0500 C.ar  1 <1>  -0.1440 
 14 C       -6.5830    -4.9180    -0.8630 C.ar  1 <1>   0.1600 
 15 C       -4.8290    -5.0720     0.6790 C.ar  1 <1>   0.1600 
 16 N       -6.6440    -6.2240    -0.9510 N.ar  1 <1>  -0.6200 
 17 N       -4.8680    -6.3820     0.6170 N.ar  1 <1>  -0.6200 
 18 C       -5.7900    -6.9150    -0.1900 C.ar  1 <1>   0.6200 
 19 C       -5.8290    -8.3560    -0.2790 C.ar  1 <1>   0.0000 
 20 C       -6.8630    -9.1080     0.2910 C.ar  1 <1>   0.0820 
 21 C       -4.8120    -9.0360    -0.9500 C.ar  1 <1>  -0.1500 
 22 O       -7.8360    -8.4390     0.9600 O.3   1 <1>  -0.3620 
 23 C       -6.8670   -10.4970     0.1690 C.ar  1 <1>  -0.1500 
 24 C       -4.8190   -10.4130    -1.0660 C.ar  1 <1>  -0.1500 
 25 C       -8.9440    -9.0870     1.5410 C.3   1 <1>   0.0400 
 26 C       -5.8510   -11.1450    -0.5070 C.ar  1 <1>  -0.1500 
 27 H       -1.7650     0.9540    -0.6000 H     1 <1>   0.3700 
 28 H       -1.6240    -2.8520    -2.0880 H     1 <1>   0.0800 
 29 H       -2.7680     0.5170     1.3920 H     1 <1>   0.0800 
 30 H       -0.1940    -2.6510    -0.0480 H     1 <1>   0.0800 
 31 H       -1.2420    -4.0420    -0.1070 H     1 <1>   0.0800 
 32 H       -3.6910    -3.6110    -1.4900 H     1 <1>   0.0800 
 33 H       -3.9580    -1.9810    -2.0180 H     1 <1>   0.0800 
 34 H       -2.1340    -1.3510     2.6750 H     1 <1>   0.0800 
 35 H       -0.7560    -0.9640     1.6850 H     1 <1>   0.0800 
 36 H       -4.6090    -0.2290    -0.0980 H     1 <1>   0.0800 
 37 H       -4.6250    -0.8770     1.5110 H     1 <1>   0.0800 
 38 H       -6.1100    -2.4620     0.9490 H     1 <1>   0.0800 
 39 H       -6.1540    -2.3140    -0.7900 H     1 <1>   0.0800 
 40 H       -7.2730    -4.3490    -1.4600 H     1 <1>   0.1500 
 41 H       -4.0920    -4.6140     1.3220 H     1 <1>   0.1500 
 42 H       -4.0080    -8.4670    -1.3820 H     1 <1>   0.1500 
 43 H       -7.6520   -11.0910     0.5950 H     1 <1>   0.1500 
 44 H       -4.0240   -10.9140    -1.5900 H     1 <1>   0.1500 
 45 H       -9.5690    -8.3370     1.9900 H     1 <1>   0.0800 
 46 H       -8.5930    -9.7700     2.2940 H     1 <1>   0.0800 
 47 H       -9.4880    -9.6040     0.7710 H     1 <1>   0.0800 
 48 H       -5.8590   -12.2170    -0.5980 H     1 <1>   0.1500 
@<TRIPOS>BOND
  1   1   2  2   
  2   2   3  am  
  3   2   4  1   
  4   3   5  1   
  5   3  27  1   
  6   4   6  1   
  7   4   7  1   
  8   4  28  1   
  9   5   8  1   
 10   5   9  1   
 11   5  29  1   
 12   6  10  1   
 13   6  30  1   
 14   6  31  1   
 15   7  11  1   
 16   7  32  1   
 17   7  33  1   
 18   8  10  1   
 19   8  34  1   
 20   8  35  1   
 21   9  11  1   
 22   9  36  1   
 23   9  37  1   
 24  11  12  1   
 25  12  13  1   
 26  12  38  1   
 27  12  39  1   
 28  13  14  ar  
 29  13  15  ar  
 30  14  16  ar  
 31  14  40  1   
 32  15  17  ar  
 33  15  41  1   
 34  16  18  ar  
 35  17  18  ar  
 36  18  19  1   
 37  19  20  ar  
 38  19  21  ar  
 39  20  22  1   
 40  20  23  ar  
 41  21  24  ar  
 42  21  42  1   
 43  22  25  1   
 44  23  26  ar  
 45  23  43  1   
 46  24  26  ar  
 47  24  44  1   
 48  25  45  1   
 49  25  46  1   
 50  25  47  1   
 51  26  48  1   
@<TRIPOS>SUBSTRUCTURE
  1 ****  15 GROUP 4 **** **** 0

# MOE 2024.06 (io_trps.svl 2023.06)
