@<TRIPOS>MOLECULE
NONAME
46 48 1 0 0 
SMALL
USER_CHARGES


@<TRIPOS>ATOM
  1 CL      -0.5280    -0.2270     1.0940 Cl    1 <1>  -0.1770 
  2 C       -2.0090    -1.0680     0.7020 C.ar  1 <1>   0.1770 
  3 C       -1.9790    -2.1010    -0.2170 C.ar  1 <1>  -0.1500 
  4 C       -3.1880    -0.6880     1.3160 C.ar  1 <1>  -0.1500 
  5 C       -3.1540    -2.7650    -0.5240 C.ar  1 <1>  -0.1500 
  6 C       -4.3570    -1.3580     1.0020 C.ar  1 <1>  -0.1500 
  7 C       -4.3530    -2.4010     0.0830 C.ar  1 <1>   0.1000 
  8 N       -5.5410    -3.0550    -0.2150 N.pl3 1 <1>  -0.8380 
  9 C       -5.6160    -4.4900     0.1430 C.3   1 <1>   0.2090 
 10 C       -6.1820    -2.6880    -1.4950 C.3   1 <1>   0.2090 
 11 C       -7.0880    -4.8690     0.2690 C.3   1 <1>  -0.1600 
 12 C       -7.6650    -3.0310    -1.3920 C.3   1 <1>  -0.1600 
 13 C       -7.8350    -4.5080    -1.0230 C.3   1 <1>   0.4230 
 14 N       -9.2860    -4.8540    -0.9670 N.4   1 <1>  -0.9590 
 15 C       -9.4730    -6.3520    -1.0110 C.3   1 <1>   0.3430 
 16 C      -10.0440    -4.1800     0.1470 C.3   1 <1>   0.3430 
 17 C      -10.0220    -6.8900     0.2960 C.3   1 <1>  -0.1860 
 18 C      -11.4450    -4.7710     0.2410 C.3   1 <1>  -0.1600 
 19 C      -10.1780    -8.3730     0.1770 C.2   1 <1>   0.9060 
 20 C      -11.3690    -6.2520     0.6290 C.3   1 <1>   0.2000 
 21 O       -9.7650    -8.9170    -0.8490 O.co2 1 <1>  -0.9000 
 22 O      -10.7180    -8.9670     1.1100 O.co2 1 <1>  -0.9000 
 23 O      -11.5130    -6.3530     1.9900 O.3   1 <1>  -0.6800 
 24 H       -1.0490    -2.3760    -0.6800 H     1 <1>   0.1500 
 25 H       -3.1860     0.1180     2.0270 H     1 <1>   0.1500 
 26 H       -3.1440    -3.5670    -1.2380 H     1 <1>   0.1500 
 27 H       -5.2850    -1.0810     1.4680 H     1 <1>   0.1500 
 28 H       -5.1330    -5.0810    -0.6160 H     1 <1>   0.0800 
 29 H       -5.1100    -4.6550     1.0800 H     1 <1>   0.0800 
 30 H       -6.0550    -1.6320    -1.6720 H     1 <1>   0.0800 
 31 H       -5.7160    -3.2280    -2.3020 H     1 <1>   0.0800 
 32 H       -7.4890    -4.3410     1.1140 H     1 <1>   0.0800 
 33 H       -7.1450    -5.9240     0.4600 H     1 <1>   0.0800 
 34 H       -8.1320    -2.8250    -2.3370 H     1 <1>   0.0800 
 35 H       -8.0970    -2.3940    -0.6410 H     1 <1>   0.0800 
 36 H       -7.3870    -5.0840    -1.8180 H     1 <1>   0.0800 
 37 H       -9.6970    -4.5130    -1.8420 H     1 <1>   0.4500 
 38 H      -10.1660    -6.6130    -1.7950 H     1 <1>   0.0800 
 39 H       -8.5430    -6.8500    -1.2330 H     1 <1>   0.0800 
 40 H       -9.5470    -4.3430     1.0890 H     1 <1>   0.0800 
 41 H      -10.1030    -3.1190    -0.0290 H     1 <1>   0.0800 
 42 H       -9.3080    -6.7130     1.0760 H     1 <1>   0.0800 
 43 H      -11.9340    -4.6730    -0.7110 H     1 <1>   0.0800 
 44 H      -12.0320    -4.2310     0.9640 H     1 <1>   0.0800 
 45 H      -12.1830    -6.7980     0.1760 H     1 <1>   0.0800 
 46 H      -11.4330    -7.3200     2.2070 H     1 <1>   0.4000 
@<TRIPOS>BOND
  1   1   2  1   
  2   2   3  ar  
  3   2   4  ar  
  4   3   5  ar  
  5   3  24  1   
  6   4   6  ar  
  7   4  25  1   
  8   5   7  ar  
  9   5  26  1   
 10   6   7  ar  
 11   6  27  1   
 12   7   8  1   
 13   8   9  1   
 14   8  10  1   
 15   9  11  1   
 16   9  28  1   
 17   9  29  1   
 18  10  12  1   
 19  10  30  1   
 20  10  31  1   
 21  11  13  1   
 22  11  32  1   
 23  11  33  1   
 24  12  13  1   
 25  12  34  1   
 26  12  35  1   
 27  13  14  1   
 28  13  36  1   
 29  14  15  1   
 30  14  16  1   
 31  14  37  1   
 32  15  17  1   
 33  15  38  1   
 34  15  39  1   
 35  16  18  1   
 36  16  40  1   
 37  16  41  1   
 38  17  19  1   
 39  17  20  1   
 40  17  42  1   
 41  18  20  1   
 42  18  43  1   
 43  18  44  1   
 44  19  21  ar  
 45  19  22  ar  
 46  20  23  1   
 47  20  45  1   
 48  23  46  1   
@<TRIPOS>SUBSTRUCTURE
  1 ****  11 GROUP 4 **** **** 0

# MOE 2024.06 (io_trps.svl 2023.06)
