@<TRIPOS>MOLECULE
NONAME
44 45 1 0 0 
SMALL
USER_CHARGES


@<TRIPOS>ATOM
  1 O       -1.4350     0.1580    -1.5360 O.2   1 <1>  -0.5700 
  2 C       -1.5610     0.3810    -0.3550 C.2   1 <1>   0.5690 
  3 N       -1.7260    -0.6270     0.5370 N.am  1 <1>  -0.7300 
  4 C       -1.6250     1.8220     0.1470 C.3   1 <1>  -0.0190 
  5 C       -1.9090    -2.0350     0.1510 C.3   1 <1>   0.3200 
  6 C       -2.9380     2.4930    -0.2980 C.3   1 <1>  -0.1600 
  7 C       -0.3980     2.6580    -0.2930 C.3   1 <1>  -0.1600 
  8 C       -3.3380    -2.1910    -0.3110 C.2   1 <1>  -0.3320 
  9 C       -3.1180     3.8940     0.3240 C.3   1 <1>   0.2000 
 10 C       -0.6530     4.1800    -0.2900 C.3   1 <1>  -0.1600 
 11 N       -3.7960    -1.5790    -1.4200 N.pl3 1 <1>   0.3000 
 12 C       -4.3750    -2.8820     0.2080 C.2   1 <1>  -0.1500 
 13 O       -3.8080     4.7030    -0.5960 O.3   1 <1>  -0.5600 
 14 C       -1.7680     4.5690     0.6860 C.3   1 <1>   0.2000 
 15 N       -5.1010    -1.8460    -1.6320 N.2   1 <1>  -0.7070 
 16 C       -5.4420    -2.6300    -0.6510 C.2   1 <1>   0.1080 
 17 C       -5.1820     4.4740    -0.6770 C.3   1 <1>   0.0400 
 18 O       -1.9190     5.9400     0.6380 O.3   1 <1>  -0.6800 
 19 C       -6.8510    -3.1860    -0.4960 C.3   1 <1>   0.3010 
 20 O       -7.0180    -3.7940     0.7560 O.3   1 <1>  -0.5600 
 21 C       -8.2890    -4.3180     0.9640 C.3   1 <1>   0.0400 
 22 H       -1.9930    -0.4170     1.4980 H     1 <1>   0.3700 
 23 H       -1.6280     1.7900     1.2230 H     1 <1>   0.0800 
 24 H       -1.2290    -2.2920    -0.6450 H     1 <1>   0.0800 
 25 H       -1.7130    -2.6740     0.9950 H     1 <1>   0.0800 
 26 H       -3.7720     1.8730    -0.0220 H     1 <1>   0.0800 
 27 H       -2.9220     2.5770    -1.3720 H     1 <1>   0.0800 
 28 H        0.4250     2.4300     0.3620 H     1 <1>   0.0800 
 29 H       -0.0990     2.3750    -1.2890 H     1 <1>   0.0800 
 30 H       -3.7010     3.8260     1.2270 H     1 <1>   0.0800 
 31 H       -0.9500     4.4830    -1.2800 H     1 <1>   0.0800 
 32 H        0.2550     4.6990    -0.0370 H     1 <1>   0.0800 
 33 H       -3.2310    -0.9560    -2.0200 H     1 <1>   0.2700 
 34 H       -4.4200    -3.5000     1.0880 H     1 <1>   0.1500 
 35 H       -1.4730     4.3060     1.6860 H     1 <1>   0.0800 
 36 H       -5.5950     5.1730    -1.3840 H     1 <1>   0.0800 
 37 H       -5.6280     4.6320     0.2890 H     1 <1>   0.0800 
 38 H       -5.3620     3.4700    -1.0200 H     1 <1>   0.0800 
 39 H       -2.6040     6.1050    -0.0500 H     1 <1>   0.4000 
 40 H       -7.0310    -3.9170    -1.2640 H     1 <1>   0.0800 
 41 H       -7.5610    -2.3830    -0.5870 H     1 <1>   0.0800 
 42 H       -8.3130    -4.7580     1.9450 H     1 <1>   0.0800 
 43 H       -8.4890    -5.0730     0.2230 H     1 <1>   0.0800 
 44 H       -9.0150    -3.5250     0.9050 H     1 <1>   0.0800 
@<TRIPOS>BOND
  1   1   2  2   
  2   2   3  am  
  3   2   4  1   
  4   3   5  1   
  5   3  22  1   
  6   4   6  1   
  7   4   7  1   
  8   4  23  1   
  9   5   8  1   
 10   5  24  1   
 11   5  25  1   
 12   6   9  1   
 13   6  26  1   
 14   6  27  1   
 15   7  10  1   
 16   7  28  1   
 17   7  29  1   
 18   8  11  1   
 19   8  12  2   
 20   9  13  1   
 21   9  14  1   
 22   9  30  1   
 23  10  14  1   
 24  10  31  1   
 25  10  32  1   
 26  11  15  1   
 27  11  33  1   
 28  12  16  1   
 29  12  34  1   
 30  13  17  1   
 31  14  18  1   
 32  14  35  1   
 33  15  16  2   
 34  16  19  1   
 35  17  36  1   
 36  17  37  1   
 37  17  38  1   
 38  18  39  1   
 39  19  20  1   
 40  19  40  1   
 41  19  41  1   
 42  20  21  1   
 43  21  42  1   
 44  21  43  1   
 45  21  44  1   
@<TRIPOS>SUBSTRUCTURE
  1 ****   2 GROUP 4 **** **** 0

# MOE 2024.06 (io_trps.svl 2023.06)
