@<TRIPOS>MOLECULE
NONAME
50 52 1 0 0 
SMALL
USER_CHARGES


@<TRIPOS>ATOM
  1 O        1.9740    -0.5970    -1.5990 O.2   1 <1>  -0.5700 
  2 C        1.9830    -0.7760    -0.4060 C.2   1 <1>   0.5690 
  3 N        2.2730     0.2540     0.4490 N.am  1 <1>  -0.6600 
  4 C        1.7300    -2.1760     0.1280 C.3   1 <1>  -0.0990 
  5 C        3.1590     0.0840     1.6340 C.3   1 <1>   0.1400 
  6 C        1.9950     1.6580     0.0410 C.3   1 <1>   0.1400 
  7 C        0.7260    -2.9600    -0.7270 C.3   1 <1>   0.0210 
  8 C        4.6250    -0.1030     1.1860 C.3   1 <1>   0.3430 
  9 C        3.2810     2.4320    -0.2680 C.3   1 <1>  -0.1600 
 10 C        0.4740    -4.3270    -0.1150 C.2   1 <1>  -0.1810 
 11 N        5.2290     1.0690     0.4540 N.4   1 <1>  -0.9590 
 12 C        4.4410     1.5480    -0.7300 C.3   1 <1>   0.3430 
 13 C        1.0350    -5.5120    -0.4090 C.2   1 <1>  -0.0400 
 14 C       -0.4170    -4.6440     0.9130 C.2   1 <1>   0.1080 
 15 C        6.6280     0.7620     0.0570 C.3   1 <1>   0.5240 
 16 O        0.5170    -6.4100     0.3850 O.3   1 <1>  -0.0190 
 17 C        2.0780    -5.9370    -1.4210 C.3   1 <1>  -0.0600 
 18 N       -0.3640    -5.8960     1.1920 N.2   1 <1>  -0.4100 
 19 C       -1.3420    -3.6770     1.6200 C.3   1 <1>  -0.0590 
 20 C        7.3420     2.0690    -0.2050 C.2   1 <1>  -0.1810 
 21 C        7.9470     2.8840     0.6880 C.2   1 <1>  -0.0100 
 22 C        7.5160     2.6870    -1.4540 C.2   1 <1>  -0.1500 
 23 O        8.4520     3.9380     0.0840 O.3   1 <1>  -0.2800 
 24 C        8.1990     3.8230    -1.2030 C.2   1 <1>  -0.0100 
 25 H        1.3440    -2.1090     1.1270 H     1 <1>   0.0800 
 26 H        2.6600    -2.7120     0.1560 H     1 <1>   0.0800 
 27 H        2.8490    -0.7810     2.1950 H     1 <1>   0.0800 
 28 H        3.0740     0.9350     2.2870 H     1 <1>   0.0800 
 29 H        1.4390     2.1570     0.8170 H     1 <1>   0.0800 
 30 H        1.3700     1.6520    -0.8380 H     1 <1>   0.0800 
 31 H        1.1110    -3.0800    -1.7250 H     1 <1>   0.0800 
 32 H       -0.2010    -2.4190    -0.8030 H     1 <1>   0.0800 
 33 H        4.6690    -0.9760     0.5560 H     1 <1>   0.0800 
 34 H        5.2170    -0.3100     2.0630 H     1 <1>   0.0800 
 35 H        3.5700     3.0290     0.5770 H     1 <1>   0.0800 
 36 H        3.0490     3.1210    -1.0610 H     1 <1>   0.0800 
 37 H        5.2970     1.8690     1.0950 H     1 <1>   0.4500 
 38 H        5.0750     2.1450    -1.3640 H     1 <1>   0.0800 
 39 H        4.0730     0.7180    -1.3140 H     1 <1>   0.0800 
 40 H        6.6500     0.1370    -0.8220 H     1 <1>   0.0800 
 41 H        7.1340     0.2470     0.8570 H     1 <1>   0.0800 
 42 H        2.4210    -5.0940    -1.9920 H     1 <1>   0.0800 
 43 H        1.6550    -6.6620    -2.0910 H     1 <1>   0.0800 
 44 H        2.9160    -6.3800    -0.9130 H     1 <1>   0.0800 
 45 H       -1.9320    -3.1400     0.9010 H     1 <1>   0.0800 
 46 H       -0.7710    -2.9820     2.2060 H     1 <1>   0.0800 
 47 H       -2.0040    -4.2170     2.2730 H     1 <1>   0.0800 
 48 H        8.0730     2.8070     1.7550 H     1 <1>   0.1500 
 49 H        7.1800     2.3220    -2.4100 H     1 <1>   0.1500 
 50 H        8.5470     4.5960    -1.8700 H     1 <1>   0.1500 
@<TRIPOS>BOND
  1   1   2  2   
  2   2   3  am  
  3   2   4  1   
  4   3   5  1   
  5   3   6  1   
  6   4   7  1   
  7   4  25  1   
  8   4  26  1   
  9   5   8  1   
 10   5  27  1   
 11   5  28  1   
 12   6   9  1   
 13   6  29  1   
 14   6  30  1   
 15   7  10  1   
 16   7  31  1   
 17   7  32  1   
 18   8  11  1   
 19   8  33  1   
 20   8  34  1   
 21   9  12  1   
 22   9  35  1   
 23   9  36  1   
 24  10  13  2   
 25  10  14  1   
 26  11  12  1   
 27  11  15  1   
 28  11  37  1   
 29  12  38  1   
 30  12  39  1   
 31  13  16  1   
 32  13  17  1   
 33  14  18  2   
 34  14  19  1   
 35  15  20  1   
 36  15  40  1   
 37  15  41  1   
 38  16  18  1   
 39  17  42  1   
 40  17  43  1   
 41  17  44  1   
 42  19  45  1   
 43  19  46  1   
 44  19  47  1   
 45  20  21  2   
 46  20  22  1   
 47  21  23  1   
 48  21  48  1   
 49  22  24  2   
 50  22  49  1   
 51  23  24  1   
 52  24  50  1   
@<TRIPOS>SUBSTRUCTURE
  1 ****   2 GROUP 4 **** **** 0

# MOE 2024.06 (io_trps.svl 2023.06)
