@<TRIPOS>MOLECULE
NONAME
52 55 1 0 0 
SMALL
USER_CHARGES


@<TRIPOS>ATOM
  1 O        0.2320     0.2010    -0.6380 O.2   1 <1>  -0.5700 
  2 C       -0.7680     0.8710    -0.7200 C.2   1 <1>   0.5690 
  3 N       -2.0150     0.3130    -0.6760 N.am  1 <1>  -0.6600 
  4 C       -0.5910     2.3680    -0.8320 C.3   1 <1>  -0.0990 
  5 C       -3.3210     1.0150    -0.7700 C.3   1 <1>   0.1400 
  6 C       -2.2200    -1.1420    -0.4690 C.3   1 <1>   0.1400 
  7 C       -0.3560     2.9460     0.5640 C.3   1 <1>   0.0960 
  8 C       -4.3730    -0.0940    -0.7300 C.3   1 <1>   0.2000 
  9 C       -3.6860    -1.2800    -0.0590 C.3   1 <1>  -0.0800 
 10 N       -0.2960     4.4190     0.5000 N.pl3 1 <1>   0.0480 
 11 O       -5.4860     0.2920    -0.0020 O.3   1 <1>  -0.6800 
 12 C       -4.3040    -2.6370    -0.4300 C.3   1 <1>   0.0210 
 13 C        0.7820     5.1560     0.1230 C.ar  1 <1>  -0.1520 
 14 C       -1.2900     5.3240     0.7330 C.2   1 <1>   0.0060 
 15 C       -3.5160    -3.7750     0.1880 C.2   1 <1>   0.1080 
 16 C        0.3610     6.4710     0.1570 C.ar  1 <1>   0.2270 
 17 C        2.0890     4.8260    -0.2500 C.ar  1 <1>  -0.1500 
 18 N       -0.9420     6.5460     0.5410 N.2   1 <1>  -0.5650 
 19 C       -2.6870     4.9340     1.1750 C.3   1 <1>  -0.0600 
 20 N       -3.2970    -3.8660     1.4630 N.2   1 <1>  -0.7070 
 21 C       -2.9380    -4.8230    -0.5210 C.2   1 <1>  -0.1500 
 22 C        1.2440     7.4950    -0.1830 C.ar  1 <1>  -0.1500 
 23 C        2.9550     5.8440    -0.5840 C.ar  1 <1>  -0.1500 
 24 N       -2.5660    -4.9880     1.6040 N.pl3 1 <1>   0.3000 
 25 C       -2.3340    -5.5840     0.4150 C.2   1 <1>  -0.3320 
 26 C        2.5330     7.1790    -0.5510 C.ar  1 <1>  -0.1500 
 27 C       -1.5360    -6.8640     0.2450 C.3   1 <1>  -0.0600 
 28 H        0.2650     2.5630    -1.4520 H     1 <1>   0.0800 
 29 H       -1.4480     2.8220    -1.2900 H     1 <1>   0.0800 
 30 H       -3.4330     1.6750     0.0710 H     1 <1>   0.0800 
 31 H       -3.3900     1.5630    -1.6930 H     1 <1>   0.0800 
 32 H       -2.0260    -1.6580    -1.3940 H     1 <1>   0.0800 
 33 H       -1.5620    -1.5240     0.2950 H     1 <1>   0.0800 
 34 H        0.5700     2.5760     0.9650 H     1 <1>   0.0800 
 35 H       -1.1500     2.6540     1.2260 H     1 <1>   0.0800 
 36 H       -4.6870    -0.3310    -1.7320 H     1 <1>   0.0800 
 37 H       -3.7220    -1.1600     1.0100 H     1 <1>   0.0800 
 38 H       -5.3080     0.2160     0.9560 H     1 <1>   0.4000 
 39 H       -4.3240    -2.7560    -1.4980 H     1 <1>   0.0800 
 40 H       -5.3150    -2.6830    -0.0680 H     1 <1>   0.0800 
 41 H        2.4060     3.7990    -0.2720 H     1 <1>   0.1500 
 42 H       -3.2900     5.8170     1.2870 H     1 <1>   0.0800 
 43 H       -2.6470     4.4260     2.1210 H     1 <1>   0.0800 
 44 H       -3.1450     4.2980     0.4410 H     1 <1>   0.0800 
 45 H       -2.9780    -4.9700    -1.5850 H     1 <1>   0.1500 
 46 H        0.8910     8.5090    -0.1480 H     1 <1>   0.1500 
 47 H        3.9660     5.6210    -0.8750 H     1 <1>   0.1500 
 48 H       -2.2410    -5.3170     2.5200 H     1 <1>   0.2700 
 49 H        3.2270     7.9570    -0.8160 H     1 <1>   0.1500 
 50 H       -1.4930    -7.1370    -0.7940 H     1 <1>   0.0800 
 51 H       -1.9990    -7.6660     0.7910 H     1 <1>   0.0800 
 52 H       -0.5320    -6.7260     0.6040 H     1 <1>   0.0800 
@<TRIPOS>BOND
  1   1   2  2   
  2   2   3  am  
  3   2   4  1   
  4   3   5  1   
  5   3   6  1   
  6   4   7  1   
  7   4  28  1   
  8   4  29  1   
  9   5   8  1   
 10   5  30  1   
 11   5  31  1   
 12   6   9  1   
 13   6  32  1   
 14   6  33  1   
 15   7  10  1   
 16   7  34  1   
 17   7  35  1   
 18   8   9  1   
 19   8  11  1   
 20   8  36  1   
 21   9  12  1   
 22   9  37  1   
 23  10  13  1   
 24  10  14  1   
 25  11  38  1   
 26  12  15  1   
 27  12  39  1   
 28  12  40  1   
 29  13  16  ar  
 30  13  17  ar  
 31  14  18  2   
 32  14  19  1   
 33  15  20  2   
 34  15  21  1   
 35  16  18  1   
 36  16  22  ar  
 37  17  23  ar  
 38  17  41  1   
 39  19  42  1   
 40  19  43  1   
 41  19  44  1   
 42  20  24  1   
 43  21  25  2   
 44  21  45  1   
 45  22  26  ar  
 46  22  46  1   
 47  23  26  ar  
 48  23  47  1   
 49  24  25  1   
 50  24  48  1   
 51  25  27  1   
 52  26  49  1   
 53  27  50  1   
 54  27  51  1   
 55  27  52  1   
@<TRIPOS>SUBSTRUCTURE
  1 ****   2 GROUP 4 **** **** 0

# MOE 2024.06 (io_trps.svl 2023.06)
