@<TRIPOS>MOLECULE
NONAME
45 47 1 0 0 
SMALL
USER_CHARGES


@<TRIPOS>ATOM
  1 S       -3.9510    -0.9450     2.0170 S.3   1 <1>  -0.2820 
  2 C       -3.7340     0.4300     0.9490 C.2   1 <1>   0.7320 
  3 C       -3.0540    -1.9150     0.8800 C.2   1 <1>   0.6510 
  4 S       -4.4660     1.9610     1.5040 S.3   1 <1>  -0.3710 
  5 N       -3.0850     0.2150    -0.1180 N.2   1 <1>  -0.5120 
  6 N       -2.8300    -3.1780     1.0590 N.2   1 <1>  -0.6210 
  7 N       -2.6810    -1.1310    -0.1810 N.am  1 <1>  -0.0580 
  8 C       -4.0350     3.1650     0.1670 C.3   1 <1>  -0.0100 
  9 C       -2.1260    -3.8110     0.0700 C.2   1 <1>   0.0330 
 10 C       -1.9790    -1.7530    -1.2000 C.2   1 <1>   0.6160 
 11 C       -1.7060    -3.1360    -1.0350 C.2   1 <1>  -0.1360 
 12 C       -1.8280    -5.3090     0.2580 C.3   1 <1>   0.4810 
 13 O       -1.6180    -1.1580    -2.2020 O.2   1 <1>  -0.5700 
 14 N       -3.0300    -6.1170     0.6570 N.4   1 <1>  -0.9590 
 15 C       -4.2400    -5.7650    -0.1390 C.3   1 <1>   0.5240 
 16 C       -3.2990    -6.0070     2.1300 C.3   1 <1>   0.2630 
 17 C       -5.3570    -6.6950     0.2640 C.2   1 <1>  -0.1810 
 18 C       -6.4330    -6.3510     1.0770 C.2   1 <1>   0.1080 
 19 C       -5.5520    -7.9990    -0.0420 C.2   1 <1>  -0.3320 
 20 N       -7.2200    -7.3530     1.2790 N.2   1 <1>  -0.7070 
 21 C       -6.7340    -4.9990     1.6920 C.3   1 <1>  -0.0590 
 22 N       -6.6910    -8.3730     0.5870 N.pl3 1 <1>   0.3140 
 23 C       -4.7330    -8.9410    -0.9130 C.3   1 <1>  -0.0600 
 24 C       -7.3470    -9.6880     0.5620 C.3   1 <1>   0.0160 
 25 H       -4.4470     4.1200     0.4390 H     1 <1>   0.0800 
 26 H       -4.4630     2.8090    -0.7530 H     1 <1>   0.0800 
 27 H       -2.9630     3.2150     0.0960 H     1 <1>   0.0800 
 28 H       -1.1500    -3.5950    -1.8320 H     1 <1>   0.1500 
 29 H       -1.0640    -5.4170     1.0110 H     1 <1>   0.0800 
 30 H       -1.4300    -5.6960    -0.6660 H     1 <1>   0.0800 
 31 H       -2.8600    -7.1120     0.4660 H     1 <1>   0.4500 
 32 H       -4.0440    -5.8830    -1.1920 H     1 <1>   0.0800 
 33 H       -4.5320    -4.7450     0.0450 H     1 <1>   0.0800 
 34 H       -3.5820    -5.0000     2.3910 H     1 <1>   0.0800 
 35 H       -2.4220    -6.2740     2.6950 H     1 <1>   0.0800 
 36 H       -4.1020    -6.6690     2.4150 H     1 <1>   0.0800 
 37 H       -5.8620    -4.3750     1.7340 H     1 <1>   0.0800 
 38 H       -7.1070    -5.1370     2.6910 H     1 <1>   0.0800 
 39 H       -7.4950    -4.5080     1.1130 H     1 <1>   0.0800 
 40 H       -3.8950    -8.4330    -1.3530 H     1 <1>   0.0800 
 41 H       -5.3440    -9.3290    -1.7100 H     1 <1>   0.0800 
 42 H       -4.3680    -9.7680    -0.3290 H     1 <1>   0.0800 
 43 H       -6.6670   -10.4320     0.9290 H     1 <1>   0.0800 
 44 H       -7.6400    -9.9170    -0.4450 H     1 <1>   0.0800 
 45 H       -8.2190    -9.6570     1.1890 H     1 <1>   0.0800 
@<TRIPOS>BOND
  1   1   2  1   
  2   1   3  1   
  3   2   4  1   
  4   2   5  2   
  5   3   6  2   
  6   3   7  1   
  7   4   8  1   
  8   5   7  1   
  9   6   9  1   
 10   7  10  am  
 11   8  25  1   
 12   8  26  1   
 13   8  27  1   
 14   9  11  2   
 15   9  12  1   
 16  10  11  1   
 17  10  13  2   
 18  11  28  1   
 19  12  14  1   
 20  12  29  1   
 21  12  30  1   
 22  14  15  1   
 23  14  16  1   
 24  14  31  1   
 25  15  17  1   
 26  15  32  1   
 27  15  33  1   
 28  16  34  1   
 29  16  35  1   
 30  16  36  1   
 31  17  18  1   
 32  17  19  2   
 33  18  20  2   
 34  18  21  1   
 35  19  22  1   
 36  19  23  1   
 37  20  22  1   
 38  21  37  1   
 39  21  38  1   
 40  21  39  1   
 41  22  24  1   
 42  23  40  1   
 43  23  41  1   
 44  23  42  1   
 45  24  43  1   
 46  24  44  1   
 47  24  45  1   
@<TRIPOS>SUBSTRUCTURE
  1 ****   6 GROUP 4 **** **** 0

# MOE 2024.06 (io_trps.svl 2023.06)
