@<TRIPOS>MOLECULE
NONAME
55 57 1 0 0 
SMALL
USER_CHARGES


@<TRIPOS>ATOM
  1 O        0.5990    -0.0970     0.3750 O.3   1 <1>  -0.3630 
  2 C        0.3510    -1.3890     0.0410 C.ar  1 <1>   0.0830 
  3 C        1.9070     0.4210     0.3730 C.3   1 <1>   0.1200 
  4 C       -0.9780    -1.7810     0.0240 C.ar  1 <1>  -0.1500 
  5 C        1.3470    -2.3100    -0.2770 C.ar  1 <1>  -0.1500 
  6 C        1.8120     1.8950     0.7810 C.3   1 <1>   0.3430 
  7 C       -1.3220    -3.0870    -0.3100 C.ar  1 <1>   0.0830 
  8 C        1.0050    -3.6100    -0.6100 C.ar  1 <1>  -0.1500 
  9 N        3.1470     2.5790     0.8220 N.4   1 <1>  -0.9590 
 10 O       -2.5980    -3.5470    -0.3490 O.3   1 <1>  -0.3630 
 11 C       -0.3240    -3.9940    -0.6260 C.ar  1 <1>  -0.1500 
 12 C        3.0220     3.9350     1.4750 C.3   1 <1>   0.3430 
 13 C        3.7670     2.7280    -0.5480 C.3   1 <1>   0.3430 
 14 C       -3.6880    -2.7080    -0.0400 C.3   1 <1>   0.0400 
 15 C        4.3710     4.6800     1.5530 C.3   1 <1>   0.2090 
 16 C        5.1280     3.4550    -0.5060 C.3   1 <1>   0.2090 
 17 N        5.0410     4.7560     0.2210 N.pl3 1 <1>  -0.8380 
 18 C        6.1950     5.5040     0.2010 C.ar  1 <1>   0.4100 
 19 N        7.2130     4.9940     0.8610 N.ar  1 <1>  -0.6200 
 20 C        6.2820     6.7180    -0.4690 C.ar  1 <1>  -0.1430 
 21 C        8.3200     5.7090     0.8460 C.ar  1 <1>   0.4770 
 22 C        7.4950     7.3590    -0.4040 C.ar  1 <1>   0.1600 
 23 C        5.0680     7.2670    -1.2230 C.3   1 <1>  -0.0170 
 24 N        8.5260     6.8660     0.2510 N.ar  1 <1>  -0.6200 
 25 C        9.5000     5.1420     1.5970 C.3   1 <1>  -0.0970 
 26 C        5.2860     8.6140    -1.9220 C.3   1 <1>  -0.2400 
 27 H        2.3010     0.3120    -0.6210 H     1 <1>   0.0800 
 28 H        2.4870    -0.1390     1.0860 H     1 <1>   0.0800 
 29 H       -1.7250    -1.0540     0.2740 H     1 <1>   0.1500 
 30 H        2.3870    -2.0480    -0.2730 H     1 <1>   0.1500 
 31 H        1.3580     1.9400     1.7580 H     1 <1>   0.0800 
 32 H        1.1660     2.4060     0.0860 H     1 <1>   0.0800 
 33 H        1.7690    -4.3270    -0.8560 H     1 <1>   0.1500 
 34 H        3.7960     2.0290     1.4030 H     1 <1>   0.4500 
 35 H       -0.5970    -5.0010    -0.8830 H     1 <1>   0.1500 
 36 H        2.6270     3.8280     2.4720 H     1 <1>   0.0800 
 37 H        2.3360     4.5450     0.9110 H     1 <1>   0.0800 
 38 H        3.1060     3.2950    -1.1830 H     1 <1>   0.0800 
 39 H        3.9080     1.7600    -0.9990 H     1 <1>   0.0800 
 40 H       -4.5900    -3.2850    -0.1350 H     1 <1>   0.0800 
 41 H       -3.7050    -1.8870    -0.7350 H     1 <1>   0.0800 
 42 H       -3.5840    -2.3570     0.9710 H     1 <1>   0.0800 
 43 H        5.0200     4.1830     2.2530 H     1 <1>   0.0800 
 44 H        4.2050     5.6800     1.9190 H     1 <1>   0.0800 
 45 H        5.4660     3.6380    -1.5120 H     1 <1>   0.0800 
 46 H        5.8590     2.8260    -0.0270 H     1 <1>   0.0800 
 47 H        7.6500     8.3040    -0.8950 H     1 <1>   0.1500 
 48 H        4.2540     7.3720    -0.5260 H     1 <1>   0.0800 
 49 H        4.7700     6.5430    -1.9610 H     1 <1>   0.0800 
 50 H        9.2330     4.2280     2.0940 H     1 <1>   0.0800 
 51 H        9.8340     5.8540     2.3270 H     1 <1>   0.0800 
 52 H       10.2990     4.9450     0.9070 H     1 <1>   0.0800 
 53 H        5.5460     9.3740    -1.2070 H     1 <1>   0.0800 
 54 H        4.3830     8.9160    -2.4220 H     1 <1>   0.0800 
 55 H        6.0680     8.5360    -2.6580 H     1 <1>   0.0800 
@<TRIPOS>BOND
  1   1   2  1   
  2   1   3  1   
  3   2   4  ar  
  4   2   5  ar  
  5   3   6  1   
  6   3  27  1   
  7   3  28  1   
  8   4   7  ar  
  9   4  29  1   
 10   5   8  ar  
 11   5  30  1   
 12   6   9  1   
 13   6  31  1   
 14   6  32  1   
 15   7  10  1   
 16   7  11  ar  
 17   8  11  ar  
 18   8  33  1   
 19   9  12  1   
 20   9  13  1   
 21   9  34  1   
 22  10  14  1   
 23  11  35  1   
 24  12  15  1   
 25  12  36  1   
 26  12  37  1   
 27  13  16  1   
 28  13  38  1   
 29  13  39  1   
 30  14  40  1   
 31  14  41  1   
 32  14  42  1   
 33  15  17  1   
 34  15  43  1   
 35  15  44  1   
 36  16  17  1   
 37  16  45  1   
 38  16  46  1   
 39  17  18  1   
 40  18  19  ar  
 41  18  20  ar  
 42  19  21  ar  
 43  20  22  ar  
 44  20  23  1   
 45  21  24  ar  
 46  21  25  1   
 47  22  24  ar  
 48  22  47  1   
 49  23  26  1   
 50  23  48  1   
 51  23  49  1   
 52  25  50  1   
 53  25  51  1   
 54  25  52  1   
 55  26  53  1   
 56  26  54  1   
 57  26  55  1   
@<TRIPOS>SUBSTRUCTURE
  1 ****   9 GROUP 4 **** **** 0

# MOE 2024.06 (io_trps.svl 2023.06)
