@<TRIPOS>MOLECULE
NONAME
47 49 1 0 0 
SMALL
USER_CHARGES


@<TRIPOS>ATOM
  1 O       -2.3320     0.8450     1.2380 O.2   1 <1>  -0.5700 
  2 C       -1.4830     1.5170     0.6730 C.2   1 <1>   0.5440 
  3 N       -0.6340     0.8620    -0.2130 N.am  1 <1>  -0.6600 
  4 C       -1.4390     2.9580     0.9430 C.ar  1 <1>   0.3960 
  5 C       -0.5660    -0.6250    -0.2870 C.3   1 <1>   0.0600 
  6 C        0.2620     1.5660    -1.1720 C.3   1 <1>   0.0600 
  7 N       -0.2790     3.6370     0.9210 N.ar  1 <1>  -0.6200 
  8 C       -2.6470     3.5990     1.2330 C.ar  1 <1>   0.1600 
  9 C       -0.4010     4.9280     1.1830 C.ar  1 <1>   0.4100 
 10 N       -2.7960     4.8890     1.5010 N.ar  1 <1>  -0.6200 
 11 N        0.7600     5.6870     1.1540 N.pl3 1 <1>  -0.8380 
 12 C       -1.6410     5.5190     1.4730 C.ar  1 <1>   0.1600 
 13 C        2.0930     5.0230     1.3420 C.3   1 <1>   0.2090 
 14 C        0.8570     6.8310     0.1970 C.3   1 <1>   0.2090 
 15 C        3.1720     6.0290     1.7950 C.3   1 <1>   0.2090 
 16 C        1.8960     7.8680     0.6680 C.3   1 <1>   0.2090 
 17 N        3.2410     7.2480     0.9130 N.pl3 1 <1>  -0.8380 
 18 C        4.1640     7.3020    -0.1210 C.ar  1 <1>   0.4100 
 19 N        4.3530     6.1410    -0.7500 N.ar  1 <1>  -0.6200 
 20 C        4.8120     8.5030    -0.4910 C.ar  1 <1>   0.0860 
 21 C        5.1690     6.1470    -1.7830 C.ar  1 <1>   0.1600 
 22 C        4.6460     9.7470     0.2290 C.2   1 <1>   0.5440 
 23 C        5.6520     8.4640    -1.5960 C.ar  1 <1>  -0.1500 
 24 C        5.8320     7.2660    -2.2480 C.ar  1 <1>  -0.1500 
 25 O        4.7190    10.8200    -0.3330 O.2   1 <1>  -0.5700 
 26 N        4.4200     9.7930     1.5600 N.am  1 <1>  -0.8000 
 27 H       -1.0670    -1.0760     0.5520 H     1 <1>   0.0800 
 28 H        0.4610    -0.9430    -0.2800 H     1 <1>   0.0800 
 29 H       -1.0380    -0.9630    -1.1930 H     1 <1>   0.0800 
 30 H       -0.1650     2.5100    -1.4620 H     1 <1>   0.0800 
 31 H        0.3990     0.9710    -2.0570 H     1 <1>   0.0800 
 32 H        1.2180     1.7400    -0.7100 H     1 <1>   0.0800 
 33 H       -3.5430     3.0010     1.2430 H     1 <1>   0.1500 
 34 H       -1.6450     6.5690     1.6960 H     1 <1>   0.1500 
 35 H        2.4000     4.5720     0.4140 H     1 <1>   0.0800 
 36 H        2.0100     4.2430     2.0780 H     1 <1>   0.0800 
 37 H       -0.1000     7.3110     0.0900 H     1 <1>   0.0800 
 38 H        1.1520     6.4590    -0.7690 H     1 <1>   0.0800 
 39 H        4.1290     5.5360     1.8070 H     1 <1>   0.0800 
 40 H        2.9520     6.3380     2.8010 H     1 <1>   0.0800 
 41 H        1.5480     8.3250     1.5770 H     1 <1>   0.0800 
 42 H        1.9810     8.6400    -0.0780 H     1 <1>   0.0800 
 43 H        5.3200     5.2100    -2.2930 H     1 <1>   0.1500 
 44 H        6.1550     9.3570    -1.9270 H     1 <1>   0.1500 
 45 H        6.4790     7.1980    -3.1040 H     1 <1>   0.1500 
 46 H        4.2600    10.6880     2.0190 H     1 <1>   0.3700 
 47 H        4.1200     8.9400     2.0440 H     1 <1>   0.3700 
@<TRIPOS>BOND
  1   1   2  2   
  2   2   3  am  
  3   2   4  1   
  4   3   5  1   
  5   3   6  1   
  6   4   7  ar  
  7   4   8  ar  
  8   5  27  1   
  9   5  28  1   
 10   5  29  1   
 11   6  30  1   
 12   6  31  1   
 13   6  32  1   
 14   7   9  ar  
 15   8  10  ar  
 16   8  33  1   
 17   9  11  1   
 18   9  12  ar  
 19  10  12  ar  
 20  11  13  1   
 21  11  14  1   
 22  12  34  1   
 23  13  15  1   
 24  13  35  1   
 25  13  36  1   
 26  14  16  1   
 27  14  37  1   
 28  14  38  1   
 29  15  17  1   
 30  15  39  1   
 31  15  40  1   
 32  16  17  1   
 33  16  41  1   
 34  16  42  1   
 35  17  18  1   
 36  18  19  ar  
 37  18  20  ar  
 38  19  21  ar  
 39  20  22  1   
 40  20  23  ar  
 41  21  24  ar  
 42  21  43  1   
 43  22  25  2   
 44  22  26  am  
 45  23  24  ar  
 46  23  44  1   
 47  24  45  1   
 48  26  46  1   
 49  26  47  1   
@<TRIPOS>SUBSTRUCTURE
  1 ****  11 GROUP 4 **** **** 0

# MOE 2024.06 (io_trps.svl 2023.06)
