@<TRIPOS>MOLECULE
NONAME
44 46 1 0 0 
SMALL
USER_CHARGES


@<TRIPOS>ATOM
  1 O       -0.3720     0.1670     0.2180 O.2   1 <1>  -0.5700 
  2 C       -1.4090     0.7990     0.1120 C.2   1 <1>   0.7150 
  3 N       -2.5770     0.0800    -0.0520 N.am  1 <1>  -0.6600 
  4 C       -1.3730     2.2490     0.1540 C.2   1 <1>   0.0550 
  5 C       -3.9050     0.6400    -0.4060 C.3   1 <1>   0.1400 
  6 C       -2.6040    -1.4020    -0.1100 C.3   1 <1>   0.1400 
  7 O       -2.4350     2.9560     0.5250 O.3   1 <1>  -0.2800 
  8 C       -0.3690     3.1090    -0.1250 C.2   1 <1>   0.0460 
  9 C       -4.7520    -0.5680    -0.8070 C.3   1 <1>   0.2000 
 10 C       -4.0880    -1.7740    -0.1470 C.3   1 <1>  -0.0800 
 11 C       -1.9940     4.1950     0.4440 C.2   1 <1>   0.2980 
 12 N       -0.7810     4.3570     0.0630 N.2   1 <1>  -0.5650 
 13 C        1.0530     2.8640    -0.5900 C.3   1 <1>  -0.0590 
 14 O       -6.0590    -0.4430    -0.3650 O.3   1 <1>  -0.6800 
 15 C       -4.3890    -3.0920    -0.8800 C.3   1 <1>  -0.0170 
 16 C       -2.9730     5.3000     0.8110 C.3   1 <1>   0.0200 
 17 C       -3.7420    -4.2810    -0.1900 C.ar  1 <1>   0.1670 
 18 C       -2.3940     6.7160     0.6780 C.3   1 <1>  -0.2400 
 19 N       -2.4700    -4.5080    -0.4810 N.ar  1 <1>  -0.6200 
 20 C       -4.4860    -5.0530     0.6900 C.ar  1 <1>  -0.1500 
 21 C       -1.9170    -5.5430     0.1310 C.ar  1 <1>   0.1600 
 22 C       -3.8970    -6.1280     1.3200 C.ar  1 <1>  -0.1500 
 23 C       -2.5730    -6.3710     1.0250 C.ar  1 <1>  -0.1500 
 24 H       -4.3220     1.1300     0.4570 H     1 <1>   0.0800 
 25 H       -3.8160     1.3340    -1.2230 H     1 <1>   0.0800 
 26 H       -2.1030    -1.7290    -1.0050 H     1 <1>   0.0800 
 27 H       -2.1100    -1.8320     0.7460 H     1 <1>   0.0800 
 28 H       -4.7630    -0.6640    -1.8800 H     1 <1>   0.0800 
 29 H       -4.4190    -1.8520     0.8740 H     1 <1>   0.0800 
 30 H        1.2290     1.8240    -0.7860 H     1 <1>   0.0800 
 31 H        1.7390     3.1950     0.1680 H     1 <1>   0.0800 
 32 H        1.2370     3.4200    -1.4900 H     1 <1>   0.0800 
 33 H       -6.0830    -0.3790     0.6100 H     1 <1>   0.4000 
 34 H       -4.0320    -3.0400    -1.8940 H     1 <1>   0.0800 
 35 H       -5.4540    -3.2390    -0.9210 H     1 <1>   0.0800 
 36 H       -3.8360     5.2110     0.1760 H     1 <1>   0.0800 
 37 H       -3.2910     5.1430     1.8260 H     1 <1>   0.0800 
 38 H       -2.0850     6.8950    -0.3370 H     1 <1>   0.0800 
 39 H       -1.5390     6.8280     1.3210 H     1 <1>   0.0800 
 40 H       -3.1330     7.4490     0.9510 H     1 <1>   0.0800 
 41 H       -5.5160    -4.8160     0.8840 H     1 <1>   0.1500 
 42 H       -0.8830    -5.7420    -0.0930 H     1 <1>   0.1500 
 43 H       -4.4440    -6.7490     2.0090 H     1 <1>   0.1500 
 44 H       -2.0520    -7.1930     1.4810 H     1 <1>   0.1500 
@<TRIPOS>BOND
  1   1   2  2   
  2   2   3  am  
  3   2   4  1   
  4   3   5  1   
  5   3   6  1   
  6   4   7  1   
  7   4   8  2   
  8   5   9  1   
  9   5  24  1   
 10   5  25  1   
 11   6  10  1   
 12   6  26  1   
 13   6  27  1   
 14   7  11  1   
 15   8  12  1   
 16   8  13  1   
 17   9  10  1   
 18   9  14  1   
 19   9  28  1   
 20  10  15  1   
 21  10  29  1   
 22  11  12  2   
 23  11  16  1   
 24  13  30  1   
 25  13  31  1   
 26  13  32  1   
 27  14  33  1   
 28  15  17  1   
 29  15  34  1   
 30  15  35  1   
 31  16  18  1   
 32  16  36  1   
 33  16  37  1   
 34  17  19  ar  
 35  17  20  ar  
 36  18  38  1   
 37  18  39  1   
 38  18  40  1   
 39  19  21  ar  
 40  20  22  ar  
 41  20  41  1   
 42  21  23  ar  
 43  21  42  1   
 44  22  23  ar  
 45  22  43  1   
 46  23  44  1   
@<TRIPOS>SUBSTRUCTURE
  1 ****   3 GROUP 4 **** **** 0

# MOE 2024.06 (io_trps.svl 2023.06)
