@<TRIPOS>MOLECULE
NONAME
30 31 1 0 0 
SMALL
USER_CHARGES


@<TRIPOS>ATOM
  1 N       -9.9450    -0.4510     0.3650 N.ar  1 <1>  -0.6200 
  2 C       -8.7510     0.1170     0.3250 C.ar  1 <1>   0.1660 
  3 C      -10.1020    -1.5620    -0.3270 C.ar  1 <1>   0.1600 
  4 C       -7.6680    -0.3890    -0.4100 C.ar  1 <1>  -0.1440 
  5 C       -8.7170     1.3820     1.1670 C.3   1 <1>  -0.0960 
  6 C       -9.1080    -2.1530    -1.0770 C.ar  1 <1>  -0.1500 
  7 C       -7.8670    -1.5610    -1.1240 C.ar  1 <1>  -0.1500 
  8 C       -6.2630     0.2230    -0.5140 C.3   1 <1>   0.0640 
  9 C       -5.4470     0.0480     0.7770 C.3   1 <1>  -0.1600 
 10 C       -6.2440     1.6740    -1.0240 C.3   1 <1>  -0.1600 
 11 C       -4.0410     0.6310     0.6330 C.3   1 <1>   0.3430 
 12 C       -4.8150     2.2030    -1.1310 C.3   1 <1>   0.3430 
 13 N       -4.1250     2.0480     0.1800 N.4   1 <1>  -0.9060 
 14 H      -11.0740    -2.0250    -0.2930 H     1 <1>   0.1500 
 15 H       -9.3300     1.2460     2.0410 H     1 <1>   0.0800 
 16 H       -9.1280     2.1950     0.5980 H     1 <1>   0.0800 
 17 H       -7.7380     1.6400     1.5030 H     1 <1>   0.0800 
 18 H       -9.3060    -3.0620    -1.6160 H     1 <1>   0.1500 
 19 H       -7.0910    -2.0210    -1.7100 H     1 <1>   0.1500 
 20 H       -5.7350    -0.3420    -1.2660 H     1 <1>   0.0800 
 21 H       -5.3660    -1.0030     0.9970 H     1 <1>   0.0800 
 22 H       -5.9320     0.5020     1.6180 H     1 <1>   0.0800 
 23 H       -6.8050     2.3310    -0.3910 H     1 <1>   0.0800 
 24 H       -6.7050     1.7070    -1.9970 H     1 <1>   0.0800 
 25 H       -3.4860     0.0520    -0.0890 H     1 <1>   0.0800 
 26 H       -3.5260     0.5720     1.5790 H     1 <1>   0.0800 
 27 H       -4.8340     3.2420    -1.4220 H     1 <1>   0.0800 
 28 H       -4.2830     1.6500    -1.8910 H     1 <1>   0.0800 
 29 H       -3.1780     2.4470     0.1200 H     1 <1>   0.4500 
 30 H       -4.6300     2.5940     0.8890 H     1 <1>   0.4500 
@<TRIPOS>BOND
  1   1   2  ar  
  2   1   3  ar  
  3   2   4  ar  
  4   2   5  1   
  5   3   6  ar  
  6   3  14  1   
  7   4   7  ar  
  8   4   8  1   
  9   5  15  1   
 10   5  16  1   
 11   5  17  1   
 12   6   7  ar  
 13   6  18  1   
 14   7  19  1   
 15   8   9  1   
 16   8  10  1   
 17   8  20  1   
 18   9  11  1   
 19   9  21  1   
 20   9  22  1   
 21  10  12  1   
 22  10  23  1   
 23  10  24  1   
 24  11  13  1   
 25  11  25  1   
 26  11  26  1   
 27  12  13  1   
 28  12  27  1   
 29  12  28  1   
 30  13  29  1   
 31  13  30  1   
@<TRIPOS>SUBSTRUCTURE
  1 ****   4 GROUP 4 **** **** 0

# MOE 2024.06 (io_trps.svl 2023.06)
