@<TRIPOS>MOLECULE
NONAME
46 47 1 0 0 
SMALL
USER_CHARGES


@<TRIPOS>ATOM
  1 O       -4.7720     0.9100     1.2910 O.2   1 <1>  -0.5700 
  2 C       -3.6010     1.0640     1.0440 C.2   1 <1>   0.5690 
  3 N       -3.0370     1.0900    -0.1850 N.am  1 <1>  -0.6600 
  4 C       -2.5570     1.2210     2.1140 C.3   1 <1>  -0.0990 
  5 C       -1.5750     1.2680    -0.1340 C.3   1 <1>   0.1400 
  6 C       -3.7430     1.1630    -1.4880 C.3   1 <1>   0.1400 
  7 C       -1.2300     1.0860     1.3500 C.3   1 <1>  -0.1600 
  8 C       -3.9430    -0.2440    -2.0620 C.3   1 <1>  -0.1600 
  9 C       -5.2740    -0.8710    -1.6100 C.3   1 <1>  -0.0990 
 10 C       -5.2440    -2.3890    -1.6680 C.2   1 <1>   0.5690 
 11 O       -5.4100    -2.9010    -2.7500 O.2   1 <1>  -0.5700 
 12 N       -5.0210    -3.1280    -0.5350 N.am  1 <1>  -0.6600 
 13 C       -5.2550    -4.5940    -0.5770 C.3   1 <1>   0.3200 
 14 C       -4.3960    -2.5670     0.7070 C.3   1 <1>   0.1400 
 15 C       -6.7430    -4.8770    -0.5200 C.2   1 <1>  -0.3320 
 16 C       -5.4200    -2.2030     1.7960 C.3   1 <1>   0.1200 
 17 N       -7.5190    -4.5400     0.5230 N.pl3 1 <1>   0.0330 
 18 C       -7.5590    -5.4700    -1.4180 C.2   1 <1>   0.0770 
 19 O       -5.8520    -3.3390     2.4800 O.3   1 <1>  -0.6800 
 20 C       -8.7600    -4.9590     0.1990 C.2   1 <1>   0.0060 
 21 N       -8.8250    -5.5300    -0.9590 N.2   1 <1>  -0.5650 
 22 C       -9.9470    -4.7660     1.1150 C.3   1 <1>  -0.0600 
 23 H       -2.6660     0.4660     2.8700 H     1 <1>   0.0800 
 24 H       -2.6560     2.1970     2.5520 H     1 <1>   0.0800 
 25 H       -1.3220     2.2600    -0.4670 H     1 <1>   0.0800 
 26 H       -1.0780     0.5350    -0.7480 H     1 <1>   0.0800 
 27 H       -3.1550     1.7520    -2.1710 H     1 <1>   0.0800 
 28 H       -4.6940     1.6550    -1.3600 H     1 <1>   0.0800 
 29 H       -0.8260     0.1000     1.4950 H     1 <1>   0.0800 
 30 H       -0.5010     1.8080     1.6750 H     1 <1>   0.0800 
 31 H       -3.1130    -0.8700    -1.7830 H     1 <1>   0.0800 
 32 H       -3.9540    -0.1900    -3.1370 H     1 <1>   0.0800 
 33 H       -6.0630    -0.5260    -2.2540 H     1 <1>   0.0800 
 34 H       -5.5340    -0.5570    -0.6200 H     1 <1>   0.0800 
 35 H       -4.7630    -5.0750     0.2490 H     1 <1>   0.0800 
 36 H       -4.8480    -4.9960    -1.4890 H     1 <1>   0.0800 
 37 H       -3.8530    -1.6760     0.4490 H     1 <1>   0.0800 
 38 H       -3.6730    -3.2600     1.1010 H     1 <1>   0.0800 
 39 H       -6.2750    -1.7170     1.3580 H     1 <1>   0.0800 
 40 H       -4.9790    -1.5340     2.5140 H     1 <1>   0.0800 
 41 H       -7.2080    -4.0500     1.3730 H     1 <1>   0.2700 
 42 H       -7.2970    -5.8590    -2.3880 H     1 <1>   0.1500 
 43 H       -5.1530    -3.6600     3.0850 H     1 <1>   0.4000 
 44 H       -9.7850    -5.2860     2.0410 H     1 <1>   0.0800 
 45 H      -10.8330    -5.1570     0.6470 H     1 <1>   0.0800 
 46 H      -10.0910    -3.7200     1.3120 H     1 <1>   0.0800 
@<TRIPOS>BOND
  1   1   2  2   
  2   2   3  am  
  3   2   4  1   
  4   3   5  1   
  5   3   6  1   
  6   4   7  1   
  7   4  23  1   
  8   4  24  1   
  9   5   7  1   
 10   5  25  1   
 11   5  26  1   
 12   6   8  1   
 13   6  27  1   
 14   6  28  1   
 15   7  29  1   
 16   7  30  1   
 17   8   9  1   
 18   8  31  1   
 19   8  32  1   
 20   9  10  1   
 21   9  33  1   
 22   9  34  1   
 23  10  11  2   
 24  10  12  am  
 25  12  13  1   
 26  12  14  1   
 27  13  15  1   
 28  13  35  1   
 29  13  36  1   
 30  14  16  1   
 31  14  37  1   
 32  14  38  1   
 33  15  17  1   
 34  15  18  2   
 35  16  19  1   
 36  16  39  1   
 37  16  40  1   
 38  17  20  1   
 39  17  41  1   
 40  18  21  1   
 41  18  42  1   
 42  19  43  1   
 43  20  21  2   
 44  20  22  1   
 45  22  44  1   
 46  22  45  1   
 47  22  46  1   
@<TRIPOS>SUBSTRUCTURE
  1 ****  12 GROUP 4 **** **** 0

# MOE 2024.06 (io_trps.svl 2023.06)
