@<TRIPOS>MOLECULE
NONAME
53 56 1 0 0 
SMALL
USER_CHARGES


@<TRIPOS>ATOM
  1 F        0.7150    -0.2980    -1.4690 F     1 <1>  -0.1900 
  2 C        1.0490    -1.4710    -0.9920 C.ar  1 <1>   0.1900 
  3 C        0.5270    -2.5990    -1.5690 C.ar  1 <1>  -0.1500 
  4 C        1.9310    -1.5080     0.0920 C.ar  1 <1>  -0.1500 
  5 C        0.9010    -3.8380    -1.0360 C.ar  1 <1>   0.0000 
  6 C        2.2990    -2.7270     0.6140 C.ar  1 <1>  -0.1500 
  7 C        1.7760    -3.8990     0.0460 C.ar  1 <1>  -0.1520 
  8 C        0.5790    -5.1640    -1.3610 C.2   1 <1>  -0.1500 
  9 N        1.9710    -5.2230     0.3670 N.pl3 1 <1>   0.0480 
 10 C        1.2270    -6.0020    -0.4970 C.2   1 <1>  -0.2370 
 11 C        2.8490    -5.7190     1.4490 C.3   1 <1>   0.0160 
 12 C        1.1910    -7.4450    -0.4530 C.2   1 <1>   0.7150 
 13 O        2.2050    -8.0720    -0.2070 O.2   1 <1>  -0.5700 
 14 N        0.0210    -8.1340    -0.6700 N.am  1 <1>  -0.6600 
 15 C       -1.3360    -7.5530    -0.4360 C.3   1 <1>   0.1400 
 16 C       -0.0060    -9.6090    -0.9120 C.3   1 <1>   0.1400 
 17 C       -2.1300    -8.3880     0.5920 C.3   1 <1>   0.2950 
 18 C       -0.8720   -10.3280     0.1440 C.3   1 <1>   0.2000 
 19 O       -2.1370    -9.7330     0.2090 O.3   1 <1>  -0.5600 
 20 C       -3.5990    -7.9660     0.7710 C.3   1 <1>  -0.1950 
 21 C       -1.0990   -11.8120    -0.1710 C.3   1 <1>  -0.1600 
 22 C       -4.5090    -7.6060    -0.3630 C.3   1 <1>  -0.2000 
 23 C       -4.0800    -6.5530     0.6210 C.3   1 <1>  -0.2000 
 24 C        0.1960   -12.6410    -0.1330 C.3   1 <1>  -0.1600 
 25 C       -0.0990   -14.1290    -0.3600 C.3   1 <1>  -0.1600 
 26 C        1.1880   -14.9570    -0.3250 C.3   1 <1>  -0.2400 
 27 H       -0.1460    -2.5450    -2.4030 H     1 <1>   0.1500 
 28 H        2.3060    -0.5850     0.4950 H     1 <1>   0.1500 
 29 H        2.9780    -2.7820     1.4450 H     1 <1>   0.1500 
 30 H       -0.0710    -5.4410    -2.1710 H     1 <1>   0.1500 
 31 H        2.3600    -6.5250     1.9660 H     1 <1>   0.0800 
 32 H        3.0590    -4.9310     2.1460 H     1 <1>   0.0800 
 33 H        3.7660    -6.0780     1.0190 H     1 <1>   0.0800 
 34 H       -1.2560    -6.5480    -0.0660 H     1 <1>   0.0800 
 35 H       -1.8680    -7.5270    -1.3690 H     1 <1>   0.0800 
 36 H       -0.4140    -9.7960    -1.8900 H     1 <1>   0.0800 
 37 H        0.9920   -10.0100    -0.8930 H     1 <1>   0.0800 
 38 H       -1.6400    -8.3180     1.5480 H     1 <1>   0.0800 
 39 H       -0.4090   -10.2390     1.1120 H     1 <1>   0.0800 
 40 H       -4.0460    -8.5280     1.5730 H     1 <1>   0.1000 
 41 H       -1.7830   -12.2070     0.5590 H     1 <1>   0.0800 
 42 H       -1.5550   -11.9020    -1.1420 H     1 <1>   0.0800 
 43 H       -4.1220    -7.5780    -1.3660 H     1 <1>   0.1000 
 44 H       -5.5230    -7.9680    -0.3320 H     1 <1>   0.1000 
 45 H       -4.8060    -6.1810     1.3230 H     1 <1>   0.1000 
 46 H       -3.4220    -5.7770     0.2710 H     1 <1>   0.1000 
 47 H        0.8750   -12.3010    -0.8950 H     1 <1>   0.0800 
 48 H        0.6740   -12.5160     0.8240 H     1 <1>   0.0800 
 49 H       -0.7700   -14.4860     0.4030 H     1 <1>   0.0800 
 50 H       -0.5800   -14.2610    -1.3150 H     1 <1>   0.0800 
 51 H        1.6750   -14.8570     0.6290 H     1 <1>   0.0800 
 52 H        1.8660   -14.6330    -1.0960 H     1 <1>   0.0800 
 53 H        0.9610   -15.9960    -0.4850 H     1 <1>   0.0800 
@<TRIPOS>BOND
  1   1   2  1   
  2   2   3  ar  
  3   2   4  ar  
  4   3   5  ar  
  5   3  27  1   
  6   4   6  ar  
  7   4  28  1   
  8   5   7  ar  
  9   5   8  1   
 10   6   7  ar  
 11   6  29  1   
 12   7   9  1   
 13   8  10  2   
 14   8  30  1   
 15   9  10  1   
 16   9  11  1   
 17  10  12  1   
 18  11  31  1   
 19  11  32  1   
 20  11  33  1   
 21  12  13  2   
 22  12  14  am  
 23  14  15  1   
 24  14  16  1   
 25  15  17  1   
 26  15  34  1   
 27  15  35  1   
 28  16  18  1   
 29  16  36  1   
 30  16  37  1   
 31  17  19  1   
 32  17  20  1   
 33  17  38  1   
 34  18  19  1   
 35  18  21  1   
 36  18  39  1   
 37  20  22  1   
 38  20  23  1   
 39  20  40  1   
 40  21  24  1   
 41  21  41  1   
 42  21  42  1   
 43  22  23  1   
 44  22  43  1   
 45  22  44  1   
 46  23  45  1   
 47  23  46  1   
 48  24  25  1   
 49  24  47  1   
 50  24  48  1   
 51  25  26  1   
 52  25  49  1   
 53  25  50  1   
 54  26  51  1   
 55  26  52  1   
 56  26  53  1   
@<TRIPOS>SUBSTRUCTURE
  1 ****  14 GROUP 4 **** **** 0

# MOE 2024.06 (io_trps.svl 2023.06)
