@<TRIPOS>MOLECULE
NONAME
44 46 1 0 0 
SMALL
USER_CHARGES


@<TRIPOS>ATOM
  1 O        0.0710    -0.2430     1.1780 O.2   1 <1>  -0.5700 
  2 C        1.0410    -0.7420     0.6580 C.2   1 <1>   0.5690 
  3 N        2.0210    -0.0450     0.0260 N.am  1 <1>  -0.4930 
  4 C        1.1690    -2.2450     0.7210 C.3   1 <1>  -0.0990 
  5 C        2.2420     1.3500    -0.1040 C.2   1 <1>   0.0630 
  6 C       -0.0200    -2.8980     0.0110 C.3   1 <1>   0.0960 
  7 C        3.5310     1.8930    -0.1590 C.2   1 <1>   0.3720 
  8 C        1.4130     2.4120    -0.2110 C.2   1 <1>  -0.3320 
  9 N        0.0990    -4.3650     0.0550 N.pl3 1 <1>   0.3140 
 10 N        3.5240     3.1840    -0.2580 N.2   1 <1>  -0.7070 
 11 N        4.7090     1.1220    -0.1100 N.pl3 1 <1>  -0.8210 
 12 N        2.2120     3.5080    -0.2810 N.pl3 1 <1>   0.3140 
 13 C       -0.1070     2.4680    -0.2630 C.3   1 <1>  -0.0600 
 14 N        1.0150    -5.0250    -0.6780 N.2   1 <1>  -0.7070 
 15 C       -0.6360    -5.2160     0.7980 C.2   1 <1>  -0.3020 
 16 C        5.5310     1.4580     1.0850 C.3   1 <1>   0.2090 
 17 C        5.5580     1.3090    -1.3200 C.3   1 <1>   0.2090 
 18 C        1.7900     4.9110    -0.3770 C.3   1 <1>   0.0160 
 19 C        0.8370    -6.2770    -0.3850 C.2   1 <1>   0.1390 
 20 C       -0.1860    -6.4610     0.5360 C.2   1 <1>  -0.1500 
 21 C        6.8430     2.0260     0.5630 C.3   1 <1>  -0.1600 
 22 C        6.9900     1.4080    -0.8170 C.3   1 <1>  -0.1600 
 23 H        2.8750    -0.5560    -0.2080 H     1 <1>   0.3700 
 24 H        1.1840    -2.5410     1.7540 H     1 <1>   0.0800 
 25 H        2.0860    -2.5580     0.2560 H     1 <1>   0.0800 
 26 H       -0.0480    -2.5950    -1.0200 H     1 <1>   0.0800 
 27 H       -0.9420    -2.6090     0.4820 H     1 <1>   0.0800 
 28 H       -0.5060     1.5090    -0.5380 H     1 <1>   0.0800 
 29 H       -0.4380     3.1820    -0.9950 H     1 <1>   0.0800 
 30 H       -0.4990     2.7390     0.7010 H     1 <1>   0.0800 
 31 H       -1.4220    -4.8950     1.4570 H     1 <1>   0.1500 
 32 H        5.7140     0.5530     1.6390 H     1 <1>   0.0800 
 33 H        5.0330     2.1650     1.7280 H     1 <1>   0.0800 
 34 H        5.2880     2.2180    -1.8330 H     1 <1>   0.0800 
 35 H        5.4380     0.4780    -1.9930 H     1 <1>   0.0800 
 36 H        1.0640     5.1140     0.3880 H     1 <1>   0.0800 
 37 H        1.3640     5.0840    -1.3460 H     1 <1>   0.0800 
 38 H        2.6450     5.5460    -0.2390 H     1 <1>   0.0800 
 39 H        1.4210    -7.0750    -0.8140 H     1 <1>   0.1500 
 40 H       -0.5210    -7.4020     0.9340 H     1 <1>   0.1500 
 41 H        7.6690     1.7970     1.2120 H     1 <1>   0.0800 
 42 H        6.7430     3.0940     0.4770 H     1 <1>   0.0800 
 43 H        7.6020     2.0030    -1.4720 H     1 <1>   0.0800 
 44 H        7.4050     0.4190    -0.7390 H     1 <1>   0.0800 
@<TRIPOS>BOND
  1   1   2  2   
  2   2   3  am  
  3   2   4  1   
  4   3   5  1   
  5   3  23  1   
  6   4   6  1   
  7   4  24  1   
  8   4  25  1   
  9   5   7  1   
 10   5   8  2   
 11   6   9  1   
 12   6  26  1   
 13   6  27  1   
 14   7  10  2   
 15   7  11  1   
 16   8  12  1   
 17   8  13  1   
 18   9  14  1   
 19   9  15  1   
 20  10  12  1   
 21  11  16  1   
 22  11  17  1   
 23  12  18  1   
 24  13  28  1   
 25  13  29  1   
 26  13  30  1   
 27  14  19  2   
 28  15  20  2   
 29  15  31  1   
 30  16  21  1   
 31  16  32  1   
 32  16  33  1   
 33  17  22  1   
 34  17  34  1   
 35  17  35  1   
 36  18  36  1   
 37  18  37  1   
 38  18  38  1   
 39  19  20  1   
 40  19  39  1   
 41  20  40  1   
 42  21  22  1   
 43  21  41  1   
 44  21  42  1   
 45  22  43  1   
 46  22  44  1   
@<TRIPOS>SUBSTRUCTURE
  1 ****   3 GROUP 4 **** **** 0

# MOE 2024.06 (io_trps.svl 2023.06)
