@<TRIPOS>MOLECULE
NONAME
60 64 1 0 0 
SMALL
USER_CHARGES


@<TRIPOS>ATOM
  1 O       -1.0110     0.1870    -0.8200 O.2   1 <1>  -0.5700 
  2 C       -1.9980     0.6430    -0.2770 C.2   1 <1>   0.5440 
  3 N       -3.0460    -0.2140     0.0200 N.am  1 <1>  -0.6600 
  4 C       -2.0210     2.0600     0.0300 C.ar  1 <1>   0.0860 
  5 C       -4.5100     0.0720    -0.1030 C.3   1 <1>   0.2200 
  6 C       -2.7500    -1.6650     0.2050 C.3   1 <1>   0.0600 
  7 C       -2.2470     2.5320     1.3200 C.ar  1 <1>  -0.1500 
  8 C       -1.8050     3.0140    -0.9640 C.ar  1 <1>  -0.1500 
  9 C       -4.9010     1.0430    -1.2180 C.3   1 <1>  -0.1600 
 10 C       -5.1160     0.6180     1.1890 C.3   1 <1>  -0.1600 
 11 C       -2.3540     3.8830     1.5860 C.ar  1 <1>  -0.1500 
 12 C       -1.8990     4.3670    -0.7000 C.ar  1 <1>  -0.1500 
 13 C       -6.1970     1.7140    -0.7440 C.3   1 <1>  -0.0800 
 14 C       -6.1750     1.6580     0.7890 C.3   1 <1>  -0.0800 
 15 C       -2.2200     4.8330     0.5740 C.ar  1 <1>   0.0540 
 16 C       -6.2640     3.1990    -1.1090 C.3   1 <1>  -0.1600 
 17 C       -5.8840     3.0930     1.2730 C.3   1 <1>  -0.1600 
 18 C       -2.4520     6.2360     0.8350 C.2   1 <1>   0.4620 
 19 C       -5.4960     3.8790     0.0200 C.3   1 <1>   0.4230 
 20 N       -3.3480     6.6890     1.6390 N.2   1 <1>  -0.4100 
 21 N       -1.8000     7.2110     0.2080 N.2   1 <1>  -0.5650 
 22 N       -5.7310     5.3540     0.1290 N.4   1 <1>  -0.9590 
 23 O       -3.2760     7.9840     1.6100 O.3   1 <1>  -0.0190 
 24 C       -2.3280     8.2350     0.7430 C.2   1 <1>   0.3930 
 25 C       -7.1410     5.7630     0.4230 C.3   1 <1>   0.2630 
 26 C       -5.2410     6.0620    -1.0930 C.3   1 <1>   0.2630 
 27 C       -1.9690     9.6860     0.4590 C.3   1 <1>  -0.0150 
 28 C       -0.5970    10.0810     0.0010 C.3   1 <1>  -0.2000 
 29 C       -1.0570    10.4330     1.3850 C.3   1 <1>  -0.2000 
 30 H       -5.0190    -0.8530    -0.3230 H     1 <1>   0.0800 
 31 H       -3.3520    -2.0670     1.0000 H     1 <1>   0.0800 
 32 H       -1.7130    -1.8080     0.4570 H     1 <1>   0.0800 
 33 H       -2.9580    -2.1960    -0.7080 H     1 <1>   0.0800 
 34 H       -2.3320     1.8190     2.1220 H     1 <1>   0.1500 
 35 H       -1.5570     2.6720    -1.9560 H     1 <1>   0.1500 
 36 H       -4.1440     1.7790    -1.3830 H     1 <1>   0.0800 
 37 H       -5.0590     0.5110    -2.1390 H     1 <1>   0.0800 
 38 H       -5.5850    -0.1910     1.7220 H     1 <1>   0.0800 
 39 H       -4.3670     1.0340     1.8280 H     1 <1>   0.0800 
 40 H       -2.5400     4.2100     2.5960 H     1 <1>   0.1500 
 41 H       -1.7220     5.0740    -1.4940 H     1 <1>   0.1500 
 42 H       -7.0450     1.1720    -1.1300 H     1 <1>   0.0800 
 43 H       -7.1400     1.3470     1.1560 H     1 <1>   0.0800 
 44 H       -7.2960     3.5010    -1.1100 H     1 <1>   0.0800 
 45 H       -5.8300     3.3880    -2.0740 H     1 <1>   0.0800 
 46 H       -5.1020     3.1290     2.0080 H     1 <1>   0.0800 
 47 H       -6.7840     3.4750     1.7140 H     1 <1>   0.0800 
 48 H       -4.4470     3.7020    -0.1560 H     1 <1>   0.0800 
 49 H       -5.1430     5.6830     0.9180 H     1 <1>   0.4500 
 50 H       -7.8020     5.4300    -0.3600 H     1 <1>   0.0800 
 51 H       -7.2080     6.8370     0.4960 H     1 <1>   0.0800 
 52 H       -7.4720     5.3430     1.3580 H     1 <1>   0.0800 
 53 H       -5.8360     5.7880    -1.9500 H     1 <1>   0.0800 
 54 H       -4.2130     5.8030    -1.2900 H     1 <1>   0.0800 
 55 H       -5.3030     7.1290    -0.9560 H     1 <1>   0.0800 
 56 H       -2.7970    10.2290     0.0420 H     1 <1>   0.1000 
 57 H        0.1540     9.3180    -0.1130 H     1 <1>   0.1000 
 58 H       -0.5000    10.8660    -0.7280 H     1 <1>   0.1000 
 59 H       -1.2760    11.4620     1.6110 H     1 <1>   0.1000 
 60 H       -0.6140     9.9130     2.2170 H     1 <1>   0.1000 
@<TRIPOS>BOND
  1   1   2  2   
  2   2   3  am  
  3   2   4  1   
  4   3   5  1   
  5   3   6  1   
  6   4   7  ar  
  7   4   8  ar  
  8   5   9  1   
  9   5  10  1   
 10   5  30  1   
 11   6  31  1   
 12   6  32  1   
 13   6  33  1   
 14   7  11  ar  
 15   7  34  1   
 16   8  12  ar  
 17   8  35  1   
 18   9  13  1   
 19   9  36  1   
 20   9  37  1   
 21  10  14  1   
 22  10  38  1   
 23  10  39  1   
 24  11  15  ar  
 25  11  40  1   
 26  12  15  ar  
 27  12  41  1   
 28  13  14  1   
 29  13  16  1   
 30  13  42  1   
 31  14  17  1   
 32  14  43  1   
 33  15  18  1   
 34  16  19  1   
 35  16  44  1   
 36  16  45  1   
 37  17  19  1   
 38  17  46  1   
 39  17  47  1   
 40  18  20  2   
 41  18  21  1   
 42  19  22  1   
 43  19  48  1   
 44  20  23  1   
 45  21  24  2   
 46  22  25  1   
 47  22  26  1   
 48  22  49  1   
 49  23  24  1   
 50  24  27  1   
 51  25  50  1   
 52  25  51  1   
 53  25  52  1   
 54  26  53  1   
 55  26  54  1   
 56  26  55  1   
 57  27  28  1   
 58  27  29  1   
 59  27  56  1   
 60  28  29  1   
 61  28  57  1   
 62  28  58  1   
 63  29  59  1   
 64  29  60  1   
@<TRIPOS>SUBSTRUCTURE
  1 ****  15 GROUP 4 **** **** 0

# MOE 2024.06 (io_trps.svl 2023.06)
