@<TRIPOS>MOLECULE
NONAME
38 39 1 0 0 
SMALL
USER_CHARGES


@<TRIPOS>ATOM
  1 O       -0.8510     2.7070     1.0180 O.co2 1 <1>  -0.9000 
  2 C       -1.2630     3.3440     0.0490 C.2   1 <1>   0.9060 
  3 O       -1.4840     4.5520     0.0760 O.co2 1 <1>  -0.9000 
  4 C       -1.7520     2.5650    -1.1240 C.3   1 <1>  -0.2660 
  5 C       -2.6980     1.4940    -0.6120 C.3   1 <1>   0.3430 
  6 N       -4.0310     2.0550    -0.2370 N.4   1 <1>  -0.9590 
  7 C       -3.9670     2.9090     1.0000 C.3   1 <1>   0.3430 
  8 C       -5.0750     1.0090    -0.1480 C.3   1 <1>   0.3430 
  9 C       -5.3600     3.2060     1.5620 C.3   1 <1>  -0.1600 
 10 C       -6.4680     1.6380    -0.0290 C.3   1 <1>  -0.1600 
 11 C       -6.4430     3.0810     0.4870 C.3   1 <1>   0.4180 
 12 O       -6.0980     3.8740    -0.6250 O.3   1 <1>  -0.5600 
 13 C       -7.8140     3.4850     1.0170 C.2   1 <1>  -0.2880 
 14 C       -6.3450     5.2510    -0.5260 C.3   1 <1>   0.1200 
 15 C       -8.4730     4.5750     0.6170 C.2   1 <1>  -0.2760 
 16 C       -7.8520     5.5150    -0.4020 C.3   1 <1>  -0.0220 
 17 C       -9.8540     4.9730     1.1090 C.3   1 <1>  -0.1020 
 18 H       -0.8960     2.1050    -1.5770 H     1 <1>   0.0800 
 19 H       -2.2230     3.2110    -1.8380 H     1 <1>   0.0800 
 20 H       -2.2520     1.0030     0.2390 H     1 <1>   0.0800 
 21 H       -2.8300     0.7620    -1.3900 H     1 <1>   0.0800 
 22 H       -4.3330     2.7180    -0.9720 H     1 <1>   0.4500 
 23 H       -3.5080     3.8510     0.7460 H     1 <1>   0.0800 
 24 H       -3.3490     2.4430     1.7510 H     1 <1>   0.0800 
 25 H       -4.8810     0.3990     0.7190 H     1 <1>   0.0800 
 26 H       -5.0420     0.3760    -1.0200 H     1 <1>   0.0800 
 27 H       -5.3680     4.1870     1.9990 H     1 <1>   0.0800 
 28 H       -5.5680     2.5150     2.3570 H     1 <1>   0.0800 
 29 H       -7.0430     1.0250     0.6400 H     1 <1>   0.0800 
 30 H       -6.9680     1.6140    -0.9810 H     1 <1>   0.0800 
 31 H       -8.2060     2.8030     1.7490 H     1 <1>   0.1500 
 32 H       -5.9540     5.7230    -1.4100 H     1 <1>   0.0800 
 33 H       -5.8200     5.6380     0.3300 H     1 <1>   0.0800 
 34 H       -8.3240     5.3780    -1.3590 H     1 <1>   0.0800 
 35 H       -7.9960     6.5380    -0.1030 H     1 <1>   0.0800 
 36 H      -10.5390     5.0270     0.2820 H     1 <1>   0.0800 
 37 H       -9.8150     5.9340     1.5910 H     1 <1>   0.0800 
 38 H      -10.2270     4.2530     1.8140 H     1 <1>   0.0800 
@<TRIPOS>BOND
  1   1   2  ar  
  2   2   3  ar  
  3   2   4  1   
  4   4   5  1   
  5   4  18  1   
  6   4  19  1   
  7   5   6  1   
  8   5  20  1   
  9   5  21  1   
 10   6   7  1   
 11   6   8  1   
 12   6  22  1   
 13   7   9  1   
 14   7  23  1   
 15   7  24  1   
 16   8  10  1   
 17   8  25  1   
 18   8  26  1   
 19   9  11  1   
 20   9  27  1   
 21   9  28  1   
 22  10  11  1   
 23  10  29  1   
 24  10  30  1   
 25  11  12  1   
 26  11  13  1   
 27  12  14  1   
 28  13  15  2   
 29  13  31  1   
 30  14  16  1   
 31  14  32  1   
 32  14  33  1   
 33  15  16  1   
 34  15  17  1   
 35  16  34  1   
 36  16  35  1   
 37  17  36  1   
 38  17  37  1   
 39  17  38  1   
@<TRIPOS>SUBSTRUCTURE
  1 ****   7 GROUP 4 **** **** 0

# MOE 2024.06 (io_trps.svl 2023.06)
