@<TRIPOS>MOLECULE
NONAME
47 49 1 0 0 
SMALL
USER_CHARGES


@<TRIPOS>ATOM
  1 O       -1.1200    -0.9100    -2.3310 O.2   1 <1>  -0.5700 
  2 C       -2.1900    -1.2540    -1.8580 C.2   1 <1>   0.6900 
  3 N       -2.3780    -2.2100    -0.9300 N.am  1 <1>  -0.5390 
  4 N       -3.3910    -0.7270    -2.1740 N.am  1 <1>  -0.5390 
  5 C       -3.7450    -2.2940    -0.6250 C.2   1 <1>   0.1230 
  6 C       -4.3460    -1.3590    -1.4040 C.2   1 <1>  -0.0410 
  7 C       -4.2770    -3.2150     0.3610 C.2   1 <1>   0.6160 
  8 O       -3.5300    -3.6520     1.2210 O.2   1 <1>  -0.5700 
  9 N       -5.5970    -3.6250     0.3760 N.am  1 <1>  -0.6600 
 10 C       -6.1930    -4.1380     1.6520 C.3   1 <1>   0.1400 
 11 C       -6.4330    -3.6980    -0.8590 C.3   1 <1>   0.1400 
 12 C       -5.9360    -5.6400     1.8450 C.3   1 <1>   0.1400 
 13 C       -7.1840    -5.0250    -1.0430 C.3   1 <1>  -0.1600 
 14 N       -6.7620    -6.4620     0.9080 N.am  1 <1>  -0.6600 
 15 C       -6.4360    -6.2610    -0.5300 C.3   1 <1>   0.1400 
 16 C       -7.7760    -7.2620     1.3810 C.2   1 <1>   0.5690 
 17 O       -7.9660    -7.4050     2.5680 O.2   1 <1>  -0.5700 
 18 C       -8.7270    -7.9930     0.4310 C.3   1 <1>  -0.0190 
 19 C      -10.1490    -7.9830     1.0170 C.3   1 <1>   0.0960 
 20 C       -8.2340    -9.4250     0.1440 C.3   1 <1>  -0.2400 
 21 N      -11.1430    -8.4070     0.0140 N.pl3 1 <1>   0.3140 
 22 N      -11.4120    -7.6600    -1.0750 N.2   1 <1>  -0.7070 
 23 C      -11.8830    -9.5340     0.0290 C.2   1 <1>  -0.3020 
 24 C      -12.3160    -8.3310    -1.7220 C.2   1 <1>   0.1390 
 25 C      -12.6520    -9.5160    -1.0800 C.2   1 <1>  -0.1500 
 26 H       -1.6260    -2.7070    -0.4530 H     1 <1>   0.3700 
 27 H       -3.4780     0.0360    -2.8460 H     1 <1>   0.3700 
 28 H       -5.3880    -1.0920    -1.4540 H     1 <1>   0.1500 
 29 H       -7.2500    -3.9410     1.6790 H     1 <1>   0.0800 
 30 H       -5.7440    -3.6120     2.4770 H     1 <1>   0.0800 
 31 H       -5.7950    -3.5730    -1.7170 H     1 <1>   0.0800 
 32 H       -7.1410    -2.8870    -0.8540 H     1 <1>   0.0800 
 33 H       -6.1700    -5.8950     2.8630 H     1 <1>   0.0800 
 34 H       -4.8930    -5.8550     1.6960 H     1 <1>   0.0800 
 35 H       -7.3640    -5.1500    -2.0950 H     1 <1>   0.0800 
 36 H       -8.1510    -4.9620    -0.5750 H     1 <1>   0.0800 
 37 H       -5.3720    -6.1410    -0.6530 H     1 <1>   0.0800 
 38 H       -6.7240    -7.1280    -1.0970 H     1 <1>   0.0800 
 39 H       -8.7750    -7.4480    -0.4920 H     1 <1>   0.0800 
 40 H      -10.4060    -6.9870     1.3280 H     1 <1>   0.0800 
 41 H      -10.2080    -8.6310     1.8720 H     1 <1>   0.0800 
 42 H       -8.2230   -10.0050     1.0500 H     1 <1>   0.0800 
 43 H       -7.2350    -9.4000    -0.2540 H     1 <1>   0.0800 
 44 H       -8.8720    -9.9110    -0.5740 H     1 <1>   0.0800 
 45 H      -11.8210   -10.2690     0.8100 H     1 <1>   0.1500 
 46 H      -12.7500    -7.9970    -2.6500 H     1 <1>   0.1500 
 47 H      -13.3720   -10.2390    -1.4180 H     1 <1>   0.1500 
@<TRIPOS>BOND
  1   1   2  2   
  2   2   3  am  
  3   2   4  am  
  4   3   5  1   
  5   3  26  1   
  6   4   6  1   
  7   4  27  1   
  8   5   6  2   
  9   5   7  1   
 10   6  28  1   
 11   7   8  2   
 12   7   9  am  
 13   9  10  1   
 14   9  11  1   
 15  10  12  1   
 16  10  29  1   
 17  10  30  1   
 18  11  13  1   
 19  11  31  1   
 20  11  32  1   
 21  12  14  1   
 22  12  33  1   
 23  12  34  1   
 24  13  15  1   
 25  13  35  1   
 26  13  36  1   
 27  14  15  1   
 28  14  16  am  
 29  15  37  1   
 30  15  38  1   
 31  16  17  2   
 32  16  18  1   
 33  18  19  1   
 34  18  20  1   
 35  18  39  1   
 36  19  21  1   
 37  19  40  1   
 38  19  41  1   
 39  20  42  1   
 40  20  43  1   
 41  20  44  1   
 42  21  22  1   
 43  21  23  1   
 44  22  24  2   
 45  23  25  2   
 46  23  45  1   
 47  24  25  1   
 48  24  46  1   
 49  25  47  1   
@<TRIPOS>SUBSTRUCTURE
  1 ****  13 GROUP 4 **** **** 0

# MOE 2024.06 (io_trps.svl 2023.06)
