@<TRIPOS>MOLECULE
NONAME
54 55 1 0 0 
SMALL
USER_CHARGES


@<TRIPOS>ATOM
  1 O        0.0200    -0.2660    -0.0850 O.2   1 <1>  -0.5700 
  2 C       -0.9920     0.3840    -0.1950 C.2   1 <1>   0.5690 
  3 N       -2.2090    -0.1680     0.1070 N.am  1 <1>  -0.6600 
  4 C       -0.8430     1.8410    -0.7070 C.3   1 <1>   0.4840 
  5 C       -2.4550    -1.5610    -0.3510 C.3   1 <1>   0.3200 
  6 C       -3.0010     0.2330     1.3170 C.3   1 <1>   0.1400 
  7 N       -1.1410     2.8980     0.3320 N.4   1 <1>  -0.9590 
  8 C       -1.6850     2.0480    -1.9750 C.3   1 <1>  -0.2400 
  9 C       -3.8600    -1.6450    -0.9120 C.2   1 <1>  -0.3320 
 10 C       -4.2490     1.0760     1.0030 C.3   1 <1>   0.1200 
 11 C       -1.0790     4.3000    -0.1760 C.3   1 <1>   0.4230 
 12 C       -0.3040     2.6650     1.5560 C.3   1 <1>   0.2630 
 13 N       -4.8100    -2.5190    -0.5210 N.pl3 1 <1>   0.0480 
 14 C       -4.4170    -0.8830    -1.8790 C.2   1 <1>   0.0770 
 15 O       -3.8980     2.3590     0.5920 O.3   1 <1>  -0.6800 
 16 C        0.3580     4.7670    -0.4530 C.3   1 <1>  -0.1600 
 17 C       -1.8120     5.2600     0.7800 C.3   1 <1>  -0.1600 
 18 C       -5.8890    -2.2080    -1.2730 C.2   1 <1>   0.0360 
 19 C       -4.7170    -3.5990     0.4790 C.3   1 <1>   0.0160 
 20 N       -5.6960    -1.2280    -2.0940 N.2   1 <1>  -0.5650 
 21 C        0.3610     6.1380    -1.1560 C.3   1 <1>  -0.1600 
 22 C       -1.3490     6.7240     0.6380 C.3   1 <1>  -0.1600 
 23 C       -0.8440     7.0210    -0.7790 C.3   1 <1>  -0.1600 
 24 H        0.1900     1.9390    -0.9930 H     1 <1>   0.0800 
 25 H       -2.3190    -2.2400     0.4730 H     1 <1>   0.0800 
 26 H       -1.7510    -1.8300    -1.1220 H     1 <1>   0.0800 
 27 H       -2.3770     0.7680     2.0090 H     1 <1>   0.0800 
 28 H       -3.3270    -0.6590     1.8240 H     1 <1>   0.0800 
 29 H       -2.1410     2.7320     0.5740 H     1 <1>   0.4500 
 30 H       -2.7330     2.0860    -1.7450 H     1 <1>   0.0800 
 31 H       -1.5250     1.2180    -2.6410 H     1 <1>   0.0800 
 32 H       -1.3910     2.9340    -2.5060 H     1 <1>   0.0800 
 33 H       -4.8520     1.1730     1.8900 H     1 <1>   0.0800 
 34 H       -4.8450     0.6140     0.2360 H     1 <1>   0.0800 
 35 H       -1.6090     4.3540    -1.1120 H     1 <1>   0.0800 
 36 H        0.7410     2.7940     1.3240 H     1 <1>   0.0800 
 37 H       -0.4450     1.6630     1.9270 H     1 <1>   0.0800 
 38 H       -0.5710     3.3560     2.3370 H     1 <1>   0.0800 
 39 H       -3.9600    -0.0850    -2.4390 H     1 <1>   0.1500 
 40 H       -4.7170     2.8340     0.3220 H     1 <1>   0.4000 
 41 H        0.8830     4.0620    -1.0720 H     1 <1>   0.0800 
 42 H        0.8890     4.8680     0.4770 H     1 <1>   0.0800 
 43 H       -1.6900     4.9750     1.8080 H     1 <1>   0.0800 
 44 H       -2.8620     5.2100     0.5500 H     1 <1>   0.0800 
 45 H       -6.8200    -2.7410    -1.1850 H     1 <1>   0.1500 
 46 H       -3.9400    -4.2850     0.1910 H     1 <1>   0.0800 
 47 H       -5.6530    -4.1260     0.5300 H     1 <1>   0.0800 
 48 H       -4.4920    -3.1790     1.4420 H     1 <1>   0.0800 
 49 H        0.3640     6.0030    -2.2250 H     1 <1>   0.0800 
 50 H        1.2730     6.6520    -0.9000 H     1 <1>   0.0800 
 51 H       -0.5490     6.9180     1.3350 H     1 <1>   0.0800 
 52 H       -2.1590     7.3890     0.8880 H     1 <1>   0.0800 
 53 H       -1.6460     6.8560    -1.4780 H     1 <1>   0.0800 
 54 H       -0.5640     8.0590    -0.8570 H     1 <1>   0.0800 
@<TRIPOS>BOND
  1   1   2  2   
  2   2   3  am  
  3   2   4  1   
  4   3   5  1   
  5   3   6  1   
  6   4   7  1   
  7   4   8  1   
  8   4  24  1   
  9   5   9  1   
 10   5  25  1   
 11   5  26  1   
 12   6  10  1   
 13   6  27  1   
 14   6  28  1   
 15   7  11  1   
 16   7  12  1   
 17   7  29  1   
 18   8  30  1   
 19   8  31  1   
 20   8  32  1   
 21   9  13  1   
 22   9  14  2   
 23  10  15  1   
 24  10  33  1   
 25  10  34  1   
 26  11  16  1   
 27  11  17  1   
 28  11  35  1   
 29  12  36  1   
 30  12  37  1   
 31  12  38  1   
 32  13  18  1   
 33  13  19  1   
 34  14  20  1   
 35  14  39  1   
 36  15  40  1   
 37  16  21  1   
 38  16  41  1   
 39  16  42  1   
 40  17  22  1   
 41  17  43  1   
 42  17  44  1   
 43  18  20  2   
 44  18  45  1   
 45  19  46  1   
 46  19  47  1   
 47  19  48  1   
 48  21  23  1   
 49  21  49  1   
 50  21  50  1   
 51  22  23  1   
 52  22  51  1   
 53  22  52  1   
 54  23  53  1   
 55  23  54  1   
@<TRIPOS>SUBSTRUCTURE
  1 ****   4 GROUP 4 **** **** 0

# MOE 2024.06 (io_trps.svl 2023.06)
