@<TRIPOS>MOLECULE
NONAME
51 54 1 0 0 
SMALL
USER_CHARGES


@<TRIPOS>ATOM
  1 O       -0.0260     3.6610    -2.7940 O.co2 1 <1>  -0.9000 
  2 C       -0.6040     2.8330    -2.0770 C.2   1 <1>   0.9060 
  3 O       -1.6270     2.2600    -2.4470 O.co2 1 <1>  -0.9000 
  4 C       -0.1100     2.6560    -0.6540 C.3   1 <1>  -0.1060 
  5 C       -1.1660     1.9990     0.2640 C.3   1 <1>   0.2000 
  6 C        0.1110     4.0570    -0.0950 C.3   1 <1>   0.3430 
  7 C        1.2150     1.8540    -0.7710 C.3   1 <1>  -0.0170 
  8 O       -0.6480     1.8920     1.5470 O.3   1 <1>  -0.6800 
  9 C       -2.4610     2.8170     0.4260 C.3   1 <1>  -0.1600 
 10 N       -1.1330     4.9200    -0.0520 N.4   1 <1>  -0.9590 
 11 C        2.0270     1.7110     0.5110 C.ar  1 <1>  -0.1440 
 12 C       -2.4280     4.1890    -0.2480 C.3   1 <1>   0.3430 
 13 C       -1.0430     5.9820    -1.0960 C.3   1 <1>   0.4860 
 14 C        2.8430     2.7460     0.9450 C.ar  1 <1>  -0.1500 
 15 C        1.9680     0.5380     1.2480 C.ar  1 <1>  -0.1500 
 16 C        0.1570     6.8730    -0.8320 C.ar  1 <1>  -0.1440 
 17 C        3.5650     2.6210     2.1190 C.ar  1 <1>  -0.1500 
 18 C        2.6900     0.4120     2.4220 C.ar  1 <1>  -0.1500 
 19 C        1.3250     6.7160    -1.5920 C.ar  1 <1>  -0.1520 
 20 C        0.1290     7.8490     0.1420 C.ar  1 <1>  -0.1500 
 21 C        3.4860     1.4550     2.8600 C.ar  1 <1>  -0.1500 
 22 N        1.6350     5.8410    -2.6110 N.pl3 1 <1>   0.0330 
 23 C        2.4370     7.5210    -1.3610 C.ar  1 <1>   0.0000 
 24 C        1.2450     8.6600     0.3740 C.ar  1 <1>  -0.1500 
 25 C        2.9190     6.0900    -3.0060 C.2   1 <1>  -0.3020 
 26 C        2.3920     8.5010    -0.3670 C.ar  1 <1>  -0.1500 
 27 C        3.4310     7.1050    -2.2710 C.2   1 <1>  -0.1500 
 28 H       -1.3950     1.0040    -0.0830 H     1 <1>   0.0800 
 29 H        0.8810     4.5350    -0.6740 H     1 <1>   0.0800 
 30 H        0.4900     3.9530     0.9090 H     1 <1>   0.0800 
 31 H        0.9900     0.8750    -1.1600 H     1 <1>   0.0800 
 32 H        1.8480     2.3260    -1.5050 H     1 <1>   0.0800 
 33 H        0.2580     1.5050     1.5170 H     1 <1>   0.4000 
 34 H       -3.2550     2.2630    -0.0400 H     1 <1>   0.0800 
 35 H       -2.7270     2.9320     1.4620 H     1 <1>   0.0800 
 36 H       -1.1340     5.3760     0.8650 H     1 <1>   0.4500 
 37 H       -3.2500     4.7860     0.1080 H     1 <1>   0.0800 
 38 H       -2.5810     4.0320    -1.3050 H     1 <1>   0.0800 
 39 H       -0.9600     5.5370    -2.0750 H     1 <1>   0.0800 
 40 H       -1.9350     6.5840    -1.0820 H     1 <1>   0.0800 
 41 H        2.9280     3.6540     0.3720 H     1 <1>   0.1500 
 42 H        1.3600    -0.2870     0.9140 H     1 <1>   0.1500 
 43 H        4.1930     3.4280     2.4530 H     1 <1>   0.1500 
 44 H        2.6350    -0.4980     2.9940 H     1 <1>   0.1500 
 45 H       -0.7490     8.0110     0.7420 H     1 <1>   0.1500 
 46 H        4.0470     1.3580     3.7730 H     1 <1>   0.1500 
 47 H        1.0290     5.0700    -2.9610 H     1 <1>   0.2700 
 48 H        1.1990     9.4150     1.1410 H     1 <1>   0.1500 
 49 H        3.3850     5.5200    -3.7910 H     1 <1>   0.1500 
 50 H        3.2580     9.1170    -0.2010 H     1 <1>   0.1500 
 51 H        4.4120     7.5420    -2.3350 H     1 <1>   0.1500 
@<TRIPOS>BOND
  1   1   2  ar  
  2   2   3  ar  
  3   2   4  1   
  4   4   5  1   
  5   4   6  1   
  6   4   7  1   
  7   5   8  1   
  8   5   9  1   
  9   5  28  1   
 10   6  10  1   
 11   6  29  1   
 12   6  30  1   
 13   7  11  1   
 14   7  31  1   
 15   7  32  1   
 16   8  33  1   
 17   9  12  1   
 18   9  34  1   
 19   9  35  1   
 20  10  12  1   
 21  10  13  1   
 22  10  36  1   
 23  11  14  ar  
 24  11  15  ar  
 25  12  37  1   
 26  12  38  1   
 27  13  16  1   
 28  13  39  1   
 29  13  40  1   
 30  14  17  ar  
 31  14  41  1   
 32  15  18  ar  
 33  15  42  1   
 34  16  19  ar  
 35  16  20  ar  
 36  17  21  ar  
 37  17  43  1   
 38  18  21  ar  
 39  18  44  1   
 40  19  22  1   
 41  19  23  ar  
 42  20  24  ar  
 43  20  45  1   
 44  21  46  1   
 45  22  25  1   
 46  22  47  1   
 47  23  26  ar  
 48  23  27  1   
 49  24  26  ar  
 50  24  48  1   
 51  25  27  2   
 52  25  49  1   
 53  26  50  1   
 54  27  51  1   
@<TRIPOS>SUBSTRUCTURE
  1 ****   6 GROUP 4 **** **** 0

# MOE 2024.06 (io_trps.svl 2023.06)
