@<TRIPOS>MOLECULE
NONAME
48 49 1 0 0 
SMALL
USER_CHARGES


@<TRIPOS>ATOM
  1 S        1.4450     0.1600     0.0780 S.o2  1 <1>   1.3330 
  2 O        2.6910    -0.0500    -0.6240 O.2   1 <1>  -0.6500 
  3 O        1.4360     0.2090     1.5230 O.2   1 <1>  -0.6500 
  4 N        0.3520    -1.0440    -0.4070 N.am  1 <1>  -0.8490 
  5 C        0.7060     1.6590    -0.5650 C.3   1 <1>  -0.0550 
  6 C        1.0000    -2.3500    -0.5600 C.3   1 <1>   0.1160 
  7 C       -0.8110    -1.1670     0.4800 C.3   1 <1>   0.1160 
  8 C        1.5740     2.9120    -0.3350 C.3   1 <1>  -0.0800 
  9 C        1.0350     4.1800    -1.0030 C.3   1 <1>   0.2000 
 10 C        1.7440     3.3020     1.1410 C.3   1 <1>   0.1400 
 11 O       -0.3280     4.2760    -0.7630 O.3   1 <1>  -0.6800 
 12 C        1.7290     5.3060    -0.2440 C.3   1 <1>   0.1400 
 13 N        1.8640     4.7810     1.1390 N.am  1 <1>  -0.6600 
 14 C        2.1840     5.5000     2.2590 C.2   1 <1>   0.5690 
 15 O        2.3010     4.9590     3.3330 O.2   1 <1>  -0.5700 
 16 C        2.3900     7.0090     2.1970 C.3   1 <1>   0.0440 
 17 C        3.4770     7.4360     1.2130 C.ar  1 <1>  -0.1440 
 18 C        4.7270     6.8370     1.2510 C.ar  1 <1>  -0.1500 
 19 C        3.2270     8.4210     0.2700 C.ar  1 <1>  -0.1500 
 20 C        5.7110     7.2100     0.3520 C.ar  1 <1>  -0.1500 
 21 C        4.2120     8.7920    -0.6290 C.ar  1 <1>  -0.1500 
 22 C        5.4590     8.1890    -0.5960 C.ar  1 <1>  -0.1440 
 23 C        6.5350     8.6020    -1.5840 C.3   1 <1>   0.2630 
 24 O        6.9060     9.8970    -1.2850 O.3   1 <1>  -0.6800 
 25 H        0.5540     1.5390    -1.6200 H     1 <1>   0.0800 
 26 H       -0.2570     1.8000    -0.1150 H     1 <1>   0.0800 
 27 H        0.2860    -3.0860    -0.8840 H     1 <1>   0.0800 
 28 H        1.4360    -2.6640     0.3740 H     1 <1>   0.0800 
 29 H        1.7800    -2.2900    -1.3020 H     1 <1>   0.0800 
 30 H       -1.5070    -1.8840     0.0790 H     1 <1>   0.0800 
 31 H       -1.3130    -0.2200     0.5680 H     1 <1>   0.0800 
 32 H       -0.5040    -1.4890     1.4620 H     1 <1>   0.0800 
 33 H        2.5560     2.7240    -0.7340 H     1 <1>   0.0800 
 34 H        1.2040     4.2140    -2.0660 H     1 <1>   0.0800 
 35 H        2.6210     2.8490     1.5730 H     1 <1>   0.0800 
 36 H        0.8820     3.0210     1.7240 H     1 <1>   0.0800 
 37 H       -0.4650     4.4280     0.1940 H     1 <1>   0.4000 
 38 H        1.1630     6.2210    -0.2800 H     1 <1>   0.0800 
 39 H        2.7120     5.4720    -0.6530 H     1 <1>   0.0800 
 40 H        1.4520     7.4630     1.9400 H     1 <1>   0.0800 
 41 H        2.6600     7.3580     3.1760 H     1 <1>   0.0800 
 42 H        4.9380     6.0730     1.9820 H     1 <1>   0.1500 
 43 H        2.2680     8.9070     0.2280 H     1 <1>   0.1500 
 44 H        6.6740     6.7320     0.3990 H     1 <1>   0.1500 
 45 H        4.0090     9.5610    -1.3560 H     1 <1>   0.1500 
 46 H        6.1690     8.5800    -2.5970 H     1 <1>   0.0800 
 47 H        7.4050     7.9740    -1.5020 H     1 <1>   0.0800 
 48 H        6.8660    10.0140    -0.3160 H     1 <1>   0.4000 
@<TRIPOS>BOND
  1   1   2  2   
  2   1   3  2   
  3   1   4  am  
  4   1   5  1   
  5   4   6  1   
  6   4   7  1   
  7   5   8  1   
  8   5  25  1   
  9   5  26  1   
 10   6  27  1   
 11   6  28  1   
 12   6  29  1   
 13   7  30  1   
 14   7  31  1   
 15   7  32  1   
 16   8   9  1   
 17   8  10  1   
 18   8  33  1   
 19   9  11  1   
 20   9  12  1   
 21   9  34  1   
 22  10  13  1   
 23  10  35  1   
 24  10  36  1   
 25  11  37  1   
 26  12  13  1   
 27  12  38  1   
 28  12  39  1   
 29  13  14  am  
 30  14  15  2   
 31  14  16  1   
 32  16  17  1   
 33  16  40  1   
 34  16  41  1   
 35  17  18  ar  
 36  17  19  ar  
 37  18  20  ar  
 38  18  42  1   
 39  19  21  ar  
 40  19  43  1   
 41  20  22  ar  
 42  20  44  1   
 43  21  22  ar  
 44  21  45  1   
 45  22  23  1   
 46  23  24  1   
 47  23  46  1   
 48  23  47  1   
 49  24  48  1   
@<TRIPOS>SUBSTRUCTURE
  1 ****  13 GROUP 4 **** **** 0

# MOE 2024.06 (io_trps.svl 2023.06)
