@<TRIPOS>MOLECULE
NONAME
48 50 1 0 0 
SMALL
USER_CHARGES


@<TRIPOS>ATOM
  1 CL      -1.2220     1.9260     2.5290 Cl    1 <1>  -0.1770 
  2 C       -1.8500     1.7590     0.8960 C.ar  1 <1>   0.1770 
  3 C       -1.8270     2.8890     0.0410 C.ar  1 <1>   0.4100 
  4 C       -2.3530     0.5790     0.4410 C.ar  1 <1>   0.2170 
  5 N       -2.2840     2.8250    -1.1980 N.ar  1 <1>  -0.6200 
  6 N       -1.3340     4.0720     0.4740 N.pl3 1 <1>  -0.8690 
  7 N       -2.8120     0.5680    -0.8400 N.ar  1 <1>  -0.1790 
  8 C       -2.4430    -0.7150     1.2420 C.3   1 <1>  -0.0970 
  9 C       -2.7670     1.6710    -1.6110 C.ar  1 <1>   0.7710 
 10 C       -1.2370     5.3440    -0.2680 C.3   1 <1>   0.2890 
 11 N       -3.2220     1.6360    -2.8590 N.pl3 1 <1>  -0.9000 
 12 C        0.2230     5.7950    -0.2750 C.3   1 <1>  -0.1600 
 13 C       -2.1340     6.3760     0.4120 C.3   1 <1>  -0.1600 
 14 C        0.3680     7.1720    -0.9260 C.3   1 <1>   0.1400 
 15 C       -1.9780     7.7440    -0.2530 C.3   1 <1>   0.1400 
 16 N       -0.5400     8.1340    -0.2430 N.am  1 <1>  -0.6600 
 17 C       -0.0890     9.2040     0.5070 C.2   1 <1>   0.5440 
 18 O       -0.8430     9.7180     1.3120 O.2   1 <1>  -0.5700 
 19 C        1.2610     9.7190     0.3760 C.ar  1 <1>   0.0860 
 20 C        2.1020     9.8100     1.4820 C.ar  1 <1>  -0.1500 
 21 C        1.7660    10.1410    -0.8540 C.ar  1 <1>  -0.1500 
 22 C        3.3970    10.2820     1.3650 C.ar  1 <1>  -0.1500 
 23 C        3.0590    10.6140    -0.9760 C.ar  1 <1>  -0.1500 
 24 C        3.8850    10.6840     0.1330 C.ar  1 <1>  -0.1430 
 25 C        5.3050    11.2040     0.0040 C.3   1 <1>  -0.0970 
 26 H       -0.9930     4.1510     1.4390 H     1 <1>   0.4000 
 27 H       -3.2040    -0.2710    -1.2590 H     1 <1>   0.4570 
 28 H       -2.0530    -0.5900     2.2370 H     1 <1>   0.0800 
 29 H       -1.8750    -1.4930     0.7630 H     1 <1>   0.0800 
 30 H       -3.4670    -1.0330     1.3290 H     1 <1>   0.0800 
 31 H       -1.5650     5.2130    -1.2860 H     1 <1>   0.0800 
 32 H       -3.6320     0.8570    -3.3770 H     1 <1>   0.4000 
 33 H       -3.1660     2.5030    -3.4060 H     1 <1>   0.4000 
 34 H        0.8160     5.0840    -0.8200 H     1 <1>   0.0800 
 35 H        0.5970     5.8520     0.7320 H     1 <1>   0.0800 
 36 H       -1.8750     6.4720     1.4510 H     1 <1>   0.0800 
 37 H       -3.1600     6.0660     0.3410 H     1 <1>   0.0800 
 38 H        0.1050     7.1190    -1.9690 H     1 <1>   0.0800 
 39 H        1.3940     7.4880    -0.8550 H     1 <1>   0.0800 
 40 H       -2.5770     8.4720     0.2680 H     1 <1>   0.0800 
 41 H       -2.3230     7.7030    -1.2720 H     1 <1>   0.0800 
 42 H        1.7250     9.5070     2.4430 H     1 <1>   0.1500 
 43 H        1.1290    10.0980    -1.7190 H     1 <1>   0.1500 
 44 H        4.0220    10.3390     2.2390 H     1 <1>   0.1500 
 45 H        3.4210    10.9320    -1.9390 H     1 <1>   0.1500 
 46 H        5.9460    10.7330     0.7270 H     1 <1>   0.0800 
 47 H        5.3190    12.2670     0.1670 H     1 <1>   0.0800 
 48 H        5.6940    10.9990    -0.9780 H     1 <1>   0.0800 
@<TRIPOS>BOND
  1   1   2  1   
  2   2   3  ar  
  3   2   4  ar  
  4   3   5  ar  
  5   3   6  1   
  6   4   7  ar  
  7   4   8  1   
  8   5   9  ar  
  9   6  10  1   
 10   6  26  1   
 11   7   9  ar  
 12   7  27  1   
 13   8  28  1   
 14   8  29  1   
 15   8  30  1   
 16   9  11  1   
 17  10  12  1   
 18  10  13  1   
 19  10  31  1   
 20  11  32  1   
 21  11  33  1   
 22  12  14  1   
 23  12  34  1   
 24  12  35  1   
 25  13  15  1   
 26  13  36  1   
 27  13  37  1   
 28  14  16  1   
 29  14  38  1   
 30  14  39  1   
 31  15  16  1   
 32  15  40  1   
 33  15  41  1   
 34  16  17  am  
 35  17  18  2   
 36  17  19  1   
 37  19  20  ar  
 38  19  21  ar  
 39  20  22  ar  
 40  20  42  1   
 41  21  23  ar  
 42  21  43  1   
 43  22  24  ar  
 44  22  44  1   
 45  23  24  ar  
 46  23  45  1   
 47  24  25  1   
 48  25  46  1   
 49  25  47  1   
 50  25  48  1   
@<TRIPOS>SUBSTRUCTURE
  1 ****  12 GROUP 4 **** **** 0

# MOE 2024.06 (io_trps.svl 2023.06)
