@<TRIPOS>MOLECULE
NONAME
61 63 1 0 0 
SMALL
USER_CHARGES


@<TRIPOS>ATOM
  1 O       -1.0690    -1.7860    -0.3940 O.co2 1 <1>  -0.9000 
  2 C       -0.6250    -2.9300    -0.2140 C.2   1 <1>   0.9790 
  3 O       -1.3930    -3.8400     0.1460 O.co2 1 <1>  -0.9000 
  4 C        0.7790    -3.2230    -0.4530 C.ar  1 <1>  -0.1790 
  5 C        1.3450    -4.4050    -0.0220 C.ar  1 <1>  -0.1500 
  6 C        1.6050    -2.3270    -1.1520 C.ar  1 <1>  -0.1500 
  7 C        2.6620    -4.7880    -0.3150 C.ar  1 <1>   0.0000 
  8 C        2.9130    -2.6360    -1.4170 C.ar  1 <1>  -0.1500 
  9 C        3.2080    -6.0640     0.0230 C.ar  1 <1>   0.1000 
 10 C        3.4530    -3.8620    -1.0070 C.ar  1 <1>   0.3610 
 11 N        2.3980    -7.0140     0.5450 N.pl3 1 <1>  -0.8380 
 12 C        4.5670    -6.3110    -0.2600 C.ar  1 <1>  -0.1440 
 13 N        4.7570    -4.1830    -1.2730 N.ar  1 <1>  -0.1790 
 14 C        1.7230    -8.0130    -0.3540 C.3   1 <1>   0.2090 
 15 C        2.1310    -7.0860     2.0120 C.3   1 <1>   0.2090 
 16 C        5.3200    -5.3510    -0.9130 C.ar  1 <1>   0.2180 
 17 C        5.1930    -7.6510     0.1610 C.3   1 <1>  -0.0170 
 18 C        0.2020    -8.2240    -0.0950 C.3   1 <1>   0.0000 
 19 C        1.0160    -8.0760     2.3460 C.3   1 <1>  -0.1600 
 20 C        6.7940    -5.4930    -1.2900 C.3   1 <1>  -0.0970 
 21 C        5.9470    -7.5140     1.4930 C.3   1 <1>  -0.1600 
 22 C       -0.1500    -7.8730     1.3820 C.3   1 <1>   0.2000 
 23 C       -0.6270    -7.2510    -0.9740 C.3   1 <1>   0.1200 
 24 C       -0.1870    -9.6850    -0.5090 C.3   1 <1>  -0.1600 
 25 C        6.5470    -8.8530     1.9340 C.3   1 <1>  -0.2400 
 26 O       -1.2270    -8.6130     1.8410 O.3   1 <1>  -0.6800 
 27 O       -0.3850    -7.4400    -2.3320 O.3   1 <1>  -0.6800 
 28 C        0.4020   -10.8520     0.3150 C.3   1 <1>  -0.1600 
 29 C       -0.1030   -12.1940    -0.2210 C.3   1 <1>  -0.2400 
 30 H        0.7330    -5.0670     0.5610 H     1 <1>   0.1500 
 31 H        1.1710    -1.3910    -1.4720 H     1 <1>   0.1500 
 32 H        3.5170    -1.9240    -1.9490 H     1 <1>   0.1500 
 33 H        5.3070    -3.4820    -1.7670 H     1 <1>   0.4570 
 34 H        1.8820    -7.7300    -1.3810 H     1 <1>   0.0800 
 35 H        2.2370    -8.9440    -0.2190 H     1 <1>   0.0800 
 36 H        3.0280    -7.3740     2.5280 H     1 <1>   0.0800 
 37 H        1.8480    -6.1060     2.3590 H     1 <1>   0.0800 
 38 H        4.4430    -8.4110     0.2720 H     1 <1>   0.0800 
 39 H        5.8550    -8.0150    -0.6030 H     1 <1>   0.0800 
 40 H        0.6890    -7.8950     3.3540 H     1 <1>   0.0800 
 41 H        1.4020    -9.0750     2.2870 H     1 <1>   0.0800 
 42 H        7.2620    -6.3490    -0.8430 H     1 <1>   0.0800 
 43 H        7.3460    -4.6280    -0.9670 H     1 <1>   0.0800 
 44 H        6.8920    -5.5860    -2.3570 H     1 <1>   0.0800 
 45 H        6.7350    -6.7890     1.4050 H     1 <1>   0.0800 
 46 H        5.2690    -7.1660     2.2520 H     1 <1>   0.0800 
 47 H       -0.4470    -6.8390     1.4490 H     1 <1>   0.0800 
 48 H       -0.4030    -6.2260    -0.7470 H     1 <1>   0.0800 
 49 H       -1.6800    -7.3990    -0.8010 H     1 <1>   0.0800 
 50 H       -1.2600    -9.7690    -0.5010 H     1 <1>   0.0800 
 51 H        0.1120    -9.8320    -1.5330 H     1 <1>   0.0800 
 52 H        7.2460    -9.2170     1.2010 H     1 <1>   0.0800 
 53 H        5.7730    -9.5880     2.0680 H     1 <1>   0.0800 
 54 H        7.0660    -8.7330     2.8690 H     1 <1>   0.0800 
 55 H       -1.1450    -9.5280     1.5130 H     1 <1>   0.4000 
 56 H       -0.8820    -6.7650    -2.8380 H     1 <1>   0.4000 
 57 H        1.4760   -10.8530     0.2620 H     1 <1>   0.0800 
 58 H        0.1250   -10.7790     1.3500 H     1 <1>   0.0800 
 59 H        0.1860   -12.3220    -1.2500 H     1 <1>   0.0800 
 60 H       -1.1750   -12.2480    -0.1540 H     1 <1>   0.0800 
 61 H        0.3160   -13.0020     0.3530 H     1 <1>   0.0800 
@<TRIPOS>BOND
  1   1   2  ar  
  2   2   3  ar  
  3   2   4  1   
  4   4   5  ar  
  5   4   6  ar  
  6   5   7  ar  
  7   5  30  1   
  8   6   8  ar  
  9   6  31  1   
 10   7   9  ar  
 11   7  10  ar  
 12   8  10  ar  
 13   8  32  1   
 14   9  11  1   
 15   9  12  ar  
 16  10  13  ar  
 17  11  14  1   
 18  11  15  1   
 19  12  16  ar  
 20  12  17  1   
 21  13  16  ar  
 22  13  33  1   
 23  14  18  1   
 24  14  34  1   
 25  14  35  1   
 26  15  19  1   
 27  15  36  1   
 28  15  37  1   
 29  16  20  1   
 30  17  21  1   
 31  17  38  1   
 32  17  39  1   
 33  18  22  1   
 34  18  23  1   
 35  18  24  1   
 36  19  22  1   
 37  19  40  1   
 38  19  41  1   
 39  20  42  1   
 40  20  43  1   
 41  20  44  1   
 42  21  25  1   
 43  21  45  1   
 44  21  46  1   
 45  22  26  1   
 46  22  47  1   
 47  23  27  1   
 48  23  48  1   
 49  23  49  1   
 50  24  28  1   
 51  24  50  1   
 52  24  51  1   
 53  25  52  1   
 54  25  53  1   
 55  25  54  1   
 56  26  55  1   
 57  27  56  1   
 58  28  29  1   
 59  28  57  1   
 60  28  58  1   
 61  29  59  1   
 62  29  60  1   
 63  29  61  1   
@<TRIPOS>SUBSTRUCTURE
  1 ****  11 GROUP 4 **** **** 0

# MOE 2024.06 (io_trps.svl 2023.06)
