@<TRIPOS>MOLECULE
NONAME
45 47 1 0 0 
SMALL
USER_CHARGES


@<TRIPOS>ATOM
  1 F        0.2990     0.1010     0.6510 F     1 <1>  -0.1900 
  2 C        1.2240    -0.7070     0.2100 C.ar  1 <1>   0.1900 
  3 C        1.1790    -2.0340     0.5840 C.ar  1 <1>  -0.1500 
  4 C        2.2090    -0.2090    -0.6170 C.ar  1 <1>  -0.1500 
  5 C        2.1510    -2.9050     0.1090 C.ar  1 <1>  -0.1440 
  6 C        3.1830    -1.0770    -1.0770 C.ar  1 <1>  -0.1500 
  7 C        3.1660    -2.4200    -0.7180 C.ar  1 <1>  -0.1430 
  8 C        2.0670    -4.3650     0.5150 C.3   1 <1>   0.4870 
  9 C        4.2830    -3.3150    -1.2430 C.3   1 <1>  -0.0970 
 10 N        1.5000    -5.1470    -0.6180 N.4   1 <1>  -0.9590 
 11 C        0.0570    -4.8170    -0.8410 C.3   1 <1>   0.3430 
 12 C        1.5560    -6.6090    -0.3110 C.3   1 <1>   0.3430 
 13 C       -0.7310    -5.8480    -0.0300 C.3   1 <1>   0.2000 
 14 C        0.1100    -7.1130    -0.2050 C.3   1 <1>  -0.0800 
 15 O       -0.7310    -5.4500     1.3050 O.3   1 <1>  -0.6800 
 16 C       -0.0590    -8.1970     0.8780 C.3   1 <1>   0.0210 
 17 C        0.8020    -9.4090     0.5780 C.2   1 <1>   0.1080 
 18 N        2.0940    -9.3490     0.4700 N.2   1 <1>  -0.7070 
 19 C        0.3170   -10.6990     0.3930 C.2   1 <1>  -0.1500 
 20 N        2.4730   -10.6220     0.2230 N.pl3 1 <1>   0.3000 
 21 C        1.4120   -11.4530     0.1660 C.2   1 <1>  -0.3320 
 22 C        1.5130   -12.9440    -0.0990 C.3   1 <1>  -0.0600 
 23 H        0.3880    -2.3640     1.2360 H     1 <1>   0.1500 
 24 H        2.2130     0.8320    -0.8880 H     1 <1>   0.1500 
 25 H        3.9600    -0.6910    -1.7170 H     1 <1>   0.1500 
 26 H        1.4430    -4.4700     1.3890 H     1 <1>   0.0800 
 27 H        3.0520    -4.7270     0.7600 H     1 <1>   0.0800 
 28 H        5.0830    -2.7220    -1.6510 H     1 <1>   0.0800 
 29 H        3.9170    -3.9570    -2.0230 H     1 <1>   0.0800 
 30 H        4.6980    -3.9130    -0.4520 H     1 <1>   0.0800 
 31 H        2.0480    -4.9100    -1.4530 H     1 <1>   0.4500 
 32 H       -0.1900    -3.8110    -0.5440 H     1 <1>   0.0800 
 33 H       -0.1790    -4.9410    -1.8850 H     1 <1>   0.0800 
 34 H        2.0810    -7.1540    -1.0800 H     1 <1>   0.0800 
 35 H        2.0630    -6.7770     0.6260 H     1 <1>   0.0800 
 36 H       -1.7490    -5.9490    -0.3670 H     1 <1>   0.0800 
 37 H       -0.1400    -7.5540    -1.1540 H     1 <1>   0.0800 
 38 H       -1.3970    -5.9490     1.8250 H     1 <1>   0.4000 
 39 H       -1.0890    -8.5010     0.9310 H     1 <1>   0.0800 
 40 H        0.2290    -7.8190     1.8430 H     1 <1>   0.0800 
 41 H       -0.7120   -11.0100     0.4310 H     1 <1>   0.1500 
 42 H        3.4570   -10.8960     0.1050 H     1 <1>   0.2700 
 43 H        0.5330   -13.3880    -0.0920 H     1 <1>   0.0800 
 44 H        2.1070   -13.4190     0.6620 H     1 <1>   0.0800 
 45 H        1.9630   -13.1240    -1.0590 H     1 <1>   0.0800 
@<TRIPOS>BOND
  1   1   2  1   
  2   2   3  ar  
  3   2   4  ar  
  4   3   5  ar  
  5   3  23  1   
  6   4   6  ar  
  7   4  24  1   
  8   5   7  ar  
  9   5   8  1   
 10   6   7  ar  
 11   6  25  1   
 12   7   9  1   
 13   8  10  1   
 14   8  26  1   
 15   8  27  1   
 16   9  28  1   
 17   9  29  1   
 18   9  30  1   
 19  10  11  1   
 20  10  12  1   
 21  10  31  1   
 22  11  13  1   
 23  11  32  1   
 24  11  33  1   
 25  12  14  1   
 26  12  34  1   
 27  12  35  1   
 28  13  14  1   
 29  13  15  1   
 30  13  36  1   
 31  14  16  1   
 32  14  37  1   
 33  15  38  1   
 34  16  17  1   
 35  16  39  1   
 36  16  40  1   
 37  17  18  2   
 38  17  19  1   
 39  18  20  1   
 40  19  21  2   
 41  19  41  1   
 42  20  21  1   
 43  20  42  1   
 44  21  22  1   
 45  22  43  1   
 46  22  44  1   
 47  22  45  1   
@<TRIPOS>SUBSTRUCTURE
  1 ****  10 GROUP 4 **** **** 0

# MOE 2024.06 (io_trps.svl 2023.06)
