@<TRIPOS>MOLECULE
NONAME
38 39 1 0 0 
SMALL
USER_CHARGES


@<TRIPOS>ATOM
  1 CL      -2.3800    -2.3150     1.4740 Cl    1 <1>  -0.1770 
  2 C       -2.7350    -0.6150     1.2880 C.ar  1 <1>   0.1770 
  3 C       -3.1350    -0.1330     0.0490 C.ar  1 <1>  -0.1440 
  4 C       -2.6200     0.2120     2.3920 C.ar  1 <1>  -0.1500 
  5 C       -3.4220     1.2210    -0.0760 C.ar  1 <1>  -0.1500 
  6 C       -3.2520    -1.0750    -1.1330 C.3   1 <1>   0.4870 
  7 C       -2.9100     1.5600     2.2620 C.ar  1 <1>  -0.1500 
  8 C       -3.3080     2.0470     1.0290 C.ar  1 <1>   0.1770 
  9 N       -4.4860    -1.8880    -1.0010 N.4   1 <1>  -0.9590 
 10 CL      -3.6780     3.7410     0.8590 Cl    1 <1>  -0.1770 
 11 C       -4.5370    -3.0340    -1.9440 C.3   1 <1>   0.5240 
 12 C       -5.7630    -1.1070    -1.0110 C.3   1 <1>   0.3430 
 13 C       -5.4010    -4.0950    -1.2790 C.2   1 <1>   0.0460 
 14 C       -6.3660    -0.9790     0.3940 C.3   1 <1>   0.1200 
 15 N       -5.3030    -4.2920     0.0540 N.2   1 <1>  -0.5650 
 16 C       -6.3250    -4.9200    -1.8200 C.2   1 <1>  -0.3020 
 17 O       -7.4760    -0.1570     0.3010 O.3   1 <1>  -0.6800 
 18 C       -6.1550    -5.2350     0.2930 C.2   1 <1>   0.0060 
 19 N       -6.8120    -5.6610    -0.8070 N.pl3 1 <1>   0.0330 
 20 C       -6.4010    -5.8190     1.6690 C.3   1 <1>  -0.0600 
 21 H       -2.3060    -0.1940     3.3390 H     1 <1>   0.1500 
 22 H       -3.7330     1.6530    -1.0120 H     1 <1>   0.1500 
 23 H       -2.3880    -1.7200    -1.1530 H     1 <1>   0.0800 
 24 H       -3.2770    -0.5100    -2.0510 H     1 <1>   0.0800 
 25 H       -2.8300     2.2290     3.1020 H     1 <1>   0.1500 
 26 H       -4.4510    -2.3930    -0.0930 H     1 <1>   0.4500 
 27 H       -3.5500    -3.4420    -2.0850 H     1 <1>   0.0800 
 28 H       -4.9460    -2.7450    -2.8970 H     1 <1>   0.0800 
 29 H       -6.4900    -1.6010    -1.6350 H     1 <1>   0.0800 
 30 H       -5.5890    -0.1210    -1.4070 H     1 <1>   0.0800 
 31 H       -5.6750    -0.5240     1.0810 H     1 <1>   0.0800 
 32 H       -6.6860    -1.9390     0.7630 H     1 <1>   0.0800 
 33 H       -6.6610    -5.0310    -2.8370 H     1 <1>   0.1500 
 34 H       -7.9200    -0.0560     1.1700 H     1 <1>   0.4000 
 35 H       -7.5230    -6.3990    -0.8510 H     1 <1>   0.2700 
 36 H       -5.7640    -5.3420     2.3910 H     1 <1>   0.0800 
 37 H       -6.1850    -6.8720     1.6660 H     1 <1>   0.0800 
 38 H       -7.4250    -5.6680     1.9590 H     1 <1>   0.0800 
@<TRIPOS>BOND
  1   1   2  1   
  2   2   3  ar  
  3   2   4  ar  
  4   3   5  ar  
  5   3   6  1   
  6   4   7  ar  
  7   4  21  1   
  8   5   8  ar  
  9   5  22  1   
 10   6   9  1   
 11   6  23  1   
 12   6  24  1   
 13   7   8  ar  
 14   7  25  1   
 15   8  10  1   
 16   9  11  1   
 17   9  12  1   
 18   9  26  1   
 19  11  13  1   
 20  11  27  1   
 21  11  28  1   
 22  12  14  1   
 23  12  29  1   
 24  12  30  1   
 25  13  15  1   
 26  13  16  2   
 27  14  17  1   
 28  14  31  1   
 29  14  32  1   
 30  15  18  2   
 31  16  19  1   
 32  16  33  1   
 33  17  34  1   
 34  18  19  1   
 35  18  20  1   
 36  19  35  1   
 37  20  36  1   
 38  20  37  1   
 39  20  38  1   
@<TRIPOS>SUBSTRUCTURE
  1 ****   9 GROUP 4 **** **** 0

# MOE 2024.06 (io_trps.svl 2023.06)
