@<TRIPOS>MOLECULE
NONAME
43 46 1 0 0 
SMALL
USER_CHARGES


@<TRIPOS>ATOM
  1 S       -2.4000    -2.7010    -3.2960 S.3   1 <1>  -0.4600 
  2 C       -2.3250    -1.1440    -2.3520 C.3   1 <1>   0.2510 
  3 C       -3.2060    -3.7500    -2.0490 C.3   1 <1>   0.2510 
  4 C       -2.9840    -1.5060    -1.0410 C.2   1 <1>   0.1080 
  5 C       -3.4230    -2.8040    -0.8920 C.2   1 <1>  -0.1810 
  6 N       -3.2120    -0.7710    -0.0020 N.2   1 <1>  -0.7070 
  7 C       -3.9630    -2.8670     0.3470 C.2   1 <1>  -0.0880 
  8 N       -3.8220    -1.6110     0.8740 N.pl3 1 <1>   0.3140 
  9 N       -4.5530    -4.0220     0.9180 N.am  1 <1>  -0.4940 
 10 C       -4.2820    -1.0860     2.1660 C.3   1 <1>   0.0160 
 11 C       -4.8740    -4.4160     2.1860 C.2   1 <1>   0.5690 
 12 O       -4.7130    -3.7470     3.1780 O.2   1 <1>  -0.5700 
 13 C       -5.4670    -5.8210     2.3210 C.3   1 <1>   0.1710 
 14 N       -5.9780    -6.3730     1.0300 N.3   1 <1>  -0.8100 
 15 C       -6.0770    -7.8460     1.0890 C.3   1 <1>   0.2530 
 16 C       -7.2880    -5.7980     0.6760 C.3   1 <1>   0.1100 
 17 C       -6.7110    -8.4350    -0.1680 C.ar  1 <1>  -0.1430 
 18 C       -7.6360    -6.1640    -0.7700 C.3   1 <1>  -0.0170 
 19 C       -7.4600    -7.6500    -1.0380 C.ar  1 <1>  -0.1430 
 20 C       -6.5500    -9.7860    -0.4370 C.ar  1 <1>  -0.1500 
 21 C       -8.0370    -8.2220    -2.1610 C.ar  1 <1>  -0.1500 
 22 C       -7.1290   -10.3530    -1.5590 C.ar  1 <1>  -0.1500 
 23 C       -7.8740    -9.5710    -2.4220 C.ar  1 <1>  -0.1500 
 24 H       -2.8750    -0.3920    -2.8860 H     1 <1>   0.0800 
 25 H       -1.2950    -0.8700    -2.2220 H     1 <1>   0.0800 
 26 H       -2.5350    -4.5530    -1.8010 H     1 <1>   0.0800 
 27 H       -4.1290    -4.1150    -2.4620 H     1 <1>   0.0800 
 28 H       -4.7860    -4.7730     0.2560 H     1 <1>   0.3700 
 29 H       -4.2370    -0.0140     2.1490 H     1 <1>   0.0800 
 30 H       -3.6420    -1.4590     2.9430 H     1 <1>   0.0800 
 31 H       -5.2930    -1.4020     2.3380 H     1 <1>   0.0800 
 32 H       -6.2540    -5.8020     3.0550 H     1 <1>   0.0800 
 33 H       -4.6820    -6.4530     2.6950 H     1 <1>   0.0800 
 34 H       -6.6710    -8.1350     1.9390 H     1 <1>   0.0800 
 35 H       -5.0900    -8.2590     1.2100 H     1 <1>   0.0800 
 36 H       -7.2670    -4.7250     0.7690 H     1 <1>   0.0800 
 37 H       -8.0470    -6.1810     1.3380 H     1 <1>   0.0800 
 38 H       -6.9960    -5.6110    -1.4340 H     1 <1>   0.0800 
 39 H       -8.6510    -5.8740    -0.9700 H     1 <1>   0.0800 
 40 H       -5.9750   -10.4060     0.2270 H     1 <1>   0.1500 
 41 H       -8.6150    -7.6180    -2.8380 H     1 <1>   0.1500 
 42 H       -7.0000   -11.4030    -1.7600 H     1 <1>   0.1500 
 43 H       -8.3250   -10.0100    -3.2940 H     1 <1>   0.1500 
@<TRIPOS>BOND
  1   1   2  1   
  2   1   3  1   
  3   2   4  1   
  4   2  24  1   
  5   2  25  1   
  6   3   5  1   
  7   3  26  1   
  8   3  27  1   
  9   4   5  1   
 10   4   6  2   
 11   5   7  2   
 12   6   8  1   
 13   7   8  1   
 14   7   9  1   
 15   8  10  1   
 16   9  11  am  
 17   9  28  1   
 18  10  29  1   
 19  10  30  1   
 20  10  31  1   
 21  11  12  2   
 22  11  13  1   
 23  13  14  1   
 24  13  32  1   
 25  13  33  1   
 26  14  15  1   
 27  14  16  1   
 28  15  17  1   
 29  15  34  1   
 30  15  35  1   
 31  16  18  1   
 32  16  36  1   
 33  16  37  1   
 34  17  19  ar  
 35  17  20  ar  
 36  18  19  1   
 37  18  38  1   
 38  18  39  1   
 39  19  21  ar  
 40  20  22  ar  
 41  20  40  1   
 42  21  23  ar  
 43  21  41  1   
 44  22  23  ar  
 45  22  42  1   
 46  23  43  1   
@<TRIPOS>SUBSTRUCTURE
  1 ****   9 GROUP 4 **** **** 0

# MOE 2024.06 (io_trps.svl 2023.06)
