@<TRIPOS>MOLECULE
NONAME
55 58 1 0 0 
SMALL
USER_CHARGES


@<TRIPOS>ATOM
  1 O       -0.0390    -1.4560    -2.4600 O.2   1 <1>  -0.5700 
  2 C        0.3900    -1.9810    -1.4450 C.2   1 <1>   0.5440 
  3 N        0.4770    -1.1940    -0.3110 N.am  1 <1>  -0.6600 
  4 C        0.8060    -3.3830    -1.5010 C.ar  1 <1>   0.3960 
  5 C        0.1350     0.2460    -0.3080 C.3   1 <1>   0.1400 
  6 C        1.1100    -1.5860     0.9700 C.3   1 <1>   0.1400 
  7 N        0.6170    -4.2110    -0.4570 N.ar  1 <1>  -0.6200 
  8 C        1.3910    -3.8350    -2.6890 C.ar  1 <1>   0.1600 
  9 C        0.9080     0.8240     0.8710 C.3   1 <1>  -0.1600 
 10 C        1.0410    -0.3400     1.8480 C.3   1 <1>  -0.1600 
 11 C        1.0360    -5.4380    -0.6740 C.ar  1 <1>   0.4100 
 12 N        1.8320    -5.0660    -2.9160 N.ar  1 <1>  -0.6200 
 13 N        0.8020    -6.2800     0.3810 N.pl3 1 <1>  -0.8690 
 14 C        1.6460    -5.8430    -1.8710 C.ar  1 <1>   0.1600 
 15 C        0.1110    -7.5740     0.1960 C.3   1 <1>   0.2090 
 16 C       -1.3200    -7.5140     0.7610 C.3   1 <1>  -0.0800 
 17 C       -1.9620    -8.9140     0.6650 C.3   1 <1>   0.3430 
 18 C       -2.1880    -6.4390     0.0700 C.3   1 <1>  -0.1600 
 19 N       -3.4370    -8.8620     0.4130 N.4   1 <1>  -0.9590 
 20 C       -3.6190    -6.4200     0.6410 C.3   1 <1>  -0.1600 
 21 C       -4.1010    -7.7720     1.1770 C.3   1 <1>   0.3430 
 22 C       -4.1040   -10.1780     0.6260 C.3   1 <1>   0.5230 
 23 C       -5.3170   -10.2750    -0.2830 C.2   1 <1>  -0.0400 
 24 O       -6.2970    -9.4000    -0.1490 O.3   1 <1>  -0.2800 
 25 C       -5.6000   -11.1490    -1.2740 C.2   1 <1>  -0.1500 
 26 C       -7.2210    -9.6940    -1.0410 C.2   1 <1>  -0.0100 
 27 C       -6.8510   -10.7660    -1.7720 C.2   1 <1>  -0.1500 
 28 H       -0.9260     0.3520    -0.1560 H     1 <1>   0.0800 
 29 H        0.4150     0.7180    -1.2350 H     1 <1>   0.0800 
 30 H        2.1340    -1.8680     0.7900 H     1 <1>   0.0800 
 31 H        0.5810    -2.4050     1.4260 H     1 <1>   0.0800 
 32 H        1.4990    -3.1290    -3.4950 H     1 <1>   0.1500 
 33 H        0.4030     1.6690     1.3040 H     1 <1>   0.0800 
 34 H        1.8810     1.1310     0.5310 H     1 <1>   0.0800 
 35 H        1.9070    -0.2490     2.4800 H     1 <1>   0.0800 
 36 H        0.1620    -0.3990     2.4660 H     1 <1>   0.0800 
 37 H        0.4760    -5.7460     1.1930 H     1 <1>   0.4000 
 38 H        1.9870    -6.8580    -1.9420 H     1 <1>   0.1500 
 39 H        0.6780    -8.3350     0.7070 H     1 <1>   0.0800 
 40 H        0.0800    -7.8260    -0.8510 H     1 <1>   0.0800 
 41 H       -1.2420    -7.2680     1.8060 H     1 <1>   0.0800 
 42 H       -1.7650    -9.4440     1.5840 H     1 <1>   0.0800 
 43 H       -1.4940    -9.4630    -0.1370 H     1 <1>   0.0800 
 44 H       -2.2260    -6.6380    -0.9880 H     1 <1>   0.0800 
 45 H       -1.7560    -5.4590     0.1920 H     1 <1>   0.0800 
 46 H       -3.5940    -8.6300    -0.5780 H     1 <1>   0.4500 
 47 H       -4.2980    -6.0750    -0.1190 H     1 <1>   0.0800 
 48 H       -3.6720    -5.7080     1.4470 H     1 <1>   0.0800 
 49 H       -3.8470    -7.8580     2.2210 H     1 <1>   0.0800 
 50 H       -5.1740    -7.8300     1.0850 H     1 <1>   0.0800 
 51 H       -4.4060   -10.2870     1.6540 H     1 <1>   0.0800 
 52 H       -3.4280   -10.9800     0.3790 H     1 <1>   0.0800 
 53 H       -5.0270   -11.9820    -1.6450 H     1 <1>   0.1500 
 54 H       -8.1140    -9.0930    -1.0900 H     1 <1>   0.1500 
 55 H       -7.3850   -11.2500    -2.5720 H     1 <1>   0.1500 
@<TRIPOS>BOND
  1   1   2  2   
  2   2   3  am  
  3   2   4  1   
  4   3   5  1   
  5   3   6  1   
  6   4   7  ar  
  7   4   8  ar  
  8   5   9  1   
  9   5  28  1   
 10   5  29  1   
 11   6  10  1   
 12   6  30  1   
 13   6  31  1   
 14   7  11  ar  
 15   8  12  ar  
 16   8  32  1   
 17   9  10  1   
 18   9  33  1   
 19   9  34  1   
 20  10  35  1   
 21  10  36  1   
 22  11  13  1   
 23  11  14  ar  
 24  12  14  ar  
 25  13  15  1   
 26  13  37  1   
 27  14  38  1   
 28  15  16  1   
 29  15  39  1   
 30  15  40  1   
 31  16  17  1   
 32  16  18  1   
 33  16  41  1   
 34  17  19  1   
 35  17  42  1   
 36  17  43  1   
 37  18  20  1   
 38  18  44  1   
 39  18  45  1   
 40  19  21  1   
 41  19  22  1   
 42  19  46  1   
 43  20  21  1   
 44  20  47  1   
 45  20  48  1   
 46  21  49  1   
 47  21  50  1   
 48  22  23  1   
 49  22  51  1   
 50  22  52  1   
 51  23  24  1   
 52  23  25  2   
 53  24  26  1   
 54  25  27  1   
 55  25  53  1   
 56  26  27  2   
 57  26  54  1   
 58  27  55  1   
@<TRIPOS>SUBSTRUCTURE
  1 ****  18 GROUP 4 **** **** 0

# MOE 2024.06 (io_trps.svl 2023.06)
