@<TRIPOS>MOLECULE
NONAME
61 65 1 0 0 
SMALL
USER_CHARGES


@<TRIPOS>ATOM
  1 O       -2.2600     0.2830     0.5300 O.3   1 <1>  -0.3630 
  2 C       -1.4390     1.3710     0.6200 C.ar  1 <1>   0.0820 
  3 C       -1.8010    -1.0030     0.9000 C.3   1 <1>   0.0400 
  4 C       -0.0620     1.3580     0.3420 C.ar  1 <1>   0.0820 
  5 C       -2.0550     2.5590     0.9990 C.ar  1 <1>  -0.1440 
  6 O        0.5250     0.2080    -0.0980 O.3   1 <1>  -0.3620 
  7 C        0.6690     2.5330     0.4980 C.ar  1 <1>  -0.1500 
  8 C       -1.3100     3.7190     1.1460 C.ar  1 <1>  -0.1500 
  9 C       -3.5490     2.5800     1.2520 C.3   1 <1>   0.4860 
 10 C        1.9010     0.1320    -0.4070 C.3   1 <1>   0.0400 
 11 C        0.0490     3.7020     0.9000 C.ar  1 <1>  -0.1500 
 12 N       -4.2390     3.0660     0.0250 N.4   1 <1>  -0.9590 
 13 C       -5.6800     3.3690     0.3110 C.3   1 <1>   0.3430 
 14 C       -4.1010     2.0710    -1.0840 C.3   1 <1>   0.3430 
 15 C       -6.4170     3.9240    -0.9210 C.3   1 <1>   0.1430 
 16 C       -4.7690     2.6020    -2.3550 C.3   1 <1>  -0.1600 
 17 C       -7.8810     4.0670    -0.5760 C.ar  1 <1>   0.1670 
 18 C       -6.2450     2.9710    -2.1220 C.3   1 <1>  -0.1600 
 19 C       -6.0140     5.3830    -1.2710 C.3   1 <1>  -0.1600 
 20 N       -8.5930     3.1470     0.0250 N.ar  1 <1>  -0.6200 
 21 C       -8.3750     5.2770    -0.9470 C.ar  1 <1>  -0.1430 
 22 C       -7.3200     6.1330    -1.6020 C.3   1 <1>  -0.0170 
 23 C       -9.8760     3.4670     0.2490 C.ar  1 <1>   0.6200 
 24 C       -9.6950     5.5310    -0.6790 C.ar  1 <1>   0.1600 
 25 N      -10.4470     4.6340    -0.0800 N.ar  1 <1>  -0.6200 
 26 C      -10.7090     2.4740     0.9100 C.ar  1 <1>   0.0000 
 27 C      -11.7300     2.8440     1.7890 C.ar  1 <1>  -0.1500 
 28 C      -10.5250     1.1050     0.6950 C.ar  1 <1>  -0.1500 
 29 C      -12.5200     1.9030     2.4240 C.ar  1 <1>  -0.1500 
 30 C      -11.3110     0.1580     1.3270 C.ar  1 <1>  -0.1500 
 31 C      -12.3110     0.5560     2.1950 C.ar  1 <1>  -0.1500 
 32 H       -2.6520    -1.6080     1.1550 H     1 <1>   0.0800 
 33 H       -1.1440    -0.9160     1.7470 H     1 <1>   0.0800 
 34 H       -1.2840    -1.4420     0.0650 H     1 <1>   0.0800 
 35 H        1.7260     2.5650     0.3090 H     1 <1>   0.1500 
 36 H       -1.7700     4.6420     1.4570 H     1 <1>   0.1500 
 37 H       -3.7560     3.2380     2.0790 H     1 <1>   0.0800 
 38 H       -3.8960     1.5920     1.5100 H     1 <1>   0.0800 
 39 H        2.1160    -0.8710    -0.7290 H     1 <1>   0.0800 
 40 H        2.4720     0.3610     0.4760 H     1 <1>   0.0800 
 41 H        2.1210     0.8230    -1.2010 H     1 <1>   0.0800 
 42 H        0.6320     4.6000     1.0190 H     1 <1>   0.1500 
 43 H       -3.7540     3.9200    -0.2720 H     1 <1>   0.4500 
 44 H       -5.7600     4.0810     1.1160 H     1 <1>   0.0800 
 45 H       -6.1800     2.4660     0.6220 H     1 <1>   0.0800 
 46 H       -4.5610     1.1390    -0.7950 H     1 <1>   0.0800 
 47 H       -3.0580     1.8780    -1.2830 H     1 <1>   0.0800 
 48 H       -4.7120     1.8420    -3.1150 H     1 <1>   0.0800 
 49 H       -4.2180     3.4510    -2.7180 H     1 <1>   0.0800 
 50 H       -6.6610     3.4150    -3.0120 H     1 <1>   0.0800 
 51 H       -6.7990     2.0670    -1.9310 H     1 <1>   0.0800 
 52 H       -5.3170     5.4450    -2.0880 H     1 <1>   0.0800 
 53 H       -5.5730     5.8540    -0.4100 H     1 <1>   0.0800 
 54 H       -7.4880     6.1600    -2.6660 H     1 <1>   0.0800 
 55 H       -7.3170     7.1350    -1.2090 H     1 <1>   0.0800 
 56 H      -10.1410     6.4720    -0.9530 H     1 <1>   0.1500 
 57 H      -11.9080     3.8890     1.9780 H     1 <1>   0.1500 
 58 H       -9.7560     0.7770     0.0190 H     1 <1>   0.1500 
 59 H      -13.2990     2.2190     3.0970 H     1 <1>   0.1500 
 60 H      -11.1480    -0.8900     1.1420 H     1 <1>   0.1500 
 61 H      -12.9250    -0.1790     2.6870 H     1 <1>   0.1500 
@<TRIPOS>BOND
  1   1   2  1   
  2   1   3  1   
  3   2   4  ar  
  4   2   5  ar  
  5   3  32  1   
  6   3  33  1   
  7   3  34  1   
  8   4   6  1   
  9   4   7  ar  
 10   5   8  ar  
 11   5   9  1   
 12   6  10  1   
 13   7  11  ar  
 14   7  35  1   
 15   8  11  ar  
 16   8  36  1   
 17   9  12  1   
 18   9  37  1   
 19   9  38  1   
 20  10  39  1   
 21  10  40  1   
 22  10  41  1   
 23  11  42  1   
 24  12  13  1   
 25  12  14  1   
 26  12  43  1   
 27  13  15  1   
 28  13  44  1   
 29  13  45  1   
 30  14  16  1   
 31  14  46  1   
 32  14  47  1   
 33  15  17  1   
 34  15  18  1   
 35  15  19  1   
 36  16  18  1   
 37  16  48  1   
 38  16  49  1   
 39  17  20  ar  
 40  17  21  ar  
 41  18  50  1   
 42  18  51  1   
 43  19  22  1   
 44  19  52  1   
 45  19  53  1   
 46  20  23  ar  
 47  21  22  1   
 48  21  24  ar  
 49  22  54  1   
 50  22  55  1   
 51  23  25  ar  
 52  23  26  1   
 53  24  25  ar  
 54  24  56  1   
 55  26  27  ar  
 56  26  28  ar  
 57  27  29  ar  
 58  27  57  1   
 59  28  30  ar  
 60  28  58  1   
 61  29  31  ar  
 62  29  59  1   
 63  30  31  ar  
 64  30  60  1   
 65  31  61  1   
@<TRIPOS>SUBSTRUCTURE
  1 ****  13 GROUP 4 **** **** 0

# MOE 2024.06 (io_trps.svl 2023.06)
