@<TRIPOS>MOLECULE
NONAME
44 45 1 0 0 
SMALL
USER_CHARGES


@<TRIPOS>ATOM
  1 O       -0.7650     1.9330    -3.1810 O.2   1 <1>  -0.5700 
  2 C       -0.0910     2.2320    -2.2230 C.2   1 <1>   0.5690 
  3 N        1.2160     2.5180    -2.3980 N.am  1 <1>  -0.8000 
  4 C       -0.6990     2.3680    -0.8070 C.3   1 <1>   0.3500 
  5 N       -0.8620     3.8090    -0.4130 N.pl3 1 <1>  -0.8690 
  6 C       -2.0430     1.6470    -0.6290 C.3   1 <1>  -0.0170 
  7 C        0.1670     4.5900     0.0540 C.ar  1 <1>   0.4100 
  8 C       -1.8520     0.1390    -0.5420 C.ar  1 <1>  -0.1430 
  9 N        1.3220     3.9940     0.2780 N.ar  1 <1>  -0.6200 
 10 C       -0.0010     5.9530     0.2670 C.ar  1 <1>  -0.1430 
 11 C       -1.5650    -0.4550     0.6770 C.ar  1 <1>  -0.1500 
 12 C       -1.9580    -0.6530    -1.6750 C.ar  1 <1>  -0.1500 
 13 C        2.2910     4.7610     0.7310 C.ar  1 <1>   0.4770 
 14 C        1.0970     6.6390     0.7280 C.ar  1 <1>   0.1600 
 15 C       -1.3570     6.6150    -0.0060 C.3   1 <1>  -0.0170 
 16 C       -1.3860    -1.8250     0.7640 C.ar  1 <1>  -0.1500 
 17 C       -1.7790    -2.0230    -1.5900 C.ar  1 <1>  -0.1500 
 18 N        2.2540     6.0570     0.9660 N.ar  1 <1>  -0.6200 
 19 C        3.6100     4.0820     1.0080 C.3   1 <1>  -0.0970 
 20 C       -1.4470     8.1060     0.3540 C.3   1 <1>  -0.1600 
 21 C       -1.4930    -2.6100    -0.3700 C.ar  1 <1>  -0.1500 
 22 C       -2.8450     8.6640     0.0690 C.3   1 <1>  -0.2400 
 23 H        1.6270     2.5150    -3.3300 H     1 <1>   0.3700 
 24 H        1.7430     2.9740    -1.6440 H     1 <1>   0.3700 
 25 H       -0.0080     1.9090    -0.1210 H     1 <1>   0.0800 
 26 H       -1.5790     4.2890    -0.9580 H     1 <1>   0.4000 
 27 H       -2.5010     1.9830     0.2840 H     1 <1>   0.0800 
 28 H       -2.7040     1.8910    -1.4410 H     1 <1>   0.0800 
 29 H       -1.4790     0.1460     1.5660 H     1 <1>   0.1500 
 30 H       -2.1770    -0.2070    -2.6310 H     1 <1>   0.1500 
 31 H        1.0510     7.6960     0.9180 H     1 <1>   0.1500 
 32 H       -1.5860     6.5000    -1.0510 H     1 <1>   0.0800 
 33 H       -2.1080     6.0850     0.5550 H     1 <1>   0.0800 
 34 H       -1.1640    -2.2790     1.7130 H     1 <1>   0.1500 
 35 H       -1.8610    -2.6290    -2.4750 H     1 <1>   0.1500 
 36 H        4.0110     4.4370     1.9390 H     1 <1>   0.0800 
 37 H        4.3010     4.3100     0.2190 H     1 <1>   0.0800 
 38 H        3.4810     3.0170     1.0700 H     1 <1>   0.0800 
 39 H       -1.2250     8.2390     1.3990 H     1 <1>   0.0800 
 40 H       -0.7280     8.6620    -0.2230 H     1 <1>   0.0800 
 41 H       -1.3540    -3.6750    -0.3050 H     1 <1>   0.1500 
 42 H       -3.5860     8.1440     0.6500 H     1 <1>   0.0800 
 43 H       -3.0880     8.5630    -0.9740 H     1 <1>   0.0800 
 44 H       -2.8830     9.7080     0.3270 H     1 <1>   0.0800 
@<TRIPOS>BOND
  1   1   2  2   
  2   2   3  am  
  3   2   4  1   
  4   3  23  1   
  5   3  24  1   
  6   4   5  1   
  7   4   6  1   
  8   4  25  1   
  9   5   7  1   
 10   5  26  1   
 11   6   8  1   
 12   6  27  1   
 13   6  28  1   
 14   7   9  ar  
 15   7  10  ar  
 16   8  11  ar  
 17   8  12  ar  
 18   9  13  ar  
 19  10  14  ar  
 20  10  15  1   
 21  11  16  ar  
 22  11  29  1   
 23  12  17  ar  
 24  12  30  1   
 25  13  18  ar  
 26  13  19  1   
 27  14  18  ar  
 28  14  31  1   
 29  15  20  1   
 30  15  32  1   
 31  15  33  1   
 32  16  21  ar  
 33  16  34  1   
 34  17  21  ar  
 35  17  35  1   
 36  19  36  1   
 37  19  37  1   
 38  19  38  1   
 39  20  22  1   
 40  20  39  1   
 41  20  40  1   
 42  21  41  1   
 43  22  42  1   
 44  22  43  1   
 45  22  44  1   
@<TRIPOS>SUBSTRUCTURE
  1 ****   4 GROUP 4 **** **** 0

# MOE 2024.06 (io_trps.svl 2023.06)
