@<TRIPOS>MOLECULE
NONAME
50 51 1 0 0 
SMALL
USER_CHARGES


@<TRIPOS>ATOM
  1 O       -2.4170     2.3830    -1.4230 O.co2 1 <1>  -0.9000 
  2 C       -1.2960     2.7860    -1.1090 C.2   1 <1>   0.9060 
  3 O       -0.6990     3.6530    -1.7640 O.co2 1 <1>  -0.9000 
  4 C       -0.6930     2.3070     0.2140 C.3   1 <1>  -0.1060 
  5 C       -1.6090     2.7130     1.4130 C.3   1 <1>   0.2000 
  6 C        0.6840     2.9790     0.3340 C.3   1 <1>   0.3430 
  7 C       -0.5120     0.7650     0.1580 C.3   1 <1>  -0.1600 
  8 O       -2.6940     3.4620     1.0000 O.3   1 <1>  -0.6800 
  9 C       -0.8870     3.5800     2.4450 C.3   1 <1>  -0.1600 
 10 N        0.4910     4.4410     0.5250 N.4   1 <1>  -0.9590 
 11 C        0.2020     0.1360     1.3700 C.3   1 <1>  -0.1600 
 12 C       -0.2680     4.8070     1.7650 C.3   1 <1>   0.3430 
 13 C        1.7130     5.2250     0.2480 C.3   1 <1>   0.3430 
 14 C        0.2640    -1.3860     1.2240 C.3   1 <1>  -0.2400 
 15 C        1.3690     6.7030     0.0800 C.3   1 <1>  -0.1600 
 16 C        2.5990     7.4950    -0.3600 C.3   1 <1>   0.1200 
 17 O        2.2480     8.8560    -0.3610 O.3   1 <1>  -0.3630 
 18 C        3.1440     9.8180    -0.6980 C.ar  1 <1>   0.0820 
 19 C        2.6990    11.1290    -0.6450 C.ar  1 <1>  -0.1500 
 20 C        4.4570     9.5560    -1.0830 C.ar  1 <1>  -0.1500 
 21 C        3.5470    12.1730    -0.9700 C.ar  1 <1>  -0.1500 
 22 C        5.3040    10.6020    -1.4080 C.ar  1 <1>  -0.1500 
 23 C        4.8510    11.9090    -1.3510 C.ar  1 <1>  -0.1500 
 24 H       -2.0180     1.8350     1.8850 H     1 <1>   0.0800 
 25 H        1.2350     2.7980    -0.5750 H     1 <1>   0.0800 
 26 H        1.2340     2.5710     1.1640 H     1 <1>   0.0800 
 27 H       -1.4870     0.3160     0.0540 H     1 <1>   0.0800 
 28 H        0.0340     0.5140    -0.7370 H     1 <1>   0.0800 
 29 H       -2.9880     3.1140     0.1060 H     1 <1>   0.4000 
 30 H       -1.5820     3.8950     3.2030 H     1 <1>   0.0800 
 31 H       -0.1200     3.0080     2.9350 H     1 <1>   0.0800 
 32 H       -0.1480     4.6270    -0.2930 H     1 <1>   0.4500 
 33 H        1.2080     0.5070     1.4530 H     1 <1>   0.0800 
 34 H       -0.3220     0.3700     2.2800 H     1 <1>   0.0800 
 35 H        0.3820     5.3060     2.4640 H     1 <1>   0.0800 
 36 H       -1.0610     5.4870     1.4970 H     1 <1>   0.0800 
 37 H        2.4230     5.0960     1.0480 H     1 <1>   0.0800 
 38 H        2.1570     4.8650    -0.6670 H     1 <1>   0.0800 
 39 H        0.8020    -1.6600     0.3330 H     1 <1>   0.0800 
 40 H       -0.7280    -1.7990     1.1670 H     1 <1>   0.0800 
 41 H        0.7640    -1.8200     2.0720 H     1 <1>   0.0800 
 42 H        1.0180     7.1070     1.0120 H     1 <1>   0.0800 
 43 H        0.6050     6.8100    -0.6710 H     1 <1>   0.0800 
 44 H        2.9000     7.2210    -1.3570 H     1 <1>   0.0800 
 45 H        3.4150     7.3620     0.3300 H     1 <1>   0.0800 
 46 H        1.6840    11.3270    -0.3490 H     1 <1>   0.1500 
 47 H        4.8380     8.5550    -1.1390 H     1 <1>   0.1500 
 48 H        3.1930    13.1880    -0.9260 H     1 <1>   0.1500 
 49 H        6.3190    10.4010    -1.7050 H     1 <1>   0.1500 
 50 H        5.5120    12.7200    -1.6040 H     1 <1>   0.1500 
@<TRIPOS>BOND
  1   1   2  ar  
  2   2   3  ar  
  3   2   4  1   
  4   4   5  1   
  5   4   6  1   
  6   4   7  1   
  7   5   8  1   
  8   5   9  1   
  9   5  24  1   
 10   6  10  1   
 11   6  25  1   
 12   6  26  1   
 13   7  11  1   
 14   7  27  1   
 15   7  28  1   
 16   8  29  1   
 17   9  12  1   
 18   9  30  1   
 19   9  31  1   
 20  10  12  1   
 21  10  13  1   
 22  10  32  1   
 23  11  14  1   
 24  11  33  1   
 25  11  34  1   
 26  12  35  1   
 27  12  36  1   
 28  13  15  1   
 29  13  37  1   
 30  13  38  1   
 31  14  39  1   
 32  14  40  1   
 33  14  41  1   
 34  15  16  1   
 35  15  42  1   
 36  15  43  1   
 37  16  17  1   
 38  16  44  1   
 39  16  45  1   
 40  17  18  1   
 41  18  19  ar  
 42  18  20  ar  
 43  19  21  ar  
 44  19  46  1   
 45  20  22  ar  
 46  20  47  1   
 47  21  23  ar  
 48  21  48  1   
 49  22  23  ar  
 50  22  49  1   
 51  23  50  1   
@<TRIPOS>SUBSTRUCTURE
  1 ****  13 GROUP 4 **** **** 0

# MOE 2024.06 (io_trps.svl 2023.06)
