@<TRIPOS>MOLECULE
NONAME
47 49 1 0 0 
SMALL
USER_CHARGES


@<TRIPOS>ATOM
  1 S       -1.4570    -0.0350     1.8390 S.3   1 <1>  -0.0800 
  2 C       -0.6420    -1.4980     1.3400 C.2   1 <1>  -0.0450 
  3 C       -0.0350     0.8880     1.4300 C.2   1 <1>   0.1980 
  4 C        0.6030    -1.1460     0.9400 C.2   1 <1>   0.0460 
  5 C       -1.3560    -2.7450     1.4130 C.2   1 <1>   0.7150 
  6 N        0.9290     0.1920     0.9800 N.2   1 <1>  -0.5650 
  7 C       -0.0870     2.3820     1.6430 C.3   1 <1>  -0.0600 
  8 C        1.6930    -2.0800     0.4590 C.3   1 <1>  -0.0590 
  9 O       -1.8430    -3.0990     2.4710 O.2   1 <1>  -0.5700 
 10 N       -1.5080    -3.5610     0.3070 N.am  1 <1>  -0.6600 
 11 C       -2.0850    -4.9300     0.4660 C.3   1 <1>   0.1400 
 12 C       -1.2460    -3.0870    -1.0860 C.3   1 <1>   0.1400 
 13 C       -3.6220    -4.9010     0.4620 C.3   1 <1>   0.1400 
 14 C       -2.3910    -3.3720    -2.0680 C.3   1 <1>  -0.1600 
 15 N       -4.1750    -4.6140    -0.9000 N.am  1 <1>  -0.6600 
 16 C       -3.7940    -3.2850    -1.4580 C.3   1 <1>   0.1400 
 17 C       -5.0030    -5.4500    -1.6170 C.2   1 <1>   0.5690 
 18 O       -5.3540    -5.1710    -2.7410 O.2   1 <1>  -0.5700 
 19 C       -5.4990    -6.7820    -1.0740 C.3   1 <1>   0.0810 
 20 C       -6.6630    -6.6150    -0.1140 C.2   1 <1>  -0.0400 
 21 O       -6.4640    -6.1730     1.0990 O.3   1 <1>  -0.0190 
 22 C       -7.9750    -6.8530    -0.2540 C.2   1 <1>  -0.1500 
 23 N       -7.5710    -6.1030     1.7790 N.2   1 <1>  -0.4100 
 24 C       -8.5000    -6.5050     0.9880 C.2   1 <1>   0.1080 
 25 C       -9.9630    -6.5830     1.3640 C.3   1 <1>  -0.0590 
 26 H       -0.8740     2.8080     1.0480 H     1 <1>   0.0800 
 27 H        0.8490     2.8220     1.3530 H     1 <1>   0.0800 
 28 H       -0.2680     2.5950     2.6800 H     1 <1>   0.0800 
 29 H        1.3770    -3.1050     0.5160 H     1 <1>   0.0800 
 30 H        2.5670    -1.9550     1.0740 H     1 <1>   0.0800 
 31 H        1.9510    -1.8440    -0.5570 H     1 <1>   0.0800 
 32 H       -1.7550    -5.3390     1.4060 H     1 <1>   0.0800 
 33 H       -1.7280    -5.5800    -0.3130 H     1 <1>   0.0800 
 34 H       -0.3430    -3.5460    -1.4500 H     1 <1>   0.0800 
 35 H       -1.0860    -2.0230    -1.0780 H     1 <1>   0.0800 
 36 H       -3.9710    -4.1550     1.1570 H     1 <1>   0.0800 
 37 H       -3.9700    -5.8490     0.8210 H     1 <1>   0.0800 
 38 H       -2.2560    -4.3370    -2.5250 H     1 <1>   0.0800 
 39 H       -2.3230    -2.6490    -2.8600 H     1 <1>   0.0800 
 40 H       -4.4950    -3.0010    -2.2250 H     1 <1>   0.0800 
 41 H       -3.8360    -2.5320    -0.6890 H     1 <1>   0.0800 
 42 H       -4.6990    -7.3180    -0.6030 H     1 <1>   0.0800 
 43 H       -5.8300    -7.3760    -1.9050 H     1 <1>   0.0800 
 44 H       -8.5230    -7.2190    -1.1020 H     1 <1>   0.1500 
 45 H      -10.5440    -5.9780     0.6930 H     1 <1>   0.0800 
 46 H      -10.1030    -6.2240     2.3670 H     1 <1>   0.0800 
 47 H      -10.3000    -7.6010     1.3080 H     1 <1>   0.0800 
@<TRIPOS>BOND
  1   1   2  1   
  2   1   3  1   
  3   2   4  2   
  4   2   5  1   
  5   3   6  2   
  6   3   7  1   
  7   4   6  1   
  8   4   8  1   
  9   5   9  2   
 10   5  10  am  
 11   7  26  1   
 12   7  27  1   
 13   7  28  1   
 14   8  29  1   
 15   8  30  1   
 16   8  31  1   
 17  10  11  1   
 18  10  12  1   
 19  11  13  1   
 20  11  32  1   
 21  11  33  1   
 22  12  14  1   
 23  12  34  1   
 24  12  35  1   
 25  13  15  1   
 26  13  36  1   
 27  13  37  1   
 28  14  16  1   
 29  14  38  1   
 30  14  39  1   
 31  15  16  1   
 32  15  17  am  
 33  16  40  1   
 34  16  41  1   
 35  17  18  2   
 36  17  19  1   
 37  19  20  1   
 38  19  42  1   
 39  19  43  1   
 40  20  21  1   
 41  20  22  2   
 42  21  23  1   
 43  22  24  1   
 44  22  44  1   
 45  23  24  2   
 46  24  25  1   
 47  25  45  1   
 48  25  46  1   
 49  25  47  1   
@<TRIPOS>SUBSTRUCTURE
  1 ****  13 GROUP 4 **** **** 0

# MOE 2024.06 (io_trps.svl 2023.06)
