@<TRIPOS>MOLECULE
NONAME
47 50 1 0 0 
SMALL
USER_CHARGES


@<TRIPOS>ATOM
  1 O       -0.1280     0.2520    -0.0760 O.2   1 <1>  -0.5700 
  2 C       -0.0970     1.4680    -0.1630 C.2   1 <1>   0.7150 
  3 N       -1.3030     2.1470    -0.1680 N.am  1 <1>  -0.6600 
  4 C        1.1960     2.1130    -0.2390 C.2   1 <1>   0.0550 
  5 C       -2.5800     1.4020    -0.3910 C.3   1 <1>   0.1400 
  6 C       -1.4220     3.6040     0.1480 C.3   1 <1>   0.1400 
  7 O        1.3330     3.3450    -0.7070 O.3   1 <1>  -0.0190 
  8 C        2.4060     1.6270     0.0970 C.2   1 <1>  -0.1500 
  9 C       -3.6370     2.3190    -1.0080 C.3   1 <1>  -0.1600 
 10 C       -2.7690     3.8930     0.8070 C.3   1 <1>  -0.1600 
 11 N        2.6060     3.6500    -0.6540 N.2   1 <1>  -0.4100 
 12 C        3.2860     2.6500    -0.1880 C.2   1 <1>   0.2350 
 13 C       -3.9340     3.5550    -0.1390 C.3   1 <1>   0.4180 
 14 C        4.7250     2.6300     0.0010 C.ar  1 <1>   0.0540 
 15 O       -4.0970     4.6150    -1.0490 O.3   1 <1>  -0.5600 
 16 C       -5.2180     3.3290     0.6590 C.2   1 <1>  -0.2880 
 17 C        5.4330     1.4350     0.1370 C.ar  1 <1>  -0.1500 
 18 C        5.4580     3.8160     0.0550 C.ar  1 <1>  -0.1500 
 19 C       -4.8400     5.7300    -0.6370 C.3   1 <1>   0.1200 
 20 C       -6.2980     4.1100     0.5840 C.2   1 <1>  -0.2760 
 21 C        6.8040     1.4250     0.3240 C.ar  1 <1>  -0.1500 
 22 C        6.8280     3.8140     0.2410 C.ar  1 <1>  -0.1500 
 23 C       -6.2860     5.3320    -0.3150 C.3   1 <1>  -0.0220 
 24 C       -7.5920     3.8670     1.3400 C.3   1 <1>  -0.1020 
 25 C        7.5050     2.6160     0.3770 C.ar  1 <1>  -0.1500 
 26 H       -2.9300     1.0130     0.5500 H     1 <1>   0.0800 
 27 H       -2.4030     0.5690    -1.0520 H     1 <1>   0.0800 
 28 H       -1.3330     4.1750    -0.7620 H     1 <1>   0.0800 
 29 H       -0.6330     3.9000     0.8180 H     1 <1>   0.0800 
 30 H        2.6380     0.6590     0.4990 H     1 <1>   0.1500 
 31 H       -4.5410     1.7630    -1.1680 H     1 <1>   0.0800 
 32 H       -3.2760     2.6290    -1.9720 H     1 <1>   0.0800 
 33 H       -2.8160     4.9190     1.1150 H     1 <1>   0.0800 
 34 H       -2.8400     3.2940     1.6970 H     1 <1>   0.0800 
 35 H       -5.1680     2.4590     1.2870 H     1 <1>   0.1500 
 36 H        4.9130     0.4960     0.0900 H     1 <1>   0.1500 
 37 H        4.9430     4.7550    -0.0510 H     1 <1>   0.1500 
 38 H       -4.8210     6.4500    -1.4360 H     1 <1>   0.0800 
 39 H       -4.3700     6.1600     0.2280 H     1 <1>   0.0800 
 40 H        7.3270     0.4900     0.4270 H     1 <1>   0.1500 
 41 H        7.3680     4.7440     0.2790 H     1 <1>   0.1500 
 42 H       -6.8190     5.1220    -1.2250 H     1 <1>   0.0800 
 43 H       -6.7670     6.1600     0.1740 H     1 <1>   0.0800 
 44 H       -7.8050     4.6970     1.9900 H     1 <1>   0.0800 
 45 H       -7.5190     2.9760     1.9370 H     1 <1>   0.0800 
 46 H       -8.4070     3.7480     0.6480 H     1 <1>   0.0800 
 47 H        8.5720     2.6110     0.5230 H     1 <1>   0.1500 
@<TRIPOS>BOND
  1   1   2  2   
  2   2   3  am  
  3   2   4  1   
  4   3   5  1   
  5   3   6  1   
  6   4   7  1   
  7   4   8  2   
  8   5   9  1   
  9   5  26  1   
 10   5  27  1   
 11   6  10  1   
 12   6  28  1   
 13   6  29  1   
 14   7  11  1   
 15   8  12  1   
 16   8  30  1   
 17   9  13  1   
 18   9  31  1   
 19   9  32  1   
 20  10  13  1   
 21  10  33  1   
 22  10  34  1   
 23  11  12  2   
 24  12  14  1   
 25  13  15  1   
 26  13  16  1   
 27  14  17  ar  
 28  14  18  ar  
 29  15  19  1   
 30  16  20  2   
 31  16  35  1   
 32  17  21  ar  
 33  17  36  1   
 34  18  22  ar  
 35  18  37  1   
 36  19  23  1   
 37  19  38  1   
 38  19  39  1   
 39  20  23  1   
 40  20  24  1   
 41  21  25  ar  
 42  21  40  1   
 43  22  25  ar  
 44  22  41  1   
 45  23  42  1   
 46  23  43  1   
 47  24  44  1   
 48  24  45  1   
 49  24  46  1   
 50  25  47  1   
@<TRIPOS>SUBSTRUCTURE
  1 ****   6 GROUP 4 **** **** 0

# MOE 2024.06 (io_trps.svl 2023.06)
