@<TRIPOS>MOLECULE
NONAME
53 56 1 0 0 
SMALL
USER_CHARGES


@<TRIPOS>ATOM
  1 S       -0.1220    -0.1500    -1.3360 S.o2  1 <1>   1.4470 
  2 O        0.1490    -1.5640    -1.1320 O.2   1 <1>  -0.6500 
  3 O       -0.2240     0.2920    -2.7090 O.2   1 <1>  -0.6500 
  4 N       -1.6130     0.1110    -0.5570 N.am  1 <1>  -0.8490 
  5 C        1.0880     0.8170    -0.4080 C.ar  1 <1>  -0.0090 
  6 C       -1.8920    -0.8460     0.5360 C.3   1 <1>   0.1960 
  7 C       -2.7290     0.2960    -1.5160 C.3   1 <1>   0.1960 
  8 C        0.9480     2.2170    -0.3340 C.ar  1 <1>   0.3100 
  9 C        2.1440     0.2010     0.2250 C.ar  1 <1>  -0.1500 
 10 C       -2.7070    -2.0150    -0.0550 C.3   1 <1>   0.4230 
 11 C       -4.0970    -0.0830    -0.9190 C.3   1 <1>  -0.1600 
 12 N       -0.0870     2.8370    -0.9630 N.ar  1 <1>  -0.6200 
 13 C        1.9030     2.9560     0.4060 C.ar  1 <1>   0.0000 
 14 C        3.0890     0.9270     0.9550 C.ar  1 <1>  -0.1430 
 15 N       -2.6930    -3.3330     0.6550 N.4   1 <1>  -0.9590 
 16 C       -4.1440    -1.5120    -0.2820 C.3   1 <1>  -0.1060 
 17 C       -0.1850     4.1270    -0.8720 C.ar  1 <1>   0.1600 
 18 C        2.9620     2.2840     1.0400 C.ar  1 <1>  -0.1500 
 19 C        1.7620     4.3530     0.4810 C.ar  1 <1>  -0.1500 
 20 C        4.2320     0.1880     1.6280 C.3   1 <1>  -0.0970 
 21 C       -3.3700    -4.3750    -0.1650 C.3   1 <1>   0.3430 
 22 C       -1.3430    -3.7600     1.1060 C.3   1 <1>   0.2630 
 23 C       -4.8930    -1.4300     1.0600 C.2   1 <1>   0.9060 
 24 C       -4.8320    -2.5350    -1.2120 C.3   1 <1>  -0.1600 
 25 C        0.7130     4.9330    -0.1630 C.ar  1 <1>  -0.1500 
 26 C       -4.7830    -3.9430    -0.5840 C.3   1 <1>  -0.1600 
 27 O       -6.0230    -0.9460     1.0770 O.co2 1 <1>  -0.9000 
 28 O       -4.3670    -1.8980     2.0830 O.co2 1 <1>  -0.9000 
 29 H       -0.9740    -1.1730     0.9850 H     1 <1>   0.0800 
 30 H       -2.4630    -0.3470     1.3010 H     1 <1>   0.0800 
 31 H       -2.7380     1.3220    -1.8470 H     1 <1>   0.0800 
 32 H       -2.5720    -0.3230    -2.3850 H     1 <1>   0.0800 
 33 H        2.2600    -0.8680     0.1620 H     1 <1>   0.1500 
 34 H       -2.2730    -2.1970    -1.0240 H     1 <1>   0.0800 
 35 H       -4.3250     0.6550    -0.1670 H     1 <1>   0.0800 
 36 H       -4.8610     0.0140    -1.6690 H     1 <1>   0.0800 
 37 H       -3.3050    -3.1220     1.4890 H     1 <1>   0.4500 
 38 H       -1.0070     4.6090    -1.3740 H     1 <1>   0.1500 
 39 H        3.6750     2.8680     1.5960 H     1 <1>   0.1500 
 40 H        2.4760     4.9340     1.0370 H     1 <1>   0.1500 
 41 H        4.8830     0.8730     2.1420 H     1 <1>   0.0800 
 42 H        4.8100    -0.3430     0.8930 H     1 <1>   0.0800 
 43 H        3.8460    -0.5160     2.3430 H     1 <1>   0.0800 
 44 H       -2.7850    -4.5620    -1.0500 H     1 <1>   0.0800 
 45 H       -3.4350    -5.2930     0.3970 H     1 <1>   0.0800 
 46 H       -0.6670    -3.8060     0.2670 H     1 <1>   0.0800 
 47 H       -1.3970    -4.7300     1.5710 H     1 <1>   0.0800 
 48 H       -0.9550    -3.0600     1.8280 H     1 <1>   0.0800 
 49 H       -5.8620    -2.2490    -1.3600 H     1 <1>   0.0800 
 50 H       -4.3480    -2.5460    -2.1730 H     1 <1>   0.0800 
 51 H        0.5560     5.9970    -0.1410 H     1 <1>   0.1500 
 52 H       -5.1750    -4.6580    -1.2850 H     1 <1>   0.0800 
 53 H       -5.4220    -3.9720     0.2820 H     1 <1>   0.0800 
@<TRIPOS>BOND
  1   1   2  2   
  2   1   3  2   
  3   1   4  am  
  4   1   5  1   
  5   4   6  1   
  6   4   7  1   
  7   5   8  ar  
  8   5   9  ar  
  9   6  10  1   
 10   6  29  1   
 11   6  30  1   
 12   7  11  1   
 13   7  31  1   
 14   7  32  1   
 15   8  12  ar  
 16   8  13  ar  
 17   9  14  ar  
 18   9  33  1   
 19  10  15  1   
 20  10  16  1   
 21  10  34  1   
 22  11  16  1   
 23  11  35  1   
 24  11  36  1   
 25  12  17  ar  
 26  13  18  ar  
 27  13  19  ar  
 28  14  18  ar  
 29  14  20  1   
 30  15  21  1   
 31  15  22  1   
 32  15  37  1   
 33  16  23  1   
 34  16  24  1   
 35  17  25  ar  
 36  17  38  1   
 37  18  39  1   
 38  19  25  ar  
 39  19  40  1   
 40  20  41  1   
 41  20  42  1   
 42  20  43  1   
 43  21  26  1   
 44  21  44  1   
 45  21  45  1   
 46  22  46  1   
 47  22  47  1   
 48  22  48  1   
 49  23  27  ar  
 50  23  28  ar  
 51  24  26  1   
 52  24  49  1   
 53  24  50  1   
 54  25  51  1   
 55  26  52  1   
 56  26  53  1   
@<TRIPOS>SUBSTRUCTURE
  1 ****   4 GROUP 4 **** **** 0

# MOE 2024.06 (io_trps.svl 2023.06)
