@<TRIPOS>MOLECULE
NONAME
53 56 1 0 0 
SMALL
USER_CHARGES


@<TRIPOS>ATOM
  1 O       -2.2090     1.3260    -3.5110 O.2   1 <1>  -0.5700 
  2 C       -2.2410     1.6280    -2.3330 C.2   1 <1>   0.7160 
  3 N       -3.0620     0.9000    -1.4920 N.am  1 <1>  -0.6600 
  4 C       -1.4160     2.7050    -1.8600 C.2   1 <1>  -0.0860 
  5 C       -3.7960    -0.3080    -1.9580 C.3   1 <1>   0.1400 
  6 C       -3.3650     1.2740    -0.0840 C.3   1 <1>   0.1400 
  7 C       -0.4220     2.7180    -0.9150 C.2   1 <1>  -0.2050 
  8 C       -1.4750     4.0210    -2.3130 C.2   1 <1>   0.1390 
  9 C       -3.4350    -1.5120    -1.0600 C.3   1 <1>   0.4230 
 10 C       -2.9830     0.1090     0.8410 C.3   1 <1>  -0.1600 
 11 N        0.0190     3.9930    -0.8600 N.pl3 1 <1>   0.3000 
 12 C        0.1170     1.6390    -0.1350 C.ar  1 <1>   0.0530 
 13 N       -0.6320     4.8010    -1.7130 N.2   1 <1>  -0.7070 
 14 N       -4.0030    -2.8410    -1.5360 N.4   1 <1>  -0.9590 
 15 C       -3.6230    -1.2590     0.4680 C.3   1 <1>   0.0000 
 16 C        0.4810     0.4390    -0.7420 C.ar  1 <1>  -0.1500 
 17 C        0.2820     1.7510     1.2440 C.ar  1 <1>  -0.1500 
 18 C       -3.8960    -3.9380    -0.5210 C.3   1 <1>   0.3430 
 19 C       -5.4120    -2.7490    -2.0410 C.3   1 <1>   0.2630 
 20 C       -2.8510    -2.3770     1.2280 C.3   1 <1>  -0.1600 
 21 C       -5.0990    -1.2890     0.9620 C.3   1 <1>   0.1200 
 22 C        0.9870    -0.6130    -0.0020 C.ar  1 <1>  -0.1500 
 23 C        0.7870     0.7010     1.9890 C.ar  1 <1>  -0.1500 
 24 C       -2.7270    -3.6990     0.4380 C.3   1 <1>  -0.1600 
 25 O       -5.9460    -0.5400     0.1610 O.3   1 <1>  -0.6800 
 26 C        1.1390    -0.4840     1.3680 C.ar  1 <1>  -0.1500 
 27 H       -4.8480    -0.0940    -1.9360 H     1 <1>   0.0800 
 28 H       -3.5250    -0.5400    -2.9720 H     1 <1>   0.0800 
 29 H       -2.8240     2.1580     0.2060 H     1 <1>   0.0800 
 30 H       -4.4150     1.4960     0.0040 H     1 <1>   0.0800 
 31 H       -2.1510     4.3580    -3.0820 H     1 <1>   0.1500 
 32 H       -2.3670    -1.5980    -1.1770 H     1 <1>   0.0800 
 33 H       -1.9140     0.0270     0.8030 H     1 <1>   0.0800 
 34 H       -3.2330     0.3730     1.8540 H     1 <1>   0.0800 
 35 H        0.7830     4.3300    -0.2620 H     1 <1>   0.2700 
 36 H       -3.4120    -3.1130    -2.3340 H     1 <1>   0.4500 
 37 H        0.3730     0.3400    -1.8080 H     1 <1>   0.1500 
 38 H        0.0080     2.6660     1.7390 H     1 <1>   0.1500 
 39 H       -4.8050    -3.9860     0.0560 H     1 <1>   0.0800 
 40 H       -3.7720    -4.8860    -1.0190 H     1 <1>   0.0800 
 41 H       -6.0740    -2.4330    -1.2530 H     1 <1>   0.0800 
 42 H       -5.7430    -3.7090    -2.4040 H     1 <1>   0.0800 
 43 H       -5.4790    -2.0390    -2.8490 H     1 <1>   0.0800 
 44 H       -1.8480    -2.0600     1.4640 H     1 <1>   0.0800 
 45 H       -3.3280    -2.5710     2.1750 H     1 <1>   0.0800 
 46 H       -5.1600    -0.8930     1.9630 H     1 <1>   0.0800 
 47 H       -5.4850    -2.2920     0.9820 H     1 <1>   0.0800 
 48 H        1.2720    -1.5290    -0.4900 H     1 <1>   0.1500 
 49 H        0.9100     0.8050     3.0540 H     1 <1>   0.1500 
 50 H       -2.6650    -4.5190     1.1320 H     1 <1>   0.0800 
 51 H       -1.8110    -3.7000    -0.1280 H     1 <1>   0.0800 
 52 H       -6.7770    -0.3250     0.6380 H     1 <1>   0.4000 
 53 H        1.5390    -1.2990     1.9470 H     1 <1>   0.1500 
@<TRIPOS>BOND
  1   1   2  2   
  2   2   3  am  
  3   2   4  1   
  4   3   5  1   
  5   3   6  1   
  6   4   7  2   
  7   4   8  1   
  8   5   9  1   
  9   5  27  1   
 10   5  28  1   
 11   6  10  1   
 12   6  29  1   
 13   6  30  1   
 14   7  11  1   
 15   7  12  1   
 16   8  13  2   
 17   8  31  1   
 18   9  14  1   
 19   9  15  1   
 20   9  32  1   
 21  10  15  1   
 22  10  33  1   
 23  10  34  1   
 24  11  13  1   
 25  11  35  1   
 26  12  16  ar  
 27  12  17  ar  
 28  14  18  1   
 29  14  19  1   
 30  14  36  1   
 31  15  20  1   
 32  15  21  1   
 33  16  22  ar  
 34  16  37  1   
 35  17  23  ar  
 36  17  38  1   
 37  18  24  1   
 38  18  39  1   
 39  18  40  1   
 40  19  41  1   
 41  19  42  1   
 42  19  43  1   
 43  20  24  1   
 44  20  44  1   
 45  20  45  1   
 46  21  25  1   
 47  21  46  1   
 48  21  47  1   
 49  22  26  ar  
 50  22  48  1   
 51  23  26  ar  
 52  23  49  1   
 53  24  50  1   
 54  24  51  1   
 55  25  52  1   
 56  26  53  1   
@<TRIPOS>SUBSTRUCTURE
  1 ****   3 GROUP 4 **** **** 0

# MOE 2024.06 (io_trps.svl 2023.06)
