@<TRIPOS>MOLECULE
NONAME
33 34 1 0 0 
SMALL
USER_CHARGES


@<TRIPOS>ATOM
  1 S        1.1850     0.9150    -2.5310 S.3   1 <1>  -0.0800 
  2 C        2.3780     1.6260    -1.4620 C.2   1 <1>  -0.1100 
  3 C       -0.1080     1.2900    -1.4090 C.2   1 <1>  -0.1100 
  4 C        1.7960     2.1160    -0.3490 C.2   1 <1>  -0.1810 
  5 C        0.3740     1.9130    -0.3180 C.2   1 <1>  -0.1500 
  6 C        2.5270     2.8080     0.7800 C.3   1 <1>   0.5240 
  7 N        2.6000     4.2590     0.4590 N.4   1 <1>  -0.9590 
  8 C        3.6540     4.9490     1.2600 C.3   1 <1>   0.4810 
  9 C        1.2640     4.9310     0.5820 C.3   1 <1>   0.2630 
 10 C        3.8400     6.3720     0.7430 C.2   1 <1>  -0.0380 
 11 N        4.4310     6.6070    -0.4820 N.pl3 1 <1>  -0.5500 
 12 C        3.4370     7.4630     1.4360 C.2   1 <1>  -0.1360 
 13 C        4.5780     7.8790    -0.9600 C.2   1 <1>   0.4390 
 14 C        3.6060     8.7610     0.8910 C.2   1 <1>   0.7670 
 15 N        4.1900     8.9230    -0.3330 N.2   1 <1>  -0.6610 
 16 C        5.2430     8.0240    -2.3070 C.3   1 <1>  -0.1790 
 17 O        3.2170     9.7390     1.5040 O.2   1 <1>  -0.5700 
 18 H        3.4000     1.5920    -1.8020 H     1 <1>   0.1500 
 19 H       -1.1040     0.9910    -1.6890 H     1 <1>   0.1500 
 20 H       -0.2340     2.2280     0.5130 H     1 <1>   0.1500 
 21 H        3.5210     2.3960     0.8500 H     1 <1>   0.0800 
 22 H        2.0190     2.6420     1.7170 H     1 <1>   0.0800 
 23 H        2.8640     4.3150    -0.5330 H     1 <1>   0.4500 
 24 H        4.5900     4.4200     1.1850 H     1 <1>   0.0800 
 25 H        3.3640     4.9790     2.2980 H     1 <1>   0.0800 
 26 H        0.9030     4.8790     1.5960 H     1 <1>   0.0800 
 27 H        0.5440     4.4560    -0.0660 H     1 <1>   0.0800 
 28 H        1.3360     5.9690     0.2950 H     1 <1>   0.0800 
 29 H        4.8410     5.8690    -1.0620 H     1 <1>   0.4000 
 30 H        2.9730     7.4250     2.4030 H     1 <1>   0.1500 
 31 H        4.6740     7.5110    -3.0600 H     1 <1>   0.0800 
 32 H        6.2400     7.6260    -2.2730 H     1 <1>   0.0800 
 33 H        5.3030     9.0640    -2.5760 H     1 <1>   0.0800 
@<TRIPOS>BOND
  1   1   2  1   
  2   1   3  1   
  3   2   4  2   
  4   2  18  1   
  5   3   5  2   
  6   3  19  1   
  7   4   5  1   
  8   4   6  1   
  9   5  20  1   
 10   6   7  1   
 11   6  21  1   
 12   6  22  1   
 13   7   8  1   
 14   7   9  1   
 15   7  23  1   
 16   8  10  1   
 17   8  24  1   
 18   8  25  1   
 19   9  26  1   
 20   9  27  1   
 21   9  28  1   
 22  10  11  1   
 23  10  12  2   
 24  11  13  1   
 25  11  29  1   
 26  12  14  1   
 27  12  30  1   
 28  13  15  2   
 29  13  16  1   
 30  14  15  1   
 31  14  17  2   
 32  16  31  1   
 33  16  32  1   
 34  16  33  1   
@<TRIPOS>SUBSTRUCTURE
  1 ****   7 GROUP 4 **** **** 0

# MOE 2024.06 (io_trps.svl 2023.06)
