@<TRIPOS>MOLECULE
NONAME
56 58 1 0 0 
SMALL
USER_CHARGES


@<TRIPOS>ATOM
  1 O       -0.8940    -0.7110    -0.7130 O.2   1 <1>  -0.5700 
  2 C       -1.9300    -0.9930    -0.1710 C.2   1 <1>   0.5690 
  3 N       -2.5730    -0.2190     0.7110 N.am  1 <1>  -0.7300 
  4 C       -2.6800    -2.2760    -0.3920 C.3   1 <1>  -0.0990 
  5 C       -3.7920    -0.8350     1.2500 C.3   1 <1>   0.1400 
  6 C       -4.0470    -1.9980     0.2700 C.3   1 <1>  -0.0190 
  7 C       -4.6710    -3.2360     0.9090 C.2   1 <1>   0.5690 
  8 O       -4.5330    -3.3930     2.1000 O.2   1 <1>  -0.5700 
  9 N       -5.3690    -4.1460     0.1540 N.am  1 <1>  -0.6600 
 10 C       -5.9120    -5.3970     0.7760 C.3   1 <1>   0.1400 
 11 C       -5.6900    -4.0100    -1.2960 C.3   1 <1>   0.1400 
 12 C       -7.4220    -5.3040     1.0510 C.3   1 <1>   0.1400 
 13 C       -6.9870    -3.2190    -1.5240 C.3   1 <1>  -0.1600 
 14 N       -8.1940    -4.9340    -0.1780 N.am  1 <1>  -0.6600 
 15 C       -8.1120    -3.4880    -0.5150 C.3   1 <1>   0.1400 
 16 C       -8.9000    -5.7960    -0.9840 C.2   1 <1>   0.5690 
 17 O       -9.4960    -5.3840    -1.9540 O.2   1 <1>  -0.5700 
 18 C       -8.9490    -7.3020    -0.6860 C.3   1 <1>  -0.0190 
 19 C       -9.0850    -8.1600    -1.9610 C.3   1 <1>  -0.1600 
 20 C      -10.0950    -7.6330     0.2870 C.3   1 <1>  -0.1600 
 21 C       -9.1170    -9.6580    -1.6280 C.3   1 <1>  -0.1600 
 22 C      -10.1410    -9.1310     0.6230 C.3   1 <1>  -0.1600 
 23 C      -10.2520    -9.9980    -0.6460 C.3   1 <1>  -0.0800 
 24 C      -10.2240   -11.5050    -0.3250 C.3   1 <1>  -0.1600 
 25 C      -11.4200   -11.9740     0.5130 C.3   1 <1>  -0.2400 
 26 H       -2.1730     0.6510     1.0690 H     1 <1>   0.3700 
 27 H       -2.1570    -3.0700     0.1090 H     1 <1>   0.0800 
 28 H       -2.7680    -2.4920    -1.4400 H     1 <1>   0.0800 
 29 H       -4.6120    -0.1370     1.2590 H     1 <1>   0.0800 
 30 H       -3.5940    -1.1810     2.2520 H     1 <1>   0.0800 
 31 H       -4.7150    -1.6150    -0.4760 H     1 <1>   0.0800 
 32 H       -5.4050    -5.5980     1.7040 H     1 <1>   0.0800 
 33 H       -5.7200    -6.2340     0.1280 H     1 <1>   0.0800 
 34 H       -5.8120    -4.9940    -1.7190 H     1 <1>   0.0800 
 35 H       -4.8770    -3.5430    -1.8220 H     1 <1>   0.0800 
 36 H       -7.5880    -4.5630     1.8140 H     1 <1>   0.0800 
 37 H       -7.7680    -6.2380     1.4510 H     1 <1>   0.0800 
 38 H       -7.3540    -3.4530    -2.5070 H     1 <1>   0.0800 
 39 H       -6.7730    -2.1660    -1.5210 H     1 <1>   0.0800 
 40 H       -9.0520    -3.1550    -0.9240 H     1 <1>   0.0800 
 41 H       -7.9320    -2.9210     0.3820 H     1 <1>   0.0800 
 42 H       -8.0190    -7.5860    -0.2320 H     1 <1>   0.0800 
 43 H       -8.2620    -7.9540    -2.6230 H     1 <1>   0.0800 
 44 H       -9.9930    -7.8940    -2.4770 H     1 <1>   0.0800 
 45 H      -11.0300    -7.3410    -0.1620 H     1 <1>   0.0800 
 46 H       -9.9810    -7.0670     1.1940 H     1 <1>   0.0800 
 47 H       -8.1720    -9.9470    -1.2020 H     1 <1>   0.0800 
 48 H       -9.2510   -10.2150    -2.5400 H     1 <1>   0.0800 
 49 H      -10.9870    -9.3080     1.2640 H     1 <1>   0.0800 
 50 H       -9.2530    -9.4020     1.1670 H     1 <1>   0.0800 
 51 H      -11.1880    -9.7720    -1.1300 H     1 <1>   0.0800 
 52 H       -9.3110   -11.7510     0.1900 H     1 <1>   0.0800 
 53 H      -10.2310   -12.0550    -1.2510 H     1 <1>   0.0800 
 54 H      -11.3890   -11.5530     1.5010 H     1 <1>   0.0800 
 55 H      -11.4000   -13.0450     0.6070 H     1 <1>   0.0800 
 56 H      -12.3440   -11.6910     0.0410 H     1 <1>   0.0800 
@<TRIPOS>BOND
  1   1   2  2   
  2   2   3  am  
  3   2   4  1   
  4   3   5  1   
  5   3  26  1   
  6   4   6  1   
  7   4  27  1   
  8   4  28  1   
  9   5   6  1   
 10   5  29  1   
 11   5  30  1   
 12   6   7  1   
 13   6  31  1   
 14   7   8  2   
 15   7   9  am  
 16   9  10  1   
 17   9  11  1   
 18  10  12  1   
 19  10  32  1   
 20  10  33  1   
 21  11  13  1   
 22  11  34  1   
 23  11  35  1   
 24  12  14  1   
 25  12  36  1   
 26  12  37  1   
 27  13  15  1   
 28  13  38  1   
 29  13  39  1   
 30  14  15  1   
 31  14  16  am  
 32  15  40  1   
 33  15  41  1   
 34  16  17  2   
 35  16  18  1   
 36  18  19  1   
 37  18  20  1   
 38  18  42  1   
 39  19  21  1   
 40  19  43  1   
 41  19  44  1   
 42  20  22  1   
 43  20  45  1   
 44  20  46  1   
 45  21  23  1   
 46  21  47  1   
 47  21  48  1   
 48  22  23  1   
 49  22  49  1   
 50  22  50  1   
 51  23  24  1   
 52  23  51  1   
 53  24  25  1   
 54  24  52  1   
 55  24  53  1   
 56  25  54  1   
 57  25  55  1   
 58  25  56  1   
@<TRIPOS>SUBSTRUCTURE
  1 ****  10 GROUP 4 **** **** 0

# MOE 2024.06 (io_trps.svl 2023.06)
