@<TRIPOS>MOLECULE
NONAME
52 55 1 0 0 
SMALL
USER_CHARGES


@<TRIPOS>ATOM
  1 O       -0.9770     0.0790     0.1250 O.2   1 <1>  -0.5700 
  2 C       -1.6930     0.8900    -0.4380 C.2   1 <1>   0.7150 
  3 N       -2.8670     0.4080    -0.9830 N.am  1 <1>  -0.6600 
  4 C       -1.3090     2.2810    -0.4800 C.2   1 <1>   0.0550 
  5 C       -2.9940    -1.0390    -1.3040 C.3   1 <1>   0.1400 
  6 C       -4.1690     1.0960    -0.7660 C.3   1 <1>   0.1400 
  7 O       -1.9120     3.1230    -1.3050 O.3   1 <1>  -0.0190 
  8 C       -0.3610     2.9350     0.2170 C.2   1 <1>  -0.1500 
  9 C       -3.7000    -1.7590    -0.1320 C.3   1 <1>   0.4230 
 10 C       -4.8920     0.4010     0.3960 C.3   1 <1>  -0.1600 
 11 N       -1.3730     4.3020    -1.1270 N.2   1 <1>  -0.4100 
 12 C       -0.4370     4.2370    -0.2340 C.2   1 <1>   0.2350 
 13 N       -3.7190    -3.2760    -0.2600 N.4   1 <1>  -0.9590 
 14 C       -5.0910    -1.1300     0.1870 C.3   1 <1>   0.0000 
 15 C        0.3780     5.3540     0.2110 C.ar  1 <1>   0.0540 
 16 C       -4.7300    -3.9510     0.6180 C.3   1 <1>   0.3430 
 17 C       -3.8200    -3.8090    -1.6580 C.3   1 <1>   0.2630 
 18 C       -5.6410    -1.7460     1.5070 C.3   1 <1>  -0.1600 
 19 C       -6.0790    -1.3900    -0.9860 C.3   1 <1>   0.1200 
 20 C        1.5990     5.1640     0.8590 C.ar  1 <1>  -0.1500 
 21 C       -0.0360     6.6700     0.0030 C.ar  1 <1>  -0.1500 
 22 C       -5.0240    -3.1130     1.8610 C.3   1 <1>  -0.1600 
 23 O       -7.2540    -0.6720    -0.8350 O.3   1 <1>  -0.6800 
 24 C        2.3650     6.2340     1.2860 C.ar  1 <1>  -0.1500 
 25 C        0.7240     7.7450     0.4260 C.ar  1 <1>  -0.1500 
 26 C        1.9280     7.5280     1.0720 C.ar  1 <1>  -0.1500 
 27 H       -3.5450    -1.1390    -2.2210 H     1 <1>   0.0800 
 28 H       -2.0140    -1.4600    -1.4520 H     1 <1>   0.0800 
 29 H       -4.0220     2.1340    -0.5190 H     1 <1>   0.0800 
 30 H       -4.7600     1.0550    -1.6660 H     1 <1>   0.0800 
 31 H        0.3060     2.5430     0.9610 H     1 <1>   0.1500 
 32 H       -3.0900    -1.5400     0.7300 H     1 <1>   0.0800 
 33 H       -4.3090     0.5760     1.2840 H     1 <1>   0.0800 
 34 H       -5.8380     0.8890     0.5530 H     1 <1>   0.0800 
 35 H       -2.7970    -3.5690     0.1000 H     1 <1>   0.4500 
 36 H       -5.6500    -4.0900     0.0750 H     1 <1>   0.0800 
 37 H       -4.3680    -4.9250     0.9110 H     1 <1>   0.0800 
 38 H       -4.7470    -3.5020    -2.1140 H     1 <1>   0.0800 
 39 H       -3.7840    -4.8870    -1.6500 H     1 <1>   0.0800 
 40 H       -3.0020    -3.4510    -2.2620 H     1 <1>   0.0800 
 41 H       -5.4550    -1.0870     2.3400 H     1 <1>   0.0800 
 42 H       -6.7100    -1.8510     1.4480 H     1 <1>   0.0800 
 43 H       -6.3460    -2.4290    -1.0560 H     1 <1>   0.0800 
 44 H       -5.6610    -1.0830    -1.9280 H     1 <1>   0.0800 
 45 H        1.9650     4.1690     1.0310 H     1 <1>   0.1500 
 46 H       -0.9710     6.8530    -0.4990 H     1 <1>   0.1500 
 47 H       -5.7050    -3.6520     2.4990 H     1 <1>   0.0800 
 48 H       -4.1130    -2.9770     2.4190 H     1 <1>   0.0800 
 49 H       -7.7480    -0.9310    -0.0320 H     1 <1>   0.4000 
 50 H        3.3030     6.0610     1.7850 H     1 <1>   0.1500 
 51 H        0.3800     8.7500     0.2530 H     1 <1>   0.1500 
 52 H        2.5220     8.3630     1.4030 H     1 <1>   0.1500 
@<TRIPOS>BOND
  1   1   2  2   
  2   2   3  am  
  3   2   4  1   
  4   3   5  1   
  5   3   6  1   
  6   4   7  1   
  7   4   8  2   
  8   5   9  1   
  9   5  27  1   
 10   5  28  1   
 11   6  10  1   
 12   6  29  1   
 13   6  30  1   
 14   7  11  1   
 15   8  12  1   
 16   8  31  1   
 17   9  13  1   
 18   9  14  1   
 19   9  32  1   
 20  10  14  1   
 21  10  33  1   
 22  10  34  1   
 23  11  12  2   
 24  12  15  1   
 25  13  16  1   
 26  13  17  1   
 27  13  35  1   
 28  14  18  1   
 29  14  19  1   
 30  15  20  ar  
 31  15  21  ar  
 32  16  22  1   
 33  16  36  1   
 34  16  37  1   
 35  17  38  1   
 36  17  39  1   
 37  17  40  1   
 38  18  22  1   
 39  18  41  1   
 40  18  42  1   
 41  19  23  1   
 42  19  43  1   
 43  19  44  1   
 44  20  24  ar  
 45  20  45  1   
 46  21  25  ar  
 47  21  46  1   
 48  22  47  1   
 49  22  48  1   
 50  23  49  1   
 51  24  26  ar  
 52  24  50  1   
 53  25  26  ar  
 54  25  51  1   
 55  26  52  1   
@<TRIPOS>SUBSTRUCTURE
  1 ****   2 GROUP 4 **** **** 0

# MOE 2024.06 (io_trps.svl 2023.06)
