@<TRIPOS>MOLECULE
NONAME
40 41 1 0 0 
SMALL
USER_CHARGES


@<TRIPOS>ATOM
  1 S       -0.0600    -0.0220     0.8600 S.o2  1 <1>   1.3330 
  2 O        0.3410     0.4470     2.1670 O.2   1 <1>  -0.6500 
  3 O       -0.8480    -1.2270     0.7360 O.2   1 <1>  -0.6500 
  4 N        1.3470    -0.2380    -0.0700 N.am  1 <1>  -0.8490 
  5 C       -0.9100     1.3220     0.0280 C.3   1 <1>  -0.0550 
  6 C        1.1370    -1.0850    -1.2510 C.3   1 <1>   0.1160 
  7 C        2.4590    -0.7700     0.7250 C.3   1 <1>   0.1160 
  8 C       -0.2220     2.6940     0.1710 C.3   1 <1>  -0.0800 
  9 C       -1.0130     3.8090    -0.5010 C.3   1 <1>   0.2000 
 10 C        1.1640     2.7900    -0.4680 C.3   1 <1>   0.2090 
 11 O       -2.0410     4.2260     0.3320 O.3   1 <1>  -0.6800 
 12 C        0.0080     4.9130    -0.7690 C.3   1 <1>   0.2090 
 13 N        1.3150     4.2050    -0.8900 N.pl3 1 <1>  -0.8380 
 14 C        2.5240     4.8800    -0.7250 C.ar  1 <1>   0.4100 
 15 N        2.4540     6.1550    -0.3600 N.ar  1 <1>  -0.6200 
 16 C        3.7570     4.2400    -0.9440 C.ar  1 <1>   0.1600 
 17 C        3.6380     6.7230    -0.2210 C.ar  1 <1>   0.1670 
 18 N        4.9460     4.7950    -0.8030 N.ar  1 <1>  -0.6200 
 19 C        4.8440     6.0630    -0.4330 C.ar  1 <1>   0.1600 
 20 C        3.6210     8.1800     0.1960 C.3   1 <1>  -0.0970 
 21 H       -1.0260     1.0840    -1.0110 H     1 <1>   0.0800 
 22 H       -1.8940     1.4050     0.4480 H     1 <1>   0.0800 
 23 H        2.0320    -1.1140    -1.8490 H     1 <1>   0.0800 
 24 H        0.3380    -0.6920    -1.8550 H     1 <1>   0.0800 
 25 H        0.8830    -2.0900    -0.9540 H     1 <1>   0.0800 
 26 H        3.3360    -0.8870     0.1120 H     1 <1>   0.0800 
 27 H        2.1930    -1.7230     1.1500 H     1 <1>   0.0800 
 28 H        2.6990    -0.0900     1.5260 H     1 <1>   0.0800 
 29 H       -0.1020     2.9270     1.2160 H     1 <1>   0.0800 
 30 H       -1.4410     3.4810    -1.4330 H     1 <1>   0.0800 
 31 H        1.2280     2.1620    -1.3410 H     1 <1>   0.0800 
 32 H        1.9300     2.5040     0.2350 H     1 <1>   0.0800 
 33 H       -1.6770     4.5710     1.1710 H     1 <1>   0.4000 
 34 H        0.0380     5.6030     0.0570 H     1 <1>   0.0800 
 35 H       -0.2150     5.4390    -1.6810 H     1 <1>   0.0800 
 36 H        3.7330     3.2150    -1.2570 H     1 <1>   0.1500 
 37 H        5.7650     6.5990    -0.2950 H     1 <1>   0.1500 
 38 H        4.6170     8.5730     0.2810 H     1 <1>   0.0800 
 39 H        3.1260     8.2740     1.1450 H     1 <1>   0.0800 
 40 H        3.0810     8.7540    -0.5340 H     1 <1>   0.0800 
@<TRIPOS>BOND
  1   1   2  2   
  2   1   3  2   
  3   1   4  am  
  4   1   5  1   
  5   4   6  1   
  6   4   7  1   
  7   5   8  1   
  8   5  21  1   
  9   5  22  1   
 10   6  23  1   
 11   6  24  1   
 12   6  25  1   
 13   7  26  1   
 14   7  27  1   
 15   7  28  1   
 16   8   9  1   
 17   8  10  1   
 18   8  29  1   
 19   9  11  1   
 20   9  12  1   
 21   9  30  1   
 22  10  13  1   
 23  10  31  1   
 24  10  32  1   
 25  11  33  1   
 26  12  13  1   
 27  12  34  1   
 28  12  35  1   
 29  13  14  1   
 30  14  15  ar  
 31  14  16  ar  
 32  15  17  ar  
 33  16  18  ar  
 34  16  36  1   
 35  17  19  ar  
 36  17  20  1   
 37  18  19  ar  
 38  19  37  1   
 39  20  38  1   
 40  20  39  1   
 41  20  40  1   
@<TRIPOS>SUBSTRUCTURE
  1 ****  10 GROUP 4 **** **** 0

# MOE 2024.06 (io_trps.svl 2023.06)
