@<TRIPOS>MOLECULE
NONAME
57 59 1 0 0 
SMALL
USER_CHARGES


@<TRIPOS>ATOM
  1 O        1.5990     0.7890     2.2710 O.co2 1 <1>  -0.9000 
  2 C        1.4640     0.2250     1.1790 C.2   1 <1>   0.9060 
  3 O        1.1310    -0.9670     1.0990 O.co2 1 <1>  -0.9000 
  4 C        1.8150     0.9540    -0.1200 C.3   1 <1>  -0.1060 
  5 C        3.1100     0.2360    -0.5760 C.3   1 <1>   0.2000 
  6 C        2.1030     2.4730     0.0910 C.3   1 <1>  -0.1600 
  7 C        0.6560     0.8090    -1.1520 C.3   1 <1>  -0.0160 
  8 O        2.8000    -0.9480    -1.2280 O.3   1 <1>  -0.6800 
  9 C        4.0190     1.1200    -1.4390 C.3   1 <1>   0.1400 
 10 C        3.5590     2.7480     0.4650 C.3   1 <1>   0.1400 
 11 C       -0.5570     1.6970    -0.8750 C.ar  1 <1>  -0.1440 
 12 N        4.4550     2.3390    -0.6690 N.am  1 <1>  -0.6600 
 13 C       -0.8450     2.7740    -1.7000 C.ar  1 <1>  -0.1500 
 14 C       -1.3880     1.4310     0.2030 C.ar  1 <1>  -0.1500 
 15 C        5.6060     2.9930    -1.0320 C.2   1 <1>   0.5690 
 16 C       -1.9440     3.5770    -1.4500 C.ar  1 <1>  -0.1500 
 17 C       -2.4860     2.2340     0.4560 C.ar  1 <1>  -0.1500 
 18 O        6.2040     2.6900    -2.0410 O.2   1 <1>  -0.5700 
 19 C        6.1700     4.1390    -0.1770 C.3   1 <1>  -0.0190 
 20 C       -2.7660     3.3080    -0.3700 C.ar  1 <1>  -0.1500 
 21 C        5.6440     5.5010    -0.6660 C.3   1 <1>  -0.1600 
 22 C        7.7120     4.1560    -0.1490 C.3   1 <1>  -0.1600 
 23 C        6.1740     6.6520     0.2000 C.3   1 <1>  -0.1600 
 24 C        8.2500     5.3040     0.7170 C.3   1 <1>  -0.1600 
 25 C        7.7120     6.6700     0.2480 C.3   1 <1>  -0.0800 
 26 C        8.1880     7.8240     1.1510 C.3   1 <1>  -0.1600 
 27 C        9.7070     8.0340     1.1250 C.3   1 <1>  -0.2400 
 28 H        3.6850    -0.0460     0.2910 H     1 <1>   0.0800 
 29 H        1.4540     2.8620     0.8560 H     1 <1>   0.0800 
 30 H        1.8940     3.0250    -0.8080 H     1 <1>   0.0800 
 31 H        1.0350     1.0360    -2.1310 H     1 <1>   0.0800 
 32 H        0.3160    -0.2120    -1.1860 H     1 <1>   0.0800 
 33 H        2.1870    -1.4320    -0.6150 H     1 <1>   0.4000 
 34 H        3.4900     1.4340    -2.3200 H     1 <1>   0.0800 
 35 H        4.8850     0.5540    -1.7340 H     1 <1>   0.0800 
 36 H        3.8150     2.1930     1.3530 H     1 <1>   0.0800 
 37 H        3.6640     3.7960     0.6750 H     1 <1>   0.0800 
 38 H       -0.2100     2.9910    -2.5410 H     1 <1>   0.1500 
 39 H       -1.1760     0.5970     0.8530 H     1 <1>   0.1500 
 40 H       -2.1580     4.4100    -2.0940 H     1 <1>   0.1500 
 41 H       -3.1160     2.0170     1.3000 H     1 <1>   0.1500 
 42 H        5.8520     3.9910     0.8380 H     1 <1>   0.0800 
 43 H       -3.6200     3.9300    -0.1710 H     1 <1>   0.1500 
 44 H        5.9510     5.6490    -1.6880 H     1 <1>   0.0800 
 45 H        4.5680     5.5040    -0.6470 H     1 <1>   0.0800 
 46 H        8.0720     3.2160     0.2320 H     1 <1>   0.0800 
 47 H        8.0870     4.2660    -1.1520 H     1 <1>   0.0800 
 48 H        5.7840     6.5500     1.1980 H     1 <1>   0.0800 
 49 H        5.8150     7.5850    -0.2000 H     1 <1>   0.0800 
 50 H        9.3240     5.2920     0.6630 H     1 <1>   0.0800 
 51 H        7.9690     5.1390     1.7430 H     1 <1>   0.0800 
 52 H        8.0740     6.8510    -0.7510 H     1 <1>   0.0800 
 53 H        7.7210     8.7360     0.8210 H     1 <1>   0.0800 
 54 H        7.8710     7.6470     2.1650 H     1 <1>   0.0800 
 55 H       10.0520     8.1600     0.1140 H     1 <1>   0.0800 
 56 H       10.2200     7.1990     1.5680 H     1 <1>   0.0800 
 57 H        9.9620     8.9160     1.6850 H     1 <1>   0.0800 
@<TRIPOS>BOND
  1   1   2  ar  
  2   2   3  ar  
  3   2   4  1   
  4   4   5  1   
  5   4   6  1   
  6   4   7  1   
  7   5   8  1   
  8   5   9  1   
  9   5  28  1   
 10   6  10  1   
 11   6  29  1   
 12   6  30  1   
 13   7  11  1   
 14   7  31  1   
 15   7  32  1   
 16   8  33  1   
 17   9  12  1   
 18   9  34  1   
 19   9  35  1   
 20  10  12  1   
 21  10  36  1   
 22  10  37  1   
 23  11  13  ar  
 24  11  14  ar  
 25  12  15  am  
 26  13  16  ar  
 27  13  38  1   
 28  14  17  ar  
 29  14  39  1   
 30  15  18  2   
 31  15  19  1   
 32  16  20  ar  
 33  16  40  1   
 34  17  20  ar  
 35  17  41  1   
 36  19  21  1   
 37  19  22  1   
 38  19  42  1   
 39  20  43  1   
 40  21  23  1   
 41  21  44  1   
 42  21  45  1   
 43  22  24  1   
 44  22  46  1   
 45  22  47  1   
 46  23  25  1   
 47  23  48  1   
 48  23  49  1   
 49  24  25  1   
 50  24  50  1   
 51  24  51  1   
 52  25  26  1   
 53  25  52  1   
 54  26  27  1   
 55  26  53  1   
 56  26  54  1   
 57  27  55  1   
 58  27  56  1   
 59  27  57  1   
@<TRIPOS>SUBSTRUCTURE
  1 ****  10 GROUP 4 **** **** 0

# MOE 2024.06 (io_trps.svl 2023.06)
