@<TRIPOS>MOLECULE
NONAME
49 51 1 0 0 
SMALL
USER_CHARGES


@<TRIPOS>ATOM
  1 O       -1.4670     1.0080     0.6020 O.2   1 <1>  -0.5700 
  2 C       -1.4510     0.9850    -0.6110 C.2   1 <1>   0.7800 
  3 O       -2.1250     0.0640    -1.2980 O.3   1 <1>  -0.4300 
  4 N       -0.7970     1.8810    -1.3810 N.am  1 <1>  -0.7300 
  5 C       -2.7600    -1.0810    -0.7750 C.3   1 <1>   0.2800 
  6 C        0.5580     2.4770    -1.0510 C.3   1 <1>   0.1140 
  7 C       -3.2830    -1.8380    -1.9960 C.3   1 <1>  -0.2400 
  8 C       -1.7410    -1.9580    -0.0360 C.3   1 <1>  -0.2400 
  9 C       -3.9430    -0.6770     0.1130 C.3   1 <1>  -0.2400 
 10 C        1.5890     1.4290    -0.5450 C.2   1 <1>   0.9060 
 11 C        0.4640     3.8640    -0.3300 C.3   1 <1>   0.0000 
 12 O        1.8350     0.4810    -1.3070 O.co2 1 <1>  -0.9000 
 13 O        2.1980     1.5500     0.5270 O.co2 1 <1>  -0.9000 
 14 C       -0.5360     4.7860    -1.0800 C.3   1 <1>  -0.1600 
 15 C       -0.0010     3.7730     1.1470 C.3   1 <1>  -0.1600 
 16 C        1.8490     4.5680    -0.3580 C.3   1 <1>  -0.1600 
 17 C       -0.5920     6.1710    -0.4200 C.3   1 <1>   0.2800 
 18 C       -0.0580     5.1650     1.8080 C.3   1 <1>  -0.0800 
 19 C        1.7950     5.9640     0.2910 C.3   1 <1>  -0.0800 
 20 O       -1.4910     6.9520    -1.1070 O.3   1 <1>  -0.6800 
 21 C       -1.0590     6.0440     1.0360 C.3   1 <1>  -0.1600 
 22 C        0.7860     6.8390    -0.4750 C.3   1 <1>  -0.1600 
 23 C        1.3380     5.8120     1.7540 C.3   1 <1>  -0.1600 
 24 H       -0.8280     1.6000    -2.3580 H     1 <1>   0.3700 
 25 H        0.9700     2.7210    -2.0120 H     1 <1>   0.0800 
 26 H       -2.4660    -2.1090    -2.6400 H     1 <1>   0.0800 
 27 H       -3.9760    -1.2270    -2.5450 H     1 <1>   0.0800 
 28 H       -3.7870    -2.7370    -1.6920 H     1 <1>   0.0800 
 29 H       -0.8850    -2.1410    -0.6620 H     1 <1>   0.0800 
 30 H       -2.1830    -2.9000     0.2280 H     1 <1>   0.0800 
 31 H       -1.4090    -1.4860     0.8700 H     1 <1>   0.0800 
 32 H       -4.5910    -0.0010    -0.4130 H     1 <1>   0.0800 
 33 H       -3.6030    -0.2080     1.0180 H     1 <1>   0.0800 
 34 H       -4.5070    -1.5480     0.3920 H     1 <1>   0.0800 
 35 H       -1.5160     4.3480    -1.0560 H     1 <1>   0.0800 
 36 H       -0.2310     4.8870    -2.1060 H     1 <1>   0.0800 
 37 H        0.6650     3.1380     1.7050 H     1 <1>   0.0800 
 38 H       -0.9770     3.3320     1.1950 H     1 <1>   0.0800 
 39 H        2.1940     4.6580    -1.3730 H     1 <1>   0.0800 
 40 H        2.5740     3.9750     0.1720 H     1 <1>   0.0800 
 41 H       -0.3730     5.0620     2.8320 H     1 <1>   0.0800 
 42 H        2.7710     6.4160     0.2590 H     1 <1>   0.0800 
 43 H       -2.3510     6.4960    -1.1150 H     1 <1>   0.4000 
 44 H       -2.0340     5.5920     1.0760 H     1 <1>   0.0800 
 45 H       -1.1110     7.0180     1.4900 H     1 <1>   0.0800 
 46 H        0.7370     7.8150    -0.0280 H     1 <1>   0.0800 
 47 H        1.1000     6.9450    -1.4980 H     1 <1>   0.0800 
 48 H        2.0400     5.1950     2.2880 H     1 <1>   0.0800 
 49 H        1.3140     6.7750     2.2320 H     1 <1>   0.0800 
@<TRIPOS>BOND
  1   1   2  2   
  2   2   3  1   
  3   2   4  am  
  4   3   5  1   
  5   4   6  1   
  6   4  24  1   
  7   5   7  1   
  8   5   8  1   
  9   5   9  1   
 10   6  10  1   
 11   6  11  1   
 12   6  25  1   
 13   7  26  1   
 14   7  27  1   
 15   7  28  1   
 16   8  29  1   
 17   8  30  1   
 18   8  31  1   
 19   9  32  1   
 20   9  33  1   
 21   9  34  1   
 22  10  12  ar  
 23  10  13  ar  
 24  11  14  1   
 25  11  15  1   
 26  11  16  1   
 27  14  17  1   
 28  14  35  1   
 29  14  36  1   
 30  15  18  1   
 31  15  37  1   
 32  15  38  1   
 33  16  19  1   
 34  16  39  1   
 35  16  40  1   
 36  17  20  1   
 37  17  21  1   
 38  17  22  1   
 39  18  21  1   
 40  18  23  1   
 41  18  41  1   
 42  19  22  1   
 43  19  23  1   
 44  19  42  1   
 45  20  43  1   
 46  21  44  1   
 47  21  45  1   
 48  22  46  1   
 49  22  47  1   
 50  23  48  1   
 51  23  49  1   
@<TRIPOS>SUBSTRUCTURE
  1 ****   6 GROUP 4 **** **** 0

# MOE 2024.06 (io_trps.svl 2023.06)
