@<TRIPOS>MOLECULE
NONAME
53 55 1 0 0 
SMALL
USER_CHARGES


@<TRIPOS>ATOM
  1 S        0.5970    -0.0620     1.1480 S.3   1 <1>  -0.3320 
  2 C        1.8630     0.9860     0.4150 C.ar  1 <1>   0.1020 
  3 C        0.8820    -1.7830     0.5370 C.3   1 <1>  -0.0100 
  4 C        1.8360     2.3190     0.7390 C.ar  1 <1>  -0.1500 
  5 C        2.8330     0.4750    -0.4450 C.ar  1 <1>  -0.1500 
  6 C        2.7860     3.2110     0.2140 C.ar  1 <1>   0.0000 
  7 C        3.7740     1.3270    -0.9730 C.ar  1 <1>  -0.1500 
  8 C        3.7650     2.6920    -0.6560 C.ar  1 <1>   0.3610 
  9 C        2.8230     4.6100     0.5040 C.ar  1 <1>  -0.1440 
 10 N        4.7130     3.5510    -1.1880 N.ar  1 <1>  -0.1790 
 11 C        3.7860     5.3910    -0.0580 C.ar  1 <1>  -0.1500 
 12 C        1.7840     5.2170     1.4400 C.3   1 <1>  -0.0970 
 13 C        4.7680     4.8640    -0.9350 C.ar  1 <1>   0.4610 
 14 N        5.7340     5.6120    -1.5100 N.pl3 1 <1>  -0.8690 
 15 C        5.8930     7.1050    -1.4800 C.3   1 <1>   0.2090 
 16 C        6.9430     7.5570    -0.4360 C.3   1 <1>   0.3430 
 17 N        7.2730     9.0240    -0.5010 N.4   1 <1>  -0.9590 
 18 C        8.4690     9.3320     0.3630 C.3   1 <1>   0.3430 
 19 C        6.1280     9.9170    -0.1500 C.3   1 <1>   0.3430 
 20 C        8.6490    10.8400     0.6310 C.3   1 <1>  -0.0800 
 21 C        6.4680    11.3540    -0.5610 C.3   1 <1>  -0.1600 
 22 C        7.9660    11.7010    -0.4500 C.3   1 <1>  -0.1600 
 23 C       10.1430    11.1620     0.7840 C.3   1 <1>   0.1200 
 24 O       10.2830    12.4530     1.2530 O.3   1 <1>  -0.6800 
 25 H        0.1250    -2.4100     0.9750 H     1 <1>   0.0800 
 26 H        1.8610    -2.0940     0.8550 H     1 <1>   0.0800 
 27 H        0.7950    -1.7770    -0.5340 H     1 <1>   0.0800 
 28 H        1.0680     2.6660     1.4070 H     1 <1>   0.1500 
 29 H        2.8460    -0.5700    -0.6940 H     1 <1>   0.1500 
 30 H        4.5210     0.9290    -1.6370 H     1 <1>   0.1500 
 31 H        5.3940     3.1450    -1.8220 H     1 <1>   0.4570 
 32 H        3.8110     6.4390     0.1650 H     1 <1>   0.1500 
 33 H        1.8420     4.7570     2.4120 H     1 <1>   0.0800 
 34 H        0.7940     5.0670     1.0450 H     1 <1>   0.0800 
 35 H        1.9350     6.2750     1.5630 H     1 <1>   0.0800 
 36 H        6.4270     5.1760    -2.1350 H     1 <1>   0.4000 
 37 H        4.9450     7.5690    -1.2730 H     1 <1>   0.0800 
 38 H        6.2070     7.4280    -2.4590 H     1 <1>   0.0800 
 39 H        7.8450     6.9920    -0.6060 H     1 <1>   0.0800 
 40 H        6.5810     7.3160     0.5510 H     1 <1>   0.0800 
 41 H        7.5460     9.2760    -1.4620 H     1 <1>   0.4500 
 42 H        9.3550     8.9550    -0.1230 H     1 <1>   0.0800 
 43 H        8.3790     8.8290     1.3130 H     1 <1>   0.0800 
 44 H        5.9580     9.8800     0.9150 H     1 <1>   0.0800 
 45 H        5.2240     9.6100    -0.6490 H     1 <1>   0.0800 
 46 H        8.1850    11.0500     1.5810 H     1 <1>   0.0800 
 47 H        5.9040    12.0180     0.0720 H     1 <1>   0.0800 
 48 H        6.1340    11.5330    -1.5690 H     1 <1>   0.0800 
 49 H        8.4470    11.5320    -1.3990 H     1 <1>   0.0800 
 50 H        8.0660    12.7490    -0.2200 H     1 <1>   0.0800 
 51 H       10.6760    11.0790    -0.1490 H     1 <1>   0.0800 
 52 H       10.6010    10.5130     1.5120 H     1 <1>   0.0800 
 53 H       10.1080    13.1160     0.5550 H     1 <1>   0.4000 
@<TRIPOS>BOND
  1   1   2  1   
  2   1   3  1   
  3   2   4  ar  
  4   2   5  ar  
  5   3  25  1   
  6   3  26  1   
  7   3  27  1   
  8   4   6  ar  
  9   4  28  1   
 10   5   7  ar  
 11   5  29  1   
 12   6   8  ar  
 13   6   9  ar  
 14   7   8  ar  
 15   7  30  1   
 16   8  10  ar  
 17   9  11  ar  
 18   9  12  1   
 19  10  13  ar  
 20  10  31  1   
 21  11  13  ar  
 22  11  32  1   
 23  12  33  1   
 24  12  34  1   
 25  12  35  1   
 26  13  14  1   
 27  14  15  1   
 28  14  36  1   
 29  15  16  1   
 30  15  37  1   
 31  15  38  1   
 32  16  17  1   
 33  16  39  1   
 34  16  40  1   
 35  17  18  1   
 36  17  19  1   
 37  17  41  1   
 38  18  20  1   
 39  18  42  1   
 40  18  43  1   
 41  19  21  1   
 42  19  44  1   
 43  19  45  1   
 44  20  22  1   
 45  20  23  1   
 46  20  46  1   
 47  21  22  1   
 48  21  47  1   
 49  21  48  1   
 50  22  49  1   
 51  22  50  1   
 52  23  24  1   
 53  23  51  1   
 54  23  52  1   
 55  24  53  1   
@<TRIPOS>SUBSTRUCTURE
  1 ****  11 GROUP 4 **** **** 0

# MOE 2024.06 (io_trps.svl 2023.06)
