@<TRIPOS>MOLECULE
NONAME
43 45 1 0 0 
SMALL
USER_CHARGES


@<TRIPOS>ATOM
  1 CL       0.5310     2.2500    -1.0630 Cl    1 <1>  -0.1770 
  2 C       -1.1120     2.2890    -0.4650 C.ar  1 <1>   0.1770 
  3 C       -1.3860     2.7690     0.8120 C.ar  1 <1>  -0.1440 
  4 C       -2.1140     1.8430    -1.3070 C.ar  1 <1>  -0.1500 
  5 C       -2.7070     2.7940     1.2400 C.ar  1 <1>  -0.1500 
  6 C       -0.2860     3.2720     1.7460 C.3   1 <1>   0.0450 
  7 C       -3.4260     1.8770    -0.8720 C.ar  1 <1>   0.0830 
  8 C       -3.7220     2.3460     0.4100 C.ar  1 <1>   0.0830 
  9 C        0.0110     4.7490     1.5490 C.2   1 <1>   0.5690 
 10 O       -4.4050     1.4570    -1.7110 O.3   1 <1>  -0.3630 
 11 O       -4.9980     2.3710     0.8690 O.3   1 <1>  -0.3630 
 12 O        0.0960     5.4640     2.5180 O.2   1 <1>  -0.5700 
 13 N        0.1950     5.2310     0.2920 N.am  1 <1>  -0.7300 
 14 C       -5.7360     1.7950    -1.3650 C.3   1 <1>   0.1200 
 15 C       -5.9550     1.6200     0.1440 C.3   1 <1>   0.1200 
 16 C        0.4200     6.6580    -0.0360 C.3   1 <1>   0.1400 
 17 C        1.9040     7.0050     0.1080 C.3   1 <1>   0.1400 
 18 N        2.1130     8.4640    -0.0940 N.am  1 <1>  -0.6600 
 19 C        2.1920     8.9940    -1.3580 C.2   1 <1>   0.7800 
 20 C        2.1730     9.2920     1.1340 C.3   1 <1>   0.1400 
 21 O        2.1180     8.3060    -2.3550 O.2   1 <1>  -0.5700 
 22 O        2.3280    10.3110    -1.5170 O.3   1 <1>  -0.4300 
 23 C        2.7710    10.6590     0.8120 C.3   1 <1>  -0.1600 
 24 C        2.1360    11.2210    -0.4580 C.3   1 <1>   0.1200 
 25 H       -1.8810     1.4780    -2.2900 H     1 <1>   0.1500 
 26 H       -2.9650     3.1610     2.2180 H     1 <1>   0.1500 
 27 H        0.6210     2.7170     1.6020 H     1 <1>   0.0800 
 28 H       -0.5880     3.1210     2.7660 H     1 <1>   0.0800 
 29 H        0.1510     4.5890    -0.5050 H     1 <1>   0.3700 
 30 H       -6.3960     1.1570    -1.9240 H     1 <1>   0.0800 
 31 H       -5.9060     2.8170    -1.6510 H     1 <1>   0.0800 
 32 H       -6.9320     1.9630     0.4310 H     1 <1>   0.0800 
 33 H       -5.8480     0.5860     0.4210 H     1 <1>   0.0800 
 34 H       -0.1560     7.2670     0.6400 H     1 <1>   0.0800 
 35 H        0.0950     6.8500    -1.0440 H     1 <1>   0.0800 
 36 H        2.4710     6.4580    -0.6270 H     1 <1>   0.0800 
 37 H        2.2480     6.7210     1.0870 H     1 <1>   0.0800 
 38 H        2.7750     8.8000     1.8800 H     1 <1>   0.0800 
 39 H        1.1750     9.4070     1.5220 H     1 <1>   0.0800 
 40 H        3.8340    10.5700     0.6740 H     1 <1>   0.0800 
 41 H        2.6020    11.3300     1.6350 H     1 <1>   0.0800 
 42 H        1.0770    11.3610    -0.3310 H     1 <1>   0.0800 
 43 H        2.5890    12.1550    -0.7380 H     1 <1>   0.0800 
@<TRIPOS>BOND
  1   1   2  1   
  2   2   3  ar  
  3   2   4  ar  
  4   3   5  ar  
  5   3   6  1   
  6   4   7  ar  
  7   4  25  1   
  8   5   8  ar  
  9   5  26  1   
 10   6   9  1   
 11   6  27  1   
 12   6  28  1   
 13   7   8  ar  
 14   7  10  1   
 15   8  11  1   
 16   9  12  2   
 17   9  13  am  
 18  10  14  1   
 19  11  15  1   
 20  13  16  1   
 21  13  29  1   
 22  14  15  1   
 23  14  30  1   
 24  14  31  1   
 25  15  32  1   
 26  15  33  1   
 27  16  17  1   
 28  16  34  1   
 29  16  35  1   
 30  17  18  1   
 31  17  36  1   
 32  17  37  1   
 33  18  19  am  
 34  18  20  1   
 35  19  21  2   
 36  19  22  1   
 37  20  23  1   
 38  20  38  1   
 39  20  39  1   
 40  22  24  1   
 41  23  24  1   
 42  23  40  1   
 43  23  41  1   
 44  24  42  1   
 45  24  43  1   
@<TRIPOS>SUBSTRUCTURE
  1 ****  13 GROUP 4 **** **** 0

# MOE 2024.06 (io_trps.svl 2023.06)
