@<TRIPOS>MOLECULE
NONAME
51 53 1 0 0 
SMALL
USER_CHARGES


@<TRIPOS>ATOM
  1 S       -0.7360    -0.0400    -0.9870 S.3   1 <1>  -0.0800 
  2 C       -0.4960     1.0740     0.3510 C.2   1 <1>  -0.1400 
  3 C       -0.8520    -1.4100     0.1050 C.2   1 <1>  -0.1400 
  4 C       -0.5120     0.4030     1.5190 C.2   1 <1>  -0.1500 
  5 C       -0.3200     2.5470     0.0000 C.3   1 <1>   0.1000 
  6 C       -0.7110    -1.0070     1.3820 C.2   1 <1>  -0.1500 
  7 C       -1.0760    -2.7660    -0.5270 C.3   1 <1>   0.5230 
  8 C        1.0400     2.7800    -0.6800 C.3   1 <1>  -0.1600 
  9 C       -0.4550     3.4420     1.2440 C.3   1 <1>  -0.1600 
 10 N       -2.4820    -3.1990    -0.3160 N.4   1 <1>  -0.9590 
 11 C        1.2560     4.2610    -1.0250 C.3   1 <1>  -0.1600 
 12 C       -0.2530     4.9250     0.8980 C.3   1 <1>  -0.1600 
 13 C       -2.7050    -4.5930    -0.7660 C.3   1 <1>   0.5230 
 14 C       -3.4910    -2.2190    -0.8360 C.3   1 <1>   0.3430 
 15 C        1.1020     5.1510     0.2160 C.3   1 <1>  -0.1600 
 16 C       -4.1210    -4.9980    -0.4440 C.2   1 <1>  -0.3320 
 17 C       -4.5430    -1.9110     0.2530 C.3   1 <1>   0.1200 
 18 N       -4.5840    -5.3610     0.7730 N.pl3 1 <1>   0.0480 
 19 C       -5.1700    -5.0710    -1.2940 C.2   1 <1>   0.0770 
 20 O       -3.9990    -2.0980     1.5320 O.3   1 <1>  -0.6800 
 21 C       -5.8980    -5.6060     0.5730 C.2   1 <1>   0.0360 
 22 C       -3.8580    -5.5150     2.0500 C.3   1 <1>   0.0160 
 23 N       -6.2860    -5.4350    -0.6480 N.2   1 <1>  -0.5650 
 24 H       -0.3870     0.8440     2.4930 H     1 <1>   0.1500 
 25 H       -1.0990     2.8200    -0.6910 H     1 <1>   0.0800 
 26 H       -0.7380    -1.6330     2.2580 H     1 <1>   0.1500 
 27 H       -0.4050    -3.4740    -0.0710 H     1 <1>   0.0800 
 28 H       -0.8520    -2.7130    -1.5800 H     1 <1>   0.0800 
 29 H        1.1010     2.1970    -1.5820 H     1 <1>   0.0800 
 30 H        1.8250     2.4500    -0.0210 H     1 <1>   0.0800 
 31 H        0.2810     3.1530     1.9740 H     1 <1>   0.0800 
 32 H       -1.4290     3.3070     1.6800 H     1 <1>   0.0800 
 33 H       -2.6670    -3.1440     0.7010 H     1 <1>   0.4500 
 34 H        0.5390     4.5630    -1.7690 H     1 <1>   0.0800 
 35 H        2.2390     4.3940    -1.4430 H     1 <1>   0.0800 
 36 H       -0.3060     5.5150     1.7970 H     1 <1>   0.0800 
 37 H       -1.0420     5.2510     0.2420 H     1 <1>   0.0800 
 38 H       -2.0160    -5.2640    -0.2780 H     1 <1>   0.0800 
 39 H       -2.5500    -4.6600    -1.8310 H     1 <1>   0.0800 
 40 H       -3.9780    -2.5930    -1.7220 H     1 <1>   0.0800 
 41 H       -3.0090    -1.2930    -1.0980 H     1 <1>   0.0800 
 42 H        1.1960     6.1850    -0.0680 H     1 <1>   0.0800 
 43 H        1.8930     4.9290     0.9130 H     1 <1>   0.0800 
 44 H       -5.3940    -2.5640     0.1500 H     1 <1>   0.0800 
 45 H       -4.8780    -0.8910     0.1640 H     1 <1>   0.0800 
 46 H       -5.1970    -4.8760    -2.3540 H     1 <1>   0.1500 
 47 H       -4.6080    -1.7340     2.2130 H     1 <1>   0.4000 
 48 H       -6.5510    -5.9200     1.3700 H     1 <1>   0.1500 
 49 H       -3.0440    -6.2040     1.9210 H     1 <1>   0.0800 
 50 H       -4.5270    -5.9010     2.7990 H     1 <1>   0.0800 
 51 H       -3.4840    -4.5620     2.3730 H     1 <1>   0.0800 
@<TRIPOS>BOND
  1   1   2  1   
  2   1   3  1   
  3   2   4  2   
  4   2   5  1   
  5   3   6  2   
  6   3   7  1   
  7   4   6  1   
  8   4  24  1   
  9   5   8  1   
 10   5   9  1   
 11   5  25  1   
 12   6  26  1   
 13   7  10  1   
 14   7  27  1   
 15   7  28  1   
 16   8  11  1   
 17   8  29  1   
 18   8  30  1   
 19   9  12  1   
 20   9  31  1   
 21   9  32  1   
 22  10  13  1   
 23  10  14  1   
 24  10  33  1   
 25  11  15  1   
 26  11  34  1   
 27  11  35  1   
 28  12  15  1   
 29  12  36  1   
 30  12  37  1   
 31  13  16  1   
 32  13  38  1   
 33  13  39  1   
 34  14  17  1   
 35  14  40  1   
 36  14  41  1   
 37  15  42  1   
 38  15  43  1   
 39  16  18  1   
 40  16  19  2   
 41  17  20  1   
 42  17  44  1   
 43  17  45  1   
 44  18  21  1   
 45  18  22  1   
 46  19  23  1   
 47  19  46  1   
 48  20  47  1   
 49  21  23  2   
 50  21  48  1   
 51  22  49  1   
 52  22  50  1   
 53  22  51  1   
@<TRIPOS>SUBSTRUCTURE
  1 ****   3 GROUP 4 **** **** 0

# MOE 2024.06 (io_trps.svl 2023.06)
