@<TRIPOS>MOLECULE
NONAME
48 50 1 0 0 
SMALL
USER_CHARGES


@<TRIPOS>ATOM
  1 O       -1.1060    -0.5270     0.5530 O.3   1 <1>  -0.0190 
  2 N       -2.0820    -1.2950     0.1400 N.2   1 <1>  -0.4100 
  3 C       -1.4210     0.6570     0.0870 C.2   1 <1>   0.2980 
  4 C       -2.8800    -0.5480    -0.5240 C.2   1 <1>   0.5990 
  5 N       -2.5030     0.7170    -0.5740 N.2   1 <1>  -0.5650 
  6 C       -0.4970     1.8270     0.3730 C.3   1 <1>   0.0200 
  7 N       -4.0630    -0.9710    -1.1340 N.pl3 1 <1>  -0.8210 
  8 C        0.8560     1.6660    -0.3360 C.3   1 <1>  -0.1600 
  9 C       -4.2980    -2.4360    -1.1820 C.3   1 <1>   0.2090 
 10 C       -5.2870    -0.1940    -0.7730 C.3   1 <1>   0.2090 
 11 C        1.7820     2.8560    -0.0590 C.3   1 <1>  -0.2400 
 12 C       -4.9950    -2.7960     0.1420 C.3   1 <1>   0.4230 
 13 C       -6.0550    -0.8510     0.4050 C.3   1 <1>  -0.1600 
 14 N       -4.6390    -4.1160     0.7870 N.4   1 <1>  -0.9590 
 15 C       -6.5340    -2.3660     0.0820 C.3   1 <1>   0.0000 
 16 C       -4.9100    -5.2810    -0.0660 C.3   1 <1>   0.3430 
 17 C       -3.2280    -4.1110     1.2890 C.3   1 <1>   0.2630 
 18 C       -7.0400    -3.8500    -0.3140 C.3   1 <1>  -0.1600 
 19 C       -8.0630    -1.8820     0.1070 C.3   1 <1>   0.1200 
 20 C       -6.1430    -4.9750    -0.8910 C.3   1 <1>  -0.1600 
 21 O       -8.4450    -1.7580     1.4410 O.3   1 <1>  -0.6800 
 22 H       -0.9730     2.7310     0.0380 H     1 <1>   0.0800 
 23 H       -0.3490     1.9000     1.4350 H     1 <1>   0.0800 
 24 H        1.3340     0.7610    -0.0030 H     1 <1>   0.0800 
 25 H        0.6920     1.5830    -1.3980 H     1 <1>   0.0800 
 26 H       -4.9250    -2.6600    -2.0270 H     1 <1>   0.0800 
 27 H       -3.3650    -2.9580    -1.2940 H     1 <1>   0.0800 
 28 H       -5.0230     0.8170    -0.5100 H     1 <1>   0.0800 
 29 H       -5.9270    -0.1380    -1.6380 H     1 <1>   0.0800 
 30 H        1.9790     2.9460     0.9950 H     1 <1>   0.0800 
 31 H        1.3370     3.7710    -0.4100 H     1 <1>   0.0800 
 32 H        2.7190     2.7170    -0.5700 H     1 <1>   0.0800 
 33 H       -4.4850    -2.1410     0.8210 H     1 <1>   0.0800 
 34 H       -5.4720    -0.7760     1.3100 H     1 <1>   0.0800 
 35 H       -6.8020    -0.1110     0.6430 H     1 <1>   0.0800 
 36 H       -5.2710    -4.1830     1.5990 H     1 <1>   0.4500 
 37 H       -4.0760    -5.4780    -0.7200 H     1 <1>   0.0800 
 38 H       -5.0800    -6.1500     0.5490 H     1 <1>   0.0800 
 39 H       -2.5350    -4.0250     0.4670 H     1 <1>   0.0800 
 40 H       -3.0160    -5.0210     1.8270 H     1 <1>   0.0800 
 41 H       -3.0690    -3.2740     1.9500 H     1 <1>   0.0800 
 42 H       -7.5530    -4.2680     0.5400 H     1 <1>   0.0800 
 43 H       -7.7470    -3.8080    -1.1290 H     1 <1>   0.0800 
 44 H       -8.8350    -2.4990    -0.3200 H     1 <1>   0.0800 
 45 H       -8.2300    -0.9440    -0.4000 H     1 <1>   0.0800 
 46 H       -5.8320    -4.7180    -1.8890 H     1 <1>   0.0800 
 47 H       -6.7180    -5.8800    -0.9870 H     1 <1>   0.0800 
 48 H       -9.3660    -1.4330     1.5180 H     1 <1>   0.4000 
@<TRIPOS>BOND
  1   1   2  1   
  2   1   3  1   
  3   2   4  2   
  4   3   5  2   
  5   3   6  1   
  6   4   5  1   
  7   4   7  1   
  8   6   8  1   
  9   6  22  1   
 10   6  23  1   
 11   7   9  1   
 12   7  10  1   
 13   8  11  1   
 14   8  24  1   
 15   8  25  1   
 16   9  12  1   
 17   9  26  1   
 18   9  27  1   
 19  10  13  1   
 20  10  28  1   
 21  10  29  1   
 22  11  30  1   
 23  11  31  1   
 24  11  32  1   
 25  12  14  1   
 26  12  15  1   
 27  12  33  1   
 28  13  15  1   
 29  13  34  1   
 30  13  35  1   
 31  14  16  1   
 32  14  17  1   
 33  14  36  1   
 34  15  18  1   
 35  15  19  1   
 36  16  20  1   
 37  16  37  1   
 38  16  38  1   
 39  17  39  1   
 40  17  40  1   
 41  17  41  1   
 42  18  20  1   
 43  18  42  1   
 44  18  43  1   
 45  19  21  1   
 46  19  44  1   
 47  19  45  1   
 48  20  46  1   
 49  20  47  1   
 50  21  48  1   
@<TRIPOS>SUBSTRUCTURE
  1 ****   7 GROUP 4 **** **** 0

# MOE 2024.06 (io_trps.svl 2023.06)
