@<TRIPOS>MOLECULE
NONAME
47 49 1 0 0 
SMALL
USER_CHARGES


@<TRIPOS>ATOM
  1 N       -0.2330     0.1950    -1.0040 N.ar  1 <1>  -0.6200 
  2 C       -1.2680     0.1530    -0.1930 C.ar  1 <1>   0.4100 
  3 C        0.2410     1.3950    -1.2650 C.ar  1 <1>   0.4760 
  4 N       -1.7570    -1.0870     0.0980 N.pl3 1 <1>  -0.8690 
  5 C       -1.8340     1.3050     0.3400 C.ar  1 <1>  -0.1430 
  6 N       -0.1970     2.5550    -0.8180 N.ar  1 <1>  -0.6200 
  7 C        1.4350     1.4590    -2.1870 C.3   1 <1>  -0.0970 
  8 C       -2.1570    -1.9820    -1.0040 C.3   1 <1>   0.6130 
  9 C       -1.2410     2.4910    -0.0150 C.ar  1 <1>   0.1600 
 10 C       -3.0610     1.2070     1.2530 C.3   1 <1>  -0.0160 
 11 C       -3.6520    -1.7130    -1.2110 C.ar  1 <1>  -0.1430 
 12 C       -1.7540    -3.4330    -0.6840 C.2   1 <1>   0.0060 
 13 C       -3.6530     2.5510     1.7040 C.3   1 <1>  -0.1600 
 14 C       -4.6160    -2.2150    -0.3450 C.ar  1 <1>  -0.1500 
 15 C       -4.0590    -0.9060    -2.2660 C.ar  1 <1>  -0.1500 
 16 N       -2.5520    -4.4620    -0.6550 N.2   1 <1>  -0.5650 
 17 N       -0.4610    -3.7620    -0.4160 N.pl3 1 <1>   0.0480 
 18 C       -4.8930     2.3450     2.5810 C.3   1 <1>  -0.2400 
 19 C       -5.9560    -1.9210    -0.5310 C.ar  1 <1>  -0.1500 
 20 C       -5.3980    -0.6110    -2.4550 C.ar  1 <1>  -0.1500 
 21 C       -1.7510    -5.4970    -0.3510 C.2   1 <1>   0.0770 
 22 C       -0.4740    -5.0900    -0.2020 C.2   1 <1>  -0.3020 
 23 C        0.7360    -2.9000    -0.3650 C.3   1 <1>   0.0160 
 24 C       -6.3480    -1.1170    -1.5870 C.ar  1 <1>  -0.1500 
 25 H       -2.4880    -1.1180     0.8050 H     1 <1>   0.4000 
 26 H        1.5980     0.5100    -2.6620 H     1 <1>   0.0800 
 27 H        2.3070     1.7240    -1.6190 H     1 <1>   0.0800 
 28 H        1.2670     2.2040    -2.9430 H     1 <1>   0.0800 
 29 H       -1.6370    -1.7040    -1.9030 H     1 <1>   0.0800 
 30 H       -1.6130     3.4300     0.3540 H     1 <1>   0.1500 
 31 H       -2.7910     0.6400     2.1270 H     1 <1>   0.0800 
 32 H       -3.8280     0.6610     0.7300 H     1 <1>   0.0800 
 33 H       -3.9310     3.1300     0.8400 H     1 <1>   0.0800 
 34 H       -2.9180     3.1030     2.2650 H     1 <1>   0.0800 
 35 H       -4.3260    -2.8460     0.4780 H     1 <1>   0.1500 
 36 H       -3.3310    -0.4950    -2.9450 H     1 <1>   0.1500 
 37 H       -5.6550     1.8130     2.0380 H     1 <1>   0.0800 
 38 H       -5.2920     3.2970     2.8830 H     1 <1>   0.0800 
 39 H       -4.6420     1.7850     3.4650 H     1 <1>   0.0800 
 40 H       -6.6910    -2.3220     0.1440 H     1 <1>   0.1500 
 41 H       -5.7000     0.0140    -3.2770 H     1 <1>   0.1500 
 42 H       -2.1420    -6.4960    -0.2550 H     1 <1>   0.1500 
 43 H        0.4030    -5.6610     0.0390 H     1 <1>   0.1500 
 44 H        0.8050    -2.3280    -1.2720 H     1 <1>   0.0800 
 45 H        1.6160    -3.5050    -0.2570 H     1 <1>   0.0800 
 46 H        0.6570    -2.2300     0.4720 H     1 <1>   0.0800 
 47 H       -7.3890    -0.8900    -1.7330 H     1 <1>   0.1500 
@<TRIPOS>BOND
  1   1   2  ar  
  2   1   3  ar  
  3   2   4  1   
  4   2   5  ar  
  5   3   6  ar  
  6   3   7  1   
  7   4   8  1   
  8   4  25  1   
  9   5   9  ar  
 10   5  10  1   
 11   6   9  ar  
 12   7  26  1   
 13   7  27  1   
 14   7  28  1   
 15   8  11  1   
 16   8  12  1   
 17   8  29  1   
 18   9  30  1   
 19  10  13  1   
 20  10  31  1   
 21  10  32  1   
 22  11  14  ar  
 23  11  15  ar  
 24  12  16  2   
 25  12  17  1   
 26  13  18  1   
 27  13  33  1   
 28  13  34  1   
 29  14  19  ar  
 30  14  35  1   
 31  15  20  ar  
 32  15  36  1   
 33  16  21  1   
 34  17  22  1   
 35  17  23  1   
 36  18  37  1   
 37  18  38  1   
 38  18  39  1   
 39  19  24  ar  
 40  19  40  1   
 41  20  24  ar  
 42  20  41  1   
 43  21  22  2   
 44  21  42  1   
 45  22  43  1   
 46  23  44  1   
 47  23  45  1   
 48  23  46  1   
 49  24  47  1   
@<TRIPOS>SUBSTRUCTURE
  1 ****   4 GROUP 4 **** **** 0

# MOE 2024.06 (io_trps.svl 2023.06)
