@<TRIPOS>MOLECULE
NONAME
45 46 1 0 0 
SMALL
USER_CHARGES


@<TRIPOS>ATOM
  1 S        0.7840    -0.1110    -0.1740 S.o2  1 <1>   1.3330 
  2 O        2.0310     0.1890     0.4940 O.2   1 <1>  -0.6500 
  3 O        0.8100    -0.6150    -1.5290 O.2   1 <1>  -0.6500 
  4 N       -0.0620    -1.2250     0.7880 N.am  1 <1>  -0.8490 
  5 C       -0.2730     1.3340    -0.1530 C.3   1 <1>  -0.0550 
  6 C        0.2740    -2.6120     0.4520 C.3   1 <1>   0.1160 
  7 C        0.1160    -1.0030     2.2270 C.3   1 <1>   0.1160 
  8 C        0.2350     2.4670    -1.0670 C.3   1 <1>  -0.0800 
  9 C       -0.7230     3.6510    -1.2000 C.3   1 <1>   0.2000 
 10 C        1.5650     3.0930    -0.6070 C.3   1 <1>   0.1100 
 11 O       -1.2870     3.9220     0.0340 O.3   1 <1>  -0.6800 
 12 C        0.2270     4.7980    -1.5150 C.3   1 <1>   0.1100 
 13 N        1.3690     4.5500    -0.6240 N.3   1 <1>  -0.8100 
 14 C        2.5770     5.2880    -1.0180 C.3   1 <1>   0.2530 
 15 C        2.3490     6.7860    -0.8570 C.ar  1 <1>  -0.1440 
 16 C        2.5770     7.6790    -1.8910 C.ar  1 <1>   0.1900 
 17 C        1.8970     7.2960     0.3510 C.ar  1 <1>  -0.1500 
 18 F        3.0030     7.2400    -3.0450 F     1 <1>  -0.1900 
 19 C        2.3710     9.0380    -1.7510 C.ar  1 <1>  -0.1500 
 20 C        1.6720     8.6600     0.5270 C.ar  1 <1>  -0.1440 
 21 C        1.9180     9.5260    -0.5380 C.ar  1 <1>  -0.1500 
 22 C        1.1670     9.1860     1.8810 C.3   1 <1>   1.1630 
 23 F        2.1620     9.3810     2.7380 F     1 <1>  -0.3400 
 24 F        0.3210     8.3520     2.4750 F     1 <1>  -0.3400 
 25 F        0.5300    10.3470     1.7800 F     1 <1>  -0.3400 
 26 H       -1.2530     1.0470    -0.4810 H     1 <1>   0.0800 
 27 H       -0.3600     1.6970     0.8520 H     1 <1>   0.0800 
 28 H       -0.2920    -3.2920     1.0660 H     1 <1>   0.0800 
 29 H        1.3260    -2.7890     0.6010 H     1 <1>   0.0800 
 30 H        0.0320    -2.8100    -0.5790 H     1 <1>   0.0800 
 31 H       -0.5050    -1.6840     2.7850 H     1 <1>   0.0800 
 32 H       -0.1670     0.0020     2.4870 H     1 <1>   0.0800 
 33 H        1.1450    -1.1570     2.5090 H     1 <1>   0.0800 
 34 H        0.3920     2.0630    -2.0520 H     1 <1>   0.0800 
 35 H       -1.5050     3.5100    -1.9270 H     1 <1>   0.0800 
 36 H        2.3560     2.7980    -1.2760 H     1 <1>   0.0800 
 37 H        1.8250     2.7880     0.3930 H     1 <1>   0.0800 
 38 H       -0.5680     4.3160     0.5750 H     1 <1>   0.4000 
 39 H       -0.2260     5.7580    -1.3300 H     1 <1>   0.0800 
 40 H        0.5370     4.7400    -2.5450 H     1 <1>   0.0800 
 41 H        3.3930     4.9950    -0.3800 H     1 <1>   0.0800 
 42 H        2.8420     5.0410    -2.0320 H     1 <1>   0.0800 
 43 H        1.7150     6.6070     1.1620 H     1 <1>   0.1500 
 44 H        2.5620     9.6980    -2.5790 H     1 <1>   0.1500 
 45 H        1.7580    10.5860    -0.4300 H     1 <1>   0.1500 
@<TRIPOS>BOND
  1   1   2  2   
  2   1   3  2   
  3   1   4  am  
  4   1   5  1   
  5   4   6  1   
  6   4   7  1   
  7   5   8  1   
  8   5  26  1   
  9   5  27  1   
 10   6  28  1   
 11   6  29  1   
 12   6  30  1   
 13   7  31  1   
 14   7  32  1   
 15   7  33  1   
 16   8   9  1   
 17   8  10  1   
 18   8  34  1   
 19   9  11  1   
 20   9  12  1   
 21   9  35  1   
 22  10  13  1   
 23  10  36  1   
 24  10  37  1   
 25  11  38  1   
 26  12  13  1   
 27  12  39  1   
 28  12  40  1   
 29  13  14  1   
 30  14  15  1   
 31  14  41  1   
 32  14  42  1   
 33  15  16  ar  
 34  15  17  ar  
 35  16  18  1   
 36  16  19  ar  
 37  17  20  ar  
 38  17  43  1   
 39  19  21  ar  
 40  19  44  1   
 41  20  21  ar  
 42  20  22  1   
 43  21  45  1   
 44  22  23  1   
 45  22  24  1   
 46  22  25  1   
@<TRIPOS>SUBSTRUCTURE
  1 ****  13 GROUP 4 **** **** 0

# MOE 2024.06 (io_trps.svl 2023.06)
