@<TRIPOS>MOLECULE
NONAME
41 42 1 0 0 
SMALL
USER_CHARGES


@<TRIPOS>ATOM
  1 S        0.1580    -0.0520     0.7750 S.o2  1 <1>   1.3330 
  2 O       -0.8790     0.0140     1.7800 O.2   1 <1>  -0.6500 
  3 O        1.5450     0.0340     1.1720 O.2   1 <1>  -0.6500 
  4 N       -0.0430    -1.4870    -0.1090 N.am  1 <1>  -0.8490 
  5 C       -0.1850     1.2170    -0.4410 C.3   1 <1>  -0.0550 
  6 C       -0.4850    -2.6020     0.7340 C.3   1 <1>   0.1160 
  7 C        1.1520    -1.8770    -0.8660 C.3   1 <1>   0.1160 
  8 C       -0.1450     2.6390     0.1440 C.3   1 <1>  -0.0800 
  9 C       -0.5680     3.6980    -0.8670 C.3   1 <1>   0.2000 
 10 C        1.2460     3.0950     0.5920 C.3   1 <1>   0.1400 
 11 O       -1.9500     3.7700    -0.9280 O.3   1 <1>  -0.6800 
 12 C        0.0550     4.9990    -0.3670 C.3   1 <1>   0.1400 
 13 N        1.2480     4.5680     0.4080 N.am  1 <1>  -0.6600 
 14 C        2.4210     5.3030     0.4270 C.2   1 <1>   0.5440 
 15 O        3.4730     4.6850     0.5060 O.2   1 <1>  -0.5700 
 16 C        2.4160     6.7370     0.3270 C.ar  1 <1>   0.0860 
 17 C        3.3790     7.4130    -0.4360 C.ar  1 <1>  -0.1500 
 18 C        1.4460     7.5240     0.9730 C.ar  1 <1>  -0.1500 
 19 C        3.3310     8.7760    -0.5700 C.ar  1 <1>   0.1900 
 20 C        1.4020     8.8910     0.8350 C.ar  1 <1>  -0.1500 
 21 F        4.2540     9.3560    -1.3090 F     1 <1>  -0.1900 
 22 C        2.3380     9.5660     0.0450 C.ar  1 <1>  -0.1710 
 23 O        2.2500    10.8120    -0.0720 O.3   1 <1>  -0.8290 
 24 H        0.5180     1.1430    -1.2470 H     1 <1>   0.0800 
 25 H       -1.1650     1.0440    -0.8440 H     1 <1>   0.0800 
 26 H       -0.6180    -3.4900     0.1400 H     1 <1>   0.0800 
 27 H       -1.4290    -2.3630     1.1960 H     1 <1>   0.0800 
 28 H        0.2390    -2.7960     1.5080 H     1 <1>   0.0800 
 29 H        0.9380    -2.7390    -1.4750 H     1 <1>   0.0800 
 30 H        1.9620    -2.1140    -0.1950 H     1 <1>   0.0800 
 31 H        1.4620    -1.0740    -1.5110 H     1 <1>   0.0800 
 32 H       -0.7910     2.6910     1.0050 H     1 <1>   0.0800 
 33 H       -0.1950     3.4730    -1.8520 H     1 <1>   0.0800 
 34 H        2.0140     2.6600    -0.0260 H     1 <1>   0.0800 
 35 H        1.4380     2.8430     1.6220 H     1 <1>   0.0800 
 36 H       -2.3220     3.9660    -0.0450 H     1 <1>   0.4000 
 37 H       -0.6210     5.5200     0.2880 H     1 <1>   0.0800 
 38 H        0.3380     5.6330    -1.1900 H     1 <1>   0.0800 
 39 H        4.1570     6.8560    -0.9220 H     1 <1>   0.1500 
 40 H        0.7200     7.0390     1.5970 H     1 <1>   0.1500 
 41 H        0.6590     9.4930     1.3240 H     1 <1>   0.1500 
@<TRIPOS>BOND
  1   1   2  2   
  2   1   3  2   
  3   1   4  am  
  4   1   5  1   
  5   4   6  1   
  6   4   7  1   
  7   5   8  1   
  8   5  24  1   
  9   5  25  1   
 10   6  26  1   
 11   6  27  1   
 12   6  28  1   
 13   7  29  1   
 14   7  30  1   
 15   7  31  1   
 16   8   9  1   
 17   8  10  1   
 18   8  32  1   
 19   9  11  1   
 20   9  12  1   
 21   9  33  1   
 22  10  13  1   
 23  10  34  1   
 24  10  35  1   
 25  11  36  1   
 26  12  13  1   
 27  12  37  1   
 28  12  38  1   
 29  13  14  am  
 30  14  15  2   
 31  14  16  1   
 32  16  17  ar  
 33  16  18  ar  
 34  17  19  ar  
 35  17  39  1   
 36  18  20  ar  
 37  18  40  1   
 38  19  21  1   
 39  19  22  ar  
 40  20  22  ar  
 41  20  41  1   
 42  22  23  1   
@<TRIPOS>SUBSTRUCTURE
  1 ****  13 GROUP 4 **** **** 0

# MOE 2024.06 (io_trps.svl 2023.06)
