@<TRIPOS>MOLECULE
NONAME
50 52 1 0 0 
SMALL
USER_CHARGES


@<TRIPOS>ATOM
  1 O        0.5530    -1.1670    -0.3940 O.3   1 <1>  -0.3630 
  2 C        0.2460    -2.4680    -0.1730 C.ar  1 <1>   0.0830 
  3 C        1.2470    -0.4000     0.5630 C.3   1 <1>   0.0400 
  4 C       -0.4290    -3.1340    -1.1810 C.ar  1 <1>  -0.1500 
  5 C        0.5690    -3.1560     0.9920 C.ar  1 <1>  -0.1500 
  6 C       -0.7800    -4.4630    -1.0340 C.ar  1 <1>  -0.1500 
  7 C        0.2130    -4.4850     1.1320 C.ar  1 <1>  -0.1500 
  8 C       -0.4710    -5.1680     0.1290 C.ar  1 <1>   0.0280 
  9 C       -0.8310    -6.5570     0.3150 C.2   1 <1>  -0.1780 
 10 C       -1.7160    -7.2810    -0.3930 C.2   1 <1>  -0.2880 
 11 C       -2.0410    -8.7320    -0.1360 C.3   1 <1>   0.4810 
 12 N       -3.3840    -8.7700     0.4930 N.4   1 <1>  -0.9590 
 13 C       -4.4900    -8.4800    -0.4820 C.3   1 <1>   0.3430 
 14 C       -3.6480   -10.1190     1.0740 C.3   1 <1>   0.3430 
 15 C       -5.4800    -9.6500    -0.3790 C.3   1 <1>   0.2000 
 16 C       -4.6320   -10.8120     0.1260 C.3   1 <1>  -0.0800 
 17 O       -6.4590    -9.3580     0.5630 O.3   1 <1>  -0.6800 
 18 C       -3.9360   -11.5280    -1.0540 C.3   1 <1>   0.0210 
 19 C       -2.7060   -12.3020    -0.6260 C.2   1 <1>   0.1080 
 20 N       -1.5470   -11.7380    -0.4630 N.2   1 <1>  -0.7070 
 21 C       -2.6710   -13.6680    -0.3740 C.2   1 <1>  -0.1500 
 22 N       -0.7250   -12.7550    -0.1180 N.pl3 1 <1>   0.3000 
 23 C       -1.3880   -13.9270    -0.0480 C.2   1 <1>  -0.3320 
 24 C       -0.7420   -15.2510     0.3200 C.3   1 <1>  -0.0600 
 25 H        1.3770     0.5900     0.1660 H     1 <1>   0.0800 
 26 H        2.2070    -0.8510     0.7430 H     1 <1>   0.0800 
 27 H        0.6640    -0.3580     1.4660 H     1 <1>   0.0800 
 28 H       -0.6720    -2.6000    -2.0820 H     1 <1>   0.1500 
 29 H        1.0940    -2.6730     1.7940 H     1 <1>   0.1500 
 30 H       -1.2930    -4.9500    -1.8410 H     1 <1>   0.1500 
 31 H        0.4720    -4.9980     2.0410 H     1 <1>   0.1500 
 32 H       -0.3010    -7.0180     1.1310 H     1 <1>   0.1500 
 33 H       -2.2710    -6.8690    -1.2160 H     1 <1>   0.1500 
 34 H       -1.3110    -9.1510     0.5380 H     1 <1>   0.0800 
 35 H       -2.0200    -9.3050    -1.0500 H     1 <1>   0.0800 
 36 H       -3.3730    -8.0560     1.2330 H     1 <1>   0.4500 
 37 H       -4.9800    -7.5440    -0.2690 H     1 <1>   0.0800 
 38 H       -4.0900    -8.4470    -1.4820 H     1 <1>   0.0800 
 39 H       -2.7430   -10.6860     1.2160 H     1 <1>   0.0800 
 40 H       -4.1210   -10.0030     2.0350 H     1 <1>   0.0800 
 41 H       -5.9770    -9.8510    -1.3140 H     1 <1>   0.0800 
 42 H       -5.2210   -11.5370     0.6620 H     1 <1>   0.0800 
 43 H       -6.1050    -9.2130     1.4620 H     1 <1>   0.4000 
 44 H       -3.6240   -10.8240    -1.8040 H     1 <1>   0.0800 
 45 H       -4.6310   -12.2020    -1.5230 H     1 <1>   0.0800 
 46 H       -3.4980   -14.3540    -0.4370 H     1 <1>   0.1500 
 47 H        0.2810   -12.6290     0.0550 H     1 <1>   0.2700 
 48 H       -1.4750   -16.0390     0.3020 H     1 <1>   0.0800 
 49 H       -0.3210   -15.2000     1.3090 H     1 <1>   0.0800 
 50 H        0.0360   -15.4950    -0.3810 H     1 <1>   0.0800 
@<TRIPOS>BOND
  1   1   2  1   
  2   1   3  1   
  3   2   4  ar  
  4   2   5  ar  
  5   3  25  1   
  6   3  26  1   
  7   3  27  1   
  8   4   6  ar  
  9   4  28  1   
 10   5   7  ar  
 11   5  29  1   
 12   6   8  ar  
 13   6  30  1   
 14   7   8  ar  
 15   7  31  1   
 16   8   9  1   
 17   9  10  2   
 18   9  32  1   
 19  10  11  1   
 20  10  33  1   
 21  11  12  1   
 22  11  34  1   
 23  11  35  1   
 24  12  13  1   
 25  12  14  1   
 26  12  36  1   
 27  13  15  1   
 28  13  37  1   
 29  13  38  1   
 30  14  16  1   
 31  14  39  1   
 32  14  40  1   
 33  15  16  1   
 34  15  17  1   
 35  15  41  1   
 36  16  18  1   
 37  16  42  1   
 38  17  43  1   
 39  18  19  1   
 40  18  44  1   
 41  18  45  1   
 42  19  20  2   
 43  19  21  1   
 44  20  22  1   
 45  21  23  2   
 46  21  46  1   
 47  22  23  1   
 48  22  47  1   
 49  23  24  1   
 50  24  48  1   
 51  24  49  1   
 52  24  50  1   
@<TRIPOS>SUBSTRUCTURE
  1 ****  11 GROUP 4 **** **** 0

# MOE 2024.06 (io_trps.svl 2023.06)
