@<TRIPOS>MOLECULE
NONAME
46 48 1 0 0 
SMALL
USER_CHARGES


@<TRIPOS>ATOM
  1 O        0.3700     0.2100     1.6020 O.3   1 <1>  -0.6800 
  2 C        0.8630    -0.1750     0.3620 C.3   1 <1>   0.2000 
  3 C        1.6170    -1.4910     0.5490 C.3   1 <1>  -0.0800 
  4 C        1.9630     0.8220    -0.0470 C.3   1 <1>   0.3430 
  5 C        2.9200    -0.9870     1.1760 C.3   1 <1>   0.3430 
  6 C        1.8070    -2.2090    -0.8130 C.3   1 <1>  -0.0170 
  7 N        3.2650     0.2090     0.3750 N.4   1 <1>  -0.9590 
  8 C        3.1150    -2.9790    -0.9320 C.ar  1 <1>   0.1670 
  9 C        4.1800     1.1520     1.0640 C.3   1 <1>   0.4860 
 10 N        4.1920    -2.2570    -1.2140 N.ar  1 <1>  -0.6200 
 11 C        3.1340    -4.3620    -0.7540 C.ar  1 <1>   0.1600 
 12 C        4.5090     2.2930     0.1190 C.ar  1 <1>  -0.1440 
 13 C        5.2750    -3.0150    -1.3300 C.ar  1 <1>   0.1600 
 14 N        4.2190    -5.1070    -0.8440 N.ar  1 <1>  -0.6200 
 15 C        5.4780     2.1750    -0.8770 C.ar  1 <1>  -0.1440 
 16 C        3.8150     3.4880     0.2630 C.ar  1 <1>  -0.1500 
 17 C        5.2880    -4.3930    -1.1480 C.ar  1 <1>   0.1600 
 18 C        5.7170     3.2510    -1.7170 C.ar  1 <1>  -0.1500 
 19 C        6.3130     0.9140    -1.0820 C.3   1 <1>  -0.0170 
 20 C        4.0630     4.5530    -0.5820 C.ar  1 <1>  -0.1500 
 21 C        5.0140     4.4330    -1.5760 C.ar  1 <1>  -0.1500 
 22 C        7.5430     0.9260    -0.1720 C.3   1 <1>  -0.2400 
 23 H       -0.4680    -0.2520     1.8170 H     1 <1>   0.4000 
 24 H        0.0470    -0.2130    -0.3400 H     1 <1>   0.0800 
 25 H        1.1120    -2.1540     1.2300 H     1 <1>   0.0800 
 26 H        1.7930     1.7700     0.4370 H     1 <1>   0.0800 
 27 H        1.9630     0.9660    -1.1150 H     1 <1>   0.0800 
 28 H        3.7030    -1.7280     1.1530 H     1 <1>   0.0800 
 29 H        2.7290    -0.6990     2.1980 H     1 <1>   0.0800 
 30 H        1.7870    -1.5010    -1.6240 H     1 <1>   0.0800 
 31 H        0.9790    -2.8770    -0.9760 H     1 <1>   0.0800 
 32 H        3.7470    -0.1380    -0.4730 H     1 <1>   0.4500 
 33 H        3.7110     1.5390     1.9530 H     1 <1>   0.0800 
 34 H        5.0880     0.6470     1.3480 H     1 <1>   0.0800 
 35 H        2.2160    -4.8770    -0.5270 H     1 <1>   0.1500 
 36 H        6.2010    -2.5290    -1.5810 H     1 <1>   0.1500 
 37 H        3.0760     3.6080     1.0370 H     1 <1>   0.1500 
 38 H        6.2180    -4.9240    -1.2590 H     1 <1>   0.1500 
 39 H        6.4630     3.1810    -2.4910 H     1 <1>   0.1500 
 40 H        5.7340     0.0310    -0.8960 H     1 <1>   0.0800 
 41 H        6.6390     0.8620    -2.1080 H     1 <1>   0.0800 
 42 H        3.5220     5.4770    -0.4670 H     1 <1>   0.1500 
 43 H        5.2120     5.2600    -2.2360 H     1 <1>   0.1500 
 44 H        7.2560     0.9610     0.8630 H     1 <1>   0.0800 
 45 H        8.1490     1.7900    -0.3860 H     1 <1>   0.0800 
 46 H        8.1370     0.0450    -0.3370 H     1 <1>   0.0800 
@<TRIPOS>BOND
  1   1   2  1   
  2   1  23  1   
  3   2   3  1   
  4   2   4  1   
  5   2  24  1   
  6   3   5  1   
  7   3   6  1   
  8   3  25  1   
  9   4   7  1   
 10   4  26  1   
 11   4  27  1   
 12   5   7  1   
 13   5  28  1   
 14   5  29  1   
 15   6   8  1   
 16   6  30  1   
 17   6  31  1   
 18   7   9  1   
 19   7  32  1   
 20   8  10  ar  
 21   8  11  ar  
 22   9  12  1   
 23   9  33  1   
 24   9  34  1   
 25  10  13  ar  
 26  11  14  ar  
 27  11  35  1   
 28  12  15  ar  
 29  12  16  ar  
 30  13  17  ar  
 31  13  36  1   
 32  14  17  ar  
 33  15  18  ar  
 34  15  19  1   
 35  16  20  ar  
 36  16  37  1   
 37  17  38  1   
 38  18  21  ar  
 39  18  39  1   
 40  19  22  1   
 41  19  40  1   
 42  19  41  1   
 43  20  21  ar  
 44  20  42  1   
 45  21  43  1   
 46  22  44  1   
 47  22  45  1   
 48  22  46  1   
@<TRIPOS>SUBSTRUCTURE
  1 ****   7 GROUP 4 **** **** 0

# MOE 2024.06 (io_trps.svl 2023.06)
