@<TRIPOS>MOLECULE
NONAME
59 62 1 0 0 
SMALL
USER_CHARGES


@<TRIPOS>ATOM
  1 O       -0.6480     0.8640     1.6670 O.3   1 <1>  -0.5600 
  2 C       -0.0190     1.0210     0.4420 C.3   1 <1>   0.1200 
  3 C       -2.0320     0.8850     1.4630 C.3   1 <1>   0.1200 
  4 C       -0.8330     2.1450    -0.1890 C.3   1 <1>   0.4230 
  5 C       -2.2470     1.6850     0.1630 C.3   1 <1>  -0.0800 
  6 N       -0.5590     3.4000     0.5760 N.4   1 <1>  -0.9060 
  7 C       -2.8730     0.8180    -0.9510 C.3   1 <1>  -0.0170 
  8 C        0.7550     4.0470     0.3520 C.3   1 <1>   0.4230 
  9 C       -4.2860     0.3900    -0.5730 C.ar  1 <1>  -0.1440 
 10 C        1.0030     5.0520     1.4760 C.3   1 <1>  -0.1600 
 11 C        0.7840     4.7500    -1.0070 C.3   1 <1>  -0.1600 
 12 C       -5.3930     1.2720    -0.6380 C.ar  1 <1>   0.0000 
 13 C       -4.5220    -0.8840    -0.1420 C.ar  1 <1>  -0.1500 
 14 C        2.3170     5.8040     1.2620 C.3   1 <1>   0.3430 
 15 C        2.0990     5.5110    -1.2020 C.3   1 <1>   0.3430 
 16 C       -6.6480     0.7850    -0.1990 C.ar  1 <1>   0.3100 
 17 C       -5.3330     2.6020    -1.1170 C.ar  1 <1>  -0.1500 
 18 C       -5.8100    -1.2710     0.2490 C.ar  1 <1>   0.1600 
 19 N        2.3150     6.4670    -0.0770 N.4   1 <1>  -0.9590 
 20 N       -6.8370    -0.4840     0.2400 N.ar  1 <1>  -0.6200 
 21 C       -7.7570     1.6450    -0.2160 C.ar  1 <1>  -0.1500 
 22 C       -6.4350     3.4130    -1.1280 C.ar  1 <1>  -0.1500 
 23 C        3.5830     7.2280    -0.3060 C.3   1 <1>   0.3430 
 24 C       -7.6620     2.9330    -0.6660 C.ar  1 <1>  -0.1500 
 25 C        3.6240     8.4810     0.5710 C.3   1 <1>  -0.1600 
 26 C        4.8620     9.3260     0.2530 C.3   1 <1>  -0.2400 
 27 H        1.0200     1.2530     0.5930 H     1 <1>   0.0800 
 28 H       -0.1070     0.0990    -0.1090 H     1 <1>   0.0800 
 29 H       -2.3740    -0.1340     1.3870 H     1 <1>   0.0800 
 30 H       -2.4990     1.3520     2.3150 H     1 <1>   0.0800 
 31 H       -0.6710     2.2620    -1.2480 H     1 <1>   0.0800 
 32 H       -2.9010     2.5190     0.3480 H     1 <1>   0.0800 
 33 H       -1.3340     4.0610     0.4540 H     1 <1>   0.4500 
 34 H       -0.6050     3.0750     1.5590 H     1 <1>   0.4500 
 35 H       -2.2720    -0.0610    -1.1200 H     1 <1>   0.0800 
 36 H       -2.9040     1.3550    -1.8830 H     1 <1>   0.0800 
 37 H        1.5330     3.3000     0.3830 H     1 <1>   0.0800 
 38 H        0.2010     5.7670     1.5380 H     1 <1>   0.0800 
 39 H        1.0640     4.5340     2.4180 H     1 <1>   0.0800 
 40 H        0.7000     4.0270    -1.7990 H     1 <1>   0.0800 
 41 H       -0.0330     5.4440    -1.0960 H     1 <1>   0.0800 
 42 H       -3.7430    -1.6220    -0.0820 H     1 <1>   0.1500 
 43 H        3.1480     5.1170     1.3270 H     1 <1>   0.0800 
 44 H        2.4360     6.5420     2.0410 H     1 <1>   0.0800 
 45 H        2.0700     6.0480    -2.1380 H     1 <1>   0.0800 
 46 H        2.9210     4.8130    -1.2460 H     1 <1>   0.0800 
 47 H       -4.4090     2.9920    -1.4940 H     1 <1>   0.1500 
 48 H       -5.9530    -2.2840     0.5840 H     1 <1>   0.1500 
 49 H        1.5640     7.1740    -0.0950 H     1 <1>   0.4500 
 50 H       -8.6930     1.2510     0.1360 H     1 <1>   0.1500 
 51 H       -6.3820     4.4250    -1.4940 H     1 <1>   0.1500 
 52 H        4.4400     6.6070    -0.0980 H     1 <1>   0.0800 
 53 H        3.6390     7.5370    -1.3390 H     1 <1>   0.0800 
 54 H       -8.5230     3.5800    -0.6750 H     1 <1>   0.1500 
 55 H        2.7490     9.0840     0.3960 H     1 <1>   0.0800 
 56 H        3.6610     8.2160     1.6130 H     1 <1>   0.0800 
 57 H        4.8570     9.6460    -0.7760 H     1 <1>   0.0800 
 58 H        5.7660     8.7710     0.4380 H     1 <1>   0.0800 
 59 H        4.8780    10.2060     0.8750 H     1 <1>   0.0800 
@<TRIPOS>BOND
  1   1   2  1   
  2   1   3  1   
  3   2   4  1   
  4   2  27  1   
  5   2  28  1   
  6   3   5  1   
  7   3  29  1   
  8   3  30  1   
  9   4   5  1   
 10   4   6  1   
 11   4  31  1   
 12   5   7  1   
 13   5  32  1   
 14   6   8  1   
 15   6  33  1   
 16   6  34  1   
 17   7   9  1   
 18   7  35  1   
 19   7  36  1   
 20   8  10  1   
 21   8  11  1   
 22   8  37  1   
 23   9  12  ar  
 24   9  13  ar  
 25  10  14  1   
 26  10  38  1   
 27  10  39  1   
 28  11  15  1   
 29  11  40  1   
 30  11  41  1   
 31  12  16  ar  
 32  12  17  ar  
 33  13  18  ar  
 34  13  42  1   
 35  14  19  1   
 36  14  43  1   
 37  14  44  1   
 38  15  19  1   
 39  15  45  1   
 40  15  46  1   
 41  16  20  ar  
 42  16  21  ar  
 43  17  22  ar  
 44  17  47  1   
 45  18  20  ar  
 46  18  48  1   
 47  19  23  1   
 48  19  49  1   
 49  21  24  ar  
 50  21  50  1   
 51  22  24  ar  
 52  22  51  1   
 53  23  25  1   
 54  23  52  1   
 55  23  53  1   
 56  24  54  1   
 57  25  26  1   
 58  25  55  1   
 59  25  56  1   
 60  26  57  1   
 61  26  58  1   
 62  26  59  1   
@<TRIPOS>SUBSTRUCTURE
  1 ****   4 GROUP 4 **** **** 0

# MOE 2024.06 (io_trps.svl 2023.06)
