@<TRIPOS>MOLECULE
NONAME
51 53 1 0 0 
SMALL
USER_CHARGES


@<TRIPOS>ATOM
  1 O       -4.0230     3.2120    -0.8560 O.2   1 <1>  -0.5700 
  2 C       -3.1140     2.7900    -0.1810 C.2   1 <1>   0.5690 
  3 N       -2.7680     1.4780    -0.1850 N.am  1 <1>  -0.7300 
  4 C       -2.3460     3.7550     0.6960 C.3   1 <1>   0.1570 
  5 C       -3.3470     0.4160    -1.0320 C.3   1 <1>   0.2200 
  6 N       -0.9200     3.3950     0.6860 N.pl3 1 <1>   0.3140 
  7 C       -3.7590    -0.7500    -0.1500 C.3   1 <1>  -0.0800 
  8 C       -2.2560    -0.1980    -1.9130 C.3   1 <1>   0.1200 
  9 N       -0.4630     2.3860     1.4550 N.2   1 <1>  -0.7070 
 10 C        0.0620     3.9040    -0.0930 C.2   1 <1>  -0.3320 
 11 C       -2.4440    -1.5200    -0.0410 C.3   1 <1>   0.1200 
 12 C       -4.8710    -1.5880    -0.8070 C.3   1 <1>  -0.0160 
 13 O       -1.8030    -1.3550    -1.2680 O.3   1 <1>  -0.5600 
 14 C        0.7930     2.2850     1.1610 C.2   1 <1>   0.1080 
 15 C        1.1850     3.2070     0.1940 C.2   1 <1>  -0.1810 
 16 C       -0.1400     5.0400    -1.0850 C.3   1 <1>  -0.0600 
 17 C       -5.2840    -2.7550     0.0770 C.ar  1 <1>  -0.1440 
 18 C        1.6860     1.2570     1.8180 C.3   1 <1>  -0.0590 
 19 C        2.5770     3.3630    -0.3960 C.3   1 <1>   0.0210 
 20 C       -6.0730    -2.5760     1.1950 C.ar  1 <1>  -0.1500 
 21 C       -4.8900    -4.0510    -0.1900 C.ar  1 <1>  -0.1500 
 22 C        3.3900     4.3710     0.4170 C.3   1 <1>  -0.2400 
 23 C       -6.4180    -3.6690     1.9720 C.ar  1 <1>   0.1600 
 24 C       -5.2910    -5.0750     0.6520 C.ar  1 <1>   0.1600 
 25 N       -6.0450    -4.9150     1.7280 N.ar  1 <1>  -0.6200 
 26 H       -1.9180     1.2200     0.3430 H     1 <1>   0.3700 
 27 H       -2.7110     3.6930     1.7020 H     1 <1>   0.0800 
 28 H       -2.4690     4.7570     0.3360 H     1 <1>   0.0800 
 29 H       -4.1610     0.8120    -1.6170 H     1 <1>   0.0800 
 30 H       -4.0940    -0.4150     0.8160 H     1 <1>   0.0800 
 31 H       -1.4280     0.4730    -2.0620 H     1 <1>   0.0800 
 32 H       -2.6590    -0.4960    -2.8640 H     1 <1>   0.0800 
 33 H       -2.5740    -2.5690     0.1560 H     1 <1>   0.0800 
 34 H       -1.8110    -1.0890     0.7170 H     1 <1>   0.0800 
 35 H       -4.5410    -1.9580    -1.7620 H     1 <1>   0.0800 
 36 H       -5.7320    -0.9660    -0.9800 H     1 <1>   0.0800 
 37 H        0.7800     5.2760    -1.5880 H     1 <1>   0.0800 
 38 H       -0.4790     5.9230    -0.5740 H     1 <1>   0.0800 
 39 H       -0.8690     4.7610    -1.8260 H     1 <1>   0.0800 
 40 H        2.6240     1.7020     2.0920 H     1 <1>   0.0800 
 41 H        1.8600     0.4440     1.1380 H     1 <1>   0.0800 
 42 H        1.2120     0.8760     2.7040 H     1 <1>   0.0800 
 43 H        3.0760     2.4110    -0.4040 H     1 <1>   0.0800 
 44 H        2.5010     3.6980    -1.4140 H     1 <1>   0.0800 
 45 H       -6.4220    -1.5970     1.4690 H     1 <1>   0.1500 
 46 H       -4.2740    -4.2730    -1.0420 H     1 <1>   0.1500 
 47 H        3.4820     4.0400     1.4360 H     1 <1>   0.0800 
 48 H        2.8990     5.3280     0.4120 H     1 <1>   0.0800 
 49 H        4.3730     4.4810    -0.0030 H     1 <1>   0.0800 
 50 H       -7.0340    -3.5100     2.8400 H     1 <1>   0.1500 
 51 H       -4.9730    -6.0790     0.4280 H     1 <1>   0.1500 
@<TRIPOS>BOND
  1   1   2  2   
  2   2   3  am  
  3   2   4  1   
  4   3   5  1   
  5   3  26  1   
  6   4   6  1   
  7   4  27  1   
  8   4  28  1   
  9   5   7  1   
 10   5   8  1   
 11   5  29  1   
 12   6   9  1   
 13   6  10  1   
 14   7  11  1   
 15   7  12  1   
 16   7  30  1   
 17   8  13  1   
 18   8  31  1   
 19   8  32  1   
 20   9  14  2   
 21  10  15  2   
 22  10  16  1   
 23  11  13  1   
 24  11  33  1   
 25  11  34  1   
 26  12  17  1   
 27  12  35  1   
 28  12  36  1   
 29  14  15  1   
 30  14  18  1   
 31  15  19  1   
 32  16  37  1   
 33  16  38  1   
 34  16  39  1   
 35  17  20  ar  
 36  17  21  ar  
 37  18  40  1   
 38  18  41  1   
 39  18  42  1   
 40  19  22  1   
 41  19  43  1   
 42  19  44  1   
 43  20  23  ar  
 44  20  45  1   
 45  21  24  ar  
 46  21  46  1   
 47  22  47  1   
 48  22  48  1   
 49  22  49  1   
 50  23  25  ar  
 51  23  50  1   
 52  24  25  ar  
 53  24  51  1   
@<TRIPOS>SUBSTRUCTURE
  1 ****   3 GROUP 4 **** **** 0

# MOE 2024.06 (io_trps.svl 2023.06)
