@<TRIPOS>MOLECULE
NONAME
55 57 1 0 0 
SMALL
USER_CHARGES


@<TRIPOS>ATOM
  1 CL      -1.5890    -2.0730     0.3070 Cl    1 <1>  -0.1770 
  2 C       -2.9120    -0.9400     0.2470 C.ar  1 <1>   0.1770 
  3 C       -3.0300    -0.0880    -0.8340 C.ar  1 <1>  -0.1500 
  4 C       -3.8260    -0.9050     1.2820 C.ar  1 <1>  -0.1500 
  5 C       -4.0850     0.8070    -0.8790 C.ar  1 <1>  -0.1500 
  6 C       -4.8770    -0.0060     1.2280 C.ar  1 <1>  -0.1500 
  7 C       -5.0340     0.8630     0.1450 C.ar  1 <1>   0.0530 
  8 C       -6.1370     1.7880     0.0750 C.2   1 <1>   0.0870 
  9 O       -6.0140     2.9400    -0.5350 O.3   1 <1>  -0.0190 
 10 C       -7.4120     1.7210     0.5380 C.2   1 <1>  -0.0860 
 11 N       -7.1130     3.6490    -0.5080 N.2   1 <1>  -0.4100 
 12 C       -7.9660     2.9360     0.1310 C.2   1 <1>   0.3720 
 13 C       -8.0680     0.6750     1.2530 C.2   1 <1>   0.7160 
 14 N       -9.2640     3.3780     0.3240 N.pl3 1 <1>  -0.8520 
 15 O       -8.3290     0.8270     2.4320 O.2   1 <1>  -0.5700 
 16 N       -8.3720    -0.5310     0.6480 N.am  1 <1>  -0.6600 
 17 C      -10.3190     2.6370    -0.4130 C.3   1 <1>   0.2090 
 18 C       -8.2280    -0.7860    -0.8110 C.3   1 <1>   0.1400 
 19 C       -8.9440    -1.6690     1.4170 C.3   1 <1>   0.1400 
 20 C      -11.2920     1.9720     0.5620 C.3   1 <1>   0.1200 
 21 C       -9.5880    -1.1790    -1.4030 C.3   1 <1>  -0.1600 
 22 C      -10.3160    -2.0280     0.8420 C.3   1 <1>  -0.1600 
 23 O      -12.2030     1.2110    -0.1730 O.3   1 <1>  -0.5600 
 24 C      -10.2780    -2.3540    -0.6720 C.3   1 <1>   0.0000 
 25 C      -13.2460     0.6950     0.5920 C.3   1 <1>   0.0400 
 26 C      -11.7210    -2.4530    -1.2280 C.3   1 <1>   0.1200 
 27 C       -9.4910    -3.6600    -0.9700 C.3   1 <1>   0.1200 
 28 O      -12.4310    -3.4490    -0.5790 O.3   1 <1>  -0.6800 
 29 O      -10.0240    -4.7550    -0.2970 O.3   1 <1>  -0.6800 
 30 H       -2.3040    -0.1280    -1.6260 H     1 <1>   0.1500 
 31 H       -3.7100    -1.5710     2.1180 H     1 <1>   0.1500 
 32 H       -4.1760     1.4720    -1.7200 H     1 <1>   0.1500 
 33 H       -5.5780     0.0250     2.0440 H     1 <1>   0.1500 
 34 H       -9.2980     4.3720     0.0750 H     1 <1>   0.4000 
 35 H       -9.8700     1.8870    -1.0390 H     1 <1>   0.0800 
 36 H      -10.8630     3.3240    -1.0380 H     1 <1>   0.0800 
 37 H       -7.5090    -1.5720    -0.9600 H     1 <1>   0.0800 
 38 H       -7.8650     0.0880    -1.3230 H     1 <1>   0.0800 
 39 H       -9.0530    -1.4160     2.4580 H     1 <1>   0.0800 
 40 H       -8.2760    -2.5100     1.3540 H     1 <1>   0.0800 
 41 H      -11.8260     2.7240     1.1160 H     1 <1>   0.0800 
 42 H      -10.7660     1.3190     1.2360 H     1 <1>   0.0800 
 43 H       -9.4580    -1.4200    -2.4440 H     1 <1>   0.0800 
 44 H      -10.2280    -0.3160    -1.3610 H     1 <1>   0.0800 
 45 H      -10.9680    -1.1910     1.0060 H     1 <1>   0.0800 
 46 H      -10.7280    -2.8510     1.3970 H     1 <1>   0.0800 
 47 H      -13.8570     0.0770    -0.0440 H     1 <1>   0.0800 
 48 H      -13.8350     1.5070     0.9810 H     1 <1>   0.0800 
 49 H      -12.8460     0.1020     1.3950 H     1 <1>   0.0800 
 50 H      -11.7080    -2.6900    -2.2780 H     1 <1>   0.0800 
 51 H      -12.2540    -1.5290    -1.0880 H     1 <1>   0.0800 
 52 H       -8.4600    -3.5740    -0.6800 H     1 <1>   0.0800 
 53 H       -9.5280    -3.8830    -2.0230 H     1 <1>   0.0800 
 54 H      -11.8570    -4.2510    -0.5360 H     1 <1>   0.4000 
 55 H       -9.9120    -4.6510     0.6690 H     1 <1>   0.4000 
@<TRIPOS>BOND
  1   1   2  1   
  2   2   3  ar  
  3   2   4  ar  
  4   3   5  ar  
  5   3  30  1   
  6   4   6  ar  
  7   4  31  1   
  8   5   7  ar  
  9   5  32  1   
 10   6   7  ar  
 11   6  33  1   
 12   7   8  1   
 13   8   9  1   
 14   8  10  2   
 15   9  11  1   
 16  10  12  1   
 17  10  13  1   
 18  11  12  2   
 19  12  14  1   
 20  13  15  2   
 21  13  16  am  
 22  14  17  1   
 23  14  34  1   
 24  16  18  1   
 25  16  19  1   
 26  17  20  1   
 27  17  35  1   
 28  17  36  1   
 29  18  21  1   
 30  18  37  1   
 31  18  38  1   
 32  19  22  1   
 33  19  39  1   
 34  19  40  1   
 35  20  23  1   
 36  20  41  1   
 37  20  42  1   
 38  21  24  1   
 39  21  43  1   
 40  21  44  1   
 41  22  24  1   
 42  22  45  1   
 43  22  46  1   
 44  23  25  1   
 45  24  26  1   
 46  24  27  1   
 47  25  47  1   
 48  25  48  1   
 49  25  49  1   
 50  26  28  1   
 51  26  50  1   
 52  26  51  1   
 53  27  29  1   
 54  27  52  1   
 55  27  53  1   
 56  28  54  1   
 57  29  55  1   
@<TRIPOS>SUBSTRUCTURE
  1 ****  16 GROUP 4 **** **** 0

# MOE 2024.06 (io_trps.svl 2023.06)
