@<TRIPOS>MOLECULE
NONAME
48 51 1 0 0 
SMALL
USER_CHARGES


@<TRIPOS>ATOM
  1 O        0.3270    -0.9300    -0.8170 O.3   1 <1>  -0.3630 
  2 C        0.1750    -2.1510    -0.2700 C.ar  1 <1>   0.0820 
  3 C       -0.8610    -0.1930    -0.5390 C.3   1 <1>   0.4000 
  4 C        1.0390    -3.2460    -0.2420 C.ar  1 <1>   0.0820 
  5 C       -1.0520    -2.2250     0.3230 C.ar  1 <1>   0.0820 
  6 O       -1.7170    -1.0750     0.1800 O.3   1 <1>  -0.3630 
  7 O        2.2800    -3.3040    -0.7960 O.3   1 <1>  -0.3630 
  8 C        0.6050    -4.3960     0.4050 C.ar  1 <1>  -0.1500 
  9 C       -1.4970    -3.3630     0.9670 C.ar  1 <1>  -0.1500 
 10 C        2.8530    -2.1730    -1.4130 C.3   1 <1>   0.0400 
 11 C       -0.6540    -4.4680     1.0000 C.ar  1 <1>  -0.1430 
 12 C       -1.1040    -5.7520     1.6670 C.3   1 <1>   0.4870 
 13 N       -1.3840    -6.7450     0.5960 N.4   1 <1>  -0.9590 
 14 C       -2.6250    -6.3680    -0.1570 C.3   1 <1>   0.3430 
 15 C       -1.6180    -8.1040     1.1770 C.3   1 <1>   0.3430 
 16 C       -3.7210    -7.3110     0.3470 C.3   1 <1>   0.2000 
 17 C       -2.9600    -8.6030     0.6260 C.3   1 <1>  -0.0800 
 18 O       -4.1940    -6.8190     1.5590 O.3   1 <1>  -0.6800 
 19 C       -2.7830    -9.4560    -0.6470 C.3   1 <1>  -0.0170 
 20 C       -1.7760   -10.5710    -0.4170 C.ar  1 <1>  -0.1430 
 21 C       -2.0320   -11.6190     0.4450 C.ar  1 <1>  -0.1500 
 22 C       -0.5500   -10.5890    -1.0530 C.ar  1 <1>  -0.1500 
 23 C       -1.0680   -12.5940     0.6420 C.ar  1 <1>   0.1600 
 24 C        0.3440   -11.6130    -0.7860 C.ar  1 <1>   0.1600 
 25 N        0.1160   -12.6060     0.0550 N.ar  1 <1>  -0.6200 
 26 H       -0.6220     0.6580     0.0750 H     1 <1>   0.0800 
 27 H       -1.3310     0.0990    -1.4610 H     1 <1>   0.0800 
 28 H        1.2810    -5.2330     0.4330 H     1 <1>   0.1500 
 29 H       -2.4730    -3.3630     1.4210 H     1 <1>   0.1500 
 30 H        3.8420    -2.4340    -1.7440 H     1 <1>   0.0800 
 31 H        2.9070    -1.3730    -0.6960 H     1 <1>   0.0800 
 32 H        2.2480    -1.8890    -2.2560 H     1 <1>   0.0800 
 33 H       -1.9900    -5.5790     2.2570 H     1 <1>   0.0800 
 34 H       -0.3200    -6.1100     2.3140 H     1 <1>   0.0800 
 35 H       -0.5800    -6.7420    -0.0430 H     1 <1>   0.4500 
 36 H       -2.9030    -5.3370    -0.0080 H     1 <1>   0.0800 
 37 H       -2.4700    -6.5380    -1.2100 H     1 <1>   0.0800 
 38 H       -0.8120    -8.7800     0.9370 H     1 <1>   0.0800 
 39 H       -1.6950    -8.0310     2.2490 H     1 <1>   0.0800 
 40 H       -4.5450    -7.4090    -0.3410 H     1 <1>   0.0800 
 41 H       -3.4630    -9.2000     1.3660 H     1 <1>   0.0800 
 42 H       -5.0300    -7.2610     1.8220 H     1 <1>   0.4000 
 43 H       -2.4540    -8.8510    -1.4730 H     1 <1>   0.0800 
 44 H       -3.7290    -9.8910    -0.9260 H     1 <1>   0.0800 
 45 H       -2.9690   -11.6960     0.9670 H     1 <1>   0.1500 
 46 H       -0.2730    -9.8270    -1.7580 H     1 <1>   0.1500 
 47 H       -1.2820   -13.4060     1.3180 H     1 <1>   0.1500 
 48 H        1.2960   -11.6170    -1.2900 H     1 <1>   0.1500 
@<TRIPOS>BOND
  1   1   2  1   
  2   1   3  1   
  3   2   4  ar  
  4   2   5  ar  
  5   3   6  1   
  6   3  26  1   
  7   3  27  1   
  8   4   7  1   
  9   4   8  ar  
 10   5   6  1   
 11   5   9  ar  
 12   7  10  1   
 13   8  11  ar  
 14   8  28  1   
 15   9  11  ar  
 16   9  29  1   
 17  10  30  1   
 18  10  31  1   
 19  10  32  1   
 20  11  12  1   
 21  12  13  1   
 22  12  33  1   
 23  12  34  1   
 24  13  14  1   
 25  13  15  1   
 26  13  35  1   
 27  14  16  1   
 28  14  36  1   
 29  14  37  1   
 30  15  17  1   
 31  15  38  1   
 32  15  39  1   
 33  16  17  1   
 34  16  18  1   
 35  16  40  1   
 36  17  19  1   
 37  17  41  1   
 38  18  42  1   
 39  19  20  1   
 40  19  43  1   
 41  19  44  1   
 42  20  21  ar  
 43  20  22  ar  
 44  21  23  ar  
 45  21  45  1   
 46  22  24  ar  
 47  22  46  1   
 48  23  25  ar  
 49  23  47  1   
 50  24  25  ar  
 51  24  48  1   
@<TRIPOS>SUBSTRUCTURE
  1 ****  13 GROUP 4 **** **** 0

# MOE 2024.06 (io_trps.svl 2023.06)
