@<TRIPOS>MOLECULE
NONAME
49 52 1 0 0 
SMALL
USER_CHARGES


@<TRIPOS>ATOM
  1 O       -0.9170     0.1420     1.6950 O.2   1 <1>  -0.5700 
  2 C       -1.5530     0.7190     0.8450 C.2   1 <1>   0.5690 
  3 N       -2.3870     0.0090     0.0160 N.am  1 <1>  -0.6600 
  4 C       -1.3730     2.2410     0.7750 C.3   1 <1>  -0.0190 
  5 C       -3.2700     0.4950    -1.0770 C.3   1 <1>   0.1400 
  6 C       -2.5580    -1.4590     0.1750 C.3   1 <1>   0.1400 
  7 C       -2.5920     3.0200     1.3050 C.3   1 <1>  -0.1600 
  8 C       -0.9290     2.7820    -0.5990 C.3   1 <1>  -0.1600 
  9 C       -4.3410    -0.5850    -1.2020 C.3   1 <1>   0.2000 
 10 C       -3.5780    -1.8780    -0.8940 C.3   1 <1>  -0.0800 
 11 C       -2.3650     4.5310     1.1860 C.3   1 <1>   0.1200 
 12 C       -0.8120     4.3080    -0.5610 C.3   1 <1>   0.1200 
 13 O       -5.2940    -0.3570    -0.2200 O.3   1 <1>  -0.6800 
 14 C       -4.4740    -3.0660    -0.4830 C.3   1 <1>  -0.0170 
 15 O       -2.0240     4.8440    -0.1290 O.3   1 <1>  -0.5600 
 16 C       -3.7870    -4.4280    -0.3170 C.ar  1 <1>  -0.1440 
 17 C       -4.5160    -5.5180     0.2200 C.ar  1 <1>   0.0000 
 18 C       -2.4880    -4.6690    -0.6710 C.ar  1 <1>  -0.1500 
 19 C       -3.8480    -6.7580     0.3700 C.ar  1 <1>   0.3100 
 20 C       -5.8750    -5.4540     0.6130 C.ar  1 <1>  -0.1500 
 21 C       -1.9230    -5.9360    -0.4840 C.ar  1 <1>   0.1600 
 22 N       -2.5540    -6.9500     0.0150 N.ar  1 <1>  -0.6200 
 23 C       -4.5470    -7.8510     0.9070 C.ar  1 <1>  -0.1500 
 24 C       -6.5290    -6.5390     1.1310 C.ar  1 <1>  -0.1500 
 25 C       -5.8590    -7.7540     1.2820 C.ar  1 <1>  -0.1500 
 26 H       -0.5650     2.4670     1.4500 H     1 <1>   0.0800 
 27 H       -3.7050     1.4560    -0.8770 H     1 <1>   0.0800 
 28 H       -2.7010     0.5420    -1.9890 H     1 <1>   0.0800 
 29 H       -1.6140    -1.9600     0.0500 H     1 <1>   0.0800 
 30 H       -2.9320    -1.6620     1.1650 H     1 <1>   0.0800 
 31 H       -2.7590     2.7660     2.3370 H     1 <1>   0.0800 
 32 H       -3.4820     2.7690     0.7630 H     1 <1>   0.0800 
 33 H       -1.6320     2.5290    -1.3670 H     1 <1>   0.0800 
 34 H        0.0210     2.3550    -0.8660 H     1 <1>   0.0800 
 35 H       -4.8300    -0.5910    -2.1620 H     1 <1>   0.0800 
 36 H       -3.0410    -2.1420    -1.7870 H     1 <1>   0.0800 
 37 H       -1.5730     4.8620     1.8360 H     1 <1>   0.0800 
 38 H       -3.2650     5.0690     1.4300 H     1 <1>   0.0800 
 39 H       -0.6130     4.6970    -1.5450 H     1 <1>   0.0800 
 40 H       -0.0320     4.6300     0.1080 H     1 <1>   0.0800 
 41 H       -4.8330    -0.2040     0.6300 H     1 <1>   0.4000 
 42 H       -5.2510    -3.1740    -1.2200 H     1 <1>   0.0800 
 43 H       -4.9500    -2.8180     0.4500 H     1 <1>   0.0800 
 44 H       -1.8520    -3.9220    -1.1020 H     1 <1>   0.1500 
 45 H       -6.4170    -4.5330     0.5030 H     1 <1>   0.1500 
 46 H       -0.8960    -6.0760    -0.7740 H     1 <1>   0.1500 
 47 H       -4.0110    -8.7760     1.0110 H     1 <1>   0.1500 
 48 H       -7.5620    -6.4710     1.4260 H     1 <1>   0.1500 
 49 H       -6.3830    -8.6010     1.6920 H     1 <1>   0.1500 
@<TRIPOS>BOND
  1   1   2  2   
  2   2   3  am  
  3   2   4  1   
  4   3   5  1   
  5   3   6  1   
  6   4   7  1   
  7   4   8  1   
  8   4  26  1   
  9   5   9  1   
 10   5  27  1   
 11   5  28  1   
 12   6  10  1   
 13   6  29  1   
 14   6  30  1   
 15   7  11  1   
 16   7  31  1   
 17   7  32  1   
 18   8  12  1   
 19   8  33  1   
 20   8  34  1   
 21   9  10  1   
 22   9  13  1   
 23   9  35  1   
 24  10  14  1   
 25  10  36  1   
 26  11  15  1   
 27  11  37  1   
 28  11  38  1   
 29  12  15  1   
 30  12  39  1   
 31  12  40  1   
 32  13  41  1   
 33  14  16  1   
 34  14  42  1   
 35  14  43  1   
 36  16  17  ar  
 37  16  18  ar  
 38  17  19  ar  
 39  17  20  ar  
 40  18  21  ar  
 41  18  44  1   
 42  19  22  ar  
 43  19  23  ar  
 44  20  24  ar  
 45  20  45  1   
 46  21  22  ar  
 47  21  46  1   
 48  23  25  ar  
 49  23  47  1   
 50  24  25  ar  
 51  24  48  1   
 52  25  49  1   
@<TRIPOS>SUBSTRUCTURE
  1 ****   6 GROUP 4 **** **** 0

# MOE 2024.06 (io_trps.svl 2023.06)
