@<TRIPOS>MOLECULE
NONAME
35 37 1 0 0 
SMALL
USER_CHARGES


@<TRIPOS>ATOM
  1 O        0.7200     0.0590     0.7740 O.2   1 <1>  -0.5700 
  2 C        1.7930    -0.1400     0.2680 C.2   1 <1>   0.5690 
  3 N        2.4880     0.7750    -0.4180 N.am  1 <1>  -0.7300 
  4 C        2.5210    -1.4510     0.3320 C.3   1 <1>  -0.0990 
  5 C        3.7740     0.2800    -0.9100 C.3   1 <1>   0.2200 
  6 C        3.7700    -1.2140    -0.5360 C.3   1 <1>   0.2200 
  7 C        4.9270     0.9210    -0.1370 C.3   1 <1>  -0.1600 
  8 N        5.0200    -1.4450     0.2180 N.am  1 <1>  -0.6600 
  9 C        5.8340    -0.2210     0.3160 C.3   1 <1>   0.1400 
 10 C        5.5030    -2.6790     0.5380 C.2   1 <1>   0.7800 
 11 O        6.5930    -2.8420     1.0500 O.2   1 <1>  -0.5700 
 12 O        4.7300    -3.7260     0.2660 O.3   1 <1>  -0.4300 
 13 C        5.1630    -5.0270     0.5890 C.3   1 <1>   0.2630 
 14 C        4.0970    -6.0160     0.1480 C.ar  1 <1>  -0.1440 
 15 C        2.8360    -5.9840     0.7240 C.ar  1 <1>  -0.1500 
 16 C        4.3730    -6.9620    -0.8280 C.ar  1 <1>  -0.1500 
 17 C        1.8630    -6.8880     0.3320 C.ar  1 <1>  -0.1500 
 18 C        3.4020    -7.8680    -1.2200 C.ar  1 <1>  -0.1500 
 19 C        2.1460    -7.8310    -0.6400 C.ar  1 <1>  -0.1500 
 20 H        2.1670     1.7380    -0.5320 H     1 <1>   0.3700 
 21 H        2.7720    -1.6740     1.3520 H     1 <1>   0.0800 
 22 H        1.9070    -2.2290    -0.0800 H     1 <1>   0.0800 
 23 H        3.8620     0.4130    -1.9750 H     1 <1>   0.0800 
 24 H        3.7520    -1.8260    -1.4220 H     1 <1>   0.0800 
 25 H        5.4720     1.6180    -0.7480 H     1 <1>   0.0800 
 26 H        4.5640     1.4340     0.7370 H     1 <1>   0.0800 
 27 H        6.1760    -0.0780     1.3270 H     1 <1>   0.0800 
 28 H        6.6870    -0.3130    -0.3370 H     1 <1>   0.0800 
 29 H        6.0970    -5.2090     0.0840 H     1 <1>   0.0800 
 30 H        5.3140    -5.0820     1.6530 H     1 <1>   0.0800 
 31 H        2.6080    -5.2510     1.4780 H     1 <1>   0.1500 
 32 H        5.3450    -7.0000    -1.2880 H     1 <1>   0.1500 
 33 H        0.8870    -6.8560     0.7830 H     1 <1>   0.1500 
 34 H        3.6230    -8.6000    -1.9770 H     1 <1>   0.1500 
 35 H        1.3910    -8.5340    -0.9450 H     1 <1>   0.1500 
@<TRIPOS>BOND
  1   1   2  2   
  2   2   3  am  
  3   2   4  1   
  4   3   5  1   
  5   3  20  1   
  6   4   6  1   
  7   4  21  1   
  8   4  22  1   
  9   5   6  1   
 10   5   7  1   
 11   5  23  1   
 12   6   8  1   
 13   6  24  1   
 14   7   9  1   
 15   7  25  1   
 16   7  26  1   
 17   8   9  1   
 18   8  10  am  
 19   9  27  1   
 20   9  28  1   
 21  10  11  2   
 22  10  12  1   
 23  12  13  1   
 24  13  14  1   
 25  13  29  1   
 26  13  30  1   
 27  14  15  ar  
 28  14  16  ar  
 29  15  17  ar  
 30  15  31  1   
 31  16  18  ar  
 32  16  32  1   
 33  17  19  ar  
 34  17  33  1   
 35  18  19  ar  
 36  18  34  1   
 37  19  35  1   
@<TRIPOS>SUBSTRUCTURE
  1 ****  12 GROUP 4 **** **** 0

# MOE 2024.06 (io_trps.svl 2023.06)
