@<TRIPOS>MOLECULE
NONAME
36 37 1 0 0 
SMALL
USER_CHARGES


@<TRIPOS>ATOM
  1 O       -2.7540     2.4110    -2.1770 O.2   1 <1>  -0.5700 
  2 C       -2.5240     1.9520    -1.0740 C.2   1 <1>   0.5440 
  3 N       -2.9040     0.6630    -0.7720 N.am  1 <1>  -0.6600 
  4 C       -1.8470     2.7730    -0.0890 C.ar  1 <1>   0.0860 
  5 C       -2.6910     0.0630     0.5920 C.3   1 <1>   0.1400 
  6 C       -3.5520    -0.2340    -1.7710 C.3   1 <1>   0.1400 
  7 C       -0.4830     2.6410     0.2100 C.ar  1 <1>  -0.1440 
  8 C       -2.5920     3.7270     0.6050 C.ar  1 <1>  -0.1500 
  9 C       -3.5660    -1.1730     0.8810 C.3   1 <1>   0.2000 
 10 C       -4.9110    -0.7400    -1.2620 C.3   1 <1>  -0.1600 
 11 C        0.0720     3.4400     1.2050 C.ar  1 <1>   0.0820 
 12 C        0.3960     1.6360    -0.5400 C.3   1 <1>  -0.0960 
 13 C       -2.0250     4.5200     1.5840 C.ar  1 <1>  -0.1500 
 14 O       -2.9710    -2.3100     0.3570 O.3   1 <1>  -0.6800 
 15 C       -4.9600    -1.0170     0.2640 C.3   1 <1>  -0.1860 
 16 O        1.3680     3.3280     1.5350 O.3   1 <1>  -0.5330 
 17 C       -0.6870     4.3720     1.8880 C.ar  1 <1>  -0.1500 
 18 C       -5.8240    -2.2090     0.6240 C.2   1 <1>   0.9060 
 19 O       -6.9000    -2.0130     1.1910 O.co2 1 <1>  -0.9000 
 20 O       -5.4000    -3.3440     0.3620 O.co2 1 <1>  -0.9000 
 21 H       -1.6570    -0.2020     0.7160 H     1 <1>   0.0800 
 22 H       -2.9350     0.8090     1.3280 H     1 <1>   0.0800 
 23 H       -3.6840     0.2660    -2.7150 H     1 <1>   0.0800 
 24 H       -2.9020    -1.0760    -1.9370 H     1 <1>   0.0800 
 25 H       -3.6350     3.8380     0.3640 H     1 <1>   0.1500 
 26 H       -3.6490    -1.3260     1.9440 H     1 <1>   0.0800 
 27 H       -5.6740    -0.0240    -1.5110 H     1 <1>   0.0800 
 28 H       -5.1430    -1.6460    -1.7950 H     1 <1>   0.0800 
 29 H       -0.1070     1.2080    -1.3880 H     1 <1>   0.0800 
 30 H        0.6790     0.8340     0.1180 H     1 <1>   0.0800 
 31 H        1.2820     2.1210    -0.9090 H     1 <1>   0.0800 
 32 H       -2.6210     5.2490     2.1060 H     1 <1>   0.1500 
 33 H       -3.7120    -2.9830     0.2810 H     1 <1>   0.4000 
 34 H       -5.4120    -0.1620     0.7310 H     1 <1>   0.0800 
 35 H        1.8370     2.6710     0.9920 H     1 <1>   0.4500 
 36 H       -0.2250     4.9760     2.6480 H     1 <1>   0.1500 
@<TRIPOS>BOND
  1   1   2  2   
  2   2   3  am  
  3   2   4  1   
  4   3   5  1   
  5   3   6  1   
  6   4   7  ar  
  7   4   8  ar  
  8   5   9  1   
  9   5  21  1   
 10   5  22  1   
 11   6  10  1   
 12   6  23  1   
 13   6  24  1   
 14   7  11  ar  
 15   7  12  1   
 16   8  13  ar  
 17   8  25  1   
 18   9  14  1   
 19   9  15  1   
 20   9  26  1   
 21  10  15  1   
 22  10  27  1   
 23  10  28  1   
 24  11  16  1   
 25  11  17  ar  
 26  12  29  1   
 27  12  30  1   
 28  12  31  1   
 29  13  17  ar  
 30  13  32  1   
 31  14  33  1   
 32  15  18  1   
 33  15  34  1   
 34  16  35  1   
 35  17  36  1   
 36  18  19  ar  
 37  18  20  ar  
@<TRIPOS>SUBSTRUCTURE
  1 ****   5 GROUP 4 **** **** 0

# MOE 2024.06 (io_trps.svl 2023.06)
