@<TRIPOS>MOLECULE
NONAME
50 53 1 0 0 
SMALL
USER_CHARGES


@<TRIPOS>ATOM
  1 O        2.7330    -0.7200     1.4610 O.2   1 <1>  -0.5700 
  2 C        2.1150    -1.1870     0.5350 C.2   1 <1>   0.5690 
  3 N        1.8990    -0.5260    -0.6330 N.am  1 <1>  -0.4940 
  4 C        1.5010    -2.5830     0.6530 C.3   1 <1>   0.1710 
  5 C        2.0870     0.8130    -0.9820 C.2   1 <1>   0.2500 
  6 N        0.3690    -2.8030    -0.2930 N.3   1 <1>  -0.8100 
  7 N        1.2600     1.4090    -1.7820 N.2   1 <1>  -0.3380 
  8 N        3.0780     1.6370    -0.5790 N.pl3 1 <1>   0.3340 
  9 C        0.0500    -4.2440    -0.4190 C.3   1 <1>   0.1100 
 10 C       -0.8520    -2.0760     0.1480 C.3   1 <1>   0.1100 
 11 N        1.6710     2.6680    -1.9200 N.2   1 <1>  -0.3380 
 12 C        2.7500     2.8030    -1.2060 C.2   1 <1>   0.3120 
 13 C        4.2550     1.5700     0.1600 C.2   1 <1>  -0.1810 
 14 C       -1.1110    -4.5100    -1.4010 C.3   1 <1>   0.2090 
 15 C       -2.0200    -2.2460    -0.8410 C.3   1 <1>   0.2090 
 16 N        3.4970     3.9550    -1.0850 N.2   1 <1>  -0.5760 
 17 C        5.0000     2.6960     0.2700 C.2   1 <1>  -0.1360 
 18 N       -2.3160    -3.6880    -1.0810 N.pl3 1 <1>  -0.8380 
 19 C        4.5690     3.8910    -0.3740 C.2   1 <1>   0.3750 
 20 C       -3.4270    -4.2450    -0.4460 C.ar  1 <1>   0.1000 
 21 C        5.4160     5.1340    -0.2160 C.3   1 <1>  -0.1790 
 22 C       -4.7010    -3.8360    -0.8200 C.ar  1 <1>  -0.1500 
 23 C       -3.3090    -5.1950     0.5630 C.ar  1 <1>  -0.1500 
 24 C       -5.8320    -4.3510    -0.2100 C.ar  1 <1>  -0.1430 
 25 C       -4.4310    -5.7180     1.1780 C.ar  1 <1>  -0.1500 
 26 C       -5.6920    -5.2950     0.7930 C.ar  1 <1>  -0.1500 
 27 C       -7.2180    -3.8950    -0.6290 C.3   1 <1>  -0.0970 
 28 H        1.2480    -1.0360    -1.2420 H     1 <1>   0.3700 
 29 H        1.1720    -2.7390     1.6660 H     1 <1>   0.0800 
 30 H        2.2820    -3.2910     0.4450 H     1 <1>   0.0800 
 31 H       -0.2130    -4.6420     0.5450 H     1 <1>   0.0800 
 32 H        0.9200    -4.7720    -0.7700 H     1 <1>   0.0800 
 33 H       -0.6430    -1.0240     0.2440 H     1 <1>   0.0800 
 34 H       -1.1680    -2.4390     1.1110 H     1 <1>   0.0800 
 35 H        4.5130     0.6270     0.6050 H     1 <1>   0.1500 
 36 H       -1.3700    -5.5540    -1.3850 H     1 <1>   0.0800 
 37 H       -0.7870    -4.2710    -2.3980 H     1 <1>   0.0800 
 38 H       -1.7690    -1.7770    -1.7760 H     1 <1>   0.0800 
 39 H       -2.8920    -1.7560    -0.4470 H     1 <1>   0.0800 
 40 H        5.9160     2.7210     0.8310 H     1 <1>   0.1500 
 41 H        5.4900     5.3960     0.8230 H     1 <1>   0.0800 
 42 H        4.9710     5.9570    -0.7470 H     1 <1>   0.0800 
 43 H        6.3990     4.9600    -0.6110 H     1 <1>   0.0800 
 44 H       -4.7880    -3.1090    -1.6050 H     1 <1>   0.1500 
 45 H       -2.3370    -5.5230     0.8730 H     1 <1>   0.1500 
 46 H       -4.3280    -6.4520     1.9570 H     1 <1>   0.1500 
 47 H       -6.5620    -5.7040     1.2760 H     1 <1>   0.1500 
 48 H       -7.1630    -3.2200    -1.4650 H     1 <1>   0.0800 
 49 H       -7.7000    -3.3920     0.1890 H     1 <1>   0.0800 
 50 H       -7.8110    -4.7450    -0.9150 H     1 <1>   0.0800 
@<TRIPOS>BOND
  1   1   2  2   
  2   2   3  am  
  3   2   4  1   
  4   3   5  1   
  5   3  28  1   
  6   4   6  1   
  7   4  29  1   
  8   4  30  1   
  9   5   7  2   
 10   5   8  1   
 11   6   9  1   
 12   6  10  1   
 13   7  11  1   
 14   8  12  1   
 15   8  13  1   
 16   9  14  1   
 17   9  31  1   
 18   9  32  1   
 19  10  15  1   
 20  10  33  1   
 21  10  34  1   
 22  11  12  2   
 23  12  16  1   
 24  13  17  2   
 25  13  35  1   
 26  14  18  1   
 27  14  36  1   
 28  14  37  1   
 29  15  18  1   
 30  15  38  1   
 31  15  39  1   
 32  16  19  2   
 33  17  19  1   
 34  17  40  1   
 35  18  20  1   
 36  19  21  1   
 37  20  22  ar  
 38  20  23  ar  
 39  21  41  1   
 40  21  42  1   
 41  21  43  1   
 42  22  24  ar  
 43  22  44  1   
 44  23  25  ar  
 45  23  45  1   
 46  24  26  ar  
 47  24  27  1   
 48  25  26  ar  
 49  25  46  1   
 50  26  47  1   
 51  27  48  1   
 52  27  49  1   
 53  27  50  1   
@<TRIPOS>SUBSTRUCTURE
  1 ****  10 GROUP 4 **** **** 0

# MOE 2024.06 (io_trps.svl 2023.06)
