@<TRIPOS>MOLECULE
NONAME
46 49 1 0 0 
SMALL
USER_CHARGES


@<TRIPOS>ATOM
  1 CL       0.5630     0.0190     1.1850 Cl    1 <1>  -0.1400 
  2 C        1.1620    -1.5460     0.6970 C.2   1 <1>   0.1400 
  3 C        0.4160    -2.6720     0.9030 C.2   1 <1>   0.2290 
  4 C        2.4330    -1.6100     0.0890 C.2   1 <1>  -0.1500 
  5 N        0.9130    -3.9020     0.5050 N.pl3 1 <1>  -0.6290 
  6 C        2.9110    -2.8360    -0.2950 C.2   1 <1>  -0.1410 
  7 C        2.1340    -3.9910    -0.0800 C.cat 1 <1>   0.7910 
  8 C        0.4150    -5.1850     0.5960 C.2   1 <1>   0.2000 
  9 N        2.3810    -5.2750    -0.3560 N.pl3 1 <1>  -0.7000 
 10 C        1.3090    -6.0500     0.0590 C.2   1 <1>   0.2770 
 11 C        1.2350    -7.4970    -0.0530 C.2   1 <1>   0.7030 
 12 O        2.2640    -8.1230    -0.2210 O.2   1 <1>  -0.5700 
 13 N        0.0420    -8.1750     0.0270 N.am  1 <1>  -0.6600 
 14 C       -1.1880    -7.8080    -0.7310 C.3   1 <1>   0.1400 
 15 C       -0.0330    -9.6100     0.4180 C.3   1 <1>   0.1400 
 16 C       -2.1450    -8.9920    -0.5660 C.3   1 <1>   0.2000 
 17 C       -1.2110   -10.1870    -0.3700 C.3   1 <1>  -0.0800 
 18 O       -2.8850    -8.7940     0.6040 O.3   1 <1>  -0.5600 
 19 C       -1.8680   -11.4030     0.3110 C.3   1 <1>   0.0200 
 20 C       -4.1990    -8.3720     0.4100 C.3   1 <1>   0.0400 
 21 C       -0.9630   -12.6230     0.3570 C.2   1 <1>  -0.0400 
 22 O       -1.3570   -13.6680     1.0350 O.3   1 <1>  -0.0190 
 23 C        0.2360   -12.9120    -0.1760 C.2   1 <1>  -0.1500 
 24 N       -0.4880   -14.6360     0.9870 N.2   1 <1>  -0.4100 
 25 C        0.4820   -14.2090     0.2640 C.2   1 <1>   0.1080 
 26 C        1.7220   -15.0140    -0.0580 C.3   1 <1>  -0.0590 
 27 H       -0.5550    -2.6290     1.3710 H     1 <1>   0.1500 
 28 H        2.9900    -0.6990    -0.0550 H     1 <1>   0.1500 
 29 H        3.8730    -2.9430    -0.7610 H     1 <1>   0.1500 
 30 H       -0.5380    -5.4120     1.0480 H     1 <1>   0.1500 
 31 H        3.2360    -5.6710    -0.7610 H     1 <1>   0.4500 
 32 H       -1.6390    -6.9050    -0.3610 H     1 <1>   0.0800 
 33 H       -0.9380    -7.6910    -1.7720 H     1 <1>   0.0800 
 34 H        0.8830   -10.1330     0.1980 H     1 <1>   0.0800 
 35 H       -0.2280    -9.6700     1.4750 H     1 <1>   0.0800 
 36 H       -2.8050    -9.1230    -1.4070 H     1 <1>   0.0800 
 37 H       -0.8500   -10.4860    -1.3380 H     1 <1>   0.0800 
 38 H       -2.7650   -11.6680    -0.2180 H     1 <1>   0.0800 
 39 H       -2.1490   -11.1500     1.3190 H     1 <1>   0.0800 
 40 H       -4.6510    -8.2290     1.3760 H     1 <1>   0.0800 
 41 H       -4.7400    -9.1310    -0.1300 H     1 <1>   0.0800 
 42 H       -4.2030    -7.4430    -0.1340 H     1 <1>   0.0800 
 43 H        0.8850   -12.3260    -0.7990 H     1 <1>   0.1500 
 44 H        1.8490   -15.0790    -1.1230 H     1 <1>   0.0800 
 45 H        1.6280   -16.0070     0.3430 H     1 <1>   0.0800 
 46 H        2.5840   -14.5430     0.3760 H     1 <1>   0.0800 
@<TRIPOS>BOND
  1   1   2  1   
  2   2   3  2   
  3   2   4  1   
  4   3   5  1   
  5   3  27  1   
  6   4   6  2   
  7   4  28  1   
  8   5   7  ar  
  9   5   8  1   
 10   6   7  1   
 11   6  29  1   
 12   7   9  ar  
 13   8  10  2   
 14   8  30  1   
 15   9  10  1   
 16   9  31  1   
 17  10  11  1   
 18  11  12  2   
 19  11  13  am  
 20  13  14  1   
 21  13  15  1   
 22  14  16  1   
 23  14  32  1   
 24  14  33  1   
 25  15  17  1   
 26  15  34  1   
 27  15  35  1   
 28  16  17  1   
 29  16  18  1   
 30  16  36  1   
 31  17  19  1   
 32  17  37  1   
 33  18  20  1   
 34  19  21  1   
 35  19  38  1   
 36  19  39  1   
 37  20  40  1   
 38  20  41  1   
 39  20  42  1   
 40  21  22  1   
 41  21  23  2   
 42  22  24  1   
 43  23  25  1   
 44  23  43  1   
 45  24  25  2   
 46  25  26  1   
 47  26  44  1   
 48  26  45  1   
 49  26  46  1   
@<TRIPOS>SUBSTRUCTURE
  1 ****  13 GROUP 4 **** **** 0

# MOE 2024.06 (io_trps.svl 2023.06)
