@<TRIPOS>MOLECULE
NONAME
43 45 1 0 0 
SMALL
USER_CHARGES


@<TRIPOS>ATOM
  1 CL      -0.1600    -1.1420    -0.4220 Cl    1 <1>  -0.1770 
  2 C       -1.7850    -1.5850     0.0240 C.ar  1 <1>   0.1770 
  3 C       -2.4950    -2.4600    -0.7760 C.ar  1 <1>  -0.1500 
  4 C       -2.3430    -1.0560     1.1710 C.ar  1 <1>  -0.1500 
  5 C       -3.7900    -2.8150    -0.4300 C.ar  1 <1>  -0.1440 
  6 C       -3.6340    -1.4110     1.5140 C.ar  1 <1>  -0.1500 
  7 C       -4.3820    -2.2880     0.7260 C.ar  1 <1>   0.0860 
  8 C       -4.5610    -3.7860    -1.3160 C.3   1 <1>  -0.0960 
  9 C       -5.7400    -2.6160     1.1170 C.2   1 <1>   0.5440 
 10 O       -5.9500    -3.6540     1.7170 O.2   1 <1>  -0.5700 
 11 N       -6.7960    -1.7770     0.8230 N.am  1 <1>  -0.6600 
 12 C       -8.1940    -2.0860     1.2490 C.3   1 <1>   0.1400 
 13 C       -6.6730    -0.5450    -0.0010 C.3   1 <1>   0.1400 
 14 C       -9.1350    -2.2490     0.0310 C.3   1 <1>   0.0000 
 15 C       -7.5670    -0.6680    -1.2390 C.3   1 <1>  -0.1600 
 16 C      -10.5640    -2.5130     0.5500 C.3   1 <1>   0.2000 
 17 C       -9.0230    -0.9870    -0.8630 C.3   1 <1>  -0.1600 
 18 C       -8.8040    -3.5460    -0.7350 C.3   1 <1>  -0.1600 
 19 O      -11.4910    -2.3110    -0.4580 O.3   1 <1>  -0.6800 
 20 C      -10.5950    -4.0010     0.8920 C.3   1 <1>  -0.1600 
 21 C       -9.5700    -4.6750    -0.0310 C.3   1 <1>  -0.1600 
 22 H       -2.0260    -2.8550    -1.6590 H     1 <1>   0.1500 
 23 H       -1.7710    -0.3810     1.7810 H     1 <1>   0.1500 
 24 H       -4.0810    -1.0110     2.4080 H     1 <1>   0.1500 
 25 H       -3.9480    -4.1470    -2.1220 H     1 <1>   0.0800 
 26 H       -5.4230    -3.2990    -1.7330 H     1 <1>   0.0800 
 27 H       -4.8880    -4.6310    -0.7360 H     1 <1>   0.0800 
 28 H       -8.2120    -2.9780     1.8510 H     1 <1>   0.0800 
 29 H       -8.5450    -1.2770     1.8660 H     1 <1>   0.0800 
 30 H       -6.9820     0.3010     0.5890 H     1 <1>   0.0800 
 31 H       -5.6560    -0.3810    -0.3100 H     1 <1>   0.0800 
 32 H       -7.5340     0.2550    -1.7890 H     1 <1>   0.0800 
 33 H       -7.1760    -1.4400    -1.8770 H     1 <1>   0.0800 
 34 H      -10.8360    -1.8860     1.3820 H     1 <1>   0.0800 
 35 H       -9.5990    -1.1100    -1.7640 H     1 <1>   0.0800 
 36 H       -9.4380    -0.1480    -0.3310 H     1 <1>   0.0800 
 37 H       -9.1520    -3.4690    -1.7490 H     1 <1>   0.0800 
 38 H       -7.7480    -3.7500    -0.7570 H     1 <1>   0.0800 
 39 H      -11.2820    -2.9110    -1.1970 H     1 <1>   0.4000 
 40 H      -10.2790    -4.1290     1.9130 H     1 <1>   0.0800 
 41 H      -11.5820    -4.4210     0.7920 H     1 <1>   0.0800 
 42 H       -8.8930    -5.2760     0.5520 H     1 <1>   0.0800 
 43 H      -10.0580    -5.3060    -0.7540 H     1 <1>   0.0800 
@<TRIPOS>BOND
  1   1   2  1   
  2   2   3  ar  
  3   2   4  ar  
  4   3   5  ar  
  5   3  22  1   
  6   4   6  ar  
  7   4  23  1   
  8   5   7  ar  
  9   5   8  1   
 10   6   7  ar  
 11   6  24  1   
 12   7   9  1   
 13   8  25  1   
 14   8  26  1   
 15   8  27  1   
 16   9  10  2   
 17   9  11  am  
 18  11  12  1   
 19  11  13  1   
 20  12  14  1   
 21  12  28  1   
 22  12  29  1   
 23  13  15  1   
 24  13  30  1   
 25  13  31  1   
 26  14  16  1   
 27  14  17  1   
 28  14  18  1   
 29  15  17  1   
 30  15  32  1   
 31  15  33  1   
 32  16  19  1   
 33  16  20  1   
 34  16  34  1   
 35  17  35  1   
 36  17  36  1   
 37  18  21  1   
 38  18  37  1   
 39  18  38  1   
 40  19  39  1   
 41  20  21  1   
 42  20  40  1   
 43  20  41  1   
 44  21  42  1   
 45  21  43  1   
@<TRIPOS>SUBSTRUCTURE
  1 ****  11 GROUP 4 **** **** 0

# MOE 2024.06 (io_trps.svl 2023.06)
