@<TRIPOS>MOLECULE
NONAME
43 45 1 0 0 
SMALL
USER_CHARGES


@<TRIPOS>ATOM
  1 O        0.6700     0.2110     1.1570 O.3   1 <1>  -0.6800 
  2 C        1.3630    -0.2870     0.0600 C.3   1 <1>   0.2000 
  3 C        2.0760    -1.5680     0.4910 C.3   1 <1>  -0.0800 
  4 C        2.5210     0.6640    -0.2400 C.3   1 <1>   0.3430 
  5 C        3.3360    -1.0600     1.2140 C.3   1 <1>   0.3430 
  6 C        2.4140    -2.4530    -0.7300 C.3   1 <1>  -0.0160 
  7 N        3.5180     0.3750     0.8320 N.4   1 <1>  -0.9590 
  8 C        3.1410    -3.7320    -0.3370 C.ar  1 <1>   0.1670 
  9 C        4.9310     0.7630     0.5740 C.3   1 <1>   0.4230 
 10 N        4.4370    -3.6170    -0.0980 N.ar  1 <1>  -0.6200 
 11 C        2.4440    -4.9370    -0.2530 C.ar  1 <1>   0.1600 
 12 C        5.0390     2.2900     0.4840 C.3   1 <1>  -0.1600 
 13 C        5.5060     0.0940    -0.6870 C.3   1 <1>  -0.1600 
 14 C        4.9880    -4.7800     0.2180 C.ar  1 <1>   0.1600 
 15 N        2.9920    -6.0930     0.0760 N.ar  1 <1>  -0.6200 
 16 C        6.4950     2.7240     0.2610 C.3   1 <1>  -0.1600 
 17 C        6.9650     0.5200    -0.9090 C.3   1 <1>  -0.1600 
 18 C        4.2880    -5.9780     0.3040 C.ar  1 <1>   0.1600 
 19 C        7.0920     2.0480    -0.9810 C.3   1 <1>  -0.1600 
 20 H       -0.1760    -0.2670     1.2970 H     1 <1>   0.4000 
 21 H        0.6820    -0.4020    -0.7670 H     1 <1>   0.0800 
 22 H        1.4670    -2.1450     1.1660 H     1 <1>   0.0800 
 23 H        2.1970     1.6920    -0.2260 H     1 <1>   0.0800 
 24 H        2.9320     0.4290    -1.2060 H     1 <1>   0.0800 
 25 H        4.2020    -1.6380     0.9480 H     1 <1>   0.0800 
 26 H        3.1960    -1.1330     2.2800 H     1 <1>   0.0800 
 27 H        3.0320    -1.9170    -1.4300 H     1 <1>   0.0800 
 28 H        1.5050    -2.7140    -1.2430 H     1 <1>   0.0800 
 29 H        3.1860     0.9150     1.6430 H     1 <1>   0.4500 
 30 H        5.5300     0.4450     1.4130 H     1 <1>   0.0800 
 31 H        1.3900    -4.9510    -0.4650 H     1 <1>   0.1500 
 32 H        4.4470     2.6580    -0.3360 H     1 <1>   0.0800 
 33 H        4.6820     2.7360     1.3950 H     1 <1>   0.0800 
 34 H        5.4790    -0.9760    -0.5930 H     1 <1>   0.0800 
 35 H        4.9430     0.3790    -1.5570 H     1 <1>   0.0800 
 36 H        6.0450    -4.7910     0.4200 H     1 <1>   0.1500 
 37 H        6.5410     3.7940     0.1420 H     1 <1>   0.0800 
 38 H        7.0860     2.4670     1.1240 H     1 <1>   0.0800 
 39 H        7.5770     0.1490    -0.1040 H     1 <1>   0.0800 
 40 H        7.3340     0.0870    -1.8230 H     1 <1>   0.0800 
 41 H        4.8220    -6.8730     0.5700 H     1 <1>   0.1500 
 42 H        8.1320     2.3170    -1.0700 H     1 <1>   0.0800 
 43 H        6.5890     2.4090    -1.8620 H     1 <1>   0.0800 
@<TRIPOS>BOND
  1   1   2  1   
  2   1  20  1   
  3   2   3  1   
  4   2   4  1   
  5   2  21  1   
  6   3   5  1   
  7   3   6  1   
  8   3  22  1   
  9   4   7  1   
 10   4  23  1   
 11   4  24  1   
 12   5   7  1   
 13   5  25  1   
 14   5  26  1   
 15   6   8  1   
 16   6  27  1   
 17   6  28  1   
 18   7   9  1   
 19   7  29  1   
 20   8  10  ar  
 21   8  11  ar  
 22   9  12  1   
 23   9  13  1   
 24   9  30  1   
 25  10  14  ar  
 26  11  15  ar  
 27  11  31  1   
 28  12  16  1   
 29  12  32  1   
 30  12  33  1   
 31  13  17  1   
 32  13  34  1   
 33  13  35  1   
 34  14  18  ar  
 35  14  36  1   
 36  15  18  ar  
 37  16  19  1   
 38  16  37  1   
 39  16  38  1   
 40  17  19  1   
 41  17  39  1   
 42  17  40  1   
 43  18  41  1   
 44  19  42  1   
 45  19  43  1   
@<TRIPOS>SUBSTRUCTURE
  1 ****   5 GROUP 4 **** **** 0

# MOE 2024.06 (io_trps.svl 2023.06)
