@<TRIPOS>MOLECULE
NONAME
50 53 1 0 0 
SMALL
USER_CHARGES


@<TRIPOS>ATOM
  1 S        0.3460    -0.2750    -0.9930 S.3   1 <1>  -0.2860 
  2 C       -1.2500    -0.8870    -0.4710 C.2   1 <1>   0.5340 
  3 C        0.1650     1.5590    -0.8710 C.3   1 <1>   0.0700 
  4 O       -1.4380    -2.1680    -0.4800 O.3   1 <1>  -0.2800 
  5 N       -2.2220    -0.1610    -0.0860 N.2   1 <1>  -0.3380 
  6 C        1.5080     2.1950    -1.2320 C.3   1 <1>  -0.0990 
  7 C       -2.6790    -2.1960    -0.0460 C.2   1 <1>   0.4250 
  8 N       -3.1710    -1.0240     0.1970 N.2   1 <1>  -0.3380 
  9 C        1.4240     3.6990    -1.1050 C.2   1 <1>   0.5690 
 10 C       -3.3530    -3.4650     0.1150 C.ar  1 <1>   0.0530 
 11 O        0.7140     4.2920    -1.8790 O.2   1 <1>  -0.5700 
 12 N        2.1540     4.3090    -0.1230 N.am  1 <1>  -0.4940 
 13 C       -4.6620    -3.5590     0.5700 C.ar  1 <1>  -0.1500 
 14 C       -2.7520    -4.6860    -0.1690 C.ar  1 <1>  -0.1500 
 15 C        2.1680     5.6790     0.2390 C.2   1 <1>  -0.0880 
 16 C       -5.2710    -4.7910     0.7100 C.ar  1 <1>   0.1600 
 17 C       -3.4470    -5.8670     0.0050 C.ar  1 <1>   0.1600 
 18 N        3.2920     6.4170     0.4610 N.pl3 1 <1>   0.3140 
 19 C        1.1190     6.5110     0.4460 C.2   1 <1>  -0.1810 
 20 N       -4.6940    -5.9490     0.4380 N.ar  1 <1>  -0.6200 
 21 N        2.9810     7.6880     0.8210 N.2   1 <1>  -0.7070 
 22 C        4.7010     5.9560     0.2940 C.3   1 <1>   0.1760 
 23 C        1.6860     7.7290     0.7990 C.2   1 <1>   0.1390 
 24 C       -0.3690     6.2320     0.3360 C.3   1 <1>  -0.0590 
 25 C        5.5090     6.0060     1.5920 C.3   1 <1>  -0.1600 
 26 C        5.5130     6.8140    -0.6770 C.3   1 <1>  -0.1600 
 27 C        6.9760     6.0890     1.1530 C.3   1 <1>  -0.1600 
 28 C        6.9710     6.5230    -0.3200 C.3   1 <1>  -0.1600 
 29 H       -0.1280     1.7890     0.1390 H     1 <1>   0.0800 
 30 H       -0.6120     1.8560    -1.5550 H     1 <1>   0.0800 
 31 H        1.7550     1.9530    -2.2490 H     1 <1>   0.0800 
 32 H        2.2770     1.8090    -0.5900 H     1 <1>   0.0800 
 33 H        2.7480     3.6990     0.4360 H     1 <1>   0.3700 
 34 H       -5.2110    -2.6670     0.8160 H     1 <1>   0.1500 
 35 H       -1.7390    -4.7210    -0.5270 H     1 <1>   0.1500 
 36 H       -6.2870    -4.8290     1.0650 H     1 <1>   0.1500 
 37 H       -2.9540    -6.7970    -0.2250 H     1 <1>   0.1500 
 38 H        4.6980     4.9470    -0.0740 H     1 <1>   0.0800 
 39 H        1.1220     8.6160     1.0320 H     1 <1>   0.1500 
 40 H       -0.5640     5.1830     0.4620 H     1 <1>   0.0800 
 41 H       -0.7200     6.5320    -0.6350 H     1 <1>   0.0800 
 42 H       -0.9080     6.7760     1.0900 H     1 <1>   0.0800 
 43 H        5.3250     5.1470     2.2110 H     1 <1>   0.0800 
 44 H        5.2580     6.9010     2.1370 H     1 <1>   0.0800 
 45 H        5.3110     7.8570    -0.4970 H     1 <1>   0.0800 
 46 H        5.2920     6.5770    -1.7020 H     1 <1>   0.0800 
 47 H        7.4530     5.1290     1.2490 H     1 <1>   0.0800 
 48 H        7.5080     6.8010     1.7610 H     1 <1>   0.0800 
 49 H        7.5890     7.3900    -0.4780 H     1 <1>   0.0800 
 50 H        7.3410     5.7180    -0.9320 H     1 <1>   0.0800 
@<TRIPOS>BOND
  1   1   2  1   
  2   1   3  1   
  3   2   4  1   
  4   2   5  2   
  5   3   6  1   
  6   3  29  1   
  7   3  30  1   
  8   4   7  1   
  9   5   8  1   
 10   6   9  1   
 11   6  31  1   
 12   6  32  1   
 13   7   8  2   
 14   7  10  1   
 15   9  11  2   
 16   9  12  am  
 17  10  13  ar  
 18  10  14  ar  
 19  12  15  1   
 20  12  33  1   
 21  13  16  ar  
 22  13  34  1   
 23  14  17  ar  
 24  14  35  1   
 25  15  18  1   
 26  15  19  2   
 27  16  20  ar  
 28  16  36  1   
 29  17  20  ar  
 30  17  37  1   
 31  18  21  1   
 32  18  22  1   
 33  19  23  1   
 34  19  24  1   
 35  21  23  2   
 36  22  25  1   
 37  22  26  1   
 38  22  38  1   
 39  23  39  1   
 40  24  40  1   
 41  24  41  1   
 42  24  42  1   
 43  25  27  1   
 44  25  43  1   
 45  25  44  1   
 46  26  28  1   
 47  26  45  1   
 48  26  46  1   
 49  27  28  1   
 50  27  47  1   
 51  27  48  1   
 52  28  49  1   
 53  28  50  1   
@<TRIPOS>SUBSTRUCTURE
  1 ****   3 GROUP 4 **** **** 0

# MOE 2024.06 (io_trps.svl 2023.06)
