@<TRIPOS>MOLECULE
NONAME
50 52 1 0 0 
SMALL
USER_CHARGES


@<TRIPOS>ATOM
  1 O       -0.8710    -2.0190     1.4270 O.2   1 <1>  -0.5700 
  2 C        0.0590    -2.5710     0.8920 C.2   1 <1>   0.5690 
  3 N        0.0580    -2.9430    -0.4250 N.am  1 <1>  -0.6600 
  4 C        1.2990    -2.8770     1.7060 C.3   1 <1>  -0.0990 
  5 C        1.2340    -3.6360    -1.0100 C.3   1 <1>   0.1400 
  6 C       -1.1150    -2.7380    -1.3160 C.3   1 <1>   0.0600 
  7 C        2.5640    -2.4930     0.9190 C.3   1 <1>  -0.0800 
  8 C        2.5360    -2.9440    -0.5610 C.3   1 <1>  -0.0800 
  9 C        3.8510    -3.0640     1.5290 C.3   1 <1>  -0.1600 
 10 C        3.7770    -3.8270    -0.7550 C.3   1 <1>  -0.1600 
 11 C        4.7440    -3.3550     0.3300 C.3   1 <1>   0.2200 
 12 N        5.8430    -4.3150     0.6570 N.am  1 <1>  -0.6600 
 13 C        7.1510    -3.9340     0.8520 C.2   1 <1>   0.5690 
 14 C        5.4830    -5.7630     0.7860 C.3   1 <1>   0.0600 
 15 O        8.0320    -4.7440     1.0170 O.2   1 <1>  -0.5700 
 16 C        7.5700    -2.4750     0.8650 C.3   1 <1>  -0.0990 
 17 C        7.9260    -1.9880    -0.5450 C.3   1 <1>  -0.0170 
 18 C        8.2230    -0.4980    -0.5270 C.ar  1 <1>  -0.1440 
 19 C        9.4930    -0.0450    -0.2040 C.ar  1 <1>  -0.1500 
 20 C        7.2270     0.4200    -0.8260 C.ar  1 <1>  -0.1500 
 21 C        9.7560     1.3150    -0.1830 C.ar  1 <1>   0.0820 
 22 C        7.4940     1.7800    -0.8030 C.ar  1 <1>  -0.1500 
 23 O       10.9820     1.7600     0.1290 O.3   1 <1>  -0.5330 
 24 C        8.7610     2.2290    -0.4810 C.ar  1 <1>  -0.1500 
 25 H        1.2630    -2.3370     2.6340 H     1 <1>   0.0800 
 26 H        1.2930    -3.9280     1.9260 H     1 <1>   0.0800 
 27 H        1.2190    -4.6590    -0.6750 H     1 <1>   0.0800 
 28 H        1.1720    -3.6310    -2.0850 H     1 <1>   0.0800 
 29 H       -0.8360    -2.1170    -2.1490 H     1 <1>   0.0800 
 30 H       -1.9150    -2.2550    -0.7810 H     1 <1>   0.0800 
 31 H       -1.4670    -3.6870    -1.6790 H     1 <1>   0.0800 
 32 H        2.6350    -1.4170     0.9220 H     1 <1>   0.0800 
 33 H        2.6590    -2.0630    -1.1700 H     1 <1>   0.0800 
 34 H        3.6380    -3.9760     2.0570 H     1 <1>   0.0800 
 35 H        4.3120    -2.3640     2.2030 H     1 <1>   0.0800 
 36 H        4.2000    -3.7090    -1.7370 H     1 <1>   0.0800 
 37 H        3.5020    -4.8540    -0.6040 H     1 <1>   0.0800 
 38 H        5.1540    -2.4210    -0.0100 H     1 <1>   0.0800 
 39 H        4.5320    -5.8770     1.2740 H     1 <1>   0.0800 
 40 H        6.2200    -6.2880     1.3690 H     1 <1>   0.0800 
 41 H        5.4390    -6.2120    -0.1910 H     1 <1>   0.0800 
 42 H        6.8010    -1.8660     1.2970 H     1 <1>   0.0800 
 43 H        8.4360    -2.3780     1.4950 H     1 <1>   0.0800 
 44 H        7.1160    -2.1880    -1.2230 H     1 <1>   0.0800 
 45 H        8.7850    -2.5290    -0.9030 H     1 <1>   0.0800 
 46 H       10.2710    -0.7490     0.0290 H     1 <1>   0.1500 
 47 H        6.2370     0.0840    -1.0780 H     1 <1>   0.1500 
 48 H        6.7170     2.4870    -1.0360 H     1 <1>   0.1500 
 49 H       11.6090     1.0400     0.3180 H     1 <1>   0.4500 
 50 H        8.9850     3.2800    -0.4590 H     1 <1>   0.1500 
@<TRIPOS>BOND
  1   1   2  2   
  2   2   3  am  
  3   2   4  1   
  4   3   5  1   
  5   3   6  1   
  6   4   7  1   
  7   4  25  1   
  8   4  26  1   
  9   5   8  1   
 10   5  27  1   
 11   5  28  1   
 12   6  29  1   
 13   6  30  1   
 14   6  31  1   
 15   7   8  1   
 16   7   9  1   
 17   7  32  1   
 18   8  10  1   
 19   8  33  1   
 20   9  11  1   
 21   9  34  1   
 22   9  35  1   
 23  10  11  1   
 24  10  36  1   
 25  10  37  1   
 26  11  12  1   
 27  11  38  1   
 28  12  13  am  
 29  12  14  1   
 30  13  15  2   
 31  13  16  1   
 32  14  39  1   
 33  14  40  1   
 34  14  41  1   
 35  16  17  1   
 36  16  42  1   
 37  16  43  1   
 38  17  18  1   
 39  17  44  1   
 40  17  45  1   
 41  18  19  ar  
 42  18  20  ar  
 43  19  21  ar  
 44  19  46  1   
 45  20  22  ar  
 46  20  47  1   
 47  21  23  1   
 48  21  24  ar  
 49  22  24  ar  
 50  22  48  1   
 51  23  49  1   
 52  24  50  1   
@<TRIPOS>SUBSTRUCTURE
  1 ****  11 GROUP 4 **** **** 0

# MOE 2024.06 (io_trps.svl 2023.06)
