@<TRIPOS>MOLECULE
NONAME
47 50 1 0 0 
SMALL
USER_CHARGES


@<TRIPOS>ATOM
  1 S       -0.0400     0.3150     1.6660 S.o2  1 <1>   1.4470 
  2 O       -0.6740    -0.7620     2.3980 O.2   1 <1>  -0.6500 
  3 O        0.2350     1.5570     2.3570 O.2   1 <1>  -0.6500 
  4 N       -1.0940     0.6890     0.3910 N.am  1 <1>  -0.8490 
  5 C        1.4660    -0.2930     0.8360 C.ar  1 <1>  -0.0090 
  6 C       -2.2810     1.4120     0.8880 C.3   1 <1>   0.1960 
  7 C       -1.5000    -0.5030    -0.3620 C.3   1 <1>   0.1960 
  8 C        2.2500     0.4940    -0.0140 C.ar  1 <1>  -0.1440 
  9 C        1.8580    -1.6140     1.0390 C.ar  1 <1>  -0.1500 
 10 C       -3.1740     1.9060    -0.2680 C.3   1 <1>   0.1440 
 11 C       -2.3420    -0.0990    -1.5780 C.3   1 <1>  -0.1600 
 12 C        3.3730    -0.0420    -0.6280 C.ar  1 <1>  -0.1500 
 13 C        1.9110     1.9540    -0.2940 C.3   1 <1>  -0.0970 
 14 C        2.9770    -2.1460     0.4260 C.ar  1 <1>  -0.1500 
 15 C       -4.3740     2.6240     0.3200 C.ar  1 <1>   0.1670 
 16 C       -3.5780     0.7120    -1.1570 C.3   1 <1>  -0.1600 
 17 C       -2.4770     3.0310    -1.0810 C.3   1 <1>  -0.1600 
 18 C        3.7370    -1.3570    -0.4120 C.ar  1 <1>  -0.1500 
 19 N       -5.3900     2.0470     0.9170 N.ar  1 <1>  -0.6200 
 20 C       -4.2730     3.9760     0.1690 C.ar  1 <1>  -0.1440 
 21 C       -2.9980     4.3710    -0.5340 C.3   1 <1>  -0.0170 
 22 C       -6.3170     2.8930     1.3400 C.ar  1 <1>   0.7200 
 23 C       -5.2920     4.7540     0.6620 C.ar  1 <1>   0.1600 
 24 N       -6.3310     4.2160     1.2600 N.ar  1 <1>  -0.6200 
 25 N       -7.3650     2.3420     1.9540 N.pl3 1 <1>  -0.9000 
 26 H       -1.9720     2.2640     1.4700 H     1 <1>   0.0800 
 27 H       -2.8550     0.7670     1.5340 H     1 <1>   0.0800 
 28 H       -2.0700    -1.1640     0.2730 H     1 <1>   0.0800 
 29 H       -0.6280    -1.0340    -0.7040 H     1 <1>   0.0800 
 30 H        1.2770    -2.2440     1.6910 H     1 <1>   0.1500 
 31 H       -2.6560    -0.9860    -2.1000 H     1 <1>   0.0800 
 32 H       -1.7300     0.4760    -2.2510 H     1 <1>   0.0800 
 33 H        3.9780     0.5630    -1.2810 H     1 <1>   0.1500 
 34 H        0.9420     2.0330    -0.7510 H     1 <1>   0.0800 
 35 H        2.6290     2.3980    -0.9600 H     1 <1>   0.0800 
 36 H        1.9160     2.5200     0.6200 H     1 <1>   0.0800 
 37 H        3.2550    -3.1710     0.6020 H     1 <1>   0.1500 
 38 H       -4.1190     1.0530    -2.0230 H     1 <1>   0.0800 
 39 H       -4.2370     0.0700    -0.5980 H     1 <1>   0.0800 
 40 H       -2.7650     2.9580    -2.1150 H     1 <1>   0.0800 
 41 H       -1.4040     2.9730    -1.0270 H     1 <1>   0.0800 
 42 H        4.6100    -1.7620    -0.8940 H     1 <1>   0.1500 
 43 H       -3.1800     5.0780    -1.3250 H     1 <1>   0.0800 
 44 H       -2.3050     4.7850     0.1780 H     1 <1>   0.0800 
 45 H       -5.2550     5.8260     0.5670 H     1 <1>   0.1500 
 46 H       -7.9040     2.9750     2.5370 H     1 <1>   0.4000 
 47 H       -7.2150     1.4020     2.3090 H     1 <1>   0.4000 
@<TRIPOS>BOND
  1   1   2  2   
  2   1   3  2   
  3   1   4  am  
  4   1   5  1   
  5   4   6  1   
  6   4   7  1   
  7   5   8  ar  
  8   5   9  ar  
  9   6  10  1   
 10   6  26  1   
 11   6  27  1   
 12   7  11  1   
 13   7  28  1   
 14   7  29  1   
 15   8  12  ar  
 16   8  13  1   
 17   9  14  ar  
 18   9  30  1   
 19  10  15  1   
 20  10  16  1   
 21  10  17  1   
 22  11  16  1   
 23  11  31  1   
 24  11  32  1   
 25  12  18  ar  
 26  12  33  1   
 27  13  34  1   
 28  13  35  1   
 29  13  36  1   
 30  14  18  ar  
 31  14  37  1   
 32  15  19  ar  
 33  15  20  ar  
 34  16  38  1   
 35  16  39  1   
 36  17  21  1   
 37  17  40  1   
 38  17  41  1   
 39  18  42  1   
 40  19  22  ar  
 41  20  21  1   
 42  20  23  ar  
 43  21  43  1   
 44  21  44  1   
 45  22  24  ar  
 46  22  25  1   
 47  23  24  ar  
 48  23  45  1   
 49  25  46  1   
 50  25  47  1   
@<TRIPOS>SUBSTRUCTURE
  1 ****   6 GROUP 4 **** **** 0

# MOE 2024.06 (io_trps.svl 2023.06)
