@<TRIPOS>MOLECULE
NONAME
50 52 1 0 0 
SMALL
USER_CHARGES


@<TRIPOS>ATOM
  1 F       -4.7910    -1.5690    -2.5030 F     1 <1>  -0.1900 
  2 C       -4.1860    -0.6080    -1.8470 C.ar  1 <1>   0.1900 
  3 C       -3.9100    -0.7840    -0.4920 C.ar  1 <1>   0.1170 
  4 C       -3.8520     0.5370    -2.5430 C.ar  1 <1>  -0.1500 
  5 N       -4.2780    -1.9820     0.1510 N.am  1 <1>  -0.5470 
  6 C       -3.2630     0.2640     0.1570 C.ar  1 <1>  -0.1500 
  7 C       -3.2120     1.5620    -1.8670 C.ar  1 <1>  -0.1500 
  8 C       -4.2900    -2.3920     1.4530 C.2   1 <1>   0.5690 
  9 C       -2.9190     1.4270    -0.5180 C.ar  1 <1>  -0.1440 
 10 O       -3.9370    -1.7130     2.3870 O.2   1 <1>  -0.5700 
 11 C       -4.7910    -3.8150     1.7100 C.3   1 <1>   0.1710 
 12 C       -2.2150     2.5530     0.2190 C.3   1 <1>  -0.0970 
 13 N       -5.6440    -4.3650     0.6080 N.3   1 <1>  -0.8100 
 14 C       -5.7200    -5.8370     0.7080 C.3   1 <1>   0.1100 
 15 C       -6.9880    -3.7570     0.6530 C.3   1 <1>   0.0300 
 16 C       -6.1520    -6.4640    -0.6230 C.3   1 <1>   0.0200 
 17 C       -6.0960    -7.9830    -0.5750 C.2   1 <1>   0.0060 
 18 N       -6.0370    -8.6860     0.5030 N.2   1 <1>  -0.5650 
 19 N       -6.1090    -8.7290    -1.7100 N.pl3 1 <1>   0.0330 
 20 C       -6.0080    -9.9780     0.0700 C.ar  1 <1>   0.2270 
 21 C       -6.0520   -10.0240    -1.3090 C.ar  1 <1>  -0.1520 
 22 C       -5.9440   -11.1600     0.8030 C.ar  1 <1>  -0.1500 
 23 C       -6.0330   -11.2390    -1.9970 C.ar  1 <1>  -0.1500 
 24 C       -5.9250   -12.3690     0.1420 C.ar  1 <1>   0.0820 
 25 C       -5.9700   -12.4050    -1.2660 C.ar  1 <1>  -0.1500 
 26 O       -5.8620   -13.4890     0.9140 O.3   1 <1>  -0.3620 
 27 C       -5.8450   -14.7750     0.3340 C.3   1 <1>   0.0400 
 28 H       -4.0870     0.6230    -3.5880 H     1 <1>   0.1500 
 29 H       -4.6930    -2.6960    -0.4600 H     1 <1>   0.3700 
 30 H       -3.0240     0.1740     1.2000 H     1 <1>   0.1500 
 31 H       -2.9430     2.4620    -2.3940 H     1 <1>   0.1500 
 32 H       -5.3310    -3.8340     2.6400 H     1 <1>   0.0800 
 33 H       -3.9160    -4.4290     1.8280 H     1 <1>   0.0800 
 34 H       -2.4080     2.4930     1.2750 H     1 <1>   0.0800 
 35 H       -2.5640     3.5070    -0.1340 H     1 <1>   0.0800 
 36 H       -1.1550     2.4870     0.0560 H     1 <1>   0.0800 
 37 H       -6.3960    -6.1300     1.4940 H     1 <1>   0.0800 
 38 H       -4.7470    -6.2330     0.9480 H     1 <1>   0.0800 
 39 H       -6.9170    -2.6830     0.6170 H     1 <1>   0.0800 
 40 H       -7.4990    -4.0370     1.5590 H     1 <1>   0.0800 
 41 H       -7.5730    -4.0760    -0.1900 H     1 <1>   0.0800 
 42 H       -5.4950    -6.1120    -1.3970 H     1 <1>   0.0800 
 43 H       -7.1580    -6.1720    -0.8570 H     1 <1>   0.0800 
 44 H       -6.1510    -8.3930    -2.6740 H     1 <1>   0.2700 
 45 H       -5.9110   -11.1110     1.8740 H     1 <1>   0.1500 
 46 H       -6.0680   -11.2550    -3.0720 H     1 <1>   0.1500 
 47 H       -5.9550   -13.3420    -1.7900 H     1 <1>   0.1500 
 48 H       -5.7960   -15.4970     1.1290 H     1 <1>   0.0800 
 49 H       -4.9760   -14.8630    -0.2930 H     1 <1>   0.0800 
 50 H       -6.7490   -14.9150    -0.2320 H     1 <1>   0.0800 
@<TRIPOS>BOND
  1   1   2  1   
  2   2   3  ar  
  3   2   4  ar  
  4   3   5  1   
  5   3   6  ar  
  6   4   7  ar  
  7   4  28  1   
  8   5   8  am  
  9   5  29  1   
 10   6   9  ar  
 11   6  30  1   
 12   7   9  ar  
 13   7  31  1   
 14   8  10  2   
 15   8  11  1   
 16   9  12  1   
 17  11  13  1   
 18  11  32  1   
 19  11  33  1   
 20  12  34  1   
 21  12  35  1   
 22  12  36  1   
 23  13  14  1   
 24  13  15  1   
 25  14  16  1   
 26  14  37  1   
 27  14  38  1   
 28  15  39  1   
 29  15  40  1   
 30  15  41  1   
 31  16  17  1   
 32  16  42  1   
 33  16  43  1   
 34  17  18  2   
 35  17  19  1   
 36  18  20  1   
 37  19  21  1   
 38  19  44  1   
 39  20  21  ar  
 40  20  22  ar  
 41  21  23  ar  
 42  22  24  ar  
 43  22  45  1   
 44  23  25  ar  
 45  23  46  1   
 46  24  25  ar  
 47  24  26  1   
 48  25  47  1   
 49  26  27  1   
 50  27  48  1   
 51  27  49  1   
 52  27  50  1   
@<TRIPOS>SUBSTRUCTURE
  1 ****  14 GROUP 4 **** **** 0

# MOE 2024.06 (io_trps.svl 2023.06)
