@<TRIPOS>MOLECULE
NONAME
46 48 1 0 0 
SMALL
USER_CHARGES


@<TRIPOS>ATOM
  1 F        0.3990     1.5800    -0.1720 F     1 <1>  -0.1900 
  2 C        1.6920     1.6760    -0.3510 C.ar  1 <1>   0.1900 
  3 C        2.5590     0.6420     0.0140 C.ar  1 <1>   0.0820 
  4 C        2.1410     2.8590    -0.9070 C.ar  1 <1>  -0.1500 
  5 O        2.2120    -0.5560     0.5700 O.3   1 <1>  -0.3630 
  6 C        3.9090     0.8850    -0.2250 C.ar  1 <1>   0.1900 
  7 C        3.5000     3.0820    -1.1270 C.ar  1 <1>   0.0860 
  8 C        0.8800    -0.9980     0.7110 C.3   1 <1>   0.0400 
  9 F        4.7860    -0.0340     0.0900 F     1 <1>  -0.1900 
 10 C        4.3830     2.0580    -0.7820 C.ar  1 <1>  -0.1500 
 11 C        3.9390     4.3370    -1.7010 C.2   1 <1>   0.5440 
 12 O        3.6190     4.5920    -2.8460 O.2   1 <1>  -0.5700 
 13 N        4.6530     5.2900    -0.9950 N.am  1 <1>  -0.6600 
 14 C        4.9740     5.1410     0.4760 C.3   1 <1>   0.2200 
 15 C        5.0140     6.5590    -1.7100 C.3   1 <1>   0.1400 
 16 C        4.3700     6.2770     1.3180 C.3   1 <1>   0.1200 
 17 C        6.4910     5.0050     0.7450 C.3   1 <1>   0.3430 
 18 C        5.9140     7.5440    -0.9450 C.3   1 <1>  -0.0800 
 19 O        5.2170     7.3860     1.3630 O.3   1 <1>  -0.5600 
 20 N        7.3360     5.5250    -0.3790 N.4   1 <1>  -0.9590 
 21 C        5.1960     8.2030     0.2420 C.3   1 <1>   0.1200 
 22 C        7.3040     6.9970    -0.5720 C.3   1 <1>   0.3430 
 23 C        8.7390     4.9450    -0.2980 C.3   1 <1>   0.2370 
 24 C        8.7810     3.4190    -0.4480 C.2   1 <1>   0.9060 
 25 O        9.7710     2.8060    -0.0560 O.co2 1 <1>  -0.9000 
 26 O        7.7680     2.8740    -0.9110 O.co2 1 <1>  -0.9000 
 27 H        1.4310     3.6200    -1.1810 H     1 <1>   0.1500 
 28 H        0.9020    -2.0030     1.0910 H     1 <1>   0.0800 
 29 H        0.4010    -0.9830    -0.2520 H     1 <1>   0.0800 
 30 H        0.3690    -0.3570     1.4070 H     1 <1>   0.0800 
 31 H        5.4400     2.1680    -0.9560 H     1 <1>   0.1500 
 32 H        4.5160     4.2420     0.8440 H     1 <1>   0.0800 
 33 H        5.5040     6.2940    -2.6330 H     1 <1>   0.0800 
 34 H        4.0990     7.0600    -1.9800 H     1 <1>   0.0800 
 35 H        4.2610     5.9390     2.3340 H     1 <1>   0.0800 
 36 H        3.3980     6.5660     0.9550 H     1 <1>   0.0800 
 37 H        6.6990     3.9560     0.8790 H     1 <1>   0.0800 
 38 H        6.7460     5.5040     1.6640 H     1 <1>   0.0800 
 39 H        6.0960     8.3520    -1.6300 H     1 <1>   0.0800 
 40 H        6.9170     5.0490    -1.2020 H     1 <1>   0.4500 
 41 H        4.1750     8.4530     0.0030 H     1 <1>   0.0800 
 42 H        5.7060     9.1120     0.5140 H     1 <1>   0.0800 
 43 H        7.6520     7.4870     0.3240 H     1 <1>   0.0800 
 44 H        7.9870     7.2460    -1.3680 H     1 <1>   0.0800 
 45 H        9.3490     5.3490    -1.0840 H     1 <1>   0.0800 
 46 H        9.1930     5.1920     0.6440 H     1 <1>   0.0800 
@<TRIPOS>BOND
  1   1   2  1   
  2   2   3  ar  
  3   2   4  ar  
  4   3   5  1   
  5   3   6  ar  
  6   4   7  ar  
  7   4  27  1   
  8   5   8  1   
  9   6   9  1   
 10   6  10  ar  
 11   7  10  ar  
 12   7  11  1   
 13   8  28  1   
 14   8  29  1   
 15   8  30  1   
 16  10  31  1   
 17  11  12  2   
 18  11  13  am  
 19  13  14  1   
 20  13  15  1   
 21  14  16  1   
 22  14  17  1   
 23  14  32  1   
 24  15  18  1   
 25  15  33  1   
 26  15  34  1   
 27  16  19  1   
 28  16  35  1   
 29  16  36  1   
 30  17  20  1   
 31  17  37  1   
 32  17  38  1   
 33  18  21  1   
 34  18  22  1   
 35  18  39  1   
 36  19  21  1   
 37  20  22  1   
 38  20  23  1   
 39  20  40  1   
 40  21  41  1   
 41  21  42  1   
 42  22  43  1   
 43  22  44  1   
 44  23  24  1   
 45  23  45  1   
 46  23  46  1   
 47  24  25  ar  
 48  24  26  ar  
@<TRIPOS>SUBSTRUCTURE
  1 ****  14 GROUP 4 **** **** 0

# MOE 2024.06 (io_trps.svl 2023.06)
