@<TRIPOS>MOLECULE
NONAME
48 49 1 0 0 
SMALL
USER_CHARGES


@<TRIPOS>ATOM
  1 O       -0.5720    -0.5620     0.8100 O.2   1 <1>  -0.5700 
  2 C       -1.5440     0.1520     0.6980 C.2   1 <1>   0.5690 
  3 N       -1.5400     1.4410     0.2820 N.am  1 <1>  -0.6600 
  4 C       -2.9660    -0.3260     0.9600 C.3   1 <1>   0.2810 
  5 C       -2.9000     1.9920     0.1490 C.3   1 <1>   0.1400 
  6 C       -0.3450     2.2480    -0.0660 C.3   1 <1>   0.0600 
  7 N       -3.2470    -1.6550     0.3570 N.am  1 <1>  -0.7300 
  8 C       -3.8210     0.7730     0.3130 C.3   1 <1>  -0.1600 
  9 C       -4.2420    -2.4850     0.7560 C.2   1 <1>   0.7160 
 10 O       -5.1510    -2.0290     1.4210 O.2   1 <1>  -0.5700 
 11 C       -4.2390    -3.8800     0.3810 C.2   1 <1>  -0.0860 
 12 C       -3.2500    -4.7200    -0.0410 C.2   1 <1>  -0.0400 
 13 C       -5.3910    -4.6910     0.3980 C.2   1 <1>  -0.1500 
 14 O       -3.7280    -5.9160    -0.2870 O.3   1 <1>  -0.2800 
 15 C       -1.7580    -4.5210    -0.2420 C.3   1 <1>  -0.0600 
 16 C       -5.0150    -5.9170    -0.0230 C.2   1 <1>  -0.0400 
 17 C       -5.7680    -7.2210    -0.2220 C.3   1 <1>   0.5230 
 18 N       -7.2420    -7.0170    -0.0710 N.4   1 <1>  -0.9590 
 19 C       -7.9640    -8.3050     0.1080 C.3   1 <1>   0.3430 
 20 C       -7.7740    -6.2340    -1.2200 C.3   1 <1>   0.3430 
 21 C       -7.7210    -8.8380     1.5150 C.3   1 <1>  -0.2400 
 22 C       -9.0990    -5.5890    -0.8270 C.3   1 <1>  -0.2400 
 23 H       -3.1290    -0.3570     2.0230 H     1 <1>   0.0800 
 24 H       -3.0320     2.4550    -0.8140 H     1 <1>   0.0800 
 25 H       -3.0720     2.7140     0.9300 H     1 <1>   0.0800 
 26 H        0.5480     1.6680     0.0950 H     1 <1>   0.0800 
 27 H       -0.3060     3.1270     0.5520 H     1 <1>   0.0800 
 28 H       -0.3900     2.5380    -1.1010 H     1 <1>   0.0800 
 29 H       -2.4450    -2.0480    -0.1370 H     1 <1>   0.3700 
 30 H       -4.6780     1.0080     0.9170 H     1 <1>   0.0800 
 31 H       -4.1550     0.4600    -0.6600 H     1 <1>   0.0800 
 32 H       -6.3540    -4.3240     0.7080 H     1 <1>   0.1500 
 33 H       -1.4190    -3.5930     0.1790 H     1 <1>   0.0800 
 34 H       -1.5230    -4.5390    -1.2910 H     1 <1>   0.0800 
 35 H       -1.2220    -5.3180     0.2420 H     1 <1>   0.0800 
 36 H       -5.4100    -7.9280     0.5070 H     1 <1>   0.0800 
 37 H       -5.5480    -7.6110    -1.2020 H     1 <1>   0.0800 
 38 H       -7.3700    -6.4550     0.7790 H     1 <1>   0.4500 
 39 H       -7.6390    -9.0240    -0.6270 H     1 <1>   0.0800 
 40 H       -9.0240    -8.1510    -0.0210 H     1 <1>   0.0800 
 41 H       -7.9080    -6.8700    -2.0800 H     1 <1>   0.0800 
 42 H       -7.0780    -5.4530    -1.4870 H     1 <1>   0.0800 
 43 H       -6.6900    -9.0980     1.6730 H     1 <1>   0.0800 
 44 H       -8.3050    -9.7310     1.6560 H     1 <1>   0.0800 
 45 H       -8.0330    -8.1220     2.2550 H     1 <1>   0.0800 
 46 H       -9.8560    -6.3260    -0.6280 H     1 <1>   0.0800 
 47 H       -9.4450    -4.9780    -1.6410 H     1 <1>   0.0800 
 48 H       -8.9760    -4.9530     0.0320 H     1 <1>   0.0800 
@<TRIPOS>BOND
  1   1   2  2   
  2   2   3  am  
  3   2   4  1   
  4   3   5  1   
  5   3   6  1   
  6   4   7  1   
  7   4   8  1   
  8   4  23  1   
  9   5   8  1   
 10   5  24  1   
 11   5  25  1   
 12   6  26  1   
 13   6  27  1   
 14   6  28  1   
 15   7   9  am  
 16   7  29  1   
 17   8  30  1   
 18   8  31  1   
 19   9  10  2   
 20   9  11  1   
 21  11  12  2   
 22  11  13  1   
 23  12  14  1   
 24  12  15  1   
 25  13  16  2   
 26  13  32  1   
 27  14  16  1   
 28  15  33  1   
 29  15  34  1   
 30  15  35  1   
 31  16  17  1   
 32  17  18  1   
 33  17  36  1   
 34  17  37  1   
 35  18  19  1   
 36  18  20  1   
 37  18  38  1   
 38  19  21  1   
 39  19  39  1   
 40  19  40  1   
 41  20  22  1   
 42  20  41  1   
 43  20  42  1   
 44  21  43  1   
 45  21  44  1   
 46  21  45  1   
 47  22  46  1   
 48  22  47  1   
 49  22  48  1   
@<TRIPOS>SUBSTRUCTURE
  1 ****  11 GROUP 4 **** **** 0

# MOE 2024.06 (io_trps.svl 2023.06)
