@<TRIPOS>MOLECULE
NONAME
43 45 1 0 0 
SMALL
USER_CHARGES


@<TRIPOS>ATOM
  1 O        0.6270    -0.2720     0.4510 O.2   1 <1>  -0.5700 
  2 C        1.4140    -1.0180    -0.0880 C.2   1 <1>   0.6900 
  3 N        1.0330    -2.2010    -0.5970 N.am  1 <1>  -0.7300 
  4 N        2.6950    -0.6650    -0.1860 N.am  1 <1>  -0.8000 
  5 C       -0.3200    -2.7910    -0.3900 C.3   1 <1>   0.2010 
  6 C       -0.3110    -4.3260    -0.3720 C.2   1 <1>   0.5690 
  7 O        0.6950    -4.8950    -0.7370 O.2   1 <1>  -0.5700 
  8 N       -1.4160    -5.0300     0.0390 N.am  1 <1>  -0.6600 
  9 C       -1.4030    -6.5270     0.1380 C.3   1 <1>   0.1400 
 10 C       -2.7440    -4.4390     0.3990 C.3   1 <1>   0.1400 
 11 C       -2.6280    -7.1490    -0.5580 C.3   1 <1>   0.3430 
 12 C       -3.8930    -5.1780    -0.3180 C.3   1 <1>   0.2950 
 13 O       -3.8090    -6.5530    -0.0870 O.3   1 <1>  -0.5600 
 14 C       -2.6800    -8.6530    -0.3060 C.ar  1 <1>  -0.1440 
 15 C       -5.2610    -4.7100     0.1850 C.3   1 <1>  -0.1950 
 16 C       -3.3080    -9.1770     0.8170 C.ar  1 <1>  -0.1500 
 17 C       -2.0750    -9.5210    -1.2050 C.ar  1 <1>  -0.1500 
 18 C       -6.4910    -4.8840    -0.6480 C.3   1 <1>  -0.2000 
 19 C       -5.9350    -3.5100    -0.4040 C.3   1 <1>  -0.2000 
 20 C       -3.3290   -10.5440     1.0370 C.ar  1 <1>  -0.1500 
 21 C       -2.0960   -10.8880    -0.9850 C.ar  1 <1>  -0.1500 
 22 C       -2.7230   -11.4000     0.1360 C.ar  1 <1>  -0.1500 
 23 H        1.7430    -2.9020    -0.8230 H     1 <1>   0.3700 
 24 H        2.9550     0.2690     0.1250 H     1 <1>   0.3700 
 25 H        3.3460    -1.1480    -0.7990 H     1 <1>   0.3700 
 26 H       -0.7150    -2.4360     0.5450 H     1 <1>   0.0800 
 27 H       -0.9640    -2.4570    -1.1820 H     1 <1>   0.0800 
 28 H       -0.5100    -6.9300    -0.3060 H     1 <1>   0.0800 
 29 H       -1.4080    -6.8120     1.1750 H     1 <1>   0.0800 
 30 H       -2.8870    -4.5190     1.4630 H     1 <1>   0.0800 
 31 H       -2.7910    -3.3980     0.1360 H     1 <1>   0.0800 
 32 H       -2.5690    -6.9720    -1.6180 H     1 <1>   0.0800 
 33 H       -3.8270    -5.0130    -1.3800 H     1 <1>   0.0800 
 34 H       -5.3700    -4.8600     1.2460 H     1 <1>   0.1000 
 35 H       -3.7860    -8.5200     1.5220 H     1 <1>   0.1500 
 36 H       -1.5820    -9.1400    -2.0820 H     1 <1>   0.1500 
 37 H       -6.3950    -5.3260    -1.6250 H     1 <1>   0.1000 
 38 H       -7.4030    -5.1770    -0.1560 H     1 <1>   0.1000 
 39 H       -6.4790    -2.8460     0.2470 H     1 <1>   0.1000 
 40 H       -5.4830    -2.9920    -1.2330 H     1 <1>   0.1000 
 41 H       -3.8200   -10.9380     1.9090 H     1 <1>   0.1500 
 42 H       -1.6250   -11.5530    -1.6880 H     1 <1>   0.1500 
 43 H       -2.7400   -12.4620     0.3070 H     1 <1>   0.1500 
@<TRIPOS>BOND
  1   1   2  2   
  2   2   3  am  
  3   2   4  am  
  4   3   5  1   
  5   3  23  1   
  6   4  24  1   
  7   4  25  1   
  8   5   6  1   
  9   5  26  1   
 10   5  27  1   
 11   6   7  2   
 12   6   8  am  
 13   8   9  1   
 14   8  10  1   
 15   9  11  1   
 16   9  28  1   
 17   9  29  1   
 18  10  12  1   
 19  10  30  1   
 20  10  31  1   
 21  11  13  1   
 22  11  14  1   
 23  11  32  1   
 24  12  13  1   
 25  12  15  1   
 26  12  33  1   
 27  14  16  ar  
 28  14  17  ar  
 29  15  18  1   
 30  15  19  1   
 31  15  34  1   
 32  16  20  ar  
 33  16  35  1   
 34  17  21  ar  
 35  17  36  1   
 36  18  19  1   
 37  18  37  1   
 38  18  38  1   
 39  19  39  1   
 40  19  40  1   
 41  20  22  ar  
 42  20  41  1   
 43  21  22  ar  
 44  21  42  1   
 45  22  43  1   
@<TRIPOS>SUBSTRUCTURE
  1 ****   8 GROUP 4 **** **** 0

# MOE 2024.06 (io_trps.svl 2023.06)
