@<TRIPOS>MOLECULE
NONAME
43 44 1 0 0 
SMALL
USER_CHARGES


@<TRIPOS>ATOM
  1 O       -0.6530     0.3010     1.0610 O.2   1 <1>  -0.5700 
  2 C       -1.6500     0.7040     0.4900 C.2   1 <1>   0.5440 
  3 N       -1.5670     1.8710    -0.2490 N.am  1 <1>  -0.6600 
  4 C       -2.8720    -0.0580     0.5960 C.ar  1 <1>   0.0860 
  5 C       -0.3900     2.7770    -0.1330 C.3   1 <1>   0.0600 
  6 C       -2.5020     2.2140    -1.3550 C.3   1 <1>   0.0600 
  7 C       -2.8500    -1.4450     0.4730 C.ar  1 <1>   0.1600 
  8 C       -4.1120     0.5290     0.8330 C.ar  1 <1>  -0.1500 
  9 N       -3.8990    -2.2490     0.5320 N.ar  1 <1>  -0.6200 
 10 C       -5.2120    -0.2910     0.9020 C.ar  1 <1>  -0.1500 
 11 C       -5.0720    -1.6670     0.7440 C.ar  1 <1>   0.4100 
 12 N       -6.1790    -2.4730     0.8140 N.pl3 1 <1>  -0.8690 
 13 C       -6.1080    -3.9480     0.8010 C.3   1 <1>   0.2090 
 14 C       -7.4910    -4.5090     0.4850 C.3   1 <1>  -0.1600 
 15 C       -7.4510    -6.0330     0.4350 C.3   1 <1>   0.2090 
 16 N       -8.8090    -6.5360     0.1470 N.pl3 1 <1>  -0.8690 
 17 C       -8.9590    -7.8380    -0.3350 C.ar  1 <1>   0.1000 
 18 C       -9.7800    -8.1270    -1.4300 C.ar  1 <1>   0.1600 
 19 C       -8.3030    -8.9010     0.2630 C.ar  1 <1>  -0.1500 
 20 N       -9.9760    -9.3250    -1.9590 N.ar  1 <1>  -0.6200 
 21 C       -8.4930   -10.1570    -0.2690 C.ar  1 <1>  -0.1500 
 22 C       -9.3260   -10.3130    -1.3650 C.ar  1 <1>   0.1600 
 23 H        0.1350     2.5980     0.7910 H     1 <1>   0.0800 
 24 H       -0.7130     3.8020    -0.1480 H     1 <1>   0.0800 
 25 H        0.2840     2.6010    -0.9520 H     1 <1>   0.0800 
 26 H       -3.1240     1.3730    -1.6090 H     1 <1>   0.0800 
 27 H       -1.9420     2.4930    -2.2320 H     1 <1>   0.0800 
 28 H       -3.1250     3.0400    -1.0600 H     1 <1>   0.0800 
 29 H       -1.8920    -1.9100     0.3130 H     1 <1>   0.1500 
 30 H       -4.1940     1.5940     0.9600 H     1 <1>   0.1500 
 31 H       -6.1890     0.1170     1.0780 H     1 <1>   0.1500 
 32 H       -7.0180    -2.0830     1.2440 H     1 <1>   0.4000 
 33 H       -5.7680    -4.2950     1.7630 H     1 <1>   0.0800 
 34 H       -5.4020    -4.2690     0.0520 H     1 <1>   0.0800 
 35 H       -7.8070    -4.1300    -0.4710 H     1 <1>   0.0800 
 36 H       -8.1830    -4.2000     1.2470 H     1 <1>   0.0800 
 37 H       -7.1220    -6.4240     1.3840 H     1 <1>   0.0800 
 38 H       -6.7720    -6.3650    -0.3330 H     1 <1>   0.0800 
 39 H       -9.3700    -5.8340    -0.3500 H     1 <1>   0.4000 
 40 H      -10.3000    -7.3080    -1.8900 H     1 <1>   0.1500 
 41 H       -7.6730    -8.7480     1.1190 H     1 <1>   0.1500 
 42 H       -8.0050   -11.0120     0.1600 H     1 <1>   0.1500 
 43 H       -9.4670   -11.3000    -1.7720 H     1 <1>   0.1500 
@<TRIPOS>BOND
  1   1   2  2   
  2   2   3  am  
  3   2   4  1   
  4   3   5  1   
  5   3   6  1   
  6   4   7  ar  
  7   4   8  ar  
  8   5  23  1   
  9   5  24  1   
 10   5  25  1   
 11   6  26  1   
 12   6  27  1   
 13   6  28  1   
 14   7   9  ar  
 15   7  29  1   
 16   8  10  ar  
 17   8  30  1   
 18   9  11  ar  
 19  10  11  ar  
 20  10  31  1   
 21  11  12  1   
 22  12  13  1   
 23  12  32  1   
 24  13  14  1   
 25  13  33  1   
 26  13  34  1   
 27  14  15  1   
 28  14  35  1   
 29  14  36  1   
 30  15  16  1   
 31  15  37  1   
 32  15  38  1   
 33  16  17  1   
 34  16  39  1   
 35  17  18  ar  
 36  17  19  ar  
 37  18  20  ar  
 38  18  40  1   
 39  19  21  ar  
 40  19  41  1   
 41  20  22  ar  
 42  21  22  ar  
 43  21  42  1   
 44  22  43  1   
@<TRIPOS>SUBSTRUCTURE
  1 ****  13 GROUP 4 **** **** 0

# MOE 2024.06 (io_trps.svl 2023.06)
