@<TRIPOS>MOLECULE
NONAME
48 51 1 0 0 
SMALL
USER_CHARGES


@<TRIPOS>ATOM
  1 CL       0.9630     2.8240    -2.9230 Cl    1 <1>  -0.1770 
  2 C        2.3540     2.7690    -1.8720 C.ar  1 <1>   0.1770 
  3 C        3.5420     2.2490    -2.3470 C.ar  1 <1>  -0.1500 
  4 C        2.2500     3.2460    -0.5810 C.ar  1 <1>  -0.1500 
  5 C        4.6470     2.2070    -1.5130 C.ar  1 <1>  -0.1500 
  6 C        3.3580     3.2010     0.2470 C.ar  1 <1>  -0.1500 
  7 C        4.5660     2.6840    -0.2070 C.ar  1 <1>  -0.1080 
  8 C        5.7560     2.6780     0.7680 C.3   1 <1>   0.1610 
  9 C        6.1020     4.0960     1.2850 C.2   1 <1>   0.5770 
 10 C        5.5320     1.6110     1.8920 C.3   1 <1>   0.0000 
 11 C        7.0150     1.8290     0.3880 C.3   1 <1>   0.0000 
 12 O        5.8790     4.3320     2.4540 O.2   1 <1>  -0.5700 
 13 N        6.5990     5.0910     0.4610 N.am  1 <1>  -0.6600 
 14 C        7.0590     1.3530     1.8610 C.3   1 <1>   0.0000 
 15 C        6.9090     6.4450     1.0420 C.3   1 <1>   0.1400 
 16 C        6.8310     4.9300    -1.0130 C.3   1 <1>   0.1400 
 17 C        8.3620     6.9400     0.8680 C.3   1 <1>   0.2200 
 18 C        8.2380     5.2980    -1.5260 C.3   1 <1>  -0.0190 
 19 N        8.5530     7.5380    -0.4840 N.am  1 <1>  -0.6600 
 20 C        9.4680     5.9100     1.2090 C.3   1 <1>   0.1200 
 21 C        8.4220     6.7950    -1.6190 C.2   1 <1>   0.5690 
 22 C        9.4450     4.6470    -0.8260 C.3   1 <1>   0.1200 
 23 C        8.7920     9.0090    -0.5260 C.3   1 <1>   0.0600 
 24 O        9.3570     4.6700     0.5650 O.3   1 <1>  -0.5600 
 25 O        8.4560     7.2900    -2.7210 O.2   1 <1>  -0.5700 
 26 H        3.5970     1.8820    -3.3560 H     1 <1>   0.1500 
 27 H        1.3160     3.6470    -0.2310 H     1 <1>   0.1500 
 28 H        5.5630     1.8020    -1.9020 H     1 <1>   0.1500 
 29 H        3.2770     3.5750     1.2550 H     1 <1>   0.1500 
 30 H        5.1690     1.9810     2.8340 H     1 <1>   0.0000 
 31 H        4.9760     0.7540     1.5490 H     1 <1>   0.0000 
 32 H        6.8160     1.0050    -0.2740 H     1 <1>   0.0000 
 33 H        7.8810     2.3960     0.1050 H     1 <1>   0.0000 
 34 H        7.3280     0.3180     1.9770 H     1 <1>   0.0000 
 35 H        7.6130     2.0170     2.5020 H     1 <1>   0.0000 
 36 H        6.2390     7.1670     0.6090 H     1 <1>   0.0800 
 37 H        6.7100     6.4410     2.0980 H     1 <1>   0.0800 
 38 H        6.6540     3.9140    -1.3000 H     1 <1>   0.0800 
 39 H        6.1060     5.5300    -1.5350 H     1 <1>   0.0800 
 40 H        8.4820     7.7400     1.5770 H     1 <1>   0.0800 
 41 H        8.2760     4.9500    -2.5420 H     1 <1>   0.0800 
 42 H        9.4240     5.7010     2.2630 H     1 <1>   0.0800 
 43 H       10.4380     6.3210     0.9920 H     1 <1>   0.0800 
 44 H       10.3640     5.1260    -1.1200 H     1 <1>   0.0800 
 45 H        9.5020     3.6120    -1.1110 H     1 <1>   0.0800 
 46 H        9.6710     9.2530     0.0450 H     1 <1>   0.0800 
 47 H        7.9440     9.5280    -0.1150 H     1 <1>   0.0800 
 48 H        8.9410     9.3440    -1.5380 H     1 <1>   0.0800 
@<TRIPOS>BOND
  1   1   2  1   
  2   2   3  ar  
  3   2   4  ar  
  4   3   5  ar  
  5   3  26  1   
  6   4   6  ar  
  7   4  27  1   
  8   5   7  ar  
  9   5  28  1   
 10   6   7  ar  
 11   6  29  1   
 12   7   8  1   
 13   8   9  1   
 14   8  10  1   
 15   8  11  1   
 16   9  12  2   
 17   9  13  am  
 18  10  14  1   
 19  10  30  1   
 20  10  31  1   
 21  11  14  1   
 22  11  32  1   
 23  11  33  1   
 24  13  15  1   
 25  13  16  1   
 26  14  34  1   
 27  14  35  1   
 28  15  17  1   
 29  15  36  1   
 30  15  37  1   
 31  16  18  1   
 32  16  38  1   
 33  16  39  1   
 34  17  19  1   
 35  17  20  1   
 36  17  40  1   
 37  18  21  1   
 38  18  22  1   
 39  18  41  1   
 40  19  21  am  
 41  19  23  1   
 42  20  24  1   
 43  20  42  1   
 44  20  43  1   
 45  21  25  2   
 46  22  24  1   
 47  22  44  1   
 48  22  45  1   
 49  23  46  1   
 50  23  47  1   
 51  23  48  1   
@<TRIPOS>SUBSTRUCTURE
  1 ****  13 GROUP 4 **** **** 0

# MOE 2024.06 (io_trps.svl 2023.06)
