@<TRIPOS>MOLECULE
NONAME
46 47 1 0 0 
SMALL
USER_CHARGES


@<TRIPOS>ATOM
  1 O       -1.5950     0.3580     2.5920 O.2   1 <1>  -0.5700 
  2 C       -1.6460     0.7090     1.4360 C.2   1 <1>   0.5690 
  3 N       -1.8690    -0.2050     0.4300 N.am  1 <1>  -0.6600 
  4 C       -1.4680     2.2140     1.1900 C.3   1 <1>  -0.0190 
  5 C       -2.1970    -1.6200     0.7730 C.3   1 <1>   0.2840 
  6 C       -1.9490     0.0790    -1.0330 C.3   1 <1>   0.0600 
  7 C       -2.6950     2.8870     0.5370 C.3   1 <1>  -0.1600 
  8 C       -0.1300     2.5710     0.4950 C.3   1 <1>  -0.1600 
  9 C       -3.6620    -1.8980     0.4670 C.ar  1 <1>  -0.1430 
 10 C       -2.5660     4.4240     0.4940 C.3   1 <1>   0.2000 
 11 C       -0.1870     3.8930    -0.2930 C.3   1 <1>  -0.1600 
 12 C       -4.0290    -2.6970    -0.6060 C.ar  1 <1>  -0.1500 
 13 C       -4.6480    -1.3430     1.2660 C.ar  1 <1>  -0.1500 
 14 O       -3.2730     4.8880    -0.6300 O.3   1 <1>  -0.5600 
 15 C       -1.0920     4.9090     0.4090 C.3   1 <1>   0.2000 
 16 C       -5.3660    -2.9350    -0.8740 C.ar  1 <1>  -0.1500 
 17 C       -5.9850    -1.5820     0.9980 C.ar  1 <1>  -0.1500 
 18 C       -4.6550     4.9780    -0.4670 C.3   1 <1>   0.0400 
 19 O       -1.0420     6.0880    -0.3060 O.3   1 <1>  -0.6800 
 20 C       -6.3510    -2.3800    -0.0730 C.ar  1 <1>  -0.1430 
 21 C       -7.8170    -2.6420    -0.3670 C.3   1 <1>  -0.0970 
 22 H       -1.4060     2.6520     2.1730 H     1 <1>   0.0800 
 23 H       -1.5650    -2.2780     0.2030 H     1 <1>   0.0800 
 24 H       -2.0110    -1.8210     1.8140 H     1 <1>   0.0800 
 25 H       -1.4560    -0.7030    -1.5830 H     1 <1>   0.0800 
 26 H       -1.4810     1.0100    -1.2860 H     1 <1>   0.0800 
 27 H       -2.9820     0.1170    -1.3350 H     1 <1>   0.0800 
 28 H       -3.5770     2.6210     1.0930 H     1 <1>   0.0800 
 29 H       -2.8150     2.5290    -0.4670 H     1 <1>   0.0800 
 30 H        0.6270     2.6480     1.2560 H     1 <1>   0.0800 
 31 H        0.1850     1.7850    -0.1670 H     1 <1>   0.0800 
 32 H       -3.0000     4.8570     1.3800 H     1 <1>   0.0800 
 33 H       -0.5780     3.7040    -1.2780 H     1 <1>   0.0800 
 34 H        0.8070     4.2950    -0.3920 H     1 <1>   0.0800 
 35 H       -3.2780    -3.1370    -1.2370 H     1 <1>   0.1500 
 36 H       -4.3710    -0.7200     2.1000 H     1 <1>   0.1500 
 37 H       -0.7070     5.1050     1.3950 H     1 <1>   0.0800 
 38 H       -5.6370    -3.5550    -1.7100 H     1 <1>   0.1500 
 39 H       -6.7370    -1.1440     1.6290 H     1 <1>   0.1500 
 40 H       -5.0750     5.3610    -1.3800 H     1 <1>   0.0800 
 41 H       -4.8750     5.6530     0.3420 H     1 <1>   0.0800 
 42 H       -5.0600     4.0010    -0.2670 H     1 <1>   0.0800 
 43 H       -1.8210     6.0640    -0.9080 H     1 <1>   0.4000 
 44 H       -7.9410    -3.6000    -0.8380 H     1 <1>   0.0800 
 45 H       -8.1970    -1.8790    -1.0220 H     1 <1>   0.0800 
 46 H       -8.3890    -2.6360     0.5430 H     1 <1>   0.0800 
@<TRIPOS>BOND
  1   1   2  2   
  2   2   3  am  
  3   2   4  1   
  4   3   5  1   
  5   3   6  1   
  6   4   7  1   
  7   4   8  1   
  8   4  22  1   
  9   5   9  1   
 10   5  23  1   
 11   5  24  1   
 12   6  25  1   
 13   6  26  1   
 14   6  27  1   
 15   7  10  1   
 16   7  28  1   
 17   7  29  1   
 18   8  11  1   
 19   8  30  1   
 20   8  31  1   
 21   9  12  ar  
 22   9  13  ar  
 23  10  14  1   
 24  10  15  1   
 25  10  32  1   
 26  11  15  1   
 27  11  33  1   
 28  11  34  1   
 29  12  16  ar  
 30  12  35  1   
 31  13  17  ar  
 32  13  36  1   
 33  14  18  1   
 34  15  19  1   
 35  15  37  1   
 36  16  20  ar  
 37  16  38  1   
 38  17  20  ar  
 39  17  39  1   
 40  18  40  1   
 41  18  41  1   
 42  18  42  1   
 43  19  43  1   
 44  20  21  1   
 45  21  44  1   
 46  21  45  1   
 47  21  46  1   
@<TRIPOS>SUBSTRUCTURE
  1 ****   3 GROUP 4 **** **** 0

# MOE 2024.06 (io_trps.svl 2023.06)
