@<TRIPOS>MOLECULE
NONAME
55 57 1 0 0 
SMALL
USER_CHARGES


@<TRIPOS>ATOM
  1 O        3.1800     2.4330    -0.0620 O.3   1 <1>  -0.0190 
  2 N        3.8440     1.3670     0.2660 N.2   1 <1>  -0.4100 
  3 C        2.0170     2.1440    -0.5800 C.2   1 <1>  -0.0400 
  4 C        3.1040     0.3690    -0.0640 C.2   1 <1>   0.1080 
  5 C        1.9050     0.8080    -0.6190 C.2   1 <1>  -0.1500 
  6 C        1.0830     3.2580    -1.0100 C.3   1 <1>   0.0200 
  7 C        3.4940    -1.0800     0.1290 C.3   1 <1>  -0.0590 
  8 C        0.4300     3.9500     0.2050 C.3   1 <1>  -0.0800 
  9 C       -0.4700     5.1050    -0.2230 C.3   1 <1>   0.2000 
 10 C        1.4510     4.6360     1.1250 C.3   1 <1>   0.3430 
 11 O       -1.3310     5.3940     0.8310 O.3   1 <1>  -0.6800 
 12 C        0.5110     6.2710    -0.3750 C.3   1 <1>   0.3430 
 13 N        1.5630     6.0550     0.6700 N.4   1 <1>  -0.9590 
 14 C        1.3780     6.9970     1.8070 C.3   1 <1>   0.4860 
 15 C        1.5650     8.4090     1.2900 C.ar  1 <1>  -0.1440 
 16 C        2.7910     8.8000     0.7750 C.ar  1 <1>  -0.1500 
 17 C        0.5130     9.3110     1.3020 C.ar  1 <1>  -0.1500 
 18 C        2.9690    10.0670     0.2430 C.ar  1 <1>  -0.1440 
 19 C        0.6850    10.5850     0.7940 C.ar  1 <1>  -0.1500 
 20 C        1.9120    10.9710     0.2600 C.ar  1 <1>   0.0820 
 21 C        4.3140    10.4760    -0.3530 C.3   1 <1>   0.2640 
 22 O        2.1350    12.2100    -0.2510 O.3   1 <1>  -0.3630 
 23 O        4.9880     9.3420    -0.8250 O.3   1 <1>  -0.5600 
 24 C        1.1370    13.2080    -0.2520 C.3   1 <1>   0.0400 
 25 C        6.2230     9.5940    -1.4140 C.3   1 <1>   0.1200 
 26 C        7.2960     9.6680    -0.3290 C.3   1 <1>  -0.2400 
 27 H        1.1060     0.1840    -0.9780 H     1 <1>   0.1500 
 28 H        1.6400     3.9580    -1.6090 H     1 <1>   0.0800 
 29 H        0.3140     2.8330    -1.6320 H     1 <1>   0.0800 
 30 H        2.7780    -1.5710     0.7610 H     1 <1>   0.0800 
 31 H        4.4640    -1.1420     0.5890 H     1 <1>   0.0800 
 32 H        3.5300    -1.5780    -0.8220 H     1 <1>   0.0800 
 33 H       -0.1230     3.2070     0.7540 H     1 <1>   0.0800 
 34 H       -1.0500     4.9240    -1.1130 H     1 <1>   0.0800 
 35 H        2.4090     4.1450     1.1160 H     1 <1>   0.0800 
 36 H        1.0670     4.6120     2.1330 H     1 <1>   0.0800 
 37 H       -2.0930     4.7740     0.8480 H     1 <1>   0.4000 
 38 H        0.0070     7.2180    -0.2660 H     1 <1>   0.0800 
 39 H        0.9640     6.2300    -1.3510 H     1 <1>   0.0800 
 40 H        2.4880     6.2470     0.2610 H     1 <1>   0.4500 
 41 H        0.3890     6.8830     2.2220 H     1 <1>   0.0800 
 42 H        2.1040     6.7990     2.5790 H     1 <1>   0.0800 
 43 H        3.6240     8.1180     0.7790 H     1 <1>   0.1500 
 44 H       -0.4480     9.0330     1.7040 H     1 <1>   0.1500 
 45 H       -0.1470    11.2640     0.8210 H     1 <1>   0.1500 
 46 H        4.9120    10.9570     0.4000 H     1 <1>   0.0800 
 47 H        4.1680    11.1480    -1.1810 H     1 <1>   0.0800 
 48 H        1.5540    14.0960    -0.6920 H     1 <1>   0.0800 
 49 H        0.8420    13.4080     0.7630 H     1 <1>   0.0800 
 50 H        0.3020    12.8680    -0.8380 H     1 <1>   0.0800 
 51 H        6.4340     8.7720    -2.0770 H     1 <1>   0.0800 
 52 H        6.1750    10.5010    -1.9930 H     1 <1>   0.0800 
 53 H        7.2910     8.7660     0.2580 H     1 <1>   0.0800 
 54 H        7.1420    10.5160     0.3120 H     1 <1>   0.0800 
 55 H        8.2630     9.7680    -0.7880 H     1 <1>   0.0800 
@<TRIPOS>BOND
  1   1   2  1   
  2   1   3  1   
  3   2   4  2   
  4   3   5  2   
  5   3   6  1   
  6   4   5  1   
  7   4   7  1   
  8   5  27  1   
  9   6   8  1   
 10   6  28  1   
 11   6  29  1   
 12   7  30  1   
 13   7  31  1   
 14   7  32  1   
 15   8   9  1   
 16   8  10  1   
 17   8  33  1   
 18   9  11  1   
 19   9  12  1   
 20   9  34  1   
 21  10  13  1   
 22  10  35  1   
 23  10  36  1   
 24  11  37  1   
 25  12  13  1   
 26  12  38  1   
 27  12  39  1   
 28  13  14  1   
 29  13  40  1   
 30  14  15  1   
 31  14  41  1   
 32  14  42  1   
 33  15  16  ar  
 34  15  17  ar  
 35  16  18  ar  
 36  16  43  1   
 37  17  19  ar  
 38  17  44  1   
 39  18  20  ar  
 40  18  21  1   
 41  19  20  ar  
 42  19  45  1   
 43  20  22  1   
 44  21  23  1   
 45  21  46  1   
 46  21  47  1   
 47  22  24  1   
 48  23  25  1   
 49  24  48  1   
 50  24  49  1   
 51  24  50  1   
 52  25  26  1   
 53  25  51  1   
 54  25  52  1   
 55  26  53  1   
 56  26  54  1   
 57  26  55  1   
@<TRIPOS>SUBSTRUCTURE
  1 ****  13 GROUP 4 **** **** 0

# MOE 2024.06 (io_trps.svl 2023.06)
