@<TRIPOS>MOLECULE
NONAME
50 51 1 0 0 
SMALL
USER_CHARGES


@<TRIPOS>ATOM
  1 CL      -0.4680    -2.1760     2.2170 Cl    1 <1>  -0.1770 
  2 C       -1.7780    -2.0870     1.0680 C.ar  1 <1>   0.1770 
  3 C       -2.1480    -3.2260     0.3770 C.ar  1 <1>  -0.1500 
  4 C       -2.4250    -0.8830     0.8690 C.ar  1 <1>  -0.1500 
  5 C       -3.1930    -3.1640    -0.5340 C.ar  1 <1>  -0.1440 
  6 C       -3.4650    -0.8200    -0.0420 C.ar  1 <1>  -0.1500 
  7 C       -3.8450    -1.9560    -0.7390 C.ar  1 <1>  -0.1500 
  8 C       -3.6220    -4.4100    -1.2910 C.3   1 <1>  -0.0160 
  9 C       -4.5900    -5.2350    -0.4290 C.3   1 <1>  -0.0990 
 10 C       -5.1110    -6.4920    -1.1120 C.2   1 <1>   0.5690 
 11 O       -4.8820    -6.6530    -2.2850 O.2   1 <1>  -0.5700 
 12 N       -5.8610    -7.4040    -0.4190 N.am  1 <1>  -0.6600 
 13 C       -6.0880    -8.7440    -1.0760 C.3   1 <1>   0.3210 
 14 C       -6.4470    -7.1360     0.9400 C.3   1 <1>   0.1400 
 15 C       -6.9300    -9.7410    -0.2770 C.2   1 <1>   0.0460 
 16 C       -7.7440    -6.2930     0.8890 C.3   1 <1>   0.3430 
 17 N       -8.2730    -9.6090    -0.1680 N.2   1 <1>  -0.5650 
 18 C       -6.5050   -10.8450     0.3840 C.2   1 <1>  -0.3320 
 19 N       -8.7340    -6.7700    -0.1290 N.4   1 <1>  -0.9590 
 20 C       -8.6310   -10.6370     0.5320 C.2   1 <1>   0.0360 
 21 N       -7.6020   -11.4260     0.9020 N.pl3 1 <1>   0.0330 
 22 C       -5.1150   -11.4320     0.5700 C.3   1 <1>  -0.0600 
 23 C       -8.5340    -6.1610    -1.4800 C.3   1 <1>   0.2630 
 24 C      -10.1410    -6.6030     0.3310 C.3   1 <1>   0.2630 
 25 H       -1.6190    -4.1440     0.5550 H     1 <1>   0.1500 
 26 H       -2.1160    -0.0120     1.4180 H     1 <1>   0.1500 
 27 H       -3.9770     0.1130    -0.2110 H     1 <1>   0.1500 
 28 H       -4.6520    -1.8910    -1.4480 H     1 <1>   0.1500 
 29 H       -2.7580    -5.0020    -1.5400 H     1 <1>   0.0800 
 30 H       -4.0980    -4.1290    -2.2150 H     1 <1>   0.0800 
 31 H       -5.4230    -4.6130    -0.1630 H     1 <1>   0.0800 
 32 H       -4.0740    -5.5200     0.4690 H     1 <1>   0.0800 
 33 H       -5.1290    -9.1840    -1.2800 H     1 <1>   0.0800 
 34 H       -6.5670    -8.5910    -2.0280 H     1 <1>   0.0800 
 35 H       -5.7270    -6.6150     1.5450 H     1 <1>   0.0800 
 36 H       -6.6450    -8.0550     1.4590 H     1 <1>   0.0800 
 37 H       -7.4920    -5.2640     0.6910 H     1 <1>   0.0800 
 38 H       -8.1930    -6.3290     1.8680 H     1 <1>   0.0800 
 39 H       -8.5630    -7.7990    -0.2310 H     1 <1>   0.4500 
 40 H       -9.6460   -10.8690     0.8060 H     1 <1>   0.1500 
 41 H       -7.6520   -12.2930     1.4480 H     1 <1>   0.2700 
 42 H       -4.3660   -10.8070     0.1190 H     1 <1>   0.0800 
 43 H       -5.0610   -12.4070     0.1160 H     1 <1>   0.0800 
 44 H       -4.8870   -11.5260     1.6180 H     1 <1>   0.0800 
 45 H       -8.6700    -5.0940    -1.4360 H     1 <1>   0.0800 
 46 H       -9.2430    -6.5730    -2.1800 H     1 <1>   0.0800 
 47 H       -7.5430    -6.3700    -1.8480 H     1 <1>   0.0800 
 48 H      -10.3730    -5.5590     0.4610 H     1 <1>   0.0800 
 49 H      -10.2870    -7.1130     1.2700 H     1 <1>   0.0800 
 50 H      -10.8200    -7.0230    -0.3930 H     1 <1>   0.0800 
@<TRIPOS>BOND
  1   1   2  1   
  2   2   3  ar  
  3   2   4  ar  
  4   3   5  ar  
  5   3  25  1   
  6   4   6  ar  
  7   4  26  1   
  8   5   7  ar  
  9   5   8  1   
 10   6   7  ar  
 11   6  27  1   
 12   7  28  1   
 13   8   9  1   
 14   8  29  1   
 15   8  30  1   
 16   9  10  1   
 17   9  31  1   
 18   9  32  1   
 19  10  11  2   
 20  10  12  am  
 21  12  13  1   
 22  12  14  1   
 23  13  15  1   
 24  13  33  1   
 25  13  34  1   
 26  14  16  1   
 27  14  35  1   
 28  14  36  1   
 29  15  17  1   
 30  15  18  2   
 31  16  19  1   
 32  16  37  1   
 33  16  38  1   
 34  17  20  2   
 35  18  21  1   
 36  18  22  1   
 37  19  23  1   
 38  19  24  1   
 39  19  39  1   
 40  20  21  1   
 41  20  40  1   
 42  21  41  1   
 43  22  42  1   
 44  22  43  1   
 45  22  44  1   
 46  23  45  1   
 47  23  46  1   
 48  23  47  1   
 49  24  48  1   
 50  24  49  1   
 51  24  50  1   
@<TRIPOS>SUBSTRUCTURE
  1 ****  10 GROUP 4 **** **** 0

# MOE 2024.06 (io_trps.svl 2023.06)
