@<TRIPOS>MOLECULE
NONAME
48 50 1 0 0 
SMALL
USER_CHARGES


@<TRIPOS>ATOM
  1 O       -0.1470    -1.4460     0.6880 O.2   1 <1>  -0.5700 
  2 C        0.7600    -1.8680    -0.0080 C.2   1 <1>   0.8410 
  3 N        1.1230    -1.1560    -1.1210 N.2   1 <1>  -0.6610 
  4 N        1.4010    -3.0540     0.3200 N.am  1 <1>  -0.4690 
  5 C        2.0740    -1.6220    -1.8460 C.2   1 <1>   0.3760 
  6 C        2.4160    -3.5330    -0.4690 C.2   1 <1>  -0.0410 
  7 C        0.9710    -3.8400     1.5190 C.3   1 <1>   0.2010 
  8 C        2.7640    -2.8210    -1.5650 C.2   1 <1>  -0.1360 
  9 C        0.2850    -5.1530     1.1340 C.2   1 <1>   0.5690 
 10 O        0.8330    -6.1880     1.4410 O.2   1 <1>  -0.5700 
 11 N       -0.9160    -5.1850     0.4680 N.am  1 <1>  -0.6600 
 12 C       -1.4230    -6.4330    -0.1290 C.3   1 <1>   0.1400 
 13 C       -1.9630    -4.1320     0.5190 C.3   1 <1>   0.1400 
 14 C       -2.6380    -6.8170     0.7290 C.3   1 <1>   0.4230 
 15 C       -3.2800    -4.7010     1.1100 C.3   1 <1>  -0.1600 
 16 N       -2.7750    -8.3010     0.9840 N.4   1 <1>  -0.9590 
 17 C       -3.9140    -5.9530     0.2890 C.3   1 <1>   0.0000 
 18 C       -2.8760    -9.0770    -0.2650 C.3   1 <1>   0.3430 
 19 C       -1.6600    -8.8050     1.8520 C.3   1 <1>   0.2630 
 20 C       -4.5450    -7.1500    -0.6010 C.3   1 <1>  -0.1600 
 21 C       -5.1990    -5.0650    -0.0630 C.3   1 <1>   0.1200 
 22 C       -3.6980    -8.2700    -1.2530 C.3   1 <1>  -0.1600 
 23 O       -4.8890    -4.2230    -1.1280 O.3   1 <1>  -0.6800 
 24 H        2.3720    -1.0760    -2.7240 H     1 <1>   0.0600 
 25 H        2.8980    -4.4590    -0.1930 H     1 <1>   0.1500 
 26 H        1.8440    -4.0720     2.1020 H     1 <1>   0.0800 
 27 H        0.3170    -3.2650     2.1460 H     1 <1>   0.0800 
 28 H        3.5470    -3.1330    -2.2310 H     1 <1>   0.1500 
 29 H       -1.7110    -6.2390    -1.1480 H     1 <1>   0.0800 
 30 H       -0.6650    -7.1940    -0.1200 H     1 <1>   0.0800 
 31 H       -1.6410    -3.3080     1.1290 H     1 <1>   0.0800 
 32 H       -2.1390    -3.7560    -0.4770 H     1 <1>   0.0800 
 33 H       -2.3440    -6.4850     1.7080 H     1 <1>   0.0800 
 34 H       -3.1390    -4.9320     2.1540 H     1 <1>   0.0800 
 35 H       -3.8500    -3.7890     1.1910 H     1 <1>   0.0800 
 36 H       -3.6630    -8.4180     1.4890 H     1 <1>   0.4500 
 37 H       -1.8970    -9.2650    -0.6780 H     1 <1>   0.0800 
 38 H       -3.3540   -10.0240    -0.0690 H     1 <1>   0.0800 
 39 H       -0.7090    -8.6780     1.3600 H     1 <1>   0.0800 
 40 H       -1.7980    -9.8510     2.0730 H     1 <1>   0.0800 
 41 H       -1.6330    -8.2580     2.7810 H     1 <1>   0.0800 
 42 H       -5.3140    -7.6330    -0.0180 H     1 <1>   0.0800 
 43 H       -5.0250    -6.7790    -1.4980 H     1 <1>   0.0800 
 44 H       -5.5730    -4.4690     0.7540 H     1 <1>   0.0800 
 45 H       -6.1010    -5.5930    -0.3370 H     1 <1>   0.0800 
 46 H       -3.0420    -7.8440    -1.9930 H     1 <1>   0.0800 
 47 H       -4.3440    -8.9470    -1.7860 H     1 <1>   0.0800 
 48 H       -5.6420    -3.6380    -1.3530 H     1 <1>   0.4000 
@<TRIPOS>BOND
  1   1   2  2   
  2   2   3  1   
  3   2   4  am  
  4   3   5  2   
  5   4   6  1   
  6   4   7  1   
  7   5   8  1   
  8   5  24  1   
  9   6   8  2   
 10   6  25  1   
 11   7   9  1   
 12   7  26  1   
 13   7  27  1   
 14   8  28  1   
 15   9  10  2   
 16   9  11  am  
 17  11  12  1   
 18  11  13  1   
 19  12  14  1   
 20  12  29  1   
 21  12  30  1   
 22  13  15  1   
 23  13  31  1   
 24  13  32  1   
 25  14  16  1   
 26  14  17  1   
 27  14  33  1   
 28  15  17  1   
 29  15  34  1   
 30  15  35  1   
 31  16  18  1   
 32  16  19  1   
 33  16  36  1   
 34  17  20  1   
 35  17  21  1   
 36  18  22  1   
 37  18  37  1   
 38  18  38  1   
 39  19  39  1   
 40  19  40  1   
 41  19  41  1   
 42  20  22  1   
 43  20  42  1   
 44  20  43  1   
 45  21  23  1   
 46  21  44  1   
 47  21  45  1   
 48  22  46  1   
 49  22  47  1   
 50  23  48  1   
@<TRIPOS>SUBSTRUCTURE
  1 ****  11 GROUP 4 **** **** 0

# MOE 2024.06 (io_trps.svl 2023.06)
