@<TRIPOS>MOLECULE
NONAME
52 54 1 0 0 
SMALL
USER_CHARGES


@<TRIPOS>ATOM
  1 O       -1.0750     0.8640    -1.8160 O.co2 1 <1>  -0.9000 
  2 C       -1.0480     1.1910    -0.6250 C.2   1 <1>   0.9060 
  3 O       -1.5550     0.4690     0.2490 O.co2 1 <1>  -0.9000 
  4 C       -0.3870     2.5040    -0.1920 C.3   1 <1>  -0.1060 
  5 C       -1.4150     3.2030     0.7310 C.3   1 <1>   0.2000 
  6 C       -0.1760     3.3730    -1.4590 C.3   1 <1>   0.1400 
  7 C        0.9670     2.0860     0.4650 C.3   1 <1>  -0.0650 
  8 O       -1.4950     2.5490     1.9430 O.3   1 <1>  -0.6800 
  9 C       -1.1800     4.6920     0.9840 C.3   1 <1>  -0.1600 
 10 N        0.0070     4.8360    -1.1740 N.am  1 <1>  -0.6600 
 11 C        1.7890     3.1360     1.2270 C.3   1 <1>  -0.1950 
 12 C       -1.0710     5.4340    -0.3410 C.3   1 <1>   0.1400 
 13 C        1.0250     5.5560    -1.7580 C.2   1 <1>   0.5690 
 14 C        2.8030     4.0050     0.5570 C.3   1 <1>  -0.2000 
 15 C        3.2470     2.8940     1.4620 C.3   1 <1>  -0.2000 
 16 O        1.7780     5.0640    -2.5690 O.2   1 <1>  -0.5700 
 17 C        1.2350     7.0370    -1.4550 C.3   1 <1>   0.1810 
 18 O        1.5090     7.2590    -0.0810 O.3   1 <1>  -0.3630 
 19 C        1.8530     8.5200     0.2440 C.ar  1 <1>   0.0820 
 20 C        3.1780     8.9490     0.1730 C.ar  1 <1>  -0.1430 
 21 C        0.8460     9.3770     0.6570 C.ar  1 <1>  -0.1500 
 22 C        3.4720    10.2720     0.4930 C.ar  1 <1>  -0.1430 
 23 C        4.2880     7.9850    -0.2450 C.3   1 <1>  -0.0970 
 24 C        1.1480    10.6850     0.9800 C.ar  1 <1>  -0.1500 
 25 C        2.4560    11.1280     0.8940 C.ar  1 <1>  -0.1500 
 26 C        4.8930    10.8160     0.4200 C.3   1 <1>  -0.0970 
 27 H       -2.3850     3.1040     0.2720 H     1 <1>   0.0800 
 28 H       -1.0400     3.2800    -2.0950 H     1 <1>   0.0800 
 29 H        0.6600     2.9860    -2.0160 H     1 <1>   0.0800 
 30 H        0.7650     1.2950     1.1670 H     1 <1>   0.0800 
 31 H        1.5850     1.6520    -0.3010 H     1 <1>   0.0800 
 32 H       -1.5900     1.5850     1.7020 H     1 <1>   0.4000 
 33 H       -2.0090     5.0870     1.5410 H     1 <1>   0.0800 
 34 H       -0.2880     4.8640     1.5520 H     1 <1>   0.0800 
 35 H        1.2680     3.5000     2.0930 H     1 <1>   0.1000 
 36 H       -0.8890     6.4740    -0.1460 H     1 <1>   0.0800 
 37 H       -2.0030     5.3530    -0.8750 H     1 <1>   0.0800 
 38 H        2.9620     3.8950    -0.5010 H     1 <1>   0.1000 
 39 H        2.8720     5.0270     0.8840 H     1 <1>   0.1000 
 40 H        3.6620     3.1450     2.4220 H     1 <1>   0.1000 
 41 H        3.7090     2.0270     1.0230 H     1 <1>   0.1000 
 42 H        0.3580     7.5940    -1.7220 H     1 <1>   0.0800 
 43 H        2.0690     7.3990    -2.0270 H     1 <1>   0.0800 
 44 H       -0.1630     9.0160     0.7240 H     1 <1>   0.1500 
 45 H        5.1170     8.0540     0.4350 H     1 <1>   0.0800 
 46 H        4.6260     8.2260    -1.2370 H     1 <1>   0.0800 
 47 H        3.9560     6.9640    -0.2400 H     1 <1>   0.0800 
 48 H        0.3710    11.3570     1.3000 H     1 <1>   0.1500 
 49 H        2.6770    12.1500     1.1460 H     1 <1>   0.1500 
 50 H        4.9070    11.8800     0.5670 H     1 <1>   0.0800 
 51 H        5.3220    10.6060    -0.5430 H     1 <1>   0.0800 
 52 H        5.4980    10.3610     1.1820 H     1 <1>   0.0800 
@<TRIPOS>BOND
  1   1   2  ar  
  2   2   3  ar  
  3   2   4  1   
  4   4   5  1   
  5   4   6  1   
  6   4   7  1   
  7   5   8  1   
  8   5   9  1   
  9   5  27  1   
 10   6  10  1   
 11   6  28  1   
 12   6  29  1   
 13   7  11  1   
 14   7  30  1   
 15   7  31  1   
 16   8  32  1   
 17   9  12  1   
 18   9  33  1   
 19   9  34  1   
 20  10  12  1   
 21  10  13  am  
 22  11  14  1   
 23  11  15  1   
 24  11  35  1   
 25  12  36  1   
 26  12  37  1   
 27  13  16  2   
 28  13  17  1   
 29  14  15  1   
 30  14  38  1   
 31  14  39  1   
 32  15  40  1   
 33  15  41  1   
 34  17  18  1   
 35  17  42  1   
 36  17  43  1   
 37  18  19  1   
 38  19  20  ar  
 39  19  21  ar  
 40  20  22  ar  
 41  20  23  1   
 42  21  24  ar  
 43  21  44  1   
 44  22  25  ar  
 45  22  26  1   
 46  23  45  1   
 47  23  46  1   
 48  23  47  1   
 49  24  25  ar  
 50  24  48  1   
 51  25  49  1   
 52  26  50  1   
 53  26  51  1   
 54  26  52  1   
@<TRIPOS>SUBSTRUCTURE
  1 ****  10 GROUP 4 **** **** 0

# MOE 2024.06 (io_trps.svl 2023.06)
