@<TRIPOS>MOLECULE
NONAME
47 50 1 0 0 
SMALL
USER_CHARGES


@<TRIPOS>ATOM
  1 O       -1.1500     0.1410     0.5240 O.3   1 <1>  -0.2800 
  2 C       -1.4560     1.4050     0.4620 C.2   1 <1>   0.4780 
  3 C       -2.2690    -0.4520     0.7790 C.2   1 <1>   0.2980 
  4 N       -2.7200     1.5800     0.6810 N.2   1 <1>  -0.3380 
  5 C       -0.4610     2.4080     0.1840 C.2   1 <1>   0.1400 
  6 N       -3.2400     0.3730     0.8880 N.2   1 <1>  -0.3380 
  7 C       -2.3300    -1.9700     0.9250 C.3   1 <1>   0.2900 
  8 O        0.8140     2.0800    -0.0050 O.3   1 <1>  -0.2800 
  9 C       -0.5810     3.7590     0.0650 C.2   1 <1>  -0.1500 
 10 N       -2.0240    -2.6990    -0.3320 N.3   1 <1>  -0.8100 
 11 C        1.5020     3.1780    -0.2390 C.2   1 <1>  -0.0100 
 12 C        0.6930     4.2580    -0.2090 C.2   1 <1>  -0.1500 
 13 C       -2.0170    -4.1590    -0.1140 C.3   1 <1>   0.1100 
 14 C       -3.0130    -2.4360    -1.3850 C.3   1 <1>   0.1100 
 15 C       -3.1860    -4.7570    -0.9030 C.3   1 <1>   0.0630 
 16 C       -4.0440    -3.5430    -1.2470 C.3   1 <1>  -0.1600 
 17 C       -3.8460    -5.9390    -0.1750 C.ar  1 <1>  -0.1430 
 18 C       -3.1600    -7.1520    -0.0990 C.ar  1 <1>   0.0830 
 19 C       -5.1020    -5.8480     0.4190 C.ar  1 <1>  -0.1500 
 20 O       -1.9140    -7.2270    -0.6440 O.3   1 <1>  -0.3630 
 21 C       -3.7490    -8.2590     0.5270 C.ar  1 <1>   0.0830 
 22 C       -5.6650    -6.9320     1.0690 C.ar  1 <1>  -0.1500 
 23 C       -0.8460    -7.5350     0.2270 C.3   1 <1>   0.0400 
 24 O       -3.1590    -9.4780     0.5730 O.3   1 <1>  -0.3630 
 25 C       -4.9900    -8.1360     1.1230 C.ar  1 <1>  -0.1500 
 26 C       -3.0920   -10.1730    -0.6530 C.3   1 <1>   0.0400 
 27 H       -3.3090    -2.2450     1.2750 H     1 <1>   0.0800 
 28 H       -1.6140    -2.2550     1.6750 H     1 <1>   0.0800 
 29 H       -1.4790     4.3440     0.1620 H     1 <1>   0.1500 
 30 H        2.5610     3.1010    -0.4170 H     1 <1>   0.1500 
 31 H        0.9470     5.2920    -0.3610 H     1 <1>   0.1500 
 32 H       -2.1180    -4.3970     0.9320 H     1 <1>   0.0800 
 33 H       -1.0890    -4.5730    -0.4690 H     1 <1>   0.0800 
 34 H       -2.5230    -2.5180    -2.3420 H     1 <1>   0.0800 
 35 H       -3.4560    -1.4570    -1.3100 H     1 <1>   0.0800 
 36 H       -2.7830    -5.1280    -1.8300 H     1 <1>   0.0800 
 37 H       -4.6070    -3.6850    -2.1510 H     1 <1>   0.0800 
 38 H       -4.7070    -3.2690    -0.4500 H     1 <1>   0.0800 
 39 H       -5.6710    -4.9390     0.3930 H     1 <1>   0.1500 
 40 H       -6.6340    -6.8400     1.5290 H     1 <1>   0.1500 
 41 H        0.0740    -7.2950    -0.2730 H     1 <1>   0.0800 
 42 H       -0.8690    -8.5830     0.4630 H     1 <1>   0.0800 
 43 H       -0.9440    -6.9480     1.1230 H     1 <1>   0.0800 
 44 H       -5.4240    -8.9850     1.6200 H     1 <1>   0.1500 
 45 H       -2.6490   -11.1350    -0.4700 H     1 <1>   0.0800 
 46 H       -2.4870    -9.6160    -1.3450 H     1 <1>   0.0800 
 47 H       -4.0880   -10.2910    -1.0390 H     1 <1>   0.0800 
@<TRIPOS>BOND
  1   1   2  1   
  2   1   3  1   
  3   2   4  2   
  4   2   5  1   
  5   3   6  2   
  6   3   7  1   
  7   4   6  1   
  8   5   8  1   
  9   5   9  2   
 10   7  10  1   
 11   7  27  1   
 12   7  28  1   
 13   8  11  1   
 14   9  12  1   
 15   9  29  1   
 16  10  13  1   
 17  10  14  1   
 18  11  12  2   
 19  11  30  1   
 20  12  31  1   
 21  13  15  1   
 22  13  32  1   
 23  13  33  1   
 24  14  16  1   
 25  14  34  1   
 26  14  35  1   
 27  15  16  1   
 28  15  17  1   
 29  15  36  1   
 30  16  37  1   
 31  16  38  1   
 32  17  18  ar  
 33  17  19  ar  
 34  18  20  1   
 35  18  21  ar  
 36  19  22  ar  
 37  19  39  1   
 38  20  23  1   
 39  21  24  1   
 40  21  25  ar  
 41  22  25  ar  
 42  22  40  1   
 43  23  41  1   
 44  23  42  1   
 45  23  43  1   
 46  24  26  1   
 47  25  44  1   
 48  26  45  1   
 49  26  46  1   
 50  26  47  1   
@<TRIPOS>SUBSTRUCTURE
  1 ****  10 GROUP 4 **** **** 0

# MOE 2024.06 (io_trps.svl 2023.06)
