@<TRIPOS>MOLECULE
NONAME
40 42 1 0 0 
SMALL
USER_CHARGES


@<TRIPOS>ATOM
  1 F        0.5640    -0.8650     0.1730 F     1 <1>  -0.3400 
  2 C        0.3530    -2.1660     0.3380 C.3   1 <1>   1.1640 
  3 F        0.8880    -2.4870     1.5090 F     1 <1>  -0.3400 
  4 F        1.0810    -2.7810    -0.5860 F     1 <1>  -0.3400 
  5 C       -1.1290    -2.5480     0.2610 C.ar  1 <1>  -0.1440 
  6 C       -2.1480    -1.6280     0.4140 C.ar  1 <1>  -0.1500 
  7 C       -1.5320    -3.8550     0.0390 C.ar  1 <1>  -0.1500 
  8 C       -3.4860    -2.0140     0.3350 C.ar  1 <1>   0.4100 
  9 C       -2.8800    -4.1540    -0.0120 C.ar  1 <1>   0.1600 
 10 N       -3.8520    -3.2740     0.1330 N.ar  1 <1>  -0.6200 
 11 N       -4.4980    -1.0760     0.4740 N.pl3 1 <1>  -0.8380 
 12 C       -5.8060    -1.4270     1.1120 C.3   1 <1>   0.2090 
 13 C       -4.4160     0.2840    -0.1180 C.3   1 <1>   0.2090 
 14 C       -7.0090    -1.2070     0.1600 C.3   1 <1>   0.0000 
 15 C       -5.5870     0.5140    -1.0760 C.3   1 <1>  -0.1600 
 16 C       -8.3060    -1.5070     0.9410 C.3   1 <1>   0.2000 
 17 C       -6.9440     0.2310    -0.4120 C.3   1 <1>  -0.1600 
 18 C       -7.0300    -2.2770    -0.9500 C.3   1 <1>  -0.1600 
 19 O       -9.4050    -0.9950     0.2730 O.3   1 <1>  -0.6800 
 20 C       -8.4410    -3.0290     0.9210 C.3   1 <1>  -0.1600 
 21 C       -7.7280    -3.5060    -0.3540 C.3   1 <1>  -0.1600 
 22 H       -1.9280    -0.5960     0.6090 H     1 <1>   0.1500 
 23 H       -0.8090    -4.6420    -0.0900 H     1 <1>   0.1500 
 24 H       -3.1770    -5.1750    -0.1820 H     1 <1>   0.1500 
 25 H       -5.7850    -2.4460     1.4560 H     1 <1>   0.0800 
 26 H       -5.9270    -0.8020     1.9790 H     1 <1>   0.0800 
 27 H       -4.4440     1.0120     0.6750 H     1 <1>   0.0800 
 28 H       -3.4940     0.4050    -0.6590 H     1 <1>   0.0800 
 29 H       -5.5630     1.5320    -1.4220 H     1 <1>   0.0800 
 30 H       -5.4580    -0.1230    -1.9340 H     1 <1>   0.0800 
 31 H       -8.3050    -1.1000     1.9380 H     1 <1>   0.0800 
 32 H       -7.7260     0.3860    -1.1340 H     1 <1>   0.0800 
 33 H       -7.0990     0.9330     0.3880 H     1 <1>   0.0800 
 34 H       -7.6040    -1.9220    -1.7880 H     1 <1>   0.0800 
 35 H       -6.0410    -2.5170    -1.3020 H     1 <1>   0.0800 
 36 H       -9.4200    -1.3740    -0.6260 H     1 <1>   0.4000 
 37 H       -7.9300    -3.4350     1.7760 H     1 <1>   0.0800 
 38 H       -9.4690    -3.3460     0.9620 H     1 <1>   0.0800 
 39 H       -6.9980    -4.2580    -0.1050 H     1 <1>   0.0800 
 40 H       -8.4280    -3.9210    -1.0580 H     1 <1>   0.0800 
@<TRIPOS>BOND
  1   1   2  1   
  2   2   3  1   
  3   2   4  1   
  4   2   5  1   
  5   5   6  ar  
  6   5   7  ar  
  7   6   8  ar  
  8   6  22  1   
  9   7   9  ar  
 10   7  23  1   
 11   8  10  ar  
 12   8  11  1   
 13   9  10  ar  
 14   9  24  1   
 15  11  12  1   
 16  11  13  1   
 17  12  14  1   
 18  12  25  1   
 19  12  26  1   
 20  13  15  1   
 21  13  27  1   
 22  13  28  1   
 23  14  16  1   
 24  14  17  1   
 25  14  18  1   
 26  15  17  1   
 27  15  29  1   
 28  15  30  1   
 29  16  19  1   
 30  16  20  1   
 31  16  31  1   
 32  17  32  1   
 33  17  33  1   
 34  18  21  1   
 35  18  34  1   
 36  18  35  1   
 37  19  36  1   
 38  20  21  1   
 39  20  37  1   
 40  20  38  1   
 41  21  39  1   
 42  21  40  1   
@<TRIPOS>SUBSTRUCTURE
  1 ****   8 GROUP 4 **** **** 0

# MOE 2024.06 (io_trps.svl 2023.06)
