@<TRIPOS>MOLECULE
NONAME
51 54 1 0 0 
SMALL
USER_CHARGES


@<TRIPOS>ATOM
  1 O       -2.9620    -0.2290     1.9590 O.2   1 <1>  -0.5700 
  2 C       -2.7280     0.2380     0.8710 C.2   1 <1>   0.5690 
  3 N       -2.6280    -0.4570    -0.2840 N.am  1 <1>  -0.6600 
  4 C       -2.5120     1.7050     0.6310 C.3   1 <1>  -0.0990 
  5 C       -2.3210     0.3960    -1.4430 C.3   1 <1>   0.1400 
  6 C       -2.6650    -1.9330    -0.4050 C.3   1 <1>   0.1400 
  7 C       -2.4870     1.8240    -0.9030 C.3   1 <1>  -0.1600 
  8 C       -4.1110    -2.4190    -0.3010 C.3   1 <1>  -0.0990 
  9 C       -4.2170    -3.9270    -0.4470 C.2   1 <1>   0.5690 
 10 O       -3.3730    -4.4970    -1.0970 O.2   1 <1>  -0.5700 
 11 N       -5.2560    -4.6140     0.1270 N.am  1 <1>  -0.6600 
 12 C       -5.2990    -6.1120     0.1210 C.3   1 <1>   0.1400 
 13 C       -6.4700    -4.0050     0.7580 C.3   1 <1>   0.1400 
 14 C       -6.6540    -6.6360    -0.3900 C.3   1 <1>   0.3430 
 15 C       -7.7610    -4.6500     0.2140 C.3   1 <1>   0.2950 
 16 O       -7.7030    -6.0410     0.3280 O.3   1 <1>  -0.5600 
 17 C       -6.7300    -8.1530    -0.2490 C.ar  1 <1>  -0.1440 
 18 C       -8.9940    -4.1770     0.9900 C.3   1 <1>  -0.1950 
 19 C       -6.2990    -8.9590    -1.2930 C.ar  1 <1>  -0.1500 
 20 C       -7.2090    -8.7520     0.9090 C.ar  1 <1>  -0.1500 
 21 C      -10.3630    -4.2560     0.3910 C.3   1 <1>  -0.2000 
 22 C       -9.7130    -2.9190     0.6120 C.3   1 <1>  -0.2000 
 23 C       -6.3440   -10.3390    -1.1820 C.ar  1 <1>  -0.1500 
 24 C       -7.2550   -10.1310     1.0220 C.ar  1 <1>  -0.1500 
 25 C       -6.8220   -10.9250    -0.0240 C.ar  1 <1>  -0.1500 
 26 H       -3.3070     2.2810     1.0670 H     1 <1>   0.0800 
 27 H       -1.5690     1.9920     1.0600 H     1 <1>   0.0800 
 28 H       -1.3070     0.2190    -1.7600 H     1 <1>   0.0800 
 29 H       -3.0020     0.1990    -2.2540 H     1 <1>   0.0800 
 30 H       -2.2340    -2.2310    -1.3460 H     1 <1>   0.0800 
 31 H       -2.0810    -2.3670     0.3890 H     1 <1>   0.0800 
 32 H       -1.6940     2.4660    -1.2450 H     1 <1>   0.0800 
 33 H       -3.4250     2.2210    -1.2510 H     1 <1>   0.0800 
 34 H       -4.7030    -1.9590    -1.0690 H     1 <1>   0.0800 
 35 H       -4.4840    -2.1280     0.6620 H     1 <1>   0.0800 
 36 H       -4.5160    -6.5150    -0.4960 H     1 <1>   0.0800 
 37 H       -5.1410    -6.4730     1.1220 H     1 <1>   0.0800 
 38 H       -6.4230    -4.1500     1.8230 H     1 <1>   0.0800 
 39 H       -6.5160    -2.9480     0.5680 H     1 <1>   0.0800 
 40 H       -6.7720    -6.3730    -1.4270 H     1 <1>   0.0800 
 41 H       -7.8790    -4.4050    -0.8280 H     1 <1>   0.0800 
 42 H       -8.9130    -4.3950     2.0410 H     1 <1>   0.1000 
 43 H       -5.9230    -8.5190    -2.2000 H     1 <1>   0.1500 
 44 H       -7.5520    -8.1420     1.7280 H     1 <1>   0.1500 
 45 H      -10.4650    -4.6330    -0.6120 H     1 <1>   0.1000 
 46 H      -11.1810    -4.5540     1.0250 H     1 <1>   0.1000 
 47 H      -10.0960    -2.2850     1.3940 H     1 <1>   0.1000 
 48 H       -9.3970    -2.3600    -0.2520 H     1 <1>   0.1000 
 49 H       -6.0080   -10.9550    -1.9970 H     1 <1>   0.1500 
 50 H       -7.6300   -10.5830     1.9230 H     1 <1>   0.1500 
 51 H       -6.8590   -11.9970     0.0620 H     1 <1>   0.1500 
@<TRIPOS>BOND
  1   1   2  2   
  2   2   3  am  
  3   2   4  1   
  4   3   5  1   
  5   3   6  1   
  6   4   7  1   
  7   4  26  1   
  8   4  27  1   
  9   5   7  1   
 10   5  28  1   
 11   5  29  1   
 12   6   8  1   
 13   6  30  1   
 14   6  31  1   
 15   7  32  1   
 16   7  33  1   
 17   8   9  1   
 18   8  34  1   
 19   8  35  1   
 20   9  10  2   
 21   9  11  am  
 22  11  12  1   
 23  11  13  1   
 24  12  14  1   
 25  12  36  1   
 26  12  37  1   
 27  13  15  1   
 28  13  38  1   
 29  13  39  1   
 30  14  16  1   
 31  14  17  1   
 32  14  40  1   
 33  15  16  1   
 34  15  18  1   
 35  15  41  1   
 36  17  19  ar  
 37  17  20  ar  
 38  18  21  1   
 39  18  22  1   
 40  18  42  1   
 41  19  23  ar  
 42  19  43  1   
 43  20  24  ar  
 44  20  44  1   
 45  21  22  1   
 46  21  45  1   
 47  21  46  1   
 48  22  47  1   
 49  22  48  1   
 50  23  25  ar  
 51  23  49  1   
 52  24  25  ar  
 53  24  50  1   
 54  25  51  1   
@<TRIPOS>SUBSTRUCTURE
  1 ****  11 GROUP 4 **** **** 0

# MOE 2024.06 (io_trps.svl 2023.06)
