@<TRIPOS>MOLECULE
NONAME
60 64 1 0 0 
SMALL
USER_CHARGES


@<TRIPOS>ATOM
  1 N        0.9750     0.2120     0.3370 N.ar  1 <1>  -0.6200 
  2 C        0.0720     1.1300     0.7170 C.ar  1 <1>   0.6200 
  3 C        1.6640     0.5120    -0.7340 C.ar  1 <1>   0.1660 
  4 N       -0.1490     2.2960     0.0930 N.ar  1 <1>  -0.6200 
  5 C       -0.7230     0.8390     1.9010 C.ar  1 <1>   0.0000 
  6 C        1.5080     1.6700    -1.4290 C.ar  1 <1>  -0.1430 
  7 C        2.7360    -0.3660    -1.3340 C.3   1 <1>   0.1440 
  8 C        0.5680     2.5580    -0.9760 C.ar  1 <1>   0.1600 
  9 C       -1.1020    -0.4660     2.2270 C.ar  1 <1>  -0.1500 
 10 C       -1.1440     1.8530     2.7660 C.ar  1 <1>  -0.1500 
 11 C        2.4470     1.7450    -2.6070 C.3   1 <1>  -0.0160 
 12 C        3.6710    -0.8270    -0.2030 C.3   1 <1>   0.3430 
 13 C        2.1010    -1.5870    -2.0330 C.3   1 <1>  -0.1600 
 14 C        3.4330     0.5910    -2.3390 C.3   1 <1>  -0.1600 
 15 C       -1.8520    -0.7460     3.3550 C.ar  1 <1>  -0.1500 
 16 C       -1.8950     1.5810     3.8950 C.ar  1 <1>  -0.1500 
 17 N        4.7010    -1.8130    -0.6890 N.4   1 <1>  -0.9590 
 18 C        3.1540    -2.6390    -2.4310 C.3   1 <1>  -0.1600 
 19 C       -2.2500     0.2790     4.1930 C.ar  1 <1>  -0.1500 
 20 C        4.0540    -3.0310    -1.2540 C.3   1 <1>   0.3430 
 21 C        5.6740    -2.1510     0.3890 C.3   1 <1>   0.4860 
 22 C        6.4150    -0.8920     0.7800 C.ar  1 <1>  -0.1430 
 23 C        7.4290    -0.3990    -0.0250 C.ar  1 <1>   0.1600 
 24 C        6.0900    -0.2010     1.9340 C.ar  1 <1>  -0.1500 
 25 N        8.1000     0.7120     0.2000 N.ar  1 <1>  -0.6200 
 26 C        6.7950     0.9520     2.1850 C.ar  1 <1>  -0.1500 
 27 C        7.7810     1.3830     1.3010 C.ar  1 <1>   0.4100 
 28 N        8.4710     2.5540     1.5570 N.pl3 1 <1>  -0.8380 
 29 C        9.8650     2.7100     1.0560 C.3   1 <1>   0.1290 
 30 C        7.7250     3.8300     1.7130 C.3   1 <1>   0.1290 
 31 H        0.4010     3.4900    -1.4890 H     1 <1>   0.1500 
 32 H       -0.8070    -1.2760     1.5830 H     1 <1>   0.1500 
 33 H       -0.8810     2.8740     2.5480 H     1 <1>   0.1500 
 34 H        2.9490     2.6960    -2.6570 H     1 <1>   0.0800 
 35 H        1.8970     1.5770    -3.5180 H     1 <1>   0.0800 
 36 H        3.0720    -1.2800     0.5710 H     1 <1>   0.0800 
 37 H        4.1500     0.0420     0.2190 H     1 <1>   0.0800 
 38 H        1.5470    -1.2700    -2.9000 H     1 <1>   0.0800 
 39 H        1.3960    -2.0450    -1.3580 H     1 <1>   0.0800 
 40 H        3.7160     0.1080    -3.2570 H     1 <1>   0.0800 
 41 H        4.3160     1.0120    -1.8880 H     1 <1>   0.0800 
 42 H       -2.1290    -1.7610     3.5810 H     1 <1>   0.1500 
 43 H       -2.2040     2.3840     4.5420 H     1 <1>   0.1500 
 44 H        5.2270    -1.3490    -1.4390 H     1 <1>   0.4500 
 45 H        3.7620    -2.2730    -3.2400 H     1 <1>   0.0800 
 46 H        2.6500    -3.5190    -2.7900 H     1 <1>   0.0800 
 47 H       -2.8340     0.0640     5.0710 H     1 <1>   0.1500 
 48 H        3.4590    -3.5140    -0.4950 H     1 <1>   0.0800 
 49 H        4.8030    -3.7290    -1.5930 H     1 <1>   0.0800 
 50 H        6.3800    -2.8860     0.0370 H     1 <1>   0.0800 
 51 H        5.1590    -2.5540     1.2450 H     1 <1>   0.0800 
 52 H        7.7120    -0.9380    -0.9140 H     1 <1>   0.1500 
 53 H        5.3270    -0.5340     2.6180 H     1 <1>   0.1500 
 54 H        6.6070     1.5350     3.0670 H     1 <1>   0.1500 
 55 H       10.3770     1.7640     1.0920 H     1 <1>   0.0800 
 56 H       10.4000     3.4140     1.6690 H     1 <1>   0.0800 
 57 H        9.8510     3.0580     0.0380 H     1 <1>   0.0800 
 58 H        6.6690     3.6450     1.8060 H     1 <1>   0.0800 
 59 H        7.8880     4.4570     0.8540 H     1 <1>   0.0800 
 60 H        8.0680     4.3430     2.5950 H     1 <1>   0.0800 
@<TRIPOS>BOND
  1   1   2  ar  
  2   1   3  ar  
  3   2   4  ar  
  4   2   5  1   
  5   3   6  ar  
  6   3   7  1   
  7   4   8  ar  
  8   5   9  ar  
  9   5  10  ar  
 10   6   8  ar  
 11   6  11  1   
 12   7  12  1   
 13   7  13  1   
 14   7  14  1   
 15   8  31  1   
 16   9  15  ar  
 17   9  32  1   
 18  10  16  ar  
 19  10  33  1   
 20  11  14  1   
 21  11  34  1   
 22  11  35  1   
 23  12  17  1   
 24  12  36  1   
 25  12  37  1   
 26  13  18  1   
 27  13  38  1   
 28  13  39  1   
 29  14  40  1   
 30  14  41  1   
 31  15  19  ar  
 32  15  42  1   
 33  16  19  ar  
 34  16  43  1   
 35  17  20  1   
 36  17  21  1   
 37  17  44  1   
 38  18  20  1   
 39  18  45  1   
 40  18  46  1   
 41  19  47  1   
 42  20  48  1   
 43  20  49  1   
 44  21  22  1   
 45  21  50  1   
 46  21  51  1   
 47  22  23  ar  
 48  22  24  ar  
 49  23  25  ar  
 50  23  52  1   
 51  24  26  ar  
 52  24  53  1   
 53  25  27  ar  
 54  26  27  ar  
 55  26  54  1   
 56  27  28  1   
 57  28  29  1   
 58  28  30  1   
 59  29  55  1   
 60  29  56  1   
 61  29  57  1   
 62  30  58  1   
 63  30  59  1   
 64  30  60  1   
@<TRIPOS>SUBSTRUCTURE
  1 ****  12 GROUP 4 **** **** 0

# MOE 2024.06 (io_trps.svl 2023.06)
