@<TRIPOS>MOLECULE
NONAME
37 39 1 0 0 
SMALL
USER_CHARGES


@<TRIPOS>ATOM
  1 O       -0.3390     0.2490     0.1860 O.2   1 <1>  -0.5700 
  2 C       -1.3850     0.8730     0.1720 C.2   1 <1>   0.7150 
  3 N       -2.5660     0.1600     0.1860 N.am  1 <1>  -0.6600 
  4 C       -1.3810     2.3210     0.1560 C.2   1 <1>   0.0550 
  5 C       -3.8950     0.7100    -0.1850 C.3   1 <1>   0.1400 
  6 C       -2.6020    -1.3270     0.1300 C.3   1 <1>   0.1400 
  7 O       -0.5920     2.9940    -0.6780 O.3   1 <1>  -0.2800 
  8 C       -2.0870     3.2250     0.8940 C.2   1 <1>  -0.1500 
  9 C       -4.8610    -0.4530     0.0320 C.3   1 <1>   0.2000 
 10 C       -4.0220    -1.6820    -0.3250 C.3   1 <1>  -0.0800 
 11 C       -0.7760     4.2810    -0.4970 C.2   1 <1>  -0.0100 
 12 C       -1.6950     4.4940     0.4680 C.2   1 <1>  -0.1500 
 13 O       -5.1870    -0.4870     1.3810 O.3   1 <1>  -0.6800 
 14 C       -4.5370    -3.0230     0.2300 C.3   1 <1>   0.0210 
 15 C       -3.6270    -4.1630    -0.1830 C.2   1 <1>   0.1080 
 16 N       -3.4250    -4.4870    -1.4230 N.2   1 <1>  -0.7070 
 17 C       -2.9110    -4.9680     0.6950 C.2   1 <1>  -0.1500 
 18 N       -2.5650    -5.5210    -1.3670 N.pl3 1 <1>   0.3000 
 19 C       -2.2370    -5.8300    -0.0950 C.2   1 <1>  -0.3320 
 20 C       -1.2860    -6.9470     0.2930 C.3   1 <1>  -0.0600 
 21 H       -4.1700     1.5610     0.4130 H     1 <1>   0.0800 
 22 H       -3.8820     0.9870    -1.2250 H     1 <1>   0.0800 
 23 H       -1.8680    -1.7080    -0.5630 H     1 <1>   0.0800 
 24 H       -2.3980    -1.7210     1.1110 H     1 <1>   0.0800 
 25 H       -2.8050     3.0250     1.6690 H     1 <1>   0.1500 
 26 H       -5.7680    -0.3690    -0.5410 H     1 <1>   0.0800 
 27 H       -3.9980    -1.7590    -1.3980 H     1 <1>   0.0800 
 28 H       -0.2120     4.9780    -1.0930 H     1 <1>   0.1500 
 29 H       -2.0620     5.4310     0.8490 H     1 <1>   0.1500 
 30 H       -4.3590    -0.4460     1.9010 H     1 <1>   0.4000 
 31 H       -5.5230    -3.2140    -0.1530 H     1 <1>   0.0800 
 32 H       -4.5970    -2.9940     1.3030 H     1 <1>   0.0800 
 33 H       -2.9110    -4.8970     1.7680 H     1 <1>   0.1500 
 34 H       -2.2210    -5.9920    -2.2130 H     1 <1>   0.2700 
 35 H       -1.1870    -6.9940     1.3630 H     1 <1>   0.0800 
 36 H       -0.3130    -6.7720    -0.1330 H     1 <1>   0.0800 
 37 H       -1.6590    -7.8930    -0.0590 H     1 <1>   0.0800 
@<TRIPOS>BOND
  1   1   2  2   
  2   2   3  am  
  3   2   4  1   
  4   3   5  1   
  5   3   6  1   
  6   4   7  1   
  7   4   8  2   
  8   5   9  1   
  9   5  21  1   
 10   5  22  1   
 11   6  10  1   
 12   6  23  1   
 13   6  24  1   
 14   7  11  1   
 15   8  12  1   
 16   8  25  1   
 17   9  10  1   
 18   9  13  1   
 19   9  26  1   
 20  10  14  1   
 21  10  27  1   
 22  11  12  2   
 23  11  28  1   
 24  12  29  1   
 25  13  30  1   
 26  14  15  1   
 27  14  31  1   
 28  14  32  1   
 29  15  16  2   
 30  15  17  1   
 31  16  18  1   
 32  17  19  2   
 33  17  33  1   
 34  18  19  1   
 35  18  34  1   
 36  19  20  1   
 37  20  35  1   
 38  20  36  1   
 39  20  37  1   
@<TRIPOS>SUBSTRUCTURE
  1 ****   6 GROUP 4 **** **** 0

# MOE 2024.06 (io_trps.svl 2023.06)
