@<TRIPOS>MOLECULE
NONAME
56 58 1 0 0 
SMALL
USER_CHARGES


@<TRIPOS>ATOM
  1 O        0.9440    -2.6560     0.7280 O.3   1 <1>  -0.5600 
  2 C        0.2390    -2.2140    -0.4080 C.3   1 <1>   0.2800 
  3 C        0.9700    -1.8080     1.8450 C.3   1 <1>   0.1200 
  4 C       -1.2140    -1.8630    -0.0180 C.3   1 <1>  -0.1600 
  5 C        0.2320    -3.4110    -1.3800 C.3   1 <1>  -0.1600 
  6 C        1.0190    -1.0710    -1.0930 C.3   1 <1>  -0.1600 
  7 C       -0.4530    -1.5770     2.3530 C.3   1 <1>  -0.1600 
  8 C       -1.3460    -1.0130     1.2490 C.3   1 <1>   0.2800 
  9 C        1.5740    -3.6710    -2.0790 C.3   1 <1>   0.3430 
 10 C        2.4620    -1.4530    -1.4460 C.3   1 <1>   0.3430 
 11 O       -0.9260     0.2630     0.9620 O.3   1 <1>  -0.6800 
 12 C       -2.8000    -0.8940     1.7000 C.3   1 <1>  -0.2400 
 13 N        2.6480    -2.9300    -1.3810 N.4   1 <1>  -0.9590 
 14 C        4.0250    -3.3780    -1.7030 C.3   1 <1>   0.4860 
 15 C        4.9790    -2.7350    -0.7150 C.ar  1 <1>  -0.1440 
 16 C        5.0800    -3.1720     0.6030 C.ar  1 <1>  -0.1440 
 17 C        5.7570    -1.6710    -1.1480 C.ar  1 <1>  -0.1500 
 18 C        5.9480    -2.5220     1.4670 C.ar  1 <1>  -0.1500 
 19 C        4.2720    -4.3480     1.1410 C.3   1 <1>  -0.0970 
 20 C        6.6240    -1.0230    -0.2850 C.ar  1 <1>  -0.1440 
 21 C        6.7210    -1.4480     1.0340 C.ar  1 <1>   0.0820 
 22 C        7.4660     0.1430    -0.7840 C.3   1 <1>  -0.0970 
 23 O        7.5820    -0.7820     1.8480 O.3   1 <1>  -0.3620 
 24 C        7.8140    -1.1820     3.1800 C.3   1 <1>   0.0400 
 25 H        1.4450    -0.8800     1.5810 H     1 <1>   0.0800 
 26 H        1.5600    -2.2880     2.6070 H     1 <1>   0.0800 
 27 H       -1.7390    -2.7850     0.1560 H     1 <1>   0.0800 
 28 H       -1.7120    -1.3730    -0.8350 H     1 <1>   0.0800 
 29 H       -0.5040    -3.2440    -2.1470 H     1 <1>   0.0800 
 30 H       -0.0720    -4.2960    -0.8500 H     1 <1>   0.0800 
 31 H        1.0380    -0.1830    -0.4940 H     1 <1>   0.0800 
 32 H        0.5080    -0.8020    -2.0000 H     1 <1>   0.0800 
 33 H       -0.4380    -0.9120     3.1980 H     1 <1>   0.0800 
 34 H       -0.8480    -2.5180     2.6910 H     1 <1>   0.0800 
 35 H        1.5200    -3.3440    -3.1050 H     1 <1>   0.0800 
 36 H        1.7800    -4.7290    -2.0690 H     1 <1>   0.0800 
 37 H        3.1270    -0.9850    -0.7350 H     1 <1>   0.0800 
 38 H        2.7080    -1.0830    -2.4280 H     1 <1>   0.0800 
 39 H       -1.1810     0.8590     1.6910 H     1 <1>   0.4000 
 40 H       -3.1970    -1.8670     1.9280 H     1 <1>   0.0800 
 41 H       -3.4010    -0.4630     0.9190 H     1 <1>   0.0800 
 42 H       -2.8790    -0.2880     2.5840 H     1 <1>   0.0800 
 43 H        2.4950    -3.1310    -0.3740 H     1 <1>   0.4500 
 44 H        4.2840    -3.0900    -2.7090 H     1 <1>   0.0800 
 45 H        4.0960    -4.4500    -1.6240 H     1 <1>   0.0800 
 46 H        5.6950    -1.3340    -2.1680 H     1 <1>   0.1500 
 47 H        6.0180    -2.8610     2.4820 H     1 <1>   0.1500 
 48 H        4.2870    -5.1730     0.4520 H     1 <1>   0.0800 
 49 H        3.2540    -4.0530     1.3240 H     1 <1>   0.0800 
 50 H        4.6860    -4.6990     2.0700 H     1 <1>   0.0800 
 51 H        7.2740     0.3540    -1.8200 H     1 <1>   0.0800 
 52 H        8.5100    -0.0880    -0.6680 H     1 <1>   0.0800 
 53 H        7.2450     1.0240    -0.2070 H     1 <1>   0.0800 
 54 H        8.5510    -0.5240     3.6020 H     1 <1>   0.0800 
 55 H        8.1830    -2.1930     3.1820 H     1 <1>   0.0800 
 56 H        6.8950    -1.1040     3.7340 H     1 <1>   0.0800 
@<TRIPOS>BOND
  1   1   2  1   
  2   1   3  1   
  3   2   4  1   
  4   2   5  1   
  5   2   6  1   
  6   3   7  1   
  7   3  25  1   
  8   3  26  1   
  9   4   8  1   
 10   4  27  1   
 11   4  28  1   
 12   5   9  1   
 13   5  29  1   
 14   5  30  1   
 15   6  10  1   
 16   6  31  1   
 17   6  32  1   
 18   7   8  1   
 19   7  33  1   
 20   7  34  1   
 21   8  11  1   
 22   8  12  1   
 23   9  13  1   
 24   9  35  1   
 25   9  36  1   
 26  10  13  1   
 27  10  37  1   
 28  10  38  1   
 29  11  39  1   
 30  12  40  1   
 31  12  41  1   
 32  12  42  1   
 33  13  14  1   
 34  13  43  1   
 35  14  15  1   
 36  14  44  1   
 37  14  45  1   
 38  15  16  ar  
 39  15  17  ar  
 40  16  18  ar  
 41  16  19  1   
 42  17  20  ar  
 43  17  46  1   
 44  18  21  ar  
 45  18  47  1   
 46  19  48  1   
 47  19  49  1   
 48  19  50  1   
 49  20  21  ar  
 50  20  22  1   
 51  21  23  1   
 52  22  51  1   
 53  22  52  1   
 54  22  53  1   
 55  23  24  1   
 56  24  54  1   
 57  24  55  1   
 58  24  56  1   
@<TRIPOS>SUBSTRUCTURE
  1 ****  10 GROUP 4 **** **** 0

# MOE 2024.06 (io_trps.svl 2023.06)
