@<TRIPOS>MOLECULE
NONAME
54 57 1 0 0 
SMALL
USER_CHARGES


@<TRIPOS>ATOM
  1 F       -1.1180     0.8390     1.4380 F     1 <1>  -0.1900 
  2 C       -1.2060     2.1220     1.2140 C.ar  1 <1>   0.1900 
  3 C       -2.1900     2.5840     0.3600 C.ar  1 <1>  -0.1500 
  4 C       -0.3100     2.9700     1.8370 C.ar  1 <1>  -0.1500 
  5 C       -2.2840     3.9470     0.1170 C.ar  1 <1>  -0.1440 
  6 C       -0.4090     4.3290     1.5940 C.ar  1 <1>  -0.1500 
  7 C       -1.3900     4.8120     0.7390 C.ar  1 <1>  -0.1500 
  8 C       -3.3520     4.4810    -0.8260 C.3   1 <1>   0.2640 
  9 O       -4.6230     4.1450    -0.3150 O.3   1 <1>  -0.3620 
 10 C       -5.7590     4.4510    -0.9870 C.ar  1 <1>   0.0830 
 11 C       -6.9450     3.9850    -0.4470 C.ar  1 <1>  -0.1500 
 12 C       -5.7870     5.1930    -2.1650 C.ar  1 <1>  -0.1500 
 13 C       -8.1740     4.2420    -1.0480 C.ar  1 <1>   0.0860 
 14 C       -6.9970     5.4510    -2.7850 C.ar  1 <1>  -0.1500 
 15 C       -9.4080     3.7550    -0.4600 C.2   1 <1>   0.5440 
 16 C       -8.1730     4.9790    -2.2320 C.ar  1 <1>  -0.1500 
 17 O       -9.5370     2.5630    -0.2500 O.2   1 <1>  -0.5700 
 18 N      -10.4380     4.6090    -0.1280 N.am  1 <1>  -0.6600 
 19 C      -11.7580     4.0590     0.3190 C.3   1 <1>   0.1400 
 20 C      -10.2620     6.0890    -0.0480 C.3   1 <1>   0.1400 
 21 C      -12.9290     5.0210    -0.0040 C.3   1 <1>   0.0000 
 22 C      -11.2160     6.6980     0.9830 C.3   1 <1>  -0.1600 
 23 C      -14.2950     4.4190     0.3880 C.3   1 <1>   0.2000 
 24 C      -12.6980     6.3900     0.6880 C.3   1 <1>  -0.1600 
 25 C      -13.0980     5.1510    -1.5310 C.3   1 <1>  -0.1600 
 26 O      -14.2590     3.7280     1.5870 O.3   1 <1>  -0.6800 
 27 C      -14.7120     3.4850    -0.7480 C.3   1 <1>  -0.1600 
 28 C      -13.8810     3.9090    -1.9670 C.3   1 <1>  -0.1600 
 29 H       -2.8710     1.8890    -0.0980 H     1 <1>   0.1500 
 30 H        0.4410     2.5720     2.4940 H     1 <1>   0.1500 
 31 H        0.2750     5.0110     2.0690 H     1 <1>   0.1500 
 32 H       -1.4540     5.8720     0.5640 H     1 <1>   0.1500 
 33 H       -3.2470     4.0310    -1.7970 H     1 <1>   0.0800 
 34 H       -3.2920     5.5520    -0.9060 H     1 <1>   0.0800 
 35 H       -6.9170     3.4060     0.4590 H     1 <1>   0.1500 
 36 H       -4.8890     5.5730    -2.6140 H     1 <1>   0.1500 
 37 H       -7.0220     6.0190    -3.7000 H     1 <1>   0.1500 
 38 H       -9.1110     5.1740    -2.7230 H     1 <1>   0.1500 
 39 H      -11.9260     3.1050    -0.1510 H     1 <1>   0.0800 
 40 H      -11.7060     3.8960     1.3820 H     1 <1>   0.0800 
 41 H       -9.2470     6.3200     0.2300 H     1 <1>   0.0800 
 42 H      -10.4550     6.5210    -1.0140 H     1 <1>   0.0800 
 43 H      -10.9560     6.3040     1.9500 H     1 <1>   0.0800 
 44 H      -11.0720     7.7630     1.0240 H     1 <1>   0.0800 
 45 H      -15.0230     5.2080     0.4850 H     1 <1>   0.0800 
 46 H      -13.1140     7.1790     0.0880 H     1 <1>   0.0800 
 47 H      -13.2220     6.4060     1.6290 H     1 <1>   0.0800 
 48 H      -13.6890     6.0200    -1.7630 H     1 <1>   0.0800 
 49 H      -12.1640     5.2270    -2.0590 H     1 <1>   0.0800 
 50 H      -13.7080     2.9280     1.4950 H     1 <1>   0.4000 
 51 H      -14.5060     2.4560    -0.5110 H     1 <1>   0.0800 
 52 H      -15.7620     3.6010    -0.9480 H     1 <1>   0.0800 
 53 H      -13.1940     3.1210    -2.2270 H     1 <1>   0.0800 
 54 H      -14.5040     4.1190    -2.8200 H     1 <1>   0.0800 
@<TRIPOS>BOND
  1   1   2  1   
  2   2   3  ar  
  3   2   4  ar  
  4   3   5  ar  
  5   3  29  1   
  6   4   6  ar  
  7   4  30  1   
  8   5   7  ar  
  9   5   8  1   
 10   6   7  ar  
 11   6  31  1   
 12   7  32  1   
 13   8   9  1   
 14   8  33  1   
 15   8  34  1   
 16   9  10  1   
 17  10  11  ar  
 18  10  12  ar  
 19  11  13  ar  
 20  11  35  1   
 21  12  14  ar  
 22  12  36  1   
 23  13  15  1   
 24  13  16  ar  
 25  14  16  ar  
 26  14  37  1   
 27  15  17  2   
 28  15  18  am  
 29  16  38  1   
 30  18  19  1   
 31  18  20  1   
 32  19  21  1   
 33  19  39  1   
 34  19  40  1   
 35  20  22  1   
 36  20  41  1   
 37  20  42  1   
 38  21  23  1   
 39  21  24  1   
 40  21  25  1   
 41  22  24  1   
 42  22  43  1   
 43  22  44  1   
 44  23  26  1   
 45  23  27  1   
 46  23  45  1   
 47  24  46  1   
 48  24  47  1   
 49  25  28  1   
 50  25  48  1   
 51  25  49  1   
 52  26  50  1   
 53  27  28  1   
 54  27  51  1   
 55  27  52  1   
 56  28  53  1   
 57  28  54  1   
@<TRIPOS>SUBSTRUCTURE
  1 ****  11 GROUP 4 **** **** 0

# MOE 2024.06 (io_trps.svl 2023.06)
