@<TRIPOS>MOLECULE
NONAME
30 31 1 0 0 
SMALL
USER_CHARGES


@<TRIPOS>ATOM
  1 S        1.8520     0.0330    -1.4710 S.3   1 <1>  -0.0800 
  2 C        1.6410    -0.2430     0.2480 C.2   1 <1>   0.1980 
  3 C        0.2660    -0.6240    -1.7480 C.2   1 <1>  -0.1100 
  4 N        0.5180    -0.7680     0.5580 N.2   1 <1>  -0.5650 
  5 C        2.7900     0.1560     1.1670 C.3   1 <1>   0.3890 
  6 C       -0.2620    -0.9820    -0.5680 C.2   1 <1>   0.0770 
  7 N        2.9690     1.6420     1.2290 N.pl3 1 <1>  -0.8380 
  8 C        3.9660     2.2770     0.5180 C.ar  1 <1>   0.7200 
  9 C        1.7920     2.3910     1.7540 C.3   1 <1>   0.1290 
 10 N        4.9760     1.5270     0.0810 N.ar  1 <1>  -0.6200 
 11 N        3.8310     3.5890     0.3290 N.ar  1 <1>  -0.6200 
 12 C        5.9100     2.1400    -0.5990 C.ar  1 <1>   0.1670 
 13 C        4.7760     4.1830    -0.3520 C.ar  1 <1>   0.1670 
 14 C        5.8550     3.4910    -0.8470 C.ar  1 <1>  -0.1500 
 15 C        7.0590     1.2940    -1.1030 C.3   1 <1>  -0.0970 
 16 C        4.6280     5.6730    -0.5730 C.3   1 <1>  -0.0970 
 17 H       -0.0950    -0.6680    -2.7580 H     1 <1>   0.1500 
 18 H        3.6830    -0.3410     0.8380 H     1 <1>   0.0800 
 19 H        2.5760    -0.2030     2.1570 H     1 <1>   0.0800 
 20 H       -1.2360    -1.4200    -0.4250 H     1 <1>   0.1500 
 21 H        1.2650     1.8000     2.4830 H     1 <1>   0.0800 
 22 H        1.1250     2.6280     0.9430 H     1 <1>   0.0800 
 23 H        2.1130     3.3060     2.2230 H     1 <1>   0.0800 
 24 H        6.6250     3.9860    -1.4050 H     1 <1>   0.1500 
 25 H        6.6800     0.5260    -1.7520 H     1 <1>   0.0800 
 26 H        7.5550     0.8300    -0.2700 H     1 <1>   0.0800 
 27 H        7.7700     1.8890    -1.6450 H     1 <1>   0.0800 
 28 H        3.7130     5.8670    -1.1020 H     1 <1>   0.0800 
 29 H        5.4510     6.0640    -1.1420 H     1 <1>   0.0800 
 30 H        4.5910     6.1740     0.3770 H     1 <1>   0.0800 
@<TRIPOS>BOND
  1   1   2  1   
  2   1   3  1   
  3   2   4  2   
  4   2   5  1   
  5   3   6  2   
  6   3  17  1   
  7   4   6  1   
  8   5   7  1   
  9   5  18  1   
 10   5  19  1   
 11   6  20  1   
 12   7   8  1   
 13   7   9  1   
 14   8  10  ar  
 15   8  11  ar  
 16   9  21  1   
 17   9  22  1   
 18   9  23  1   
 19  10  12  ar  
 20  11  13  ar  
 21  12  14  ar  
 22  12  15  1   
 23  13  14  ar  
 24  13  16  1   
 25  14  24  1   
 26  15  25  1   
 27  15  26  1   
 28  15  27  1   
 29  16  28  1   
 30  16  29  1   
 31  16  30  1   
@<TRIPOS>SUBSTRUCTURE
  1 ****   8 GROUP 4 **** **** 0

# MOE 2024.06 (io_trps.svl 2023.06)
