@<TRIPOS>MOLECULE
NONAME
49 51 1 0 0 
SMALL
USER_CHARGES


@<TRIPOS>ATOM
  1 O       -0.1050     1.3120    -2.8450 O.2   1 <1>  -0.5700 
  2 C       -0.3030     2.2500    -2.1070 C.2   1 <1>   0.5690 
  3 N       -1.3460     2.2630    -1.2110 N.am  1 <1>  -0.6600 
  4 C        0.6690     3.4390    -2.1890 C.3   1 <1>   0.2700 
  5 C       -1.5520     3.3910    -0.2470 C.3   1 <1>   0.1400 
  6 C       -2.0600     1.0030    -0.8730 C.3   1 <1>   0.2840 
  7 N        0.6260     4.3600    -0.9920 N.pl3 1 <1>  -0.8380 
  8 C       -0.7820     4.6740    -0.6200 C.3   1 <1>   0.2090 
  9 C       -1.4310     0.4060     0.3790 C.ar  1 <1>  -0.1440 
 10 C        1.5570     4.2350    -0.0200 C.ar  1 <1>   0.4100 
 11 C       -0.1410    -0.0970     0.3190 C.ar  1 <1>  -0.1500 
 12 C       -2.1180     0.3760     1.5850 C.ar  1 <1>  -0.1500 
 13 N        1.7190     3.0270     0.4820 N.ar  1 <1>  -0.6200 
 14 C        2.2950     5.3540     0.4370 C.ar  1 <1>  -0.1440 
 15 C        0.4710    -0.6110     1.4560 C.ar  1 <1>   0.0820 
 16 C       -1.5140    -0.1400     2.7190 C.ar  1 <1>  -0.1500 
 17 C        2.5750     2.8840     1.4670 C.ar  1 <1>   0.7710 
 18 C        3.1800     5.1500     1.4490 C.ar  1 <1>   0.2110 
 19 C        2.0700     6.7160    -0.2310 C.3   1 <1>  -0.0160 
 20 O        1.7400    -1.0880     1.4590 O.3   1 <1>  -0.3620 
 21 C       -0.2220    -0.6290     2.6550 C.ar  1 <1>  -0.1500 
 22 N        3.3040     3.8990     1.9560 N.ar  1 <1>  -0.1790 
 23 N        2.7000     1.6690     1.9890 N.pl3 1 <1>  -0.9000 
 24 C        2.9880     7.8420     0.2610 C.3   1 <1>  -0.2400 
 25 C        2.3290    -1.5400     0.2560 C.3   1 <1>   0.0400 
 26 H        0.4360     4.0020    -3.0740 H     1 <1>   0.0800 
 27 H        1.6630     3.0470    -2.3030 H     1 <1>   0.0800 
 28 H       -1.2250     3.0750     0.7280 H     1 <1>   0.0800 
 29 H       -2.6020     3.6180    -0.1850 H     1 <1>   0.0800 
 30 H       -1.9860     0.2990    -1.6850 H     1 <1>   0.0800 
 31 H       -3.1030     1.2120    -0.7130 H     1 <1>   0.0800 
 32 H       -0.7990     5.3530     0.2150 H     1 <1>   0.0800 
 33 H       -1.2710     5.1580    -1.4480 H     1 <1>   0.0800 
 34 H        0.3780    -0.0670    -0.6210 H     1 <1>   0.1500 
 35 H       -3.1230     0.7560     1.6480 H     1 <1>   0.1500 
 36 H       -2.0520    -0.1640     3.6520 H     1 <1>   0.1500 
 37 H        3.7920     5.9320     1.8690 H     1 <1>   0.1500 
 38 H        1.0480     7.0170    -0.0780 H     1 <1>   0.0800 
 39 H        2.2110     6.6030    -1.2940 H     1 <1>   0.0800 
 40 H        0.2510    -1.0330     3.5320 H     1 <1>   0.1500 
 41 H        3.9410     3.6790     2.7140 H     1 <1>   0.4570 
 42 H        3.2870     1.3420     2.7560 H     1 <1>   0.4000 
 43 H        2.0940     0.9170     1.6190 H     1 <1>   0.4000 
 44 H        2.8310     8.0390     1.3060 H     1 <1>   0.0800 
 45 H        2.7680     8.7450    -0.2820 H     1 <1>   0.0800 
 46 H        4.0220     7.5980     0.0880 H     1 <1>   0.0800 
 47 H        3.2490    -2.0400     0.4980 H     1 <1>   0.0800 
 48 H        2.5280    -0.6960    -0.3810 H     1 <1>   0.0800 
 49 H        1.6560    -2.2290    -0.2250 H     1 <1>   0.0800 
@<TRIPOS>BOND
  1   1   2  2   
  2   2   3  am  
  3   2   4  1   
  4   3   5  1   
  5   3   6  1   
  6   4   7  1   
  7   4  26  1   
  8   4  27  1   
  9   5   8  1   
 10   5  28  1   
 11   5  29  1   
 12   6   9  1   
 13   6  30  1   
 14   6  31  1   
 15   7   8  1   
 16   7  10  1   
 17   8  32  1   
 18   8  33  1   
 19   9  11  ar  
 20   9  12  ar  
 21  10  13  ar  
 22  10  14  ar  
 23  11  15  ar  
 24  11  34  1   
 25  12  16  ar  
 26  12  35  1   
 27  13  17  ar  
 28  14  18  ar  
 29  14  19  1   
 30  15  20  1   
 31  15  21  ar  
 32  16  21  ar  
 33  16  36  1   
 34  17  22  ar  
 35  17  23  1   
 36  18  22  ar  
 37  18  37  1   
 38  19  24  1   
 39  19  38  1   
 40  19  39  1   
 41  20  25  1   
 42  21  40  1   
 43  22  41  1   
 44  23  42  1   
 45  23  43  1   
 46  24  44  1   
 47  24  45  1   
 48  24  46  1   
 49  25  47  1   
 50  25  48  1   
 51  25  49  1   
@<TRIPOS>SUBSTRUCTURE
  1 ****  13 GROUP 4 **** **** 0

# MOE 2024.06 (io_trps.svl 2023.06)
