@<TRIPOS>MOLECULE
NONAME
55 57 1 0 0 
SMALL
USER_CHARGES


@<TRIPOS>ATOM
  1 O       -0.0310    -0.1540    -0.9980 O.3   1 <1>  -0.5600 
  2 C        1.3340    -0.4490    -1.1740 C.3   1 <1>   0.2000 
  3 C       -0.3420     1.2010    -0.8670 C.3   1 <1>   0.1200 
  4 C        2.1920     0.1460    -0.0240 C.3   1 <1>   0.5660 
  5 C        1.5010    -1.9770    -1.2300 C.3   1 <1>   0.1200 
  6 C        0.3630     1.7860     0.3680 C.3   1 <1>   0.3430 
  7 N        1.8430     1.5670     0.3060 N.4   1 <1>  -0.9590 
  8 C        3.6780     0.1080    -0.3610 C.ar  1 <1>  -0.1430 
  9 O        1.3810    -2.5200     0.0480 O.3   1 <1>  -0.6800 
 10 C        2.5390     2.0230     1.5230 C.3   1 <1>   0.4810 
 11 C        4.5270    -0.6500     0.4320 C.ar  1 <1>  -0.1500 
 12 C        4.2080     0.8280    -1.4270 C.ar  1 <1>  -0.1500 
 13 C        3.1800     3.3260     1.1270 C.2   1 <1>  -0.2880 
 14 C        5.8890    -0.6760     0.1890 C.ar  1 <1>   0.0830 
 15 C        5.5710     0.8160    -1.6680 C.ar  1 <1>  -0.1500 
 16 C        4.4740     3.4450     0.7820 C.2   1 <1>  -0.1780 
 17 O        6.6420    -1.4610     0.9940 O.3   1 <1>  -0.3630 
 18 C        6.4230     0.0900    -0.8540 C.ar  1 <1>   0.0830 
 19 C        5.1720     4.6360     0.3560 C.ar  1 <1>   0.0280 
 20 C        7.2710    -2.5690     0.3850 C.3   1 <1>   0.0400 
 21 O        7.7490     0.1720    -1.1200 O.3   1 <1>  -0.3630 
 22 C        6.3540     4.5220    -0.3700 C.ar  1 <1>  -0.1500 
 23 C        4.7050     5.9170     0.6410 C.ar  1 <1>  -0.1500 
 24 C        8.5860     0.6810    -0.1020 C.3   1 <1>   0.0400 
 25 C        7.0410     5.6410    -0.8040 C.ar  1 <1>  -0.1500 
 26 C        5.3870     7.0400     0.2090 C.ar  1 <1>  -0.1500 
 27 C        6.5570     6.9040    -0.5160 C.ar  1 <1>  -0.1500 
 28 H        1.6320    -0.0350    -2.1200 H     1 <1>   0.0800 
 29 H       -0.0540     1.7160    -1.7670 H     1 <1>   0.0800 
 30 H       -1.4100     1.2790    -0.7550 H     1 <1>   0.0800 
 31 H        2.0220    -0.4620     0.8500 H     1 <1>   0.0800 
 32 H        2.4740    -2.2390    -1.6090 H     1 <1>   0.0800 
 33 H        0.7460    -2.4100    -1.8650 H     1 <1>   0.0800 
 34 H       -0.0410     1.3070     1.2450 H     1 <1>   0.0800 
 35 H        0.1490     2.8410     0.4360 H     1 <1>   0.0800 
 36 H        2.2470     2.1330    -0.4480 H     1 <1>   0.4500 
 37 H        1.2400    -3.4890    -0.0010 H     1 <1>   0.4000 
 38 H        1.8610     2.1520     2.3520 H     1 <1>   0.0800 
 39 H        3.3080     1.3220     1.8060 H     1 <1>   0.0800 
 40 H        4.1490    -1.2380     1.2510 H     1 <1>   0.1500 
 41 H        3.5840     1.4130    -2.0800 H     1 <1>   0.1500 
 42 H        2.4960     4.1560     1.1310 H     1 <1>   0.1500 
 43 H        5.9880     1.3770    -2.4870 H     1 <1>   0.1500 
 44 H        5.1110     2.5740     0.7940 H     1 <1>   0.1500 
 45 H        7.7740    -3.1320     1.1490 H     1 <1>   0.0800 
 46 H        7.9830    -2.2230    -0.3430 H     1 <1>   0.0800 
 47 H        6.5210    -3.1780    -0.0880 H     1 <1>   0.0800 
 48 H        6.7430     3.5480    -0.6050 H     1 <1>   0.1500 
 49 H        3.8050     6.0470     1.2110 H     1 <1>   0.1500 
 50 H        9.5610     0.8490    -0.5230 H     1 <1>   0.0800 
 51 H        8.6560    -0.0340     0.6970 H     1 <1>   0.0800 
 52 H        8.1760     1.6070     0.2590 H     1 <1>   0.0800 
 53 H        7.9530     5.5330    -1.3660 H     1 <1>   0.1500 
 54 H        5.0120     8.0230     0.4380 H     1 <1>   0.1500 
 55 H        7.0890     7.7770    -0.8530 H     1 <1>   0.1500 
@<TRIPOS>BOND
  1   1   2  1   
  2   1   3  1   
  3   2   4  1   
  4   2   5  1   
  5   2  28  1   
  6   3   6  1   
  7   3  29  1   
  8   3  30  1   
  9   4   7  1   
 10   4   8  1   
 11   4  31  1   
 12   5   9  1   
 13   5  32  1   
 14   5  33  1   
 15   6   7  1   
 16   6  34  1   
 17   6  35  1   
 18   7  10  1   
 19   7  36  1   
 20   8  11  ar  
 21   8  12  ar  
 22   9  37  1   
 23  10  13  1   
 24  10  38  1   
 25  10  39  1   
 26  11  14  ar  
 27  11  40  1   
 28  12  15  ar  
 29  12  41  1   
 30  13  16  2   
 31  13  42  1   
 32  14  17  1   
 33  14  18  ar  
 34  15  18  ar  
 35  15  43  1   
 36  16  19  1   
 37  16  44  1   
 38  17  20  1   
 39  18  21  1   
 40  19  22  ar  
 41  19  23  ar  
 42  20  45  1   
 43  20  46  1   
 44  20  47  1   
 45  21  24  1   
 46  22  25  ar  
 47  22  48  1   
 48  23  26  ar  
 49  23  49  1   
 50  24  50  1   
 51  24  51  1   
 52  24  52  1   
 53  25  27  ar  
 54  25  53  1   
 55  26  27  ar  
 56  26  54  1   
 57  27  55  1   
@<TRIPOS>SUBSTRUCTURE
  1 ****  12 GROUP 4 **** **** 0

# MOE 2024.06 (io_trps.svl 2023.06)
