@<TRIPOS>MOLECULE
NONAME
53 56 1 0 0 
SMALL
USER_CHARGES


@<TRIPOS>ATOM
  1 O       -1.5510     0.8470     1.2060 O.2   1 <1>  -0.5700 
  2 C       -1.6450     2.0490     1.1830 C.2   1 <1>   0.5690 
  3 N       -2.8400     2.6810     1.4250 N.am  1 <1>  -0.6600 
  4 C       -0.3980     2.8380     0.8580 C.3   1 <1>  -0.1790 
  5 C       -4.0300     1.8870     1.8610 C.3   1 <1>   0.1400 
  6 C       -3.0780     4.1400     1.2750 C.3   1 <1>   0.1400 
  7 C       -5.3240     2.4690     1.2760 C.3   1 <1>  -0.1600 
  8 C       -4.0920     4.3680     0.1420 C.3   1 <1>  -0.1600 
  9 C       -5.0150     3.1540    -0.0630 C.3   1 <1>   0.4230 
 10 N       -6.2420     3.5500    -0.8150 N.4   1 <1>  -0.9590 
 11 C       -7.2330     4.3290     0.0120 C.3   1 <1>   0.3430 
 12 C       -6.8920     2.3560    -1.4350 C.3   1 <1>   0.3430 
 13 C       -8.4360     4.8150    -0.8120 C.3   1 <1>   0.1430 
 14 C       -8.0550     2.7970    -2.3280 C.3   1 <1>  -0.1600 
 15 C       -9.4200     5.4490     0.1390 C.ar  1 <1>   0.1670 
 16 C       -9.0910     3.6330    -1.5550 C.3   1 <1>  -0.1600 
 17 C       -8.0940     5.9900    -1.7700 C.3   1 <1>  -0.1600 
 18 N       -9.7940     4.9180     1.2800 N.ar  1 <1>  -0.6200 
 19 C       -9.8630     6.6530    -0.3130 C.ar  1 <1>  -0.1430 
 20 C       -9.2430     7.0110    -1.6410 C.3   1 <1>  -0.0170 
 21 C      -10.6660     5.6550     1.9570 C.ar  1 <1>   0.4770 
 22 C      -10.7600     7.3340     0.4710 C.ar  1 <1>   0.1600 
 23 N      -11.1690     6.8350     1.6200 N.ar  1 <1>  -0.6200 
 24 C      -11.1480     5.0940     3.2730 C.3   1 <1>  -0.0970 
 25 H       -0.1820     3.5250     1.6530 H     1 <1>   0.0800 
 26 H       -0.5280     3.3700    -0.0650 H     1 <1>   0.0800 
 27 H        0.4350     2.1660     0.7520 H     1 <1>   0.0800 
 28 H       -4.0780     1.8750     2.9380 H     1 <1>   0.0800 
 29 H       -3.9230     0.8670     1.5290 H     1 <1>   0.0800 
 30 H       -2.1680     4.6770     1.0730 H     1 <1>   0.0800 
 31 H       -3.4750     4.5150     2.2040 H     1 <1>   0.0800 
 32 H       -5.7250     3.1750     1.9810 H     1 <1>   0.0800 
 33 H       -6.0300     1.6680     1.1580 H     1 <1>   0.0800 
 34 H       -3.5480     4.5430    -0.7680 H     1 <1>   0.0800 
 35 H       -4.6460     5.2580     0.3750 H     1 <1>   0.0800 
 36 H       -4.4650     2.4400    -0.6570 H     1 <1>   0.0800 
 37 H       -5.9380     4.1540    -1.5880 H     1 <1>   0.4500 
 38 H       -6.7580     5.1810     0.4680 H     1 <1>   0.0800 
 39 H       -7.6080     3.7020     0.8050 H     1 <1>   0.0800 
 40 H       -7.2650     1.7020    -0.6640 H     1 <1>   0.0800 
 41 H       -6.1740     1.8070    -2.0250 H     1 <1>   0.0800 
 42 H       -8.5390     1.9200    -2.7220 H     1 <1>   0.0800 
 43 H       -7.6740     3.3500    -3.1680 H     1 <1>   0.0800 
 44 H       -9.8550     3.9920    -2.2250 H     1 <1>   0.0800 
 45 H       -9.5780     2.9970    -0.8330 H     1 <1>   0.0800 
 46 H       -7.9690     5.6790    -2.7920 H     1 <1>   0.0800 
 47 H       -7.1880     6.4710    -1.4450 H     1 <1>   0.0800 
 48 H       -9.9680     6.8740    -2.4250 H     1 <1>   0.0800 
 49 H       -8.8810     8.0240    -1.6530 H     1 <1>   0.0800 
 50 H      -11.1470     8.2910     0.1630 H     1 <1>   0.1500 
 51 H      -10.7970     4.0870     3.4090 H     1 <1>   0.0800 
 52 H      -12.2210     5.0940     3.2910 H     1 <1>   0.0800 
 53 H      -10.7830     5.7060     4.0760 H     1 <1>   0.0800 
@<TRIPOS>BOND
  1   1   2  2   
  2   2   3  am  
  3   2   4  1   
  4   3   5  1   
  5   3   6  1   
  6   4  25  1   
  7   4  26  1   
  8   4  27  1   
  9   5   7  1   
 10   5  28  1   
 11   5  29  1   
 12   6   8  1   
 13   6  30  1   
 14   6  31  1   
 15   7   9  1   
 16   7  32  1   
 17   7  33  1   
 18   8   9  1   
 19   8  34  1   
 20   8  35  1   
 21   9  10  1   
 22   9  36  1   
 23  10  11  1   
 24  10  12  1   
 25  10  37  1   
 26  11  13  1   
 27  11  38  1   
 28  11  39  1   
 29  12  14  1   
 30  12  40  1   
 31  12  41  1   
 32  13  15  1   
 33  13  16  1   
 34  13  17  1   
 35  14  16  1   
 36  14  42  1   
 37  14  43  1   
 38  15  18  ar  
 39  15  19  ar  
 40  16  44  1   
 41  16  45  1   
 42  17  20  1   
 43  17  46  1   
 44  17  47  1   
 45  18  21  ar  
 46  19  20  1   
 47  19  22  ar  
 48  20  48  1   
 49  20  49  1   
 50  21  23  ar  
 51  21  24  1   
 52  22  23  ar  
 53  22  50  1   
 54  24  51  1   
 55  24  52  1   
 56  24  53  1   
@<TRIPOS>SUBSTRUCTURE
  1 ****  11 GROUP 4 **** **** 0

# MOE 2024.06 (io_trps.svl 2023.06)
