@<TRIPOS>MOLECULE
NONAME
48 50 1 0 0 
SMALL
USER_CHARGES


@<TRIPOS>ATOM
  1 S        0.6660     1.4540    -0.5910 S.o2  1 <1>   1.4470 
  2 O        1.2640     1.3220    -1.9020 O.2   1 <1>  -0.6500 
  3 O        1.1980     2.4660     0.2970 O.2   1 <1>  -0.6500 
  4 N       -0.9650     1.8340    -0.8630 N.am  1 <1>  -0.8490 
  5 C        0.5380    -0.1500     0.2300 C.ar  1 <1>  -0.0090 
  6 C       -1.1710     3.2220    -1.2560 C.3   1 <1>   0.1960 
  7 C       -1.6120     0.9130    -1.8140 C.3   1 <1>   0.1960 
  8 C        0.2030    -0.2550     1.5690 C.ar  1 <1>   0.1900 
  9 C        0.6910    -1.3390    -0.4710 C.ar  1 <1>  -0.1500 
 10 C       -2.6550     3.5890    -1.0870 C.3   1 <1>  -0.1600 
 11 C       -3.0200     1.3880    -2.2060 C.3   1 <1>  -0.1600 
 12 F        0.0050     0.8210     2.2810 F     1 <1>  -0.1900 
 13 C        0.0410    -1.4690     2.2080 C.ar  1 <1>  -0.1500 
 14 C        0.5100    -2.5940     0.1170 C.ar  1 <1>  -0.1790 
 15 C       -3.6130     2.3770    -1.1950 C.3   1 <1>   0.2800 
 16 C        0.1950    -2.6310     1.4770 C.ar  1 <1>  -0.1500 
 17 C        0.6260    -3.8180    -0.6650 C.2   1 <1>   0.9790 
 18 O       -4.8040     2.8120    -1.7740 O.3   1 <1>  -0.5600 
 19 C       -3.8830     1.6620     0.1630 C.3   1 <1>  -0.1600 
 20 O        0.4810    -4.9280    -0.1270 O.co2 1 <1>  -0.9000 
 21 O        0.8470    -3.7630    -1.8870 O.co2 1 <1>  -0.9000 
 22 C       -5.6900     3.6330    -1.0490 C.3   1 <1>   0.1200 
 23 C       -5.2950     1.8540     0.7400 C.3   1 <1>   0.2800 
 24 C       -5.7960     3.2880     0.4510 C.3   1 <1>   0.2000 
 25 O       -6.1440     0.9590     0.1170 O.3   1 <1>  -0.6800 
 26 C       -5.3420     1.4860     2.2270 C.3   1 <1>  -0.2400 
 27 O       -5.0520     4.2230     1.1770 O.3   1 <1>  -0.6800 
 28 H       -0.5770     3.8820    -0.6450 H     1 <1>   0.0800 
 29 H       -0.8630     3.3520    -2.2810 H     1 <1>   0.0800 
 30 H       -1.0180     0.8100    -2.7080 H     1 <1>   0.0800 
 31 H       -1.6880    -0.0600    -1.3580 H     1 <1>   0.0800 
 32 H        0.9480    -1.3070    -1.5200 H     1 <1>   0.1500 
 33 H       -2.8950     4.3070    -1.8510 H     1 <1>   0.0800 
 34 H       -2.7690     4.0780    -0.1410 H     1 <1>   0.0800 
 35 H       -3.6670     0.5370    -2.3200 H     1 <1>   0.0800 
 36 H       -2.9550     1.8720    -3.1640 H     1 <1>   0.0800 
 37 H       -0.2070    -1.5040     3.2530 H     1 <1>   0.1500 
 38 H        0.0660    -3.5920     1.9500 H     1 <1>   0.1500 
 39 H       -3.6780     0.6100     0.0870 H     1 <1>   0.0800 
 40 H       -3.1680     2.0310     0.8750 H     1 <1>   0.0800 
 41 H       -5.4020     4.6590    -1.1880 H     1 <1>   0.0800 
 42 H       -6.6560     3.4910    -1.4990 H     1 <1>   0.0800 
 43 H       -6.8150     3.3930     0.7770 H     1 <1>   0.0800 
 44 H       -5.7840     0.0570     0.1940 H     1 <1>   0.4000 
 45 H       -4.7060     2.1400     2.7950 H     1 <1>   0.0800 
 46 H       -5.0080     0.4760     2.3820 H     1 <1>   0.0800 
 47 H       -6.3450     1.5930     2.6020 H     1 <1>   0.0800 
 48 H       -4.1070     4.1240     0.9630 H     1 <1>   0.4000 
@<TRIPOS>BOND
  1   1   2  2   
  2   1   3  2   
  3   1   4  am  
  4   1   5  1   
  5   4   6  1   
  6   4   7  1   
  7   5   8  ar  
  8   5   9  ar  
  9   6  10  1   
 10   6  28  1   
 11   6  29  1   
 12   7  11  1   
 13   7  30  1   
 14   7  31  1   
 15   8  12  1   
 16   8  13  ar  
 17   9  14  ar  
 18   9  32  1   
 19  10  15  1   
 20  10  33  1   
 21  10  34  1   
 22  11  15  1   
 23  11  35  1   
 24  11  36  1   
 25  13  16  ar  
 26  13  37  1   
 27  14  16  ar  
 28  14  17  1   
 29  15  18  1   
 30  15  19  1   
 31  16  38  1   
 32  17  20  ar  
 33  17  21  ar  
 34  18  22  1   
 35  19  23  1   
 36  19  39  1   
 37  19  40  1   
 38  22  24  1   
 39  22  41  1   
 40  22  42  1   
 41  23  24  1   
 42  23  25  1   
 43  23  26  1   
 44  24  27  1   
 45  24  43  1   
 46  25  44  1   
 47  26  45  1   
 48  26  46  1   
 49  26  47  1   
 50  27  48  1   
@<TRIPOS>SUBSTRUCTURE
  1 ****   4 GROUP 4 **** **** 0

# MOE 2024.06 (io_trps.svl 2023.06)
