@<TRIPOS>MOLECULE
NONAME
45 48 1 0 0 
SMALL
USER_CHARGES


@<TRIPOS>ATOM
  1 O        1.1350    -0.2580     1.5140 O.3   1 <1>  -0.6800 
  2 C        1.3610    -0.2380     0.1420 C.3   1 <1>   0.2000 
  3 C        2.1500    -1.4790    -0.2750 C.3   1 <1>  -0.0800 
  4 C        2.3240     0.9140    -0.1750 C.3   1 <1>   0.2090 
  5 C        3.5910    -1.1300     0.0950 C.3   1 <1>   0.2090 
  6 C        1.6810    -2.8290     0.3050 C.3   1 <1>  -0.0170 
  7 N        3.7110     0.3490    -0.0870 N.pl3 1 <1>  -0.8380 
  8 C        2.6830    -3.9240    -0.0280 C.ar  1 <1>  -0.1440 
  9 C        4.8470     1.0840    -0.0930 C.ar  1 <1>   0.4610 
 10 C        2.8700    -4.3780    -1.3180 C.ar  1 <1>  -0.1500 
 11 C        3.4670    -4.5110     0.9450 C.ar  1 <1>  -0.1500 
 12 N        6.0180     0.4670     0.1230 N.ar  1 <1>  -0.1790 
 13 C        4.9390     2.4780    -0.3070 C.ar  1 <1>   0.0000 
 14 C        3.8240    -5.3510    -1.5700 C.ar  1 <1>   0.1600 
 15 C        4.3910    -5.4790     0.5880 C.ar  1 <1>   0.1600 
 16 C        7.2240     1.1220     0.1480 C.ar  1 <1>   0.5280 
 17 C        6.1770     3.0720    -0.2700 C.ar  1 <1>   0.1050 
 18 C        4.0760     3.5510    -0.5810 C.2   1 <1>   0.1390 
 19 N        4.5980    -5.9000    -0.6480 N.ar  1 <1>  -0.6200 
 20 N        7.3400     2.3900    -0.0400 N.ar  1 <1>  -0.5670 
 21 C        8.4640     0.2930     0.4100 C.3   1 <1>  -0.0970 
 22 N        5.9970     4.3920    -0.5050 N.pl3 1 <1>   0.3140 
 23 N        4.6930     4.6790    -0.6980 N.2   1 <1>  -0.7070 
 24 C        7.0230     5.4440    -0.5630 C.3   1 <1>   0.0160 
 25 H        0.3700    -0.8250     1.7370 H     1 <1>   0.4000 
 26 H        0.4160    -0.1310    -0.3630 H     1 <1>   0.0800 
 27 H        2.1080    -1.5460    -1.3480 H     1 <1>   0.0800 
 28 H        2.1800     1.7250     0.5190 H     1 <1>   0.0800 
 29 H        2.1470     1.2580    -1.1800 H     1 <1>   0.0800 
 30 H        4.2810    -1.6680    -0.5330 H     1 <1>   0.0800 
 31 H        3.7640    -1.3740     1.1310 H     1 <1>   0.0800 
 32 H        0.7180    -3.0870    -0.1010 H     1 <1>   0.0800 
 33 H        1.5780    -2.7660     1.3740 H     1 <1>   0.0800 
 34 H        2.2860    -3.9900    -2.1330 H     1 <1>   0.1500 
 35 H        3.3710    -4.2320     1.9790 H     1 <1>   0.1500 
 36 H        5.9900    -0.5310     0.2890 H     1 <1>   0.4570 
 37 H        3.9580    -5.6950    -2.5820 H     1 <1>   0.1500 
 38 H        4.9920    -5.9310     1.3590 H     1 <1>   0.1500 
 39 H        3.0090     3.4690    -0.6890 H     1 <1>   0.1500 
 40 H        9.3370     0.9230     0.4020 H     1 <1>   0.0800 
 41 H        8.5830    -0.4560    -0.3530 H     1 <1>   0.0800 
 42 H        8.4020    -0.1820     1.3720 H     1 <1>   0.0800 
 43 H        7.9920     5.0210    -0.3730 H     1 <1>   0.0800 
 44 H        6.8000     6.1890     0.1770 H     1 <1>   0.0800 
 45 H        7.0080     5.8930    -1.5380 H     1 <1>   0.0800 
@<TRIPOS>BOND
  1   1   2  1   
  2   1  25  1   
  3   2   3  1   
  4   2   4  1   
  5   2  26  1   
  6   3   5  1   
  7   3   6  1   
  8   3  27  1   
  9   4   7  1   
 10   4  28  1   
 11   4  29  1   
 12   5   7  1   
 13   5  30  1   
 14   5  31  1   
 15   6   8  1   
 16   6  32  1   
 17   6  33  1   
 18   7   9  1   
 19   8  10  ar  
 20   8  11  ar  
 21   9  12  ar  
 22   9  13  ar  
 23  10  14  ar  
 24  10  34  1   
 25  11  15  ar  
 26  11  35  1   
 27  12  16  ar  
 28  12  36  1   
 29  13  17  ar  
 30  13  18  1   
 31  14  19  ar  
 32  14  37  1   
 33  15  19  ar  
 34  15  38  1   
 35  16  20  ar  
 36  16  21  1   
 37  17  20  ar  
 38  17  22  1   
 39  18  23  2   
 40  18  39  1   
 41  21  40  1   
 42  21  41  1   
 43  21  42  1   
 44  22  23  1   
 45  22  24  1   
 46  24  43  1   
 47  24  44  1   
 48  24  45  1   
@<TRIPOS>SUBSTRUCTURE
  1 ****   7 GROUP 4 **** **** 0

# MOE 2024.06 (io_trps.svl 2023.06)
