@<TRIPOS>MOLECULE
NONAME
51 53 1 0 0 
SMALL
USER_CHARGES


@<TRIPOS>ATOM
  1 O       -1.2370    -1.9670    -2.9270 O.2   1 <1>  -0.5700 
  2 C       -1.7450    -1.8780    -1.8340 C.2   1 <1>   0.5690 
  3 N       -1.6960    -0.7280    -1.1020 N.am  1 <1>  -0.6600 
  4 C       -2.4310    -3.1010    -1.2720 C.3   1 <1>  -0.0190 
  5 C       -2.4770    -0.5750     0.1580 C.3   1 <1>   0.2200 
  6 C       -0.9650     0.4810    -1.5770 C.3   1 <1>   0.0600 
  7 C       -1.7550    -3.5360     0.0420 C.3   1 <1>   0.1200 
  8 C       -3.9670    -2.9510    -1.2690 C.3   1 <1>   0.1400 
  9 C       -1.9370    -1.4910     1.2870 C.3   1 <1>   0.1200 
 10 C       -3.9910    -0.6810    -0.1340 C.3   1 <1>   0.1400 
 11 O       -2.2310    -2.8590     1.1630 O.3   1 <1>  -0.5600 
 12 N       -4.5360    -2.0800    -0.1840 N.am  1 <1>  -0.6600 
 13 C       -5.4330    -2.4950     0.7940 C.2   1 <1>   0.5690 
 14 O       -5.7370    -1.7220     1.6820 O.2   1 <1>  -0.5700 
 15 C       -6.0820    -3.9200     0.8470 C.3   1 <1>   0.3410 
 16 O       -6.5310    -4.2770    -0.4670 O.3   1 <1>  -0.3630 
 17 C       -7.3160    -3.9480     1.7770 C.3   1 <1>  -0.2400 
 18 C       -5.0610    -4.9500     1.3690 C.3   1 <1>  -0.2400 
 19 C       -7.1080    -5.4700    -0.7410 C.ar  1 <1>   0.0820 
 20 C       -6.3270    -6.5750    -1.0500 C.ar  1 <1>  -0.1500 
 21 C       -8.4900    -5.5690    -0.7630 C.ar  1 <1>  -0.1500 
 22 C       -6.9230    -7.7890    -1.3480 C.ar  1 <1>  -0.1440 
 23 C       -9.0880    -6.7800    -1.0600 C.ar  1 <1>  -0.1500 
 24 C       -8.3060    -7.8870    -1.3470 C.ar  1 <1>  -0.1500 
 25 C       -6.0780    -9.0070    -1.6730 C.3   1 <1>  -0.0970 
 26 H       -2.2190    -3.8860    -1.9760 H     1 <1>   0.0800 
 27 H       -2.3170     0.4330     0.4980 H     1 <1>   0.0800 
 28 H       -0.2760     0.8120    -0.8210 H     1 <1>   0.0800 
 29 H       -1.6650     1.2690    -1.7930 H     1 <1>   0.0800 
 30 H       -0.4080     0.2640    -2.4730 H     1 <1>   0.0800 
 31 H       -0.6880    -3.4010    -0.0130 H     1 <1>   0.0800 
 32 H       -1.9510    -4.5790     0.2110 H     1 <1>   0.0800 
 33 H       -4.3720    -3.9390    -1.2080 H     1 <1>   0.0800 
 34 H       -4.2780    -2.5500    -2.2190 H     1 <1>   0.0800 
 35 H       -2.3780    -1.1770     2.2160 H     1 <1>   0.0800 
 36 H       -0.8700    -1.3810     1.3720 H     1 <1>   0.0800 
 37 H       -4.2030    -0.1930    -1.0690 H     1 <1>   0.0800 
 38 H       -4.5010    -0.1140     0.6220 H     1 <1>   0.0800 
 39 H       -7.0330    -3.6510     2.7720 H     1 <1>   0.0800 
 40 H       -7.7390    -4.9330     1.8400 H     1 <1>   0.0800 
 41 H       -8.0580    -3.2560     1.4220 H     1 <1>   0.0800 
 42 H       -4.6720    -4.6130     2.3130 H     1 <1>   0.0800 
 43 H       -4.2350    -5.0510     0.6950 H     1 <1>   0.0800 
 44 H       -5.5200    -5.9090     1.5230 H     1 <1>   0.0800 
 45 H       -5.2580    -6.4780    -1.0580 H     1 <1>   0.1500 
 46 H       -9.0860    -4.7010    -0.5500 H     1 <1>   0.1500 
 47 H      -10.1610    -6.8620    -1.0710 H     1 <1>   0.1500 
 48 H       -8.7800    -8.8250    -1.5750 H     1 <1>   0.1500 
 49 H       -6.4980    -9.5360    -2.5110 H     1 <1>   0.0800 
 50 H       -6.0480    -9.6670    -0.8250 H     1 <1>   0.0800 
 51 H       -5.0730    -8.7190    -1.9230 H     1 <1>   0.0800 
@<TRIPOS>BOND
  1   1   2  2   
  2   2   3  am  
  3   2   4  1   
  4   3   5  1   
  5   3   6  1   
  6   4   7  1   
  7   4   8  1   
  8   4  26  1   
  9   5   9  1   
 10   5  10  1   
 11   5  27  1   
 12   6  28  1   
 13   6  29  1   
 14   6  30  1   
 15   7  11  1   
 16   7  31  1   
 17   7  32  1   
 18   8  12  1   
 19   8  33  1   
 20   8  34  1   
 21   9  11  1   
 22   9  35  1   
 23   9  36  1   
 24  10  12  1   
 25  10  37  1   
 26  10  38  1   
 27  12  13  am  
 28  13  14  2   
 29  13  15  1   
 30  15  16  1   
 31  15  17  1   
 32  15  18  1   
 33  16  19  1   
 34  17  39  1   
 35  17  40  1   
 36  17  41  1   
 37  18  42  1   
 38  18  43  1   
 39  18  44  1   
 40  19  20  ar  
 41  19  21  ar  
 42  20  22  ar  
 43  20  45  1   
 44  21  23  ar  
 45  21  46  1   
 46  22  24  ar  
 47  22  25  1   
 48  23  24  ar  
 49  23  47  1   
 50  24  48  1   
 51  25  49  1   
 52  25  50  1   
 53  25  51  1   
@<TRIPOS>SUBSTRUCTURE
  1 ****   8 GROUP 4 **** **** 0

# MOE 2024.06 (io_trps.svl 2023.06)
