@<TRIPOS>MOLECULE
NONAME
61 63 1 0 0 
SMALL
USER_CHARGES


@<TRIPOS>ATOM
  1 O       -0.5000     0.2680    -2.6400 O.2   1 <1>  -0.5700 
  2 C       -1.1770     1.1650    -2.1810 C.2   1 <1>   0.5690 
  3 N       -2.2970     0.8430    -1.4420 N.am  1 <1>  -0.6600 
  4 C       -0.7050     2.6330    -2.4500 C.3   1 <1>   0.3410 
  5 C       -3.2660     1.7540    -0.7740 C.3   1 <1>   0.1400 
  6 C       -2.4570    -0.4990    -0.8430 C.3   1 <1>   0.1400 
  7 O       -0.7140     3.4640    -1.2900 O.3   1 <1>  -0.3630 
  8 C       -1.6610     3.3130    -3.4420 C.3   1 <1>  -0.2400 
  9 C        0.7200     2.7310    -3.0300 C.3   1 <1>  -0.2400 
 10 C       -3.5710     1.0980     0.5800 C.3   1 <1>   0.2000 
 11 C       -2.7590    -0.2000     0.6230 C.3   1 <1>  -0.0800 
 12 C       -0.3690     3.1190    -0.0170 C.ar  1 <1>   0.0830 
 13 O       -3.1810     1.9100     1.6310 O.3   1 <1>  -0.6800 
 14 C       -3.4810    -1.3370     1.3590 C.3   1 <1>   0.0200 
 15 C       -0.7780     3.9680     1.0130 C.ar  1 <1>  -0.1430 
 16 C        0.3340     1.9550     0.2890 C.ar  1 <1>  -0.1500 
 17 C       -2.6420    -2.6000     1.4620 C.2   1 <1>  -0.0400 
 18 C       -0.5160     3.6020     2.3260 C.ar  1 <1>  -0.1500 
 19 C       -1.4990     5.2970     0.7360 C.3   1 <1>   0.0630 
 20 C        0.5820     1.5980     1.6020 C.ar  1 <1>  -0.1430 
 21 O       -3.2070    -3.7000     1.8820 O.3   1 <1>  -0.0190 
 22 C       -1.3520    -2.8760     1.2060 C.2   1 <1>  -0.1500 
 23 C        0.1480     2.4260     2.6210 C.ar  1 <1>  -0.1500 
 24 C       -0.6580     6.4770     1.2350 C.3   1 <1>  -0.2400 
 25 C       -2.8950     5.3280     1.3690 C.3   1 <1>  -0.2400 
 26 C        1.3240     0.3160     1.9350 C.3   1 <1>  -0.0970 
 27 N       -2.3700    -4.6960     1.9160 N.2   1 <1>  -0.4100 
 28 C       -1.2440    -4.2290     1.5130 C.2   1 <1>   0.1080 
 29 C        0.0220    -5.0470     1.3920 C.3   1 <1>  -0.0590 
 30 H       -2.8930     2.7510    -0.6530 H     1 <1>   0.0800 
 31 H       -4.1650     1.7880    -1.3640 H     1 <1>   0.0800 
 32 H       -3.2820    -1.0020    -1.3170 H     1 <1>   0.0800 
 33 H       -1.5670    -1.0950    -0.9510 H     1 <1>   0.0800 
 34 H       -1.6730     2.7670    -4.3680 H     1 <1>   0.0800 
 35 H       -1.3440     4.3210    -3.6420 H     1 <1>   0.0800 
 36 H       -2.6610     3.3320    -3.0510 H     1 <1>   0.0800 
 37 H        0.7680     2.2170    -3.9740 H     1 <1>   0.0800 
 38 H        1.4340     2.2750    -2.3720 H     1 <1>   0.0800 
 39 H        0.9950     3.7580    -3.1860 H     1 <1>   0.0800 
 40 H       -4.6280     0.9180     0.6740 H     1 <1>   0.0800 
 41 H       -1.8180    -0.0100     1.1110 H     1 <1>   0.0800 
 42 H       -2.2370     2.1720     1.5320 H     1 <1>   0.4000 
 43 H       -4.3980    -1.5720     0.8490 H     1 <1>   0.0800 
 44 H       -3.7310    -1.0140     2.3550 H     1 <1>   0.0800 
 45 H        0.6980     1.3090    -0.4840 H     1 <1>   0.1500 
 46 H       -0.8280     4.2350     3.1380 H     1 <1>   0.1500 
 47 H       -1.6290     5.4350    -0.3220 H     1 <1>   0.0800 
 48 H       -0.5610    -2.2430     0.8530 H     1 <1>   0.1500 
 49 H        0.3330     2.1630     3.6480 H     1 <1>   0.1500 
 50 H       -0.5470     6.4490     2.3040 H     1 <1>   0.0800 
 51 H       -1.1240     7.4070     0.9630 H     1 <1>   0.0800 
 52 H        0.3190     6.4410     0.7880 H     1 <1>   0.0800 
 53 H       -2.8390     5.2310     2.4380 H     1 <1>   0.0800 
 54 H       -3.4920     4.5230     0.9840 H     1 <1>   0.0800 
 55 H       -3.3870     6.2550     1.1350 H     1 <1>   0.0800 
 56 H        0.7540    -0.2680     2.6340 H     1 <1>   0.0800 
 57 H        2.2770     0.5520     2.3730 H     1 <1>   0.0800 
 58 H        1.4900    -0.2730     1.0510 H     1 <1>   0.0800 
 59 H        0.4530    -4.9140     0.4170 H     1 <1>   0.0800 
 60 H       -0.2000    -6.0890     1.5360 H     1 <1>   0.0800 
 61 H        0.7290    -4.7360     2.1390 H     1 <1>   0.0800 
@<TRIPOS>BOND
  1   1   2  2   
  2   2   3  am  
  3   2   4  1   
  4   3   5  1   
  5   3   6  1   
  6   4   7  1   
  7   4   8  1   
  8   4   9  1   
  9   5  10  1   
 10   5  30  1   
 11   5  31  1   
 12   6  11  1   
 13   6  32  1   
 14   6  33  1   
 15   7  12  1   
 16   8  34  1   
 17   8  35  1   
 18   8  36  1   
 19   9  37  1   
 20   9  38  1   
 21   9  39  1   
 22  10  11  1   
 23  10  13  1   
 24  10  40  1   
 25  11  14  1   
 26  11  41  1   
 27  12  15  ar  
 28  12  16  ar  
 29  13  42  1   
 30  14  17  1   
 31  14  43  1   
 32  14  44  1   
 33  15  18  ar  
 34  15  19  1   
 35  16  20  ar  
 36  16  45  1   
 37  17  21  1   
 38  17  22  2   
 39  18  23  ar  
 40  18  46  1   
 41  19  24  1   
 42  19  25  1   
 43  19  47  1   
 44  20  23  ar  
 45  20  26  1   
 46  21  27  1   
 47  22  28  1   
 48  22  48  1   
 49  23  49  1   
 50  24  50  1   
 51  24  51  1   
 52  24  52  1   
 53  25  53  1   
 54  25  54  1   
 55  25  55  1   
 56  26  56  1   
 57  26  57  1   
 58  26  58  1   
 59  27  28  2   
 60  28  29  1   
 61  29  59  1   
 62  29  60  1   
 63  29  61  1   
@<TRIPOS>SUBSTRUCTURE
  1 ****  11 GROUP 4 **** **** 0

# MOE 2024.06 (io_trps.svl 2023.06)
