@<TRIPOS>MOLECULE
NONAME
32 33 1 0 0 
SMALL
USER_CHARGES


@<TRIPOS>ATOM
  1 CL      -0.5740    -0.1420    -0.1120 Cl    1 <1>  -0.1770 
  2 C       -0.4220    -1.8620     0.1150 C.ar  1 <1>   0.1770 
  3 C        0.6720    -2.5230    -0.4060 C.ar  1 <1>  -0.1500 
  4 C       -1.4040    -2.5440     0.8140 C.ar  1 <1>  -0.1500 
  5 C        0.7600    -3.8880    -0.2120 C.ar  1 <1>   0.1900 
  6 C       -1.2890    -3.9130     0.9960 C.ar  1 <1>  -0.1500 
  7 F        1.7890    -4.5030    -0.7260 F     1 <1>  -0.1900 
  8 C       -0.1990    -4.6220     0.4850 C.ar  1 <1>   0.0860 
  9 C       -0.0920    -6.0480     0.6790 C.2   1 <1>   0.5440 
 10 O        0.7290    -6.4830     1.4660 O.2   1 <1>  -0.5700 
 11 N       -0.9340    -6.9210     0.0290 N.am  1 <1>  -0.6600 
 12 C       -1.1080    -8.3390     0.5000 C.3   1 <1>   0.1400 
 13 C       -1.8700    -6.5260    -1.0590 C.3   1 <1>   0.1400 
 14 C       -2.5670    -8.8380     0.3920 C.3   1 <1>   0.2000 
 15 C       -3.3220    -6.5820    -0.5590 C.3   1 <1>  -0.1600 
 16 O       -2.7680    -9.4520    -0.8340 O.3   1 <1>  -0.6800 
 17 C       -3.5670    -7.6780     0.5130 C.3   1 <1>  -0.1860 
 18 C       -4.9920    -8.1920     0.4970 C.2   1 <1>   0.9060 
 19 O       -5.7640    -7.8180     1.3820 O.co2 1 <1>  -0.9000 
 20 O       -5.3290    -8.9720    -0.4040 O.co2 1 <1>  -0.9000 
 21 H        1.4330    -1.9910    -0.9480 H     1 <1>   0.1500 
 22 H       -2.2480    -2.0060     1.2100 H     1 <1>   0.1500 
 23 H       -2.0480    -4.4510     1.5400 H     1 <1>   0.1500 
 24 H       -0.4580    -8.9900    -0.0580 H     1 <1>   0.0800 
 25 H       -0.8180    -8.3920     1.5340 H     1 <1>   0.0800 
 26 H       -1.6420    -5.5480    -1.4420 H     1 <1>   0.0800 
 27 H       -1.7510    -7.2270    -1.8690 H     1 <1>   0.0800 
 28 H       -2.7610    -9.5790     1.1490 H     1 <1>   0.0800 
 29 H       -3.6130    -5.6290    -0.1580 H     1 <1>   0.0800 
 30 H       -3.9540    -6.7720    -1.4100 H     1 <1>   0.0800 
 31 H       -3.7640    -9.4850    -0.9490 H     1 <1>   0.4000 
 32 H       -3.4130    -7.2340     1.4780 H     1 <1>   0.0800 
@<TRIPOS>BOND
  1   1   2  1   
  2   2   3  ar  
  3   2   4  ar  
  4   3   5  ar  
  5   3  21  1   
  6   4   6  ar  
  7   4  22  1   
  8   5   7  1   
  9   5   8  ar  
 10   6   8  ar  
 11   6  23  1   
 12   8   9  1   
 13   9  10  2   
 14   9  11  am  
 15  11  12  1   
 16  11  13  1   
 17  12  14  1   
 18  12  24  1   
 19  12  25  1   
 20  13  15  1   
 21  13  26  1   
 22  13  27  1   
 23  14  16  1   
 24  14  17  1   
 25  14  28  1   
 26  15  17  1   
 27  15  29  1   
 28  15  30  1   
 29  16  31  1   
 30  17  18  1   
 31  17  32  1   
 32  18  19  ar  
 33  18  20  ar  
@<TRIPOS>SUBSTRUCTURE
  1 ****  11 GROUP 4 **** **** 0

# MOE 2024.06 (io_trps.svl 2023.06)
