@<TRIPOS>MOLECULE
NONAME
55 58 1 0 0 
SMALL
USER_CHARGES


@<TRIPOS>ATOM
  1 O        0.0180    -1.4030     1.5270 O.3   1 <1>  -0.5600 
  2 C        0.3960    -1.9500     0.2980 C.3   1 <1>   0.2000 
  3 C       -1.3240    -1.5730     1.8590 C.3   1 <1>   0.0400 
  4 C        1.7690    -1.4290    -0.1610 C.3   1 <1>   0.0000 
  5 C        0.5360    -3.4730     0.3830 C.3   1 <1>  -0.1600 
  6 C        2.7640    -1.3420     1.0250 C.3   1 <1>   0.2090 
  7 C        1.6520    -0.0450    -0.8370 C.3   1 <1>  -0.1600 
  8 C        2.1980    -2.5270    -1.1500 C.3   1 <1>  -0.1600 
  9 C        1.7020    -3.8430    -0.5440 C.3   1 <1>  -0.1600 
 10 N        4.0850    -0.7790     0.5910 N.pl3 1 <1>  -0.8380 
 11 C        3.0320     0.5020    -1.2430 C.3   1 <1>  -0.1600 
 12 C        5.2670    -1.4910     0.7230 C.ar  1 <1>   0.4100 
 13 C        4.0040     0.5540    -0.0590 C.3   1 <1>   0.2090 
 14 N        5.1970    -2.8100     0.6770 N.ar  1 <1>  -0.6200 
 15 C        6.4820    -0.8670     0.8990 C.ar  1 <1>  -0.1500 
 16 C        6.3410    -3.4490     0.7960 C.ar  1 <1>   0.4700 
 17 C        7.6170    -1.6360     1.0020 C.ar  1 <1>   0.4100 
 18 N        7.5510    -2.9540     0.9530 N.ar  1 <1>  -0.6200 
 19 N        8.8650    -1.0580     1.1550 N.pl3 1 <1>  -0.8380 
 20 C        9.9320    -1.7560     1.9260 C.3   1 <1>   0.2090 
 21 C        9.3410    -0.0580     0.1650 C.3   1 <1>   0.2090 
 22 C       10.9170    -2.4230     0.9650 C.3   1 <1>  -0.1600 
 23 C       10.3150    -0.7240    -0.8070 C.3   1 <1>  -0.1600 
 24 C       11.4490    -1.4050    -0.0420 C.3   1 <1>   0.2000 
 25 O       12.2490    -2.0660    -0.9480 O.3   1 <1>  -0.6800 
 26 H       -0.3430    -1.6920    -0.4430 H     1 <1>   0.0800 
 27 H       -1.4960    -1.0960     2.8070 H     1 <1>   0.0800 
 28 H       -1.5440    -2.6230     1.9380 H     1 <1>   0.0800 
 29 H       -1.9370    -1.1100     1.1050 H     1 <1>   0.0800 
 30 H        0.7730    -3.7690     1.3910 H     1 <1>   0.0800 
 31 H       -0.3720    -3.9540     0.0670 H     1 <1>   0.0800 
 32 H        2.8930    -2.3100     1.4750 H     1 <1>   0.0800 
 33 H        2.3610    -0.6940     1.7820 H     1 <1>   0.0800 
 34 H        1.0180    -0.1050    -1.7030 H     1 <1>   0.0800 
 35 H        1.1960     0.6400    -0.1430 H     1 <1>   0.0800 
 36 H        1.7100    -2.3740    -2.0970 H     1 <1>   0.0800 
 37 H        3.2610    -2.5420    -1.3140 H     1 <1>   0.0800 
 38 H        2.4940    -4.2910     0.0330 H     1 <1>   0.0800 
 39 H        1.3990    -4.5330    -1.3130 H     1 <1>   0.0800 
 40 H        2.9200     1.4900    -1.6490 H     1 <1>   0.0800 
 41 H        3.4600    -0.1190    -2.0100 H     1 <1>   0.0800 
 42 H        3.6620     1.2740     0.6640 H     1 <1>   0.0800 
 43 H        4.9710     0.8620    -0.4160 H     1 <1>   0.0800 
 44 H        6.5500     0.1950     0.9760 H     1 <1>   0.1500 
 45 H        6.2790    -4.5230     0.7580 H     1 <1>   0.1500 
 46 H       10.4460    -1.0370     2.5400 H     1 <1>   0.0800 
 47 H        9.4960    -2.4950     2.5770 H     1 <1>   0.0800 
 48 H        8.5110     0.3500    -0.3850 H     1 <1>   0.0800 
 49 H        9.8300     0.7480     0.6860 H     1 <1>   0.0800 
 50 H       10.4040    -3.2200     0.4570 H     1 <1>   0.0800 
 51 H       11.7320    -2.8390     1.5280 H     1 <1>   0.0800 
 52 H       10.7200     0.0200    -1.4680 H     1 <1>   0.0800 
 53 H        9.7710    -1.4470    -1.3880 H     1 <1>   0.0800 
 54 H       12.0570    -0.6690     0.4570 H     1 <1>   0.0800 
 55 H       11.7300    -2.7640    -1.3900 H     1 <1>   0.4000 
@<TRIPOS>BOND
  1   1   2  1   
  2   1   3  1   
  3   2   4  1   
  4   2   5  1   
  5   2  26  1   
  6   3  27  1   
  7   3  28  1   
  8   3  29  1   
  9   4   6  1   
 10   4   7  1   
 11   4   8  1   
 12   5   9  1   
 13   5  30  1   
 14   5  31  1   
 15   6  10  1   
 16   6  32  1   
 17   6  33  1   
 18   7  11  1   
 19   7  34  1   
 20   7  35  1   
 21   8   9  1   
 22   8  36  1   
 23   8  37  1   
 24   9  38  1   
 25   9  39  1   
 26  10  12  1   
 27  10  13  1   
 28  11  13  1   
 29  11  40  1   
 30  11  41  1   
 31  12  14  ar  
 32  12  15  ar  
 33  13  42  1   
 34  13  43  1   
 35  14  16  ar  
 36  15  17  ar  
 37  15  44  1   
 38  16  18  ar  
 39  16  45  1   
 40  17  18  ar  
 41  17  19  1   
 42  19  20  1   
 43  19  21  1   
 44  20  22  1   
 45  20  46  1   
 46  20  47  1   
 47  21  23  1   
 48  21  48  1   
 49  21  49  1   
 50  22  24  1   
 51  22  50  1   
 52  22  51  1   
 53  23  24  1   
 54  23  52  1   
 55  23  53  1   
 56  24  25  1   
 57  24  54  1   
 58  25  55  1   
@<TRIPOS>SUBSTRUCTURE
  1 ****  12 GROUP 4 **** **** 0

# MOE 2024.06 (io_trps.svl 2023.06)
