@<TRIPOS>MOLECULE
NONAME
34 35 1 0 0 
SMALL
USER_CHARGES


@<TRIPOS>ATOM
  1 S       -0.4540     0.0520     0.7990 S.3   1 <1>  -0.0800 
  2 C       -1.0790    -1.0540    -0.3790 C.2   1 <1>   0.4420 
  3 C       -0.1080     1.1410    -0.5050 C.2   1 <1>   0.1980 
  4 N       -0.9850    -0.5950    -1.5730 N.2   1 <1>  -0.3380 
  5 N       -1.5630    -2.2510     0.1040 N.am  1 <1>  -0.4940 
  6 N       -0.4320     0.6540    -1.6370 N.2   1 <1>  -0.3380 
  7 C        0.5400     2.4850    -0.1660 C.3   1 <1>   0.3800 
  8 C       -2.1830    -3.2820    -0.5590 C.2   1 <1>   0.6160 
  9 O       -0.1010     3.0380     0.9500 O.3   1 <1>  -0.5600 
 10 C        0.4400     3.4880    -1.3220 C.3   1 <1>  -0.2400 
 11 O       -2.5450    -3.1320    -1.7070 O.2   1 <1>  -0.5700 
 12 C       -2.4380    -4.5280     0.1260 C.2   1 <1>   0.0140 
 13 C        0.6720     3.8930     1.7350 C.3   1 <1>   0.0400 
 14 C       -3.4480    -5.3700    -0.2760 C.2   1 <1>  -0.0410 
 15 C       -1.6520    -4.9470     1.2470 C.2   1 <1>  -0.1500 
 16 N       -3.7370    -6.5520     0.3630 N.am  1 <1>  -0.4690 
 17 C       -1.9330    -6.1140     1.8840 C.2   1 <1>  -0.1360 
 18 C       -2.9980    -6.9560     1.4640 C.2   1 <1>   0.6160 
 19 C       -4.8420    -7.4180    -0.1230 C.3   1 <1>   0.0600 
 20 O       -3.2580    -7.9990     2.0480 O.2   1 <1>  -0.5700 
 21 H       -1.4940    -2.3600     1.1100 H     1 <1>   0.3700 
 22 H        1.5710     2.3040     0.0820 H     1 <1>   0.0800 
 23 H       -0.5930     3.6880    -1.5420 H     1 <1>   0.0800 
 24 H        0.8990     3.0740    -2.2010 H     1 <1>   0.0800 
 25 H        0.9430     4.4060    -1.0830 H     1 <1>   0.0800 
 26 H        0.0660     4.2250     2.5600 H     1 <1>   0.0800 
 27 H        0.9790     4.7440     1.1530 H     1 <1>   0.0800 
 28 H        1.5270     3.3590     2.1100 H     1 <1>   0.0800 
 29 H       -4.0540    -5.1060    -1.1290 H     1 <1>   0.1500 
 30 H       -0.8280    -4.3370     1.5710 H     1 <1>   0.1500 
 31 H       -1.3660    -6.4630     2.7270 H     1 <1>   0.1500 
 32 H       -5.3140    -6.9830    -0.9860 H     1 <1>   0.0800 
 33 H       -5.5730    -7.5380     0.6570 H     1 <1>   0.0800 
 34 H       -4.4510    -8.3850    -0.3850 H     1 <1>   0.0800 
@<TRIPOS>BOND
  1   1   2  1   
  2   1   3  1   
  3   2   4  2   
  4   2   5  1   
  5   3   6  2   
  6   3   7  1   
  7   4   6  1   
  8   5   8  am  
  9   5  21  1   
 10   7   9  1   
 11   7  10  1   
 12   7  22  1   
 13   8  11  2   
 14   8  12  1   
 15   9  13  1   
 16  10  23  1   
 17  10  24  1   
 18  10  25  1   
 19  12  14  2   
 20  12  15  1   
 21  13  26  1   
 22  13  27  1   
 23  13  28  1   
 24  14  16  1   
 25  14  29  1   
 26  15  17  2   
 27  15  30  1   
 28  16  18  am  
 29  16  19  1   
 30  17  18  1   
 31  17  31  1   
 32  18  20  2   
 33  19  32  1   
 34  19  33  1   
 35  19  34  1   
@<TRIPOS>SUBSTRUCTURE
  1 ****   5 GROUP 4 **** **** 0

# MOE 2024.06 (io_trps.svl 2023.06)
