@<TRIPOS>MOLECULE
NONAME
53 56 1 0 0 
SMALL
USER_CHARGES


@<TRIPOS>ATOM
  1 O       -0.6580     0.3470     0.3950 O.2   1 <1>  -0.5700 
  2 C       -1.5710     0.9680    -0.1140 C.2   1 <1>   0.5440 
  3 N       -2.6360     0.2690    -0.6430 N.am  1 <1>  -0.6600 
  4 C       -1.5210     2.4190    -0.1320 C.ar  1 <1>   0.0860 
  5 C       -4.0180     0.8280    -0.7580 C.3   1 <1>   0.1400 
  6 C       -2.5900    -1.2140    -0.8470 C.3   1 <1>   0.1400 
  7 C       -1.8260     3.1520    -1.2790 C.ar  1 <1>  -0.1500 
  8 C       -1.1550     3.1370     1.0050 C.ar  1 <1>  -0.1500 
  9 C       -5.0160     0.0030     0.0780 C.3   1 <1>   0.2950 
 10 C       -3.6740    -1.9240    -0.0060 C.3   1 <1>   0.2000 
 11 C       -1.7860     4.5340    -1.2850 C.ar  1 <1>  -0.1500 
 12 C       -1.1130     4.5190     1.0070 C.ar  1 <1>  -0.1500 
 13 O       -4.9260    -1.3510    -0.2560 O.3   1 <1>  -0.5600 
 14 C       -6.4600     0.4470    -0.1740 C.3   1 <1>  -0.1950 
 15 C       -3.8020    -3.4190    -0.3230 C.3   1 <1>  -0.1600 
 16 C       -1.4310     5.2390    -0.1400 C.ar  1 <1>  -0.0230 
 17 C       -7.0610     1.5910     0.5820 C.3   1 <1>  -0.2000 
 18 C       -7.5360     0.1870     0.8320 C.3   1 <1>  -0.2000 
 19 C       -2.5430    -4.2230     0.0440 C.3   1 <1>  -0.1600 
 20 N       -1.3890     6.6550    -0.1440 N.pl3 1 <1>   0.3260 
 21 C       -2.7570    -5.7210    -0.2020 C.3   1 <1>  -0.1600 
 22 C       -0.4420     7.4780     0.3820 C.2   1 <1>   0.0360 
 23 C       -2.2930     7.5150    -0.6690 C.2   1 <1>  -0.3020 
 24 C       -1.5050    -6.5230     0.1600 C.3   1 <1>  -0.2400 
 25 N       -0.6760     8.7410     0.2340 N.2   1 <1>  -0.5650 
 26 C       -1.8470     8.7670    -0.4310 C.2   1 <1>   0.0770 
 27 H       -4.0490     1.8460    -0.4160 H     1 <1>   0.0800 
 28 H       -4.3220     0.8100    -1.7890 H     1 <1>   0.0800 
 29 H       -2.7530    -1.4300    -1.8870 H     1 <1>   0.0800 
 30 H       -1.6220    -1.5980    -0.5820 H     1 <1>   0.0800 
 31 H       -2.0910     2.6220    -2.1780 H     1 <1>   0.1500 
 32 H       -0.8990     2.5910     1.8980 H     1 <1>   0.1500 
 33 H       -4.7860     0.1050     1.1250 H     1 <1>   0.0800 
 34 H       -3.4530    -1.8020     1.0420 H     1 <1>   0.0800 
 35 H       -2.0250     5.0680    -2.1900 H     1 <1>   0.1500 
 36 H       -0.8320     5.0370     1.9080 H     1 <1>   0.1500 
 37 H       -6.7330     0.3500    -1.2110 H     1 <1>   0.1000 
 38 H       -4.6350    -3.8080     0.2350 H     1 <1>   0.0800 
 39 H       -4.0140    -3.5410    -1.3710 H     1 <1>   0.0800 
 40 H       -6.4940     2.0780     1.3570 H     1 <1>   0.1000 
 41 H       -7.7190     2.2690     0.0640 H     1 <1>   0.1000 
 42 H       -8.5070    -0.1100     0.4740 H     1 <1>   0.1000 
 43 H       -7.2710    -0.3020     1.7540 H     1 <1>   0.1000 
 44 H       -1.7070    -3.8890    -0.5450 H     1 <1>   0.0800 
 45 H       -2.3070    -4.0630     1.0830 H     1 <1>   0.0800 
 46 H       -3.5850    -6.0710     0.3910 H     1 <1>   0.0800 
 47 H       -2.9970    -5.8870    -1.2390 H     1 <1>   0.0800 
 48 H        0.4260     7.0790     0.8740 H     1 <1>   0.1500 
 49 H       -3.1850     7.1870    -1.1670 H     1 <1>   0.1500 
 50 H       -1.2590    -6.3890     1.1990 H     1 <1>   0.0800 
 51 H       -0.6680    -6.2060    -0.4370 H     1 <1>   0.0800 
 52 H       -1.6750    -7.5700    -0.0180 H     1 <1>   0.0800 
 53 H       -2.3100     9.7010    -0.7050 H     1 <1>   0.1500 
@<TRIPOS>BOND
  1   1   2  2   
  2   2   3  am  
  3   2   4  1   
  4   3   5  1   
  5   3   6  1   
  6   4   7  ar  
  7   4   8  ar  
  8   5   9  1   
  9   5  27  1   
 10   5  28  1   
 11   6  10  1   
 12   6  29  1   
 13   6  30  1   
 14   7  11  ar  
 15   7  31  1   
 16   8  12  ar  
 17   8  32  1   
 18   9  13  1   
 19   9  14  1   
 20   9  33  1   
 21  10  13  1   
 22  10  15  1   
 23  10  34  1   
 24  11  16  ar  
 25  11  35  1   
 26  12  16  ar  
 27  12  36  1   
 28  14  17  1   
 29  14  18  1   
 30  14  37  1   
 31  15  19  1   
 32  15  38  1   
 33  15  39  1   
 34  16  20  1   
 35  17  18  1   
 36  17  40  1   
 37  17  41  1   
 38  18  42  1   
 39  18  43  1   
 40  19  21  1   
 41  19  44  1   
 42  19  45  1   
 43  20  22  1   
 44  20  23  1   
 45  21  24  1   
 46  21  46  1   
 47  21  47  1   
 48  22  25  2   
 49  22  48  1   
 50  23  26  2   
 51  23  49  1   
 52  24  50  1   
 53  24  51  1   
 54  24  52  1   
 55  25  26  1   
 56  26  53  1   
@<TRIPOS>SUBSTRUCTURE
  1 ****   2 GROUP 4 **** **** 0

# MOE 2024.06 (io_trps.svl 2023.06)
