@<TRIPOS>MOLECULE
NONAME
38 39 1 0 0 
SMALL
USER_CHARGES


@<TRIPOS>ATOM
  1 CL      -0.3930    -0.6850     1.7030 Cl    1 <1>  -0.1770 
  2 C        1.1200    -1.3570     1.1130 C.ar  1 <1>   0.1770 
  3 C        1.1660    -2.3470     0.1340 C.ar  1 <1>   0.4100 
  4 C        2.3010    -0.9080     1.6360 C.ar  1 <1>   0.1600 
  5 N        2.3330    -2.8290    -0.2630 N.ar  1 <1>  -0.6200 
  6 N        0.0340    -2.8700    -0.4740 N.pl3 1 <1>  -0.8380 
  7 N        3.4700    -1.3840     1.2410 N.ar  1 <1>  -0.6200 
  8 C        3.4080    -2.3230     0.3110 C.ar  1 <1>   0.4770 
  9 C       -0.0460    -4.3150    -0.8160 C.3   1 <1>   0.2090 
 10 C       -0.8900    -1.9710    -1.2170 C.3   1 <1>   0.1290 
 11 C        4.7300    -2.8820    -0.1570 C.3   1 <1>  -0.0960 
 12 C       -1.2480    -4.9350    -0.1020 C.3   1 <1>  -0.1600 
 13 C       -1.3390    -6.4450    -0.3770 C.3   1 <1>  -0.1600 
 14 C       -2.4830    -7.1100     0.3930 C.3   1 <1>   0.2000 
 15 O       -2.4790    -8.4640     0.1040 O.3   1 <1>  -0.5600 
 16 C       -3.8800    -6.6490     0.0000 C.3   1 <1>  -0.1600 
 17 C       -3.7300    -9.0190     0.3570 C.3   1 <1>   0.1200 
 18 C       -4.7340    -7.8690     0.3000 C.3   1 <1>  -0.1600 
 19 H        2.2940    -0.1450     2.3940 H     1 <1>   0.1500 
 20 H        0.8490    -4.8230    -0.4990 H     1 <1>   0.0800 
 21 H       -0.1360    -4.4340    -1.8830 H     1 <1>   0.0800 
 22 H       -0.5380    -0.9540    -1.1770 H     1 <1>   0.0800 
 23 H       -1.8710    -2.0160    -0.7780 H     1 <1>   0.0800 
 24 H       -0.9480    -2.2710    -2.2490 H     1 <1>   0.0800 
 25 H        4.6300    -3.9310    -0.3680 H     1 <1>   0.0800 
 26 H        5.4810    -2.7490     0.5990 H     1 <1>   0.0800 
 27 H        5.0340    -2.3710    -1.0510 H     1 <1>   0.0800 
 28 H       -2.1470    -4.4510    -0.4370 H     1 <1>   0.0800 
 29 H       -1.1400    -4.7700     0.9560 H     1 <1>   0.0800 
 30 H       -0.4180    -6.9140    -0.0770 H     1 <1>   0.0800 
 31 H       -1.4770    -6.6140    -1.4310 H     1 <1>   0.0800 
 32 H       -2.3380    -7.0070     1.4560 H     1 <1>   0.0800 
 33 H       -3.9080    -6.4280    -1.0520 H     1 <1>   0.0800 
 34 H       -4.1870    -5.7820     0.5570 H     1 <1>   0.0800 
 35 H       -3.7060    -9.4720     1.3330 H     1 <1>   0.0800 
 36 H       -3.9260    -9.7660    -0.3930 H     1 <1>   0.0800 
 37 H       -5.4750    -8.0350    -0.4620 H     1 <1>   0.0800 
 38 H       -5.2240    -7.7730     1.2520 H     1 <1>   0.0800 
@<TRIPOS>BOND
  1   1   2  1   
  2   2   3  ar  
  3   2   4  ar  
  4   3   5  ar  
  5   3   6  1   
  6   4   7  ar  
  7   4  19  1   
  8   5   8  ar  
  9   6   9  1   
 10   6  10  1   
 11   7   8  ar  
 12   8  11  1   
 13   9  12  1   
 14   9  20  1   
 15   9  21  1   
 16  10  22  1   
 17  10  23  1   
 18  10  24  1   
 19  11  25  1   
 20  11  26  1   
 21  11  27  1   
 22  12  13  1   
 23  12  28  1   
 24  12  29  1   
 25  13  14  1   
 26  13  30  1   
 27  13  31  1   
 28  14  15  1   
 29  14  16  1   
 30  14  32  1   
 31  15  17  1   
 32  16  18  1   
 33  16  33  1   
 34  16  34  1   
 35  17  18  1   
 36  17  35  1   
 37  17  36  1   
 38  18  37  1   
 39  18  38  1   
@<TRIPOS>SUBSTRUCTURE
  1 ****   9 GROUP 4 **** **** 0

# MOE 2024.06 (io_trps.svl 2023.06)
