@<TRIPOS>MOLECULE
NONAME
55 57 1 0 0 
SMALL
USER_CHARGES


@<TRIPOS>ATOM
  1 O       -0.4870     0.2880    -0.4360 O.2   1 <1>  -0.5700 
  2 C       -1.5080     0.8530    -0.1180 C.2   1 <1>   0.5690 
  3 N       -2.6420     0.1490     0.1970 N.am  1 <1>  -0.6600 
  4 C       -1.5210     2.3720    -0.0810 C.3   1 <1>  -0.0990 
  5 C       -2.6580    -1.3480     0.2040 C.3   1 <1>   0.1400 
  6 C       -3.9900     0.7360     0.4730 C.3   1 <1>   0.1400 
  7 C       -0.1370     2.9890    -0.2940 C.3   1 <1>   0.1100 
  8 C       -3.7950    -1.8910    -0.6790 C.3   1 <1>   0.3440 
  9 C       -5.0640     0.0930    -0.4380 C.3   1 <1>   0.2000 
 10 N       -0.2380     4.4500    -0.2960 N.3   1 <1>  -0.6400 
 11 O       -5.0150    -1.3050    -0.3060 O.3   1 <1>  -0.5600 
 12 C       -3.8960    -3.4080    -0.5560 C.ar  1 <1>  -0.1430 
 13 C       -6.5220     0.5800    -0.1710 C.3   1 <1>   0.0000 
 14 O       -0.4690     4.8780     0.9780 O.3   1 <1>  -0.1800 
 15 C        1.0190     5.0740    -0.6720 C.3   1 <1>   0.1100 
 16 C       -3.1650    -4.2140    -1.4180 C.ar  1 <1>  -0.1500 
 17 C       -4.6930    -4.0080     0.4110 C.ar  1 <1>  -0.1500 
 18 C       -6.6340     2.1050    -0.3510 C.3   1 <1>  -0.2400 
 19 C       -7.0050     0.2210     1.2470 C.3   1 <1>  -0.2400 
 20 C       -7.4760    -0.0780    -1.1850 C.3   1 <1>  -0.2400 
 21 C       -0.1200     6.2170     1.0730 C.3   1 <1>   0.1200 
 22 C        0.9390     6.4290     0.0000 C.3   1 <1>  -0.1600 
 23 C       -3.2290    -5.5930    -1.3170 C.ar  1 <1>  -0.1500 
 24 C       -4.7580    -5.3860     0.5140 C.ar  1 <1>  -0.1500 
 25 C       -4.0250    -6.1800    -0.3500 C.ar  1 <1>  -0.1500 
 26 H       -2.1760     2.7270    -0.8530 H     1 <1>   0.0800 
 27 H       -1.8960     2.6850     0.8750 H     1 <1>   0.0800 
 28 H       -1.7230    -1.7430    -0.1510 H     1 <1>   0.0800 
 29 H       -2.7990    -1.6970     1.2110 H     1 <1>   0.0800 
 30 H       -4.2380     0.5600     1.5040 H     1 <1>   0.0800 
 31 H       -3.9800     1.7970     0.3120 H     1 <1>   0.0800 
 32 H        0.2520     2.6600    -1.2420 H     1 <1>   0.0800 
 33 H        0.5360     2.6660     0.4830 H     1 <1>   0.0800 
 34 H       -3.6070    -1.6320    -1.7070 H     1 <1>   0.0800 
 35 H       -4.8210     0.3280    -1.4600 H     1 <1>   0.0800 
 36 H        1.8470     4.5150    -0.2680 H     1 <1>   0.0800 
 37 H        1.1080     5.1490    -1.7420 H     1 <1>   0.0800 
 38 H       -2.5390    -3.7720    -2.1740 H     1 <1>   0.1500 
 39 H       -5.2690    -3.3980     1.0860 H     1 <1>   0.1500 
 40 H       -7.6600     2.4190    -0.2670 H     1 <1>   0.0800 
 41 H       -6.2730     2.3990    -1.3210 H     1 <1>   0.0800 
 42 H       -6.0710     2.6310     0.3990 H     1 <1>   0.0800 
 43 H       -8.0320     0.5090     1.3790 H     1 <1>   0.0800 
 44 H       -6.4210     0.7190     1.9980 H     1 <1>   0.0800 
 45 H       -6.9330    -0.8410     1.4100 H     1 <1>   0.0800 
 46 H       -8.4850     0.2660    -1.0430 H     1 <1>   0.0800 
 47 H       -7.4710    -1.1480    -1.0700 H     1 <1>   0.0800 
 48 H       -7.1770     0.1520    -2.1920 H     1 <1>   0.0800 
 49 H       -1.0020     6.8010     0.8760 H     1 <1>   0.0800 
 50 H        0.2490     6.4040     2.0650 H     1 <1>   0.0800 
 51 H        0.6160     7.1800    -0.6980 H     1 <1>   0.0800 
 52 H        1.8850     6.7180     0.4190 H     1 <1>   0.0800 
 53 H       -2.6590    -6.2090    -1.9900 H     1 <1>   0.1500 
 54 H       -5.3810    -5.8390     1.2650 H     1 <1>   0.1500 
 55 H       -4.0760    -7.2520    -0.2710 H     1 <1>   0.1500 
@<TRIPOS>BOND
  1   1   2  2   
  2   2   3  am  
  3   2   4  1   
  4   3   5  1   
  5   3   6  1   
  6   4   7  1   
  7   4  26  1   
  8   4  27  1   
  9   5   8  1   
 10   5  28  1   
 11   5  29  1   
 12   6   9  1   
 13   6  30  1   
 14   6  31  1   
 15   7  10  1   
 16   7  32  1   
 17   7  33  1   
 18   8  11  1   
 19   8  12  1   
 20   8  34  1   
 21   9  11  1   
 22   9  13  1   
 23   9  35  1   
 24  10  14  1   
 25  10  15  1   
 26  12  16  ar  
 27  12  17  ar  
 28  13  18  1   
 29  13  19  1   
 30  13  20  1   
 31  14  21  1   
 32  15  22  1   
 33  15  36  1   
 34  15  37  1   
 35  16  23  ar  
 36  16  38  1   
 37  17  24  ar  
 38  17  39  1   
 39  18  40  1   
 40  18  41  1   
 41  18  42  1   
 42  19  43  1   
 43  19  44  1   
 44  19  45  1   
 45  20  46  1   
 46  20  47  1   
 47  20  48  1   
 48  21  22  1   
 49  21  49  1   
 50  21  50  1   
 51  22  51  1   
 52  22  52  1   
 53  23  25  ar  
 54  23  53  1   
 55  24  25  ar  
 56  24  54  1   
 57  25  55  1   
@<TRIPOS>SUBSTRUCTURE
  1 ****   3 GROUP 4 **** **** 0

# MOE 2024.06 (io_trps.svl 2023.06)
