@<TRIPOS>MOLECULE
NONAME
53 55 1 0 0 
SMALL
USER_CHARGES


@<TRIPOS>ATOM
  1 O       -0.7220     0.0880    -0.4700 O.2   1 <1>  -0.5700 
  2 C       -1.3130     0.4230     0.5430 C.2   1 <1>   0.5440 
  3 N       -1.9540    -0.5560     1.2490 N.am  1 <1>  -0.7300 
  4 C       -1.3550     1.7980     1.0020 C.ar  1 <1>   0.0860 
  5 C       -1.9060    -2.0070     0.9500 C.3   1 <1>   0.2200 
  6 C       -0.2480     2.6610     0.8850 C.ar  1 <1>   0.1000 
  7 C       -2.5180     2.3000     1.5960 C.ar  1 <1>  -0.1500 
  8 C       -3.2280    -2.4980     0.3770 C.3   1 <1>  -0.0800 
  9 C       -1.8700    -2.7750     2.2640 C.3   1 <1>   0.1200 
 10 N        0.9280     2.2390     0.2790 N.pl3 1 <1>  -0.8690 
 11 C       -0.3310     3.9530     1.4010 C.ar  1 <1>  -0.1500 
 12 C       -2.5890     3.5890     2.0840 C.ar  1 <1>  -0.1500 
 13 C       -4.0720    -2.7580     1.6300 C.3   1 <1>   0.1200 
 14 C       -3.8960    -1.5770    -0.6600 C.3   1 <1>  -0.0170 
 15 O       -3.1900    -2.7800     2.7160 O.3   1 <1>  -0.5600 
 16 C        1.6360     3.0850    -0.7080 C.3   1 <1>   0.2090 
 17 C       -1.4860     4.4180     1.9920 C.ar  1 <1>  -0.1500 
 18 C       -5.1490    -2.2230    -1.2300 C.ar  1 <1>  -0.1430 
 19 C        1.7840     2.3280    -2.0390 C.3   1 <1>  -0.0800 
 20 C       -5.0850    -3.1570    -2.2440 C.ar  1 <1>  -0.1500 
 21 C       -6.4120    -1.9150    -0.7660 C.ar  1 <1>  -0.1500 
 22 C        2.6200     1.0460    -1.8940 C.3   1 <1>  -0.2400 
 23 C        2.4220     3.2380    -3.0970 C.3   1 <1>  -0.2400 
 24 C       -6.2520    -3.7260    -2.7280 C.ar  1 <1>   0.1600 
 25 C       -7.5170    -2.5420    -1.3180 C.ar  1 <1>   0.1600 
 26 N       -7.4670    -3.4420    -2.2870 N.ar  1 <1>  -0.6200 
 27 H       -2.4010    -0.3350     2.1410 H     1 <1>   0.3700 
 28 H       -1.0650    -2.2410     0.3180 H     1 <1>   0.0800 
 29 H       -3.3850     1.6690     1.6730 H     1 <1>   0.1500 
 30 H       -3.0470    -3.4510    -0.0900 H     1 <1>   0.0800 
 31 H       -1.2320    -2.3180     2.9990 H     1 <1>   0.0800 
 32 H       -1.5720    -3.7970     2.1020 H     1 <1>   0.0800 
 33 H        0.8420     1.2780    -0.0990 H     1 <1>   0.4000 
 34 H        0.5290     4.5940     1.3400 H     1 <1>   0.1500 
 35 H       -3.4950     3.9520     2.5390 H     1 <1>   0.1500 
 36 H       -4.5860    -3.7030     1.5760 H     1 <1>   0.0800 
 37 H       -4.7810    -1.9680     1.8040 H     1 <1>   0.0800 
 38 H       -3.2010    -1.3770    -1.4580 H     1 <1>   0.0800 
 39 H       -4.1520    -0.6320    -0.2150 H     1 <1>   0.0800 
 40 H        1.0820     3.9930    -0.8760 H     1 <1>   0.0800 
 41 H        2.6060     3.3430    -0.3190 H     1 <1>   0.0800 
 42 H       -1.5300     5.4210     2.3800 H     1 <1>   0.1500 
 43 H        0.7970     2.0610    -2.3810 H     1 <1>   0.0800 
 44 H       -4.1380    -3.4460    -2.6630 H     1 <1>   0.1500 
 45 H       -6.5490    -1.1930     0.0180 H     1 <1>   0.1500 
 46 H        3.5990     1.2730    -1.5110 H     1 <1>   0.0800 
 47 H        2.7260     0.5600    -2.8480 H     1 <1>   0.0800 
 48 H        2.1430     0.3530    -1.2240 H     1 <1>   0.0800 
 49 H        3.4130     3.5310    -2.7990 H     1 <1>   0.0800 
 50 H        1.8270     4.1230    -3.2370 H     1 <1>   0.0800 
 51 H        2.4860     2.7240    -4.0410 H     1 <1>   0.0800 
 52 H       -6.1820    -4.4520    -3.5190 H     1 <1>   0.1500 
 53 H       -8.4940    -2.2890    -0.9440 H     1 <1>   0.1500 
@<TRIPOS>BOND
  1   1   2  2   
  2   2   3  am  
  3   2   4  1   
  4   3   5  1   
  5   3  27  1   
  6   4   6  ar  
  7   4   7  ar  
  8   5   8  1   
  9   5   9  1   
 10   5  28  1   
 11   6  10  1   
 12   6  11  ar  
 13   7  12  ar  
 14   7  29  1   
 15   8  13  1   
 16   8  14  1   
 17   8  30  1   
 18   9  15  1   
 19   9  31  1   
 20   9  32  1   
 21  10  16  1   
 22  10  33  1   
 23  11  17  ar  
 24  11  34  1   
 25  12  17  ar  
 26  12  35  1   
 27  13  15  1   
 28  13  36  1   
 29  13  37  1   
 30  14  18  1   
 31  14  38  1   
 32  14  39  1   
 33  16  19  1   
 34  16  40  1   
 35  16  41  1   
 36  17  42  1   
 37  18  20  ar  
 38  18  21  ar  
 39  19  22  1   
 40  19  23  1   
 41  19  43  1   
 42  20  24  ar  
 43  20  44  1   
 44  21  25  ar  
 45  21  45  1   
 46  22  46  1   
 47  22  47  1   
 48  22  48  1   
 49  23  49  1   
 50  23  50  1   
 51  23  51  1   
 52  24  26  ar  
 53  24  52  1   
 54  25  26  ar  
 55  25  53  1   
@<TRIPOS>SUBSTRUCTURE
  1 ****   2 GROUP 4 **** **** 0

# MOE 2024.06 (io_trps.svl 2023.06)
