@<TRIPOS>MOLECULE
NONAME
51 53 1 0 0 
SMALL
USER_CHARGES


@<TRIPOS>ATOM
  1 F       -0.6960     0.0130     0.7750 F     1 <1>  -0.1900 
  2 C       -1.9240     0.4460     0.6370 C.ar  1 <1>   0.1900 
  3 C       -2.2200     1.8040     0.4780 C.ar  1 <1>   0.0830 
  4 C       -2.9190    -0.5120     0.6590 C.ar  1 <1>  -0.1500 
  5 O       -1.3320     2.8380     0.4400 O.3   1 <1>  -0.3630 
  6 C       -3.5520     2.1590     0.3420 C.ar  1 <1>  -0.1500 
  7 C       -4.2380    -0.1230     0.5220 C.ar  1 <1>  -0.1500 
  8 C        0.0650     2.6570     0.5100 C.3   1 <1>   0.0400 
  9 C       -4.5870     1.2210     0.3580 C.ar  1 <1>   0.0530 
 10 C       -5.9610     1.6420     0.2160 C.2   1 <1>   0.0870 
 11 O       -6.3110     2.8630     0.5320 O.3   1 <1>  -0.0190 
 12 C       -7.0920     1.0090    -0.1980 C.2   1 <1>  -0.0860 
 13 N       -7.5850     3.0940     0.3590 N.2   1 <1>  -0.4100 
 14 C       -8.0800     1.9940    -0.0920 C.2   1 <1>   0.3720 
 15 C       -7.2790    -0.3320    -0.6530 C.2   1 <1>   0.7160 
 16 N       -9.4330     1.8310    -0.4310 N.pl3 1 <1>  -0.8210 
 17 O       -6.6600    -0.7150    -1.6310 O.2   1 <1>  -0.5700 
 18 N       -8.1010    -1.2280    -0.0010 N.am  1 <1>  -0.6600 
 19 C      -10.3740     2.8210     0.1650 C.3   1 <1>   0.1290 
 20 C       -9.6850     1.6270    -1.8840 C.3   1 <1>   0.1290 
 21 C       -8.3610    -2.5830    -0.5790 C.3   1 <1>   0.1400 
 22 C       -8.8170    -0.8740     1.2610 C.3   1 <1>   0.1400 
 23 C       -9.7380    -3.1120    -0.1520 C.3   1 <1>  -0.0800 
 24 C       -9.0310    -2.1260     2.1170 C.3   1 <1>  -0.1600 
 25 C       -9.8500    -3.2060     1.3870 C.3   1 <1>  -0.1600 
 26 C      -10.0200    -4.4540    -0.8420 C.3   1 <1>   0.1200 
 27 O      -11.2940    -4.8850    -0.5160 O.3   1 <1>  -0.6800 
 28 H       -2.6600    -1.5490     0.7810 H     1 <1>   0.1500 
 29 H       -3.7860     3.2010     0.2170 H     1 <1>   0.1500 
 30 H       -5.0020    -0.8780     0.5450 H     1 <1>   0.1500 
 31 H        0.5320     3.6220     0.4300 H     1 <1>   0.0800 
 32 H        0.3790     2.0320    -0.3070 H     1 <1>   0.0800 
 33 H        0.3140     2.2100     1.4560 H     1 <1>   0.0800 
 34 H      -10.1820     2.9180     1.2200 H     1 <1>   0.0800 
 35 H      -11.3890     2.4930     0.0280 H     1 <1>   0.0800 
 36 H      -10.2430     3.7830    -0.3020 H     1 <1>   0.0800 
 37 H       -8.9870     0.9190    -2.2950 H     1 <1>   0.0800 
 38 H       -9.5800     2.5600    -2.4090 H     1 <1>   0.0800 
 39 H      -10.6810     1.2470    -2.0310 H     1 <1>   0.0800 
 40 H       -7.5900    -3.2550    -0.2470 H     1 <1>   0.0800 
 41 H       -8.3190    -2.5280    -1.6540 H     1 <1>   0.0800 
 42 H       -9.7690    -0.4350     1.0140 H     1 <1>   0.0800 
 43 H       -8.2490    -0.1520     1.8230 H     1 <1>   0.0800 
 44 H      -10.4660    -2.4050    -0.5160 H     1 <1>   0.0800 
 45 H       -9.5260    -1.8550     3.0330 H     1 <1>   0.0800 
 46 H       -8.0640    -2.5200     2.3790 H     1 <1>   0.0800 
 47 H       -9.5130    -4.1700     1.7280 H     1 <1>   0.0800 
 48 H      -10.8870    -3.1070     1.6590 H     1 <1>   0.0800 
 49 H       -9.3180    -5.2080    -0.5300 H     1 <1>   0.0800 
 50 H       -9.9750    -4.3500    -1.9130 H     1 <1>   0.0800 
 51 H      -11.3900    -4.9640     0.4530 H     1 <1>   0.4000 
@<TRIPOS>BOND
  1   1   2  1   
  2   2   3  ar  
  3   2   4  ar  
  4   3   5  1   
  5   3   6  ar  
  6   4   7  ar  
  7   4  28  1   
  8   5   8  1   
  9   6   9  ar  
 10   6  29  1   
 11   7   9  ar  
 12   7  30  1   
 13   8  31  1   
 14   8  32  1   
 15   8  33  1   
 16   9  10  1   
 17  10  11  1   
 18  10  12  2   
 19  11  13  1   
 20  12  14  1   
 21  12  15  1   
 22  13  14  2   
 23  14  16  1   
 24  15  17  2   
 25  15  18  am  
 26  16  19  1   
 27  16  20  1   
 28  18  21  1   
 29  18  22  1   
 30  19  34  1   
 31  19  35  1   
 32  19  36  1   
 33  20  37  1   
 34  20  38  1   
 35  20  39  1   
 36  21  23  1   
 37  21  40  1   
 38  21  41  1   
 39  22  24  1   
 40  22  42  1   
 41  22  43  1   
 42  23  25  1   
 43  23  26  1   
 44  23  44  1   
 45  24  25  1   
 46  24  45  1   
 47  24  46  1   
 48  25  47  1   
 49  25  48  1   
 50  26  27  1   
 51  26  49  1   
 52  26  50  1   
 53  27  51  1   
@<TRIPOS>SUBSTRUCTURE
  1 ****  12 GROUP 4 **** **** 0

# MOE 2024.06 (io_trps.svl 2023.06)
