@<TRIPOS>MOLECULE
NONAME
52 55 1 0 0 
SMALL
USER_CHARGES


@<TRIPOS>ATOM
  1 CL      -0.8750    -4.1700     2.3160 Cl    1 <1>  -0.1770 
  2 C       -2.2980    -3.6740     1.4380 C.ar  1 <1>   0.1770 
  3 C       -3.4020    -3.2200     2.1320 C.ar  1 <1>  -0.1500 
  4 C       -2.3010    -3.7380     0.0590 C.ar  1 <1>  -0.1500 
  5 C       -4.5280    -2.8280     1.4280 C.ar  1 <1>  -0.1500 
  6 C       -3.4310    -3.3450    -0.6370 C.ar  1 <1>  -0.1500 
  7 C       -4.5620    -2.8910     0.0380 C.ar  1 <1>  -0.1080 
  8 C       -5.8610    -2.4680    -0.6740 C.3   1 <1>   0.1610 
  9 C       -7.1150    -3.0900    -0.0180 C.2   1 <1>   0.5770 
 10 C       -5.9160    -0.9140    -0.8440 C.3   1 <1>   0.0000 
 11 C       -5.9250    -2.5220    -2.2390 C.3   1 <1>   0.0000 
 12 O       -7.8500    -2.3580     0.6110 O.2   1 <1>  -0.5700 
 13 N       -7.3760    -4.4400    -0.0980 N.am  1 <1>  -0.6600 
 14 C       -6.6470    -1.1520    -2.1890 C.3   1 <1>   0.0000 
 15 C       -6.5040    -5.4760    -0.7550 C.3   1 <1>   0.1400 
 16 C       -8.4860    -5.0550     0.6740 C.3   1 <1>   0.1400 
 17 C       -6.2510    -6.7240     0.1410 C.3   1 <1>  -0.1060 
 18 C       -7.8960    -5.7930     1.8820 C.3   1 <1>  -0.1600 
 19 C       -7.2210    -7.8670    -0.1960 C.2   1 <1>   0.9060 
 20 C       -6.4690    -6.3030     1.6160 C.3   1 <1>   0.2000 
 21 C       -4.7910    -7.2150    -0.0600 C.3   1 <1>  -0.0650 
 22 O       -7.2900    -8.8330     0.5810 O.co2 1 <1>  -0.9000 
 23 O       -7.9230    -7.8220    -1.2130 O.co2 1 <1>  -0.9000 
 24 O       -6.2340    -7.3660     2.4650 O.3   1 <1>  -0.6800 
 25 C       -4.4640    -7.6360    -1.5030 C.3   1 <1>  -0.1950 
 26 C       -3.0390    -7.7740    -1.9330 C.3   1 <1>  -0.2000 
 27 C       -3.9010    -6.6920    -2.5160 C.3   1 <1>  -0.2000 
 28 H       -3.3810    -3.1780     3.2050 H     1 <1>   0.1500 
 29 H       -1.4300    -4.0950    -0.4590 H     1 <1>   0.1500 
 30 H       -5.3870    -2.4760     1.9750 H     1 <1>   0.1500 
 31 H       -3.4070    -3.4070    -1.7080 H     1 <1>   0.1500 
 32 H       -6.4990    -0.3800    -0.1160 H     1 <1>   0.0000 
 33 H       -4.9420    -0.4770    -0.9900 H     1 <1>   0.0000 
 34 H       -4.9800    -2.4280    -2.7420 H     1 <1>   0.0000 
 35 H       -6.5390    -3.3070    -2.6430 H     1 <1>   0.0000 
 36 H       -6.3510    -0.4750    -2.9710 H     1 <1>   0.0000 
 37 H       -7.7140    -1.2420    -2.0790 H     1 <1>   0.0000 
 38 H       -6.9440    -5.7620    -1.6950 H     1 <1>   0.0800 
 39 H       -5.5580    -5.0350    -0.9890 H     1 <1>   0.0800 
 40 H       -9.1990    -4.3160     0.9970 H     1 <1>   0.0800 
 41 H       -9.0030    -5.7530     0.0350 H     1 <1>   0.0800 
 42 H       -8.5490    -6.6150     2.1190 H     1 <1>   0.0800 
 43 H       -7.8740    -5.1270     2.7240 H     1 <1>   0.0800 
 44 H       -5.7660    -5.5280     1.8720 H     1 <1>   0.0800 
 45 H       -4.1050    -6.4500     0.2590 H     1 <1>   0.0800 
 46 H       -4.6240    -8.0730     0.5690 H     1 <1>   0.0800 
 47 H       -6.6380    -8.1630     2.0060 H     1 <1>   0.4000 
 48 H       -5.1440    -8.3930    -1.8650 H     1 <1>   0.1000 
 49 H       -2.2620    -7.5040    -1.2400 H     1 <1>   0.1000 
 50 H       -2.7740    -8.6200    -2.5430 H     1 <1>   0.1000 
 51 H       -4.2460    -6.7830    -3.5320 H     1 <1>   0.1000 
 52 H       -3.6920    -5.6770    -2.2400 H     1 <1>   0.1000 
@<TRIPOS>BOND
  1   1   2  1   
  2   2   3  ar  
  3   2   4  ar  
  4   3   5  ar  
  5   3  28  1   
  6   4   6  ar  
  7   4  29  1   
  8   5   7  ar  
  9   5  30  1   
 10   6   7  ar  
 11   6  31  1   
 12   7   8  1   
 13   8   9  1   
 14   8  10  1   
 15   8  11  1   
 16   9  12  2   
 17   9  13  am  
 18  10  14  1   
 19  10  32  1   
 20  10  33  1   
 21  11  14  1   
 22  11  34  1   
 23  11  35  1   
 24  13  15  1   
 25  13  16  1   
 26  14  36  1   
 27  14  37  1   
 28  15  17  1   
 29  15  38  1   
 30  15  39  1   
 31  16  18  1   
 32  16  40  1   
 33  16  41  1   
 34  17  19  1   
 35  17  20  1   
 36  17  21  1   
 37  18  20  1   
 38  18  42  1   
 39  18  43  1   
 40  19  22  ar  
 41  19  23  ar  
 42  20  24  1   
 43  20  44  1   
 44  21  25  1   
 45  21  45  1   
 46  21  46  1   
 47  24  47  1   
 48  25  26  1   
 49  25  27  1   
 50  25  48  1   
 51  26  27  1   
 52  26  49  1   
 53  26  50  1   
 54  27  51  1   
 55  27  52  1   
@<TRIPOS>SUBSTRUCTURE
  1 ****  15 GROUP 4 **** **** 0

# MOE 2024.06 (io_trps.svl 2023.06)
