@<TRIPOS>MOLECULE
NONAME
37 39 1 0 0 
SMALL
USER_CHARGES


@<TRIPOS>ATOM
  1 O       -0.4680     0.1340     1.2050 O.2   1 <1>  -0.5700 
  2 C       -1.4450     0.7940     0.8970 C.2   1 <1>   0.5440 
  3 N       -2.6640     0.1840     0.7730 N.am  1 <1>  -0.6600 
  4 C       -1.3060     2.2210     0.6760 C.ar  1 <1>   0.0860 
  5 C       -3.9020     0.8480     0.2750 C.3   1 <1>   0.2350 
  6 C       -2.8730    -1.2890     0.8420 C.3   1 <1>   0.2350 
  7 C       -0.9680     2.7590    -0.5740 C.ar  1 <1>  -0.1440 
  8 C       -1.5230     3.0930     1.7410 C.ar  1 <1>  -0.1500 
  9 C       -4.6750    -0.2400    -0.4480 C.3   1 <1>  -0.2420 
 10 C       -4.0480    -1.5660    -0.0830 C.3   1 <1>  -0.2420 
 11 C       -0.8580     4.1370    -0.7190 C.ar  1 <1>  -0.1500 
 12 C       -0.7420     1.7880    -1.7410 C.3   1 <1>  -0.0170 
 13 C       -1.4120     4.4600     1.5880 C.ar  1 <1>  -0.1500 
 14 C       -6.1280     0.1930    -0.6570 C.2   1 <1>   0.9470 
 15 C       -4.0170    -1.0850    -1.5110 C.3   1 <1>  -0.2000 
 16 C       -4.6770    -2.9270     0.2270 C.2   1 <1>   0.9470 
 17 C       -1.0780     4.9830     0.3540 C.ar  1 <1>  -0.1500 
 18 C       -0.3360     2.4270    -3.0740 C.3   1 <1>  -0.2400 
 19 O       -6.5890     0.2480    -1.8060 O.co2 1 <1>  -0.9000 
 20 O       -6.7610     0.6490     0.3060 O.co2 1 <1>  -0.9000 
 21 O       -4.7100    -3.7980    -0.6550 O.co2 1 <1>  -0.9000 
 22 O       -4.9990    -3.1900     1.3940 O.co2 1 <1>  -0.9000 
 23 H       -4.4710     1.2090     1.1140 H     1 <1>   0.0800 
 24 H       -3.6840     1.6610    -0.3940 H     1 <1>   0.0800 
 25 H       -1.9980    -1.8260     0.5230 H     1 <1>   0.0800 
 26 H       -3.1210    -1.5650     1.8530 H     1 <1>   0.0800 
 27 H       -1.7860     2.6770     2.6980 H     1 <1>   0.1500 
 28 H       -0.6020     4.5800    -1.6630 H     1 <1>   0.1500 
 29 H        0.0220     1.0840    -1.4560 H     1 <1>   0.0800 
 30 H       -1.6480     1.2280    -1.8990 H     1 <1>   0.0800 
 31 H       -1.5850     5.1150     2.4240 H     1 <1>   0.1500 
 32 H       -3.0830    -0.7790    -1.9410 H     1 <1>   0.1000 
 33 H       -4.6540    -1.5860    -2.2210 H     1 <1>   0.1000 
 34 H       -0.9900     6.0480     0.2260 H     1 <1>   0.1500 
 35 H        0.5860     2.9700    -2.9660 H     1 <1>   0.0800 
 36 H       -1.1080     3.0900    -3.4210 H     1 <1>   0.0800 
 37 H       -0.1940     1.6580    -3.8130 H     1 <1>   0.0800 
@<TRIPOS>BOND
  1   1   2  2   
  2   2   3  am  
  3   2   4  1   
  4   3   5  1   
  5   3   6  1   
  6   4   7  ar  
  7   4   8  ar  
  8   5   9  1   
  9   5  23  1   
 10   5  24  1   
 11   6  10  1   
 12   6  25  1   
 13   6  26  1   
 14   7  11  ar  
 15   7  12  1   
 16   8  13  ar  
 17   8  27  1   
 18   9  10  1   
 19   9  14  1   
 20   9  15  1   
 21  10  15  1   
 22  10  16  1   
 23  11  17  ar  
 24  11  28  1   
 25  12  18  1   
 26  12  29  1   
 27  12  30  1   
 28  13  17  ar  
 29  13  31  1   
 30  14  19  ar  
 31  14  20  ar  
 32  15  32  1   
 33  15  33  1   
 34  16  21  ar  
 35  16  22  ar  
 36  17  34  1   
 37  18  35  1   
 38  18  36  1   
 39  18  37  1   
@<TRIPOS>SUBSTRUCTURE
  1 ****   5 GROUP 4 **** **** 0

# MOE 2024.06 (io_trps.svl 2023.06)
