@<TRIPOS>MOLECULE
NONAME
45 47 1 0 0 
SMALL
USER_CHARGES


@<TRIPOS>ATOM
  1 O        0.1770     0.7640     1.2750 O.2   1 <1>  -0.5700 
  2 C        0.0180     1.8770     0.7940 C.2   1 <1>   0.7160 
  3 N       -1.2710     2.3900     0.7890 N.am  1 <1>  -0.6600 
  4 C        1.1710     2.5900     0.2370 C.2   1 <1>   0.1410 
  5 C       -2.3620     1.7250     1.5630 C.3   1 <1>   0.1400 
  6 C       -1.6420     3.6160     0.0240 C.3   1 <1>   0.1400 
  7 N        1.3290     3.9520     0.2960 N.2   1 <1>  -0.5650 
  8 C        2.2690     2.0650    -0.3970 C.2   1 <1>  -0.3320 
  9 C       -3.4090     2.7510     2.0040 C.3   1 <1>  -0.1600 
 10 C       -3.1070     3.5370    -0.4050 C.3   1 <1>  -0.1600 
 11 C        2.4630     4.1900    -0.2670 C.2   1 <1>   0.0360 
 12 N        3.0840     3.0810    -0.7090 N.pl3 1 <1>   0.0330 
 13 C        2.6140     0.6230    -0.7370 C.3   1 <1>  -0.0600 
 14 C       -4.0570     3.4990     0.8150 C.3   1 <1>   0.2800 
 15 O       -4.1650     4.8430     1.2340 O.3   1 <1>  -0.5600 
 16 C       -5.4550     2.8860     0.4710 C.3   1 <1>   0.2000 
 17 C       -5.4050     5.4890     1.2000 C.3   1 <1>   0.1200 
 18 O       -5.3370     1.5830    -0.0400 O.3   1 <1>  -0.6800 
 19 C       -6.3370     3.8080    -0.4320 C.3   1 <1>   0.2800 
 20 C       -6.0320     5.2940    -0.1800 C.3   1 <1>  -0.1600 
 21 O       -7.6540     3.6100    -0.0650 O.3   1 <1>  -0.6800 
 22 C       -6.2820     3.4960    -1.9350 C.3   1 <1>  -0.2400 
 23 H       -2.8210     0.9690     0.9470 H     1 <1>   0.0800 
 24 H       -1.9490     1.2420     2.4320 H     1 <1>   0.0800 
 25 H       -1.4830     4.4830     0.6440 H     1 <1>   0.0800 
 26 H       -1.0200     3.7040    -0.8500 H     1 <1>   0.0800 
 27 H       -2.9180     3.4520     2.6570 H     1 <1>   0.0800 
 28 H       -4.1600     2.2460     2.5830 H     1 <1>   0.0800 
 29 H       -3.2150     2.6530    -1.0050 H     1 <1>   0.0800 
 30 H       -3.3370     4.3810    -1.0270 H     1 <1>   0.0800 
 31 H        2.8910     5.1700    -0.3820 H     1 <1>   0.1500 
 32 H        3.9920     3.0350    -1.1790 H     1 <1>   0.2700 
 33 H        1.7940    -0.0340    -0.5090 H     1 <1>   0.0800 
 34 H        3.4690     0.3040    -0.1670 H     1 <1>   0.0800 
 35 H        2.8360     0.5290    -1.7840 H     1 <1>   0.0800 
 36 H       -5.9740     2.7770     1.4070 H     1 <1>   0.0800 
 37 H       -6.0290     5.0860     1.9800 H     1 <1>   0.0800 
 38 H       -5.2320     6.5330     1.3960 H     1 <1>   0.0800 
 39 H       -5.0920     1.6150    -0.9830 H     1 <1>   0.4000 
 40 H       -5.3330     5.6650    -0.9080 H     1 <1>   0.0800 
 41 H       -6.9240     5.8890    -0.2640 H     1 <1>   0.0800 
 42 H       -8.2480     4.0270    -0.7150 H     1 <1>   0.4000 
 43 H       -5.2740     3.5690    -2.2980 H     1 <1>   0.0800 
 44 H       -6.8830     4.1960    -2.4880 H     1 <1>   0.0800 
 45 H       -6.6430     2.5010    -2.1300 H     1 <1>   0.0800 
@<TRIPOS>BOND
  1   1   2  2   
  2   2   3  am  
  3   2   4  1   
  4   3   5  1   
  5   3   6  1   
  6   4   7  1   
  7   4   8  2   
  8   5   9  1   
  9   5  23  1   
 10   5  24  1   
 11   6  10  1   
 12   6  25  1   
 13   6  26  1   
 14   7  11  2   
 15   8  12  1   
 16   8  13  1   
 17   9  14  1   
 18   9  27  1   
 19   9  28  1   
 20  10  14  1   
 21  10  29  1   
 22  10  30  1   
 23  11  12  1   
 24  11  31  1   
 25  12  32  1   
 26  13  33  1   
 27  13  34  1   
 28  13  35  1   
 29  14  15  1   
 30  14  16  1   
 31  15  17  1   
 32  16  18  1   
 33  16  19  1   
 34  16  36  1   
 35  17  20  1   
 36  17  37  1   
 37  17  38  1   
 38  18  39  1   
 39  19  20  1   
 40  19  21  1   
 41  19  22  1   
 42  20  40  1   
 43  20  41  1   
 44  21  42  1   
 45  22  43  1   
 46  22  44  1   
 47  22  45  1   
@<TRIPOS>SUBSTRUCTURE
  1 ****   6 GROUP 4 **** **** 0

# MOE 2024.06 (io_trps.svl 2023.06)
