@<TRIPOS>MOLECULE
NONAME
41 43 1 0 0 
SMALL
USER_CHARGES


@<TRIPOS>ATOM
  1 S       -0.6760    -0.0780    -0.4360 S.3   1 <1>  -0.0800 
  2 C        0.9980    -0.3060     0.0220 C.2   1 <1>   0.1980 
  3 C       -0.8610    -1.8040    -0.5190 C.2   1 <1>  -0.1100 
  4 N        1.3560    -1.5270     0.1000 N.2   1 <1>  -0.5650 
  5 C        1.8090     0.9560     0.2670 C.3   1 <1>   0.0200 
  6 C        0.3070    -2.3850    -0.2030 C.2   1 <1>   0.0460 
  7 C        3.2630     0.6710     0.6670 C.3   1 <1>  -0.2400 
  8 C        0.5980    -3.8810    -0.1540 C.3   1 <1>   0.2910 
  9 N       -0.6320    -4.7050    -0.1360 N.3   1 <1>  -0.8100 
 10 C       -0.3410    -6.0920    -0.5420 C.3   1 <1>   0.2900 
 11 C       -1.2950    -4.6430     1.1790 C.3   1 <1>   0.0300 
 12 C       -1.6040    -6.9270    -0.6660 C.2   1 <1>  -0.0400 
 13 O       -2.4860    -6.6510    -1.5870 O.3   1 <1>  -0.0190 
 14 C       -2.0530    -7.9850     0.0220 C.2   1 <1>  -0.1500 
 15 N       -3.4990    -7.4650    -1.5520 N.2   1 <1>  -0.4100 
 16 C       -3.2770    -8.3000    -0.5820 C.2   1 <1>   0.2350 
 17 C       -4.1650    -9.3790    -0.1910 C.ar  1 <1>   0.0540 
 18 C       -3.7050   -10.4930     0.5140 C.ar  1 <1>  -0.1500 
 19 C       -5.5220    -9.3390    -0.5090 C.ar  1 <1>  -0.1500 
 20 C       -4.5620   -11.5120     0.8910 C.ar  1 <1>  -0.1500 
 21 C       -6.3830   -10.3550    -0.1370 C.ar  1 <1>  -0.1500 
 22 C       -5.9040   -11.4450     0.5660 C.ar  1 <1>  -0.1500 
 23 H       -1.8160    -2.2110    -0.7950 H     1 <1>   0.1500 
 24 H        1.3330     1.5230     1.0460 H     1 <1>   0.0800 
 25 H        1.7990     1.5480    -0.6300 H     1 <1>   0.0800 
 26 H        3.2890     0.0890     1.5720 H     1 <1>   0.0800 
 27 H        3.7940     1.5910     0.8290 H     1 <1>   0.0800 
 28 H        3.7570     0.1150    -0.1110 H     1 <1>   0.0800 
 29 H        1.1920    -4.0950     0.7180 H     1 <1>   0.0800 
 30 H        1.1870    -4.1180    -1.0230 H     1 <1>   0.0800 
 31 H        0.3200    -6.5470     0.1760 H     1 <1>   0.0800 
 32 H        0.1510    -6.0870    -1.5000 H     1 <1>   0.0800 
 33 H       -1.4710    -3.6190     1.4620 H     1 <1>   0.0800 
 34 H       -0.6860    -5.1110     1.9340 H     1 <1>   0.0800 
 35 H       -2.2490    -5.1400     1.1370 H     1 <1>   0.0800 
 36 H       -1.6060    -8.4930     0.8540 H     1 <1>   0.1500 
 37 H       -2.6650   -10.5720     0.7690 H     1 <1>   0.1500 
 38 H       -5.9060    -8.4960    -1.0580 H     1 <1>   0.1500 
 39 H       -4.1840   -12.3610     1.4350 H     1 <1>   0.1500 
 40 H       -7.4270   -10.2970    -0.3960 H     1 <1>   0.1500 
 41 H       -6.5720   -12.2370     0.8570 H     1 <1>   0.1500 
@<TRIPOS>BOND
  1   1   2  1   
  2   1   3  1   
  3   2   4  2   
  4   2   5  1   
  5   3   6  2   
  6   3  23  1   
  7   4   6  1   
  8   5   7  1   
  9   5  24  1   
 10   5  25  1   
 11   6   8  1   
 12   7  26  1   
 13   7  27  1   
 14   7  28  1   
 15   8   9  1   
 16   8  29  1   
 17   8  30  1   
 18   9  10  1   
 19   9  11  1   
 20  10  12  1   
 21  10  31  1   
 22  10  32  1   
 23  11  33  1   
 24  11  34  1   
 25  11  35  1   
 26  12  13  1   
 27  12  14  2   
 28  13  15  1   
 29  14  16  1   
 30  14  36  1   
 31  15  16  2   
 32  16  17  1   
 33  17  18  ar  
 34  17  19  ar  
 35  18  20  ar  
 36  18  37  1   
 37  19  21  ar  
 38  19  38  1   
 39  20  22  ar  
 40  20  39  1   
 41  21  22  ar  
 42  21  40  1   
 43  22  41  1   
@<TRIPOS>SUBSTRUCTURE
  1 ****  12 GROUP 4 **** **** 0

# MOE 2024.06 (io_trps.svl 2023.06)
