@<TRIPOS>MOLECULE
NONAME
58 61 1 0 0 
SMALL
USER_CHARGES


@<TRIPOS>ATOM
  1 O        0.1880     0.8080    -0.0920 O.2   1 <1>  -0.5700 
  2 C       -0.4960     1.7980     0.0940 C.2   1 <1>   0.7150 
  3 N       -1.8460     1.7380    -0.1850 N.am  1 <1>  -0.6600 
  4 C        0.1180     2.9810     0.6250 C.2   1 <1>  -0.2370 
  5 C       -2.8480     2.6970     0.3840 C.3   1 <1>   0.1400 
  6 C       -2.4570     0.5220    -0.8000 C.3   1 <1>   0.1400 
  7 N        0.9890     2.9750     1.6650 N.pl3 1 <1>   0.3140 
  8 C        0.0070     4.2910     0.2690 C.2   1 <1>  -0.1500 
  9 C       -3.8740     3.1370    -0.6770 C.3   1 <1>   0.1440 
 10 C       -3.5030     0.9140    -1.8520 C.3   1 <1>  -0.1600 
 11 N        1.3980     4.2080     1.9960 N.2   1 <1>  -0.7070 
 12 C        1.4740     1.8030     2.4110 C.3   1 <1>   0.0160 
 13 C        0.8040     4.9960     1.1510 C.2   1 <1>   0.1080 
 14 C       -4.8640     4.0740    -0.0130 C.ar  1 <1>   0.1660 
 15 C       -4.5490     1.8910    -1.2880 C.3   1 <1>  -0.1600 
 16 C       -3.2430     4.0430    -1.7700 C.3   1 <1>  -0.1600 
 17 C        0.9820     6.5090     1.1710 C.3   1 <1>   0.1010 
 18 N       -5.7910     3.7160     0.8400 N.ar  1 <1>  -0.6200 
 19 C       -4.6630     5.3670    -0.3910 C.ar  1 <1>  -0.1430 
 20 C       -3.5180     5.5010    -1.3620 C.3   1 <1>  -0.0170 
 21 C       -0.2960     7.1900     1.6750 C.3   1 <1>  -0.2400 
 22 C        1.3700     7.0450    -0.2120 C.3   1 <1>  -0.2400 
 23 C       -6.5470     4.7110     1.3120 C.ar  1 <1>   0.7200 
 24 C       -5.4860     6.3230     0.1460 C.ar  1 <1>   0.1600 
 25 N       -6.4330     6.0060     0.9980 N.ar  1 <1>  -0.6200 
 26 N       -7.5380     4.3690     2.2110 N.pl3 1 <1>  -0.8380 
 27 C       -8.6260     5.3160     2.5830 C.3   1 <1>   0.1290 
 28 C       -7.6020     3.0260     2.8500 C.3   1 <1>   0.1290 
 29 H       -2.3720     3.5630     0.8050 H     1 <1>   0.0800 
 30 H       -3.3720     2.2050     1.1850 H     1 <1>   0.0800 
 31 H       -2.9230    -0.0610    -0.0240 H     1 <1>   0.0800 
 32 H       -1.7010    -0.0870    -1.2660 H     1 <1>   0.0800 
 33 H       -0.5730     4.7140    -0.5260 H     1 <1>   0.1500 
 34 H       -3.9960     0.0250    -2.2030 H     1 <1>   0.0800 
 35 H       -2.9980     1.3550    -2.6940 H     1 <1>   0.0800 
 36 H        0.6350     1.2280     2.7550 H     1 <1>   0.0800 
 37 H        2.0560     2.1340     3.2510 H     1 <1>   0.0800 
 38 H        2.0850     1.2030     1.7630 H     1 <1>   0.0800 
 39 H       -5.2410     2.1830    -2.0570 H     1 <1>   0.0800 
 40 H       -5.1150     1.3910    -0.5200 H     1 <1>   0.0800 
 41 H       -3.7420     3.8660    -2.7070 H     1 <1>   0.0800 
 42 H       -2.1960     3.8490    -1.9130 H     1 <1>   0.0800 
 43 H        1.7810     6.7350     1.8570 H     1 <1>   0.0800 
 44 H       -3.7850     6.1050    -2.2120 H     1 <1>   0.0800 
 45 H       -2.6680     5.9280    -0.8610 H     1 <1>   0.0800 
 46 H       -1.1190     6.9890     1.0140 H     1 <1>   0.0800 
 47 H       -0.1520     8.2530     1.7430 H     1 <1>   0.0800 
 48 H       -0.5420     6.8140     2.6520 H     1 <1>   0.0800 
 49 H        0.5820     6.8770    -0.9240 H     1 <1>   0.0800 
 50 H        2.2580     6.5450    -0.5570 H     1 <1>   0.0800 
 51 H        1.5700     8.1000    -0.1590 H     1 <1>   0.0800 
 52 H       -5.3680     7.3590    -0.1220 H     1 <1>   0.1500 
 53 H       -8.8320     5.9930     1.7720 H     1 <1>   0.0800 
 54 H       -8.3270     5.8850     3.4460 H     1 <1>   0.0800 
 55 H       -9.5280     4.7750     2.8080 H     1 <1>   0.0800 
 56 H       -6.6130     2.6160     2.9630 H     1 <1>   0.0800 
 57 H       -8.1880     2.3650     2.2370 H     1 <1>   0.0800 
 58 H       -8.0500     3.1010     3.8250 H     1 <1>   0.0800 
@<TRIPOS>BOND
  1   1   2  2   
  2   2   3  am  
  3   2   4  1   
  4   3   5  1   
  5   3   6  1   
  6   4   7  1   
  7   4   8  2   
  8   5   9  1   
  9   5  29  1   
 10   5  30  1   
 11   6  10  1   
 12   6  31  1   
 13   6  32  1   
 14   7  11  1   
 15   7  12  1   
 16   8  13  1   
 17   8  33  1   
 18   9  14  1   
 19   9  15  1   
 20   9  16  1   
 21  10  15  1   
 22  10  34  1   
 23  10  35  1   
 24  11  13  2   
 25  12  36  1   
 26  12  37  1   
 27  12  38  1   
 28  13  17  1   
 29  14  18  ar  
 30  14  19  ar  
 31  15  39  1   
 32  15  40  1   
 33  16  20  1   
 34  16  41  1   
 35  16  42  1   
 36  17  21  1   
 37  17  22  1   
 38  17  43  1   
 39  18  23  ar  
 40  19  20  1   
 41  19  24  ar  
 42  20  44  1   
 43  20  45  1   
 44  21  46  1   
 45  21  47  1   
 46  21  48  1   
 47  22  49  1   
 48  22  50  1   
 49  22  51  1   
 50  23  25  ar  
 51  23  26  1   
 52  24  25  ar  
 53  24  52  1   
 54  26  27  1   
 55  26  28  1   
 56  27  53  1   
 57  27  54  1   
 58  27  55  1   
 59  28  56  1   
 60  28  57  1   
 61  28  58  1   
@<TRIPOS>SUBSTRUCTURE
  1 ****   5 GROUP 4 **** **** 0

# MOE 2024.06 (io_trps.svl 2023.06)
