@<TRIPOS>MOLECULE
NONAME
44 46 1 0 0 
SMALL
USER_CHARGES


@<TRIPOS>ATOM
  1 S        0.4840    -0.2920     1.1200 S.3   1 <1>  -0.0800 
  2 C        0.9790    -0.9870    -0.4130 C.2   1 <1>  -0.0450 
  3 C        0.9680     1.2880     0.5690 C.2   1 <1>   0.1980 
  4 C        1.4530     0.0350    -1.1680 C.2   1 <1>   0.0460 
  5 C        0.8170    -2.4060    -0.6100 C.2   1 <1>   0.7150 
  6 N        1.4410     1.2970    -0.6120 N.2   1 <1>  -0.5650 
  7 C        0.7730     2.4410     1.5410 C.3   1 <1>   0.0200 
  8 C        2.0070    -0.0360    -2.5780 C.3   1 <1>  -0.0590 
  9 O        1.0980    -2.9430    -1.6640 O.2   1 <1>  -0.5700 
 10 N        0.3270    -3.1880     0.3920 N.am  1 <1>  -0.7300 
 11 C        1.2260     3.7920     0.9700 C.3   1 <1>  -0.2400 
 12 C        0.0930    -4.6470     0.3180 C.3   1 <1>   0.2200 
 13 C       -1.3910    -4.9010     0.1150 C.3   1 <1>  -0.0800 
 14 C        0.3300    -5.2720     1.6880 C.3   1 <1>   0.1200 
 15 C       -1.9300    -4.8360     1.5480 C.3   1 <1>   0.1200 
 16 C       -1.6440    -6.2700    -0.5440 C.3   1 <1>  -0.0170 
 17 O       -0.8540    -5.0920     2.4050 O.3   1 <1>  -0.5600 
 18 C       -3.1290    -6.5110    -0.7740 C.ar  1 <1>  -0.1430 
 19 C       -3.8200    -5.8680    -1.7810 C.ar  1 <1>  -0.1500 
 20 C       -3.8620    -7.3800     0.0090 C.ar  1 <1>  -0.1500 
 21 C       -5.1720    -6.1150    -1.9500 C.ar  1 <1>   0.1600 
 22 C       -5.2120    -7.5560    -0.2440 C.ar  1 <1>   0.1600 
 23 N       -5.8860    -6.9430    -1.2030 N.ar  1 <1>  -0.6200 
 24 H       -0.2690     2.4990     1.7990 H     1 <1>   0.0800 
 25 H        1.3300     2.2320     2.4360 H     1 <1>   0.0800 
 26 H        2.0100    -1.0390    -2.9580 H     1 <1>   0.0800 
 27 H        3.0150     0.3360    -2.5850 H     1 <1>   0.0800 
 28 H        1.4100     0.5760    -3.2280 H     1 <1>   0.0800 
 29 H        0.0500    -2.7500     1.2720 H     1 <1>   0.3700 
 30 H        0.6680     4.0220     0.0790 H     1 <1>   0.0800 
 31 H        2.2710     3.7540     0.7180 H     1 <1>   0.0800 
 32 H        1.0690     4.5740     1.6900 H     1 <1>   0.0800 
 33 H        0.7110    -5.0890    -0.4450 H     1 <1>   0.0800 
 34 H       -1.8360    -4.1370    -0.4990 H     1 <1>   0.0800 
 35 H        1.1480    -4.8160     2.2170 H     1 <1>   0.0800 
 36 H        0.4990    -6.3310     1.5990 H     1 <1>   0.0800 
 37 H       -2.7090    -5.5520     1.7420 H     1 <1>   0.0800 
 38 H       -2.2930    -3.8480     1.7720 H     1 <1>   0.0800 
 39 H       -1.2410    -7.0600     0.0660 H     1 <1>   0.0800 
 40 H       -1.1410    -6.3060    -1.4950 H     1 <1>   0.0800 
 41 H       -3.3200    -5.1790    -2.4370 H     1 <1>   0.1500 
 42 H       -3.3980    -7.9230     0.8130 H     1 <1>   0.1500 
 43 H       -5.6940    -5.6050    -2.7410 H     1 <1>   0.1500 
 44 H       -5.7680    -8.2380     0.3770 H     1 <1>   0.1500 
@<TRIPOS>BOND
  1   1   2  1   
  2   1   3  1   
  3   2   4  2   
  4   2   5  1   
  5   3   6  2   
  6   3   7  1   
  7   4   6  1   
  8   4   8  1   
  9   5   9  2   
 10   5  10  am  
 11   7  11  1   
 12   7  24  1   
 13   7  25  1   
 14   8  26  1   
 15   8  27  1   
 16   8  28  1   
 17  10  12  1   
 18  10  29  1   
 19  11  30  1   
 20  11  31  1   
 21  11  32  1   
 22  12  13  1   
 23  12  14  1   
 24  12  33  1   
 25  13  15  1   
 26  13  16  1   
 27  13  34  1   
 28  14  17  1   
 29  14  35  1   
 30  14  36  1   
 31  15  17  1   
 32  15  37  1   
 33  15  38  1   
 34  16  18  1   
 35  16  39  1   
 36  16  40  1   
 37  18  19  ar  
 38  18  20  ar  
 39  19  21  ar  
 40  19  41  1   
 41  20  22  ar  
 42  20  42  1   
 43  21  23  ar  
 44  21  43  1   
 45  22  23  ar  
 46  22  44  1   
@<TRIPOS>SUBSTRUCTURE
  1 ****  10 GROUP 4 **** **** 0

# MOE 2024.06 (io_trps.svl 2023.06)
