@<TRIPOS>MOLECULE
NONAME
35 37 1 0 0 
SMALL
USER_CHARGES


@<TRIPOS>ATOM
  1 F        1.3940     0.0190    -0.9780 F     1 <1>  -0.1900 
  2 C        1.9820     0.9320    -0.2530 C.ar  1 <1>   0.1900 
  3 C        2.7440     0.5510     0.8380 C.ar  1 <1>   0.1600 
  4 C        1.8330     2.2550    -0.5930 C.ar  1 <1>  -0.1500 
  5 N        3.3690     1.4170     1.6260 N.ar  1 <1>  -0.6200 
  6 C        2.4860     3.1830     0.2090 C.ar  1 <1>   0.0860 
  7 C        3.2120     2.6930     1.2990 C.ar  1 <1>   0.1600 
  8 C        2.4230     4.5990    -0.0690 C.2   1 <1>   0.5440 
  9 O        1.3720     5.0970    -0.4130 O.2   1 <1>  -0.5700 
 10 N        3.5650     5.3620     0.0340 N.am  1 <1>  -0.4940 
 11 C        3.7240     6.7670    -0.0880 C.2   1 <1>  -0.0880 
 12 N        4.9180     7.4260    -0.0670 N.pl3 1 <1>   0.3140 
 13 C        2.7730     7.7180    -0.2450 C.2   1 <1>  -0.1500 
 14 N        4.7430     8.7640    -0.2080 N.2   1 <1>  -0.7070 
 15 C        6.2610     6.7870     0.0760 C.3   1 <1>   0.1760 
 16 C        3.4600     8.9210    -0.3130 C.2   1 <1>   0.1390 
 17 C        7.3920     7.7320     0.4900 C.3   1 <1>  -0.1600 
 18 C        6.7610     6.1830    -1.2380 C.3   1 <1>  -0.1600 
 19 C        8.6670     6.9870     0.0940 C.3   1 <1>  -0.1600 
 20 C        8.2870     6.1090    -1.1050 C.3   1 <1>  -0.1600 
 21 H        2.8360    -0.4970     1.0660 H     1 <1>   0.1500 
 22 H        1.2390     2.5590    -1.4380 H     1 <1>   0.1500 
 23 H        3.6920     3.4070     1.9470 H     1 <1>   0.1500 
 24 H        4.4260     4.8310     0.1570 H     1 <1>   0.3700 
 25 H        1.7070     7.5950    -0.3090 H     1 <1>   0.1500 
 26 H        6.1890     6.0120     0.8160 H     1 <1>   0.0800 
 27 H        2.9900     9.8820    -0.4400 H     1 <1>   0.1500 
 28 H        7.3640     7.9580     1.5420 H     1 <1>   0.0800 
 29 H        7.3380     8.6470    -0.0760 H     1 <1>   0.0800 
 30 H        6.5130     6.8470    -2.0490 H     1 <1>   0.0800 
 31 H        6.3320     5.2150    -1.4260 H     1 <1>   0.0800 
 32 H        8.9880     6.3620     0.9110 H     1 <1>   0.0800 
 33 H        9.4610     7.6730    -0.1490 H     1 <1>   0.0800 
 34 H        8.7550     6.4720    -2.0050 H     1 <1>   0.0800 
 35 H        8.6070     5.0950    -0.9340 H     1 <1>   0.0800 
@<TRIPOS>BOND
  1   1   2  1   
  2   2   3  ar  
  3   2   4  ar  
  4   3   5  ar  
  5   3  21  1   
  6   4   6  ar  
  7   4  22  1   
  8   5   7  ar  
  9   6   7  ar  
 10   6   8  1   
 11   7  23  1   
 12   8   9  2   
 13   8  10  am  
 14  10  11  1   
 15  10  24  1   
 16  11  12  1   
 17  11  13  2   
 18  12  14  1   
 19  12  15  1   
 20  13  16  1   
 21  13  25  1   
 22  14  16  2   
 23  15  17  1   
 24  15  18  1   
 25  15  26  1   
 26  16  27  1   
 27  17  19  1   
 28  17  28  1   
 29  17  29  1   
 30  18  20  1   
 31  18  30  1   
 32  18  31  1   
 33  19  20  1   
 34  19  32  1   
 35  19  33  1   
 36  20  34  1   
 37  20  35  1   
@<TRIPOS>SUBSTRUCTURE
  1 ****  10 GROUP 4 **** **** 0

# MOE 2024.06 (io_trps.svl 2023.06)
