@<TRIPOS>MOLECULE
NONAME
57 61 1 0 0 
SMALL
USER_CHARGES


@<TRIPOS>ATOM
  1 O       -1.0250     0.9350    -2.4270 O.2   1 <1>  -0.5700 
  2 C       -1.9340     1.3610    -1.7360 C.2   1 <1>   0.7160 
  3 N       -3.1840     0.7820    -1.8370 N.am  1 <1>  -0.6600 
  4 C       -1.6880     2.4410    -0.8010 C.2   1 <1>  -0.0860 
  5 C       -3.4650    -0.3450    -2.7650 C.3   1 <1>   0.1400 
  6 C       -4.2840     1.0470    -0.8730 C.3   1 <1>   0.1400 
  7 C       -2.1230     3.7440    -0.8540 C.2   1 <1>  -0.3320 
  8 C       -0.9500     2.3460     0.3890 C.2   1 <1>  -0.1810 
  9 C       -3.6690    -1.6180    -1.9430 C.3   1 <1>  -0.1600 
 10 C       -4.4920    -0.2030    -0.0180 C.3   1 <1>  -0.1600 
 11 N       -1.6890     4.4120     0.2300 N.pl3 1 <1>   0.0330 
 12 C       -2.9590     4.3980    -1.9400 C.3   1 <1>  -0.0600 
 13 C       -0.9650     3.5630     1.0270 C.2   1 <1>  -0.2370 
 14 C       -0.2670     1.0630     0.8360 C.3   1 <1>  -0.0590 
 15 C       -4.7640    -1.4400    -0.8860 C.3   1 <1>   0.4600 
 16 C       -0.3870     3.9780     2.2770 C.2   1 <1>   0.5940 
 17 O       -5.9690    -1.2470    -1.5960 O.3   1 <1>  -0.5600 
 18 C       -4.8780    -2.6960    -0.0300 C.2   1 <1>  -0.3320 
 19 O        0.0890     3.2250     3.0870 O.2   1 <1>  -0.5700 
 20 C       -0.3770     5.4500     2.6310 C.3   1 <1>  -0.1790 
 21 C       -7.1830    -1.5140    -0.9330 C.3   1 <1>   0.1200 
 22 N       -3.8730    -3.2780     0.6930 N.pl3 1 <1>   0.0330 
 23 C       -6.0100    -3.4100     0.1270 C.2   1 <1>  -0.1810 
 24 C       -7.2940    -2.9990    -0.5490 C.3   1 <1>   0.0210 
 25 C       -4.3880    -4.3900     1.3150 C.ar  1 <1>  -0.1520 
 26 C       -5.7340    -4.5020     0.9750 C.ar  1 <1>   0.0000 
 27 C       -3.7830    -5.3230     2.1600 C.ar  1 <1>  -0.1500 
 28 C       -6.4900    -5.5630     1.4830 C.ar  1 <1>  -0.1500 
 29 C       -4.5380    -6.3620     2.6540 C.ar  1 <1>  -0.1500 
 30 C       -5.8920    -6.4820     2.3150 C.ar  1 <1>  -0.1500 
 31 H       -2.6560    -0.4830    -3.4620 H     1 <1>   0.0800 
 32 H       -4.3560    -0.1240    -3.3300 H     1 <1>   0.0800 
 33 H       -5.1840     1.2740    -1.4190 H     1 <1>   0.0800 
 34 H       -4.0580     1.8860    -0.2390 H     1 <1>   0.0800 
 35 H       -2.7380    -1.8640    -1.4680 H     1 <1>   0.0800 
 36 H       -3.9320    -2.4350    -2.5890 H     1 <1>   0.0800 
 37 H       -5.2990    -0.0510     0.6730 H     1 <1>   0.0800 
 38 H       -3.6040    -0.3660     0.5650 H     1 <1>   0.0800 
 39 H       -1.8700     5.4010     0.4300 H     1 <1>   0.2700 
 40 H       -3.1850     3.6920    -2.7190 H     1 <1>   0.0800 
 41 H       -2.4200     5.2210    -2.3760 H     1 <1>   0.0800 
 42 H       -3.8850     4.7620    -1.5300 H     1 <1>   0.0800 
 43 H        0.2520     0.6160     0.0070 H     1 <1>   0.0800 
 44 H       -0.9990     0.3690     1.2050 H     1 <1>   0.0800 
 45 H        0.4520     1.2520     1.6110 H     1 <1>   0.0800 
 46 H        0.0470     6.0200     1.8260 H     1 <1>   0.0800 
 47 H        0.2200     5.6060     3.5120 H     1 <1>   0.0800 
 48 H       -1.3780     5.7840     2.8310 H     1 <1>   0.0800 
 49 H       -7.9850    -1.2410    -1.5950 H     1 <1>   0.0800 
 50 H       -7.2350    -0.8970    -0.0540 H     1 <1>   0.0800 
 51 H       -2.9010    -2.9620     0.7600 H     1 <1>   0.2700 
 52 H       -7.4490    -3.5960    -1.4290 H     1 <1>   0.0800 
 53 H       -8.1250    -3.1400     0.1170 H     1 <1>   0.0800 
 54 H       -2.7430    -5.2240     2.4150 H     1 <1>   0.1500 
 55 H       -7.5260    -5.6430     1.2130 H     1 <1>   0.1500 
 56 H       -4.0960    -7.0940     3.3060 H     1 <1>   0.1500 
 57 H       -6.4600    -7.3040     2.7130 H     1 <1>   0.1500 
@<TRIPOS>BOND
  1   1   2  2   
  2   2   3  am  
  3   2   4  1   
  4   3   5  1   
  5   3   6  1   
  6   4   7  2   
  7   4   8  1   
  8   5   9  1   
  9   5  31  1   
 10   5  32  1   
 11   6  10  1   
 12   6  33  1   
 13   6  34  1   
 14   7  11  1   
 15   7  12  1   
 16   8  13  2   
 17   8  14  1   
 18   9  15  1   
 19   9  35  1   
 20   9  36  1   
 21  10  15  1   
 22  10  37  1   
 23  10  38  1   
 24  11  13  1   
 25  11  39  1   
 26  12  40  1   
 27  12  41  1   
 28  12  42  1   
 29  13  16  1   
 30  14  43  1   
 31  14  44  1   
 32  14  45  1   
 33  15  17  1   
 34  15  18  1   
 35  16  19  2   
 36  16  20  1   
 37  17  21  1   
 38  18  22  1   
 39  18  23  2   
 40  20  46  1   
 41  20  47  1   
 42  20  48  1   
 43  21  24  1   
 44  21  49  1   
 45  21  50  1   
 46  22  25  1   
 47  22  51  1   
 48  23  24  1   
 49  23  26  1   
 50  24  52  1   
 51  24  53  1   
 52  25  26  ar  
 53  25  27  ar  
 54  26  28  ar  
 55  27  29  ar  
 56  27  54  1   
 57  28  30  ar  
 58  28  55  1   
 59  29  30  ar  
 60  29  56  1   
 61  30  57  1   
@<TRIPOS>SUBSTRUCTURE
  1 ****  10 GROUP 4 **** **** 0

# MOE 2024.06 (io_trps.svl 2023.06)
