@<TRIPOS>MOLECULE
NONAME
44 47 1 0 0 
SMALL
USER_CHARGES


@<TRIPOS>ATOM
  1 O       -1.0100    -0.1740    -1.2470 O.2   1 <1>  -0.5700 
  2 C       -1.8250     0.2900    -0.4930 C.2   1 <1>   0.4230 
  3 C       -3.1260    -0.2910    -0.3110 C.ar  1 <1>   0.0860 
  4 C       -1.3870     1.4910     0.3220 C.3   1 <1>  -0.1790 
  5 C       -4.3330     0.3970    -0.2190 C.ar  1 <1>   0.1660 
  6 C       -3.2370    -1.6670    -0.2110 C.ar  1 <1>   0.1600 
  7 N       -5.4690    -0.2090     0.0120 N.ar  1 <1>  -0.6200 
  8 C       -4.4390     1.9020    -0.4050 C.3   1 <1>  -0.0960 
  9 N       -4.3640    -2.2940     0.0100 N.ar  1 <1>  -0.6200 
 10 C       -5.4520    -1.5370     0.1310 C.ar  1 <1>   0.7200 
 11 N       -6.6420    -2.1680     0.3890 N.pl3 1 <1>  -0.8380 
 12 C       -7.9670    -1.4630     0.4290 C.3   1 <1>   0.2090 
 13 C       -6.7910    -3.6610     0.4570 C.3   1 <1>   0.2090 
 14 C       -8.9030    -1.9680    -0.6860 C.3   1 <1>   0.2090 
 15 C       -7.7170    -4.1810    -0.6590 C.3   1 <1>   0.2090 
 16 N       -9.0290    -3.4600    -0.6580 N.pl3 1 <1>  -0.8220 
 17 C      -10.2210    -4.0760    -0.3540 C.2   1 <1>   0.5620 
 18 O      -10.2550    -5.4000    -0.2380 O.3   1 <1>  -0.2800 
 19 N      -11.3510    -3.4850    -0.1590 N.2   1 <1>  -0.5650 
 20 C      -11.5080    -5.6910     0.0510 C.ar  1 <1>   0.1400 
 21 C      -12.1990    -4.5080     0.1030 C.ar  1 <1>   0.2270 
 22 C      -12.1110    -6.9190     0.2780 C.ar  1 <1>  -0.1500 
 23 C      -13.5590    -4.5180     0.3920 C.ar  1 <1>  -0.1500 
 24 C      -13.4650    -6.9280     0.5650 C.ar  1 <1>  -0.1500 
 25 C      -14.1850    -5.7310     0.6220 C.ar  1 <1>  -0.1500 
 26 H       -2.0020     1.6080     1.1960 H     1 <1>   0.0800 
 27 H       -1.4370     2.3790    -0.2790 H     1 <1>   0.0800 
 28 H       -0.3700     1.3520     0.6390 H     1 <1>   0.0800 
 29 H       -2.3450    -2.2630    -0.3140 H     1 <1>   0.1500 
 30 H       -3.7350     2.2500    -1.1380 H     1 <1>   0.0800 
 31 H       -4.2680     2.4020     0.5300 H     1 <1>   0.0800 
 32 H       -5.4250     2.1600    -0.7500 H     1 <1>   0.0800 
 33 H       -7.8540    -0.3990     0.3310 H     1 <1>   0.0800 
 34 H       -8.4330    -1.6490     1.3810 H     1 <1>   0.0800 
 35 H       -7.2160    -3.9240     1.4100 H     1 <1>   0.0800 
 36 H       -5.8420    -4.1600     0.3820 H     1 <1>   0.0800 
 37 H       -8.5020    -1.6680    -1.6380 H     1 <1>   0.0800 
 38 H       -9.8660    -1.5030    -0.5760 H     1 <1>   0.0800 
 39 H       -7.8620    -5.2380    -0.5330 H     1 <1>   0.0800 
 40 H       -7.2340    -4.0270    -1.6090 H     1 <1>   0.0800 
 41 H      -11.5330    -7.8230     0.2260 H     1 <1>   0.1500 
 42 H      -14.0940    -3.5860     0.4300 H     1 <1>   0.1500 
 43 H      -13.9720    -7.8600     0.7470 H     1 <1>   0.1500 
 44 H      -15.2370    -5.7580     0.8470 H     1 <1>   0.1500 
@<TRIPOS>BOND
  1   1   2  2   
  2   2   3  1   
  3   2   4  1   
  4   3   5  ar  
  5   3   6  ar  
  6   4  26  1   
  7   4  27  1   
  8   4  28  1   
  9   5   7  ar  
 10   5   8  1   
 11   6   9  ar  
 12   6  29  1   
 13   7  10  ar  
 14   8  30  1   
 15   8  31  1   
 16   8  32  1   
 17   9  10  ar  
 18  10  11  1   
 19  11  12  1   
 20  11  13  1   
 21  12  14  1   
 22  12  33  1   
 23  12  34  1   
 24  13  15  1   
 25  13  35  1   
 26  13  36  1   
 27  14  16  1   
 28  14  37  1   
 29  14  38  1   
 30  15  16  1   
 31  15  39  1   
 32  15  40  1   
 33  16  17  1   
 34  17  18  1   
 35  17  19  2   
 36  18  20  1   
 37  19  21  1   
 38  20  21  ar  
 39  20  22  ar  
 40  21  23  ar  
 41  22  24  ar  
 42  22  41  1   
 43  23  25  ar  
 44  23  42  1   
 45  24  25  ar  
 46  24  43  1   
 47  25  44  1   
@<TRIPOS>SUBSTRUCTURE
  1 ****  11 GROUP 4 **** **** 0

# MOE 2024.06 (io_trps.svl 2023.06)
