@<TRIPOS>MOLECULE
NONAME
48 50 1 0 0 
SMALL
USER_CHARGES


@<TRIPOS>ATOM
  1 O        2.6860    -0.1370     1.0700 O.2   1 <1>  -0.5700 
  2 C        2.4600    -0.6740     0.0130 C.2   1 <1>   0.5690 
  3 N        2.3200     0.0360    -1.1350 N.am  1 <1>  -0.7300 
  4 C        2.3270    -2.1780    -0.0400 C.3   1 <1>  -0.0990 
  5 C        2.3750     1.5150    -1.2010 C.3   1 <1>   0.1400 
  6 C        0.9420    -2.6240     0.4600 C.3   1 <1>  -0.0160 
  7 C        3.8280     1.9910    -1.2200 C.3   1 <1>   0.0200 
  8 C        0.6960    -4.1330     0.4050 C.ar  1 <1>   0.1670 
  9 C        3.8910     3.4600    -0.8530 C.2   1 <1>   0.0070 
 10 N        1.5760    -4.8860    -0.1840 N.ar  1 <1>  -0.6200 
 11 C       -0.4980    -4.6420     0.9980 C.ar  1 <1>   0.3930 
 12 N        3.9180     4.4160    -1.7160 N.2   1 <1>  -0.3380 
 13 N        3.9120     3.9250     0.4020 N.pl3 1 <1>   0.0480 
 14 C        1.2750    -6.2120    -0.1840 C.ar  1 <1>   0.3100 
 15 O       -1.3410    -3.7520     1.5690 O.3   1 <1>  -0.3630 
 16 N       -0.8180    -5.9060     1.0140 N.ar  1 <1>  -0.6200 
 17 N        3.9610     5.5590    -1.0300 N.2   1 <1>  -0.3380 
 18 C        3.9570     5.2450     0.2190 C.2   1 <1>   0.0360 
 19 C        3.8830     3.1950     1.6890 C.3   1 <1>   0.0960 
 20 C        0.0900    -6.7120     0.4100 C.ar  1 <1>   0.3100 
 21 C        2.1620    -7.1150    -0.7880 C.ar  1 <1>  -0.1500 
 22 C       -2.5420    -4.1650     2.1910 C.3   1 <1>   0.0400 
 23 C        5.3030     2.8720     2.1620 C.3   1 <1>  -0.2400 
 24 C       -0.1490    -8.0950     0.3690 C.ar  1 <1>  -0.1500 
 25 C        1.9020    -8.4620    -0.8140 C.ar  1 <1>  -0.1500 
 26 C        0.7340    -8.9560    -0.2290 C.ar  1 <1>  -0.1500 
 27 H        2.1550    -0.4510    -2.0190 H     1 <1>   0.3700 
 28 H        3.0900    -2.6150     0.5790 H     1 <1>   0.0800 
 29 H        2.4810    -2.5170    -1.0480 H     1 <1>   0.0800 
 30 H        1.8770     1.9160    -0.3340 H     1 <1>   0.0800 
 31 H        1.8580     1.8700    -2.0760 H     1 <1>   0.0800 
 32 H        0.1830    -2.1380    -0.1270 H     1 <1>   0.0800 
 33 H        0.8290    -2.2940     1.4790 H     1 <1>   0.0800 
 34 H        4.2390     1.8510    -2.2040 H     1 <1>   0.0800 
 35 H        4.4180     1.4260    -0.5220 H     1 <1>   0.0800 
 36 H        3.9870     5.9520     1.0280 H     1 <1>   0.1500 
 37 H        3.3210     2.2860     1.5680 H     1 <1>   0.0800 
 38 H        3.3820     3.8030     2.4210 H     1 <1>   0.0800 
 39 H        3.0550    -6.7160    -1.2320 H     1 <1>   0.1500 
 40 H       -3.0430    -3.2950     2.5740 H     1 <1>   0.0800 
 41 H       -2.3030    -4.8390     2.9950 H     1 <1>   0.0800 
 42 H       -3.1600    -4.6580     1.4610 H     1 <1>   0.0800 
 43 H        5.8070     2.2500     1.4430 H     1 <1>   0.0800 
 44 H        5.2610     2.3410     3.0960 H     1 <1>   0.0800 
 45 H        5.8670     3.7770     2.3080 H     1 <1>   0.0800 
 46 H       -1.0530    -8.4580     0.8240 H     1 <1>   0.1500 
 47 H        2.5890    -9.1480    -1.2810 H     1 <1>   0.1500 
 48 H        0.5390   -10.0150    -0.2540 H     1 <1>   0.1500 
@<TRIPOS>BOND
  1   1   2  2   
  2   2   3  am  
  3   2   4  1   
  4   3   5  1   
  5   3  27  1   
  6   4   6  1   
  7   4  28  1   
  8   4  29  1   
  9   5   7  1   
 10   5  30  1   
 11   5  31  1   
 12   6   8  1   
 13   6  32  1   
 14   6  33  1   
 15   7   9  1   
 16   7  34  1   
 17   7  35  1   
 18   8  10  ar  
 19   8  11  ar  
 20   9  12  2   
 21   9  13  1   
 22  10  14  ar  
 23  11  15  1   
 24  11  16  ar  
 25  12  17  1   
 26  13  18  1   
 27  13  19  1   
 28  14  20  ar  
 29  14  21  ar  
 30  15  22  1   
 31  16  20  ar  
 32  17  18  2   
 33  18  36  1   
 34  19  23  1   
 35  19  37  1   
 36  19  38  1   
 37  20  24  ar  
 38  21  25  ar  
 39  21  39  1   
 40  22  40  1   
 41  22  41  1   
 42  22  42  1   
 43  23  43  1   
 44  23  44  1   
 45  23  45  1   
 46  24  26  ar  
 47  24  46  1   
 48  25  26  ar  
 49  25  47  1   
 50  26  48  1   
@<TRIPOS>SUBSTRUCTURE
  1 ****   4 GROUP 4 **** **** 0

# MOE 2024.06 (io_trps.svl 2023.06)
