@<TRIPOS>MOLECULE
NONAME
47 49 1 0 0 
SMALL
USER_CHARGES


@<TRIPOS>ATOM
  1 O        1.0020    -0.1290    -1.0170 O.2   1 <1>  -0.5700 
  2 C        1.8260    -0.6580    -0.3120 C.2   1 <1>   0.5690 
  3 N        2.7010     0.1040     0.4210 N.am  1 <1>  -0.6600 
  4 C        1.8810    -2.1820    -0.3000 C.3   1 <1>  -0.0990 
  5 C        4.0720    -0.3120     0.8530 C.3   1 <1>   0.1400 
  6 C        2.3520     1.5140     0.7490 C.3   1 <1>   0.1400 
  7 C        0.4800    -2.8250    -0.3040 C.3   1 <1>  -0.1600 
  8 C        5.1660     0.1980    -0.1110 C.3   1 <1>   0.3430 
  9 C        2.7110     2.4580    -0.4050 C.3   1 <1>  -0.1600 
 10 C        0.5560    -4.3590    -0.3140 C.3   1 <1>   0.0960 
 11 N        5.0590     1.6620    -0.4340 N.4   1 <1>  -0.9590 
 12 C        3.8800     2.0000    -1.2760 C.3   1 <1>   0.3430 
 13 N       -0.7820    -4.9520    -0.1350 N.pl3 1 <1>   0.3140 
 14 C        6.3410     2.2000    -0.9600 C.3   1 <1>   0.5230 
 15 N       -1.2210    -5.3720     1.0420 N.2   1 <1>  -0.7070 
 16 C       -1.7330    -5.1710    -1.0480 C.2   1 <1>   0.0360 
 17 C        7.2640     2.4260     0.2330 C.2   1 <1>   0.0060 
 18 C       -2.4030    -5.8120     0.7560 C.2   1 <1>   0.3660 
 19 N       -2.7730    -5.7140    -0.5270 N.2   1 <1>  -0.5650 
 20 N        6.8650     2.3490     1.4670 N.2   1 <1>  -0.5650 
 21 N        8.5780     2.7360     0.1120 N.pl3 1 <1>   0.0330 
 22 C        7.9720     2.6200     2.1850 C.2   1 <1>   0.0770 
 23 C        9.0240     2.8570     1.3730 C.2   1 <1>  -0.3020 
 24 H        2.3920    -2.5210     0.5800 H     1 <1>   0.0800 
 25 H        2.4300    -2.5050    -1.1660 H     1 <1>   0.0800 
 26 H        4.1470    -1.3810     0.9140 H     1 <1>   0.0800 
 27 H        4.2670     0.0700     1.8410 H     1 <1>   0.0800 
 28 H        2.8690     1.8140     1.6450 H     1 <1>   0.0800 
 29 H        1.2950     1.5840     0.9510 H     1 <1>   0.0800 
 30 H       -0.0690    -2.4920    -1.1680 H     1 <1>   0.0800 
 31 H       -0.0510    -2.5020     0.5770 H     1 <1>   0.0800 
 32 H        5.1200    -0.3750    -1.0210 H     1 <1>   0.0800 
 33 H        6.1220     0.0060     0.3490 H     1 <1>   0.0800 
 34 H        2.9020     3.4420    -0.0160 H     1 <1>   0.0800 
 35 H        1.8470     2.5420    -1.0410 H     1 <1>   0.0800 
 36 H        1.1770    -4.7040     0.4920 H     1 <1>   0.0800 
 37 H        0.9680    -4.7110    -1.2420 H     1 <1>   0.0800 
 38 H        4.9840     2.1460     0.4780 H     1 <1>   0.4500 
 39 H        4.1240     2.7880    -1.9700 H     1 <1>   0.0800 
 40 H        3.5770     1.1340    -1.8450 H     1 <1>   0.0800 
 41 H        6.1720     3.1440    -1.4510 H     1 <1>   0.0800 
 42 H        6.7810     1.5110    -1.6620 H     1 <1>   0.0800 
 43 H       -1.6210    -4.9150    -2.0860 H     1 <1>   0.1500 
 44 H       -3.0690    -6.2360     1.4900 H     1 <1>   0.1500 
 45 H        9.1390     2.8640    -0.7390 H     1 <1>   0.2700 
 46 H        7.9580     2.6340     3.2640 H     1 <1>   0.1500 
 47 H       10.0420     3.1010     1.6260 H     1 <1>   0.1500 
@<TRIPOS>BOND
  1   1   2  2   
  2   2   3  am  
  3   2   4  1   
  4   3   5  1   
  5   3   6  1   
  6   4   7  1   
  7   4  24  1   
  8   4  25  1   
  9   5   8  1   
 10   5  26  1   
 11   5  27  1   
 12   6   9  1   
 13   6  28  1   
 14   6  29  1   
 15   7  10  1   
 16   7  30  1   
 17   7  31  1   
 18   8  11  1   
 19   8  32  1   
 20   8  33  1   
 21   9  12  1   
 22   9  34  1   
 23   9  35  1   
 24  10  13  1   
 25  10  36  1   
 26  10  37  1   
 27  11  12  1   
 28  11  14  1   
 29  11  38  1   
 30  12  39  1   
 31  12  40  1   
 32  13  15  1   
 33  13  16  1   
 34  14  17  1   
 35  14  41  1   
 36  14  42  1   
 37  15  18  2   
 38  16  19  2   
 39  16  43  1   
 40  17  20  2   
 41  17  21  1   
 42  18  19  1   
 43  18  44  1   
 44  20  22  1   
 45  21  23  1   
 46  21  45  1   
 47  22  23  2   
 48  22  46  1   
 49  23  47  1   
@<TRIPOS>SUBSTRUCTURE
  1 ****   3 GROUP 4 **** **** 0

# MOE 2024.06 (io_trps.svl 2023.06)
