@<TRIPOS>MOLECULE
NONAME
53 57 1 0 0 
SMALL
USER_CHARGES


@<TRIPOS>ATOM
  1 O        0.3120     0.7390     1.6640 O.2   1 <1>  -0.5700 
  2 C       -0.2010     1.6140     1.0060 C.2   1 <1>   0.5690 
  3 N       -1.5610     1.6790     0.8420 N.am  1 <1>  -0.6600 
  4 C        0.6960     2.6610     0.3610 C.3   1 <1>  -0.0990 
  5 C       -2.2630     2.8200     0.1570 C.3   1 <1>   0.1400 
  6 C       -2.4270     0.5880     1.3860 C.3   1 <1>   0.1400 
  7 C        2.1880     2.3010     0.3800 C.3   1 <1>  -0.0160 
  8 C       -3.6840     3.0450     0.7090 C.3   1 <1>   0.1440 
  9 C       -3.7240     0.4590     0.5800 C.3   1 <1>  -0.1600 
 10 C        2.9980     3.3810    -0.3190 C.ar  1 <1>  -0.1440 
 11 C       -4.2830     4.2520     0.0060 C.ar  1 <1>   0.1660 
 12 C       -4.5400     1.7670     0.5100 C.3   1 <1>  -0.1600 
 13 C       -3.6460     3.5090     2.1970 C.3   1 <1>  -0.1600 
 14 C        3.4550     4.4810     0.4000 C.ar  1 <1>  -0.1500 
 15 C        3.2780     3.2740    -1.6820 C.ar  1 <1>  -0.1500 
 16 N       -4.6510     4.2930    -1.2560 N.ar  1 <1>  -0.6200 
 17 C       -4.3800     5.3300     0.8350 C.ar  1 <1>  -0.1440 
 18 C       -3.8590     5.0330     2.2160 C.3   1 <1>  -0.0170 
 19 C        4.1810     5.4440    -0.2710 C.ar  1 <1>   0.0820 
 20 C        4.0110     4.2530    -2.3400 C.ar  1 <1>  -0.1500 
 21 C       -5.1420     5.4590    -1.6500 C.ar  1 <1>   0.4770 
 22 C       -4.9030     6.4910     0.3220 C.ar  1 <1>   0.1600 
 23 O        4.7110     6.5720     0.2140 O.3   1 <1>  -0.3630 
 24 C        4.4520     5.3340    -1.6040 C.ar  1 <1>   0.0820 
 25 N       -5.2930     6.5650    -0.9340 N.ar  1 <1>  -0.6200 
 26 C       -5.5890     5.5380    -3.0900 C.3   1 <1>  -0.0970 
 27 C        5.3670     7.2170    -0.8760 C.3   1 <1>   0.4000 
 28 O        5.1660     6.3870    -2.0180 O.3   1 <1>  -0.3630 
 29 H        0.5570     3.5920     0.8780 H     1 <1>   0.0800 
 30 H        0.3920     2.7920    -0.6610 H     1 <1>   0.0800 
 31 H       -2.3300     2.6040    -0.8950 H     1 <1>   0.0800 
 32 H       -1.7010     3.7290     0.2750 H     1 <1>   0.0800 
 33 H       -2.6530     0.7990     2.4170 H     1 <1>   0.0800 
 34 H       -1.8940    -0.3480     1.3510 H     1 <1>   0.0800 
 35 H        2.3390     1.3540    -0.1090 H     1 <1>   0.0800 
 36 H        2.5250     2.1970     1.3980 H     1 <1>   0.0800 
 37 H       -4.3310    -0.3230     1.0000 H     1 <1>   0.0800 
 38 H       -3.4600     0.1540    -0.4180 H     1 <1>   0.0800 
 39 H       -5.0070     1.7980    -0.4590 H     1 <1>   0.0800 
 40 H       -5.3390     1.7400     1.2280 H     1 <1>   0.0800 
 41 H       -2.7230     3.2490     2.6850 H     1 <1>   0.0800 
 42 H       -4.4490     3.0540     2.7490 H     1 <1>   0.0800 
 43 H        3.2580     4.5930     1.4510 H     1 <1>   0.1500 
 44 H        2.9250     2.4220    -2.2360 H     1 <1>   0.1500 
 45 H       -2.9260     5.5460     2.3700 H     1 <1>   0.0800 
 46 H       -4.5650     5.3230     2.9750 H     1 <1>   0.0800 
 47 H        4.2350     4.1830    -3.3890 H     1 <1>   0.1500 
 48 H       -5.0020     7.3660     0.9400 H     1 <1>   0.1500 
 49 H       -5.0150     4.8600    -3.6930 H     1 <1>   0.0800 
 50 H       -5.4560     6.5360    -3.4630 H     1 <1>   0.0800 
 51 H       -6.6280     5.2740    -3.1520 H     1 <1>   0.0800 
 52 H        6.4200     7.2940    -0.6680 H     1 <1>   0.0800 
 53 H        4.9220     8.1810    -1.0470 H     1 <1>   0.0800 
@<TRIPOS>BOND
  1   1   2  2   
  2   2   3  am  
  3   2   4  1   
  4   3   5  1   
  5   3   6  1   
  6   4   7  1   
  7   4  29  1   
  8   4  30  1   
  9   5   8  1   
 10   5  31  1   
 11   5  32  1   
 12   6   9  1   
 13   6  33  1   
 14   6  34  1   
 15   7  10  1   
 16   7  35  1   
 17   7  36  1   
 18   8  11  1   
 19   8  12  1   
 20   8  13  1   
 21   9  12  1   
 22   9  37  1   
 23   9  38  1   
 24  10  14  ar  
 25  10  15  ar  
 26  11  16  ar  
 27  11  17  ar  
 28  12  39  1   
 29  12  40  1   
 30  13  18  1   
 31  13  41  1   
 32  13  42  1   
 33  14  19  ar  
 34  14  43  1   
 35  15  20  ar  
 36  15  44  1   
 37  16  21  ar  
 38  17  18  1   
 39  17  22  ar  
 40  18  45  1   
 41  18  46  1   
 42  19  23  1   
 43  19  24  ar  
 44  20  24  ar  
 45  20  47  1   
 46  21  25  ar  
 47  21  26  1   
 48  22  25  ar  
 49  22  48  1   
 50  23  27  1   
 51  24  28  1   
 52  26  49  1   
 53  26  50  1   
 54  26  51  1   
 55  27  28  1   
 56  27  52  1   
 57  27  53  1   
@<TRIPOS>SUBSTRUCTURE
  1 ****   4 GROUP 4 **** **** 0

# MOE 2024.06 (io_trps.svl 2023.06)
