@<TRIPOS>MOLECULE
NONAME
51 53 1 0 0 
SMALL
USER_CHARGES


@<TRIPOS>ATOM
  1 CL       1.4780     1.3030    -1.8180 Cl    1 <1>  -0.1770 
  2 C        2.5150     0.0070    -1.2580 C.ar  1 <1>   0.1770 
  3 C        3.3010     0.1450    -0.1110 C.ar  1 <1>   0.0860 
  4 C        2.5070    -1.1580    -2.0040 C.ar  1 <1>  -0.1500 
  5 C        3.3470     1.3480     0.6960 C.2   1 <1>   0.5440 
  6 C        4.0750    -0.9560     0.2510 C.ar  1 <1>  -0.1500 
  7 C        3.2910    -2.2270    -1.6160 C.ar  1 <1>  -0.1500 
  8 O        3.3860     1.2680     1.9080 O.2   1 <1>  -0.5700 
  9 N        3.3900     2.5900     0.1260 N.am  1 <1>  -0.7300 
 10 C        4.0870    -2.1360    -0.4790 C.ar  1 <1>   0.1000 
 11 C        3.4760     3.8710     0.8560 C.3   1 <1>   0.1400 
 12 N        4.8870    -3.1920    -0.0560 N.pl3 1 <1>  -0.8380 
 13 C        4.7460     4.6020     0.4270 C.3   1 <1>  -0.1600 
 14 C        4.5220    -3.8790     1.2110 C.3   1 <1>   0.2090 
 15 C        5.5860    -4.0540    -1.0440 C.3   1 <1>   0.2090 
 16 C        4.9190     5.8920     1.2210 C.3   1 <1>   0.2090 
 17 C        5.7890    -4.4400     1.8650 C.3   1 <1>  -0.1600 
 18 C        6.8610    -4.6180    -0.4110 C.3   1 <1>  -0.1600 
 19 N        6.1360     6.5820     0.7390 N.pl3 1 <1>  -0.8690 
 20 C        6.5670    -5.3540     0.9060 C.3   1 <1>  -0.1600 
 21 C        6.0610     7.9090     0.3110 C.ar  1 <1>   0.1000 
 22 C        6.9280     8.8920     0.7970 C.ar  1 <1>   0.1600 
 23 C        5.1220     8.2980    -0.6300 C.ar  1 <1>  -0.1500 
 24 N        6.9240    10.1710     0.4510 N.ar  1 <1>  -0.6200 
 25 C        5.1010     9.6230    -1.0070 C.ar  1 <1>  -0.1500 
 26 C        6.0080    10.5060    -0.4440 C.ar  1 <1>   0.1600 
 27 H        1.8870    -1.2270    -2.8800 H     1 <1>   0.1500 
 28 H        4.6950    -0.8930     1.1270 H     1 <1>   0.1500 
 29 H        3.2810    -3.1370    -2.1860 H     1 <1>   0.1500 
 30 H        3.2930     2.6650    -0.8890 H     1 <1>   0.3700 
 31 H        3.5000     3.6890     1.9180 H     1 <1>   0.0800 
 32 H        2.6060     4.4650     0.6330 H     1 <1>   0.0800 
 33 H        4.6880     4.8380    -0.6210 H     1 <1>   0.0800 
 34 H        5.5960     3.9670     0.6030 H     1 <1>   0.0800 
 35 H        3.8340    -4.6780     0.9940 H     1 <1>   0.0800 
 36 H        4.0400    -3.1880     1.8800 H     1 <1>   0.0800 
 37 H        5.8380    -3.4750    -1.9160 H     1 <1>   0.0800 
 38 H        4.9350    -4.8590    -1.3390 H     1 <1>   0.0800 
 39 H        5.0260     5.6710     2.2700 H     1 <1>   0.0800 
 40 H        4.0580     6.5270     1.0950 H     1 <1>   0.0800 
 41 H        5.5190    -4.9870     2.7500 H     1 <1>   0.0800 
 42 H        6.4110    -3.6150     2.1640 H     1 <1>   0.0800 
 43 H        7.5380    -3.8020    -0.2250 H     1 <1>   0.0800 
 44 H        7.3370    -5.2880    -1.1040 H     1 <1>   0.0800 
 45 H        6.9590     6.3510     1.3080 H     1 <1>   0.4000 
 46 H        5.9840    -6.2350     0.7000 H     1 <1>   0.0800 
 47 H        7.4900    -5.6630     1.3650 H     1 <1>   0.0800 
 48 H        7.6640     8.5920     1.5190 H     1 <1>   0.1500 
 49 H        4.4430     7.5830    -1.0550 H     1 <1>   0.1500 
 50 H        4.3910     9.9740    -1.7330 H     1 <1>   0.1500 
 51 H        5.9810    11.5390    -0.7470 H     1 <1>   0.1500 
@<TRIPOS>BOND
  1   1   2  1   
  2   2   3  ar  
  3   2   4  ar  
  4   3   5  1   
  5   3   6  ar  
  6   4   7  ar  
  7   4  27  1   
  8   5   8  2   
  9   5   9  am  
 10   6  10  ar  
 11   6  28  1   
 12   7  10  ar  
 13   7  29  1   
 14   9  11  1   
 15   9  30  1   
 16  10  12  1   
 17  11  13  1   
 18  11  31  1   
 19  11  32  1   
 20  12  14  1   
 21  12  15  1   
 22  13  16  1   
 23  13  33  1   
 24  13  34  1   
 25  14  17  1   
 26  14  35  1   
 27  14  36  1   
 28  15  18  1   
 29  15  37  1   
 30  15  38  1   
 31  16  19  1   
 32  16  39  1   
 33  16  40  1   
 34  17  20  1   
 35  17  41  1   
 36  17  42  1   
 37  18  20  1   
 38  18  43  1   
 39  18  44  1   
 40  19  21  1   
 41  19  45  1   
 42  20  46  1   
 43  20  47  1   
 44  21  22  ar  
 45  21  23  ar  
 46  22  24  ar  
 47  22  48  1   
 48  23  25  ar  
 49  23  49  1   
 50  24  26  ar  
 51  25  26  ar  
 52  25  50  1   
 53  26  51  1   
@<TRIPOS>SUBSTRUCTURE
  1 ****   9 GROUP 4 **** **** 0

# MOE 2024.06 (io_trps.svl 2023.06)
