@<TRIPOS>MOLECULE
NONAME
46 47 1 0 0 
SMALL
USER_CHARGES


@<TRIPOS>ATOM
  1 S        0.1180     0.5090     2.6010 S.3   1 <1>  -0.0800 
  2 C       -0.7490     0.1090     1.1430 C.2   1 <1>   0.1980 
  3 C        0.1610     2.1680     2.0860 C.2   1 <1>  -0.1100 
  4 N       -0.9670     1.1030     0.3800 N.2   1 <1>  -0.5650 
  5 C       -1.1660    -1.3400     0.9190 C.3   1 <1>   0.5230 
  6 C       -0.4540     2.3110     0.8880 C.2   1 <1>   0.1410 
  7 N       -1.7550    -1.4810    -0.4560 N.4   1 <1>  -0.9590 
  8 C       -0.6100     3.5540     0.1350 C.2   1 <1>   0.7160 
  9 C       -2.7060    -2.6250    -0.5710 C.3   1 <1>   0.2630 
 10 C       -0.6930    -1.5220    -1.5090 C.3   1 <1>   0.2630 
 11 O       -1.2990     3.5920    -0.8680 O.2   1 <1>  -0.5700 
 12 N        0.0420     4.6890     0.5600 N.am  1 <1>  -0.4940 
 13 C        0.1090     5.9920     0.0080 C.2   1 <1>  -0.0880 
 14 N       -0.8780     6.6930    -0.6220 N.pl3 1 <1>   0.3140 
 15 C        1.1970     6.8010     0.0230 C.2   1 <1>  -0.1810 
 16 N       -0.4460     7.9130    -1.0030 N.2   1 <1>  -0.7070 
 17 C       -2.2850     6.3290    -0.8350 C.3   1 <1>   0.0160 
 18 C        0.7900     7.9670    -0.6220 C.2   1 <1>   0.1080 
 19 C        2.5720     6.5110     0.6030 C.3   1 <1>   0.0210 
 20 C        1.6480     9.1940    -0.8790 C.3   1 <1>   0.0210 
 21 C        3.4470     5.8060    -0.4350 C.3   1 <1>  -0.2400 
 22 C        1.5740    10.1780     0.2940 C.3   1 <1>  -0.2400 
 23 H        0.6430     2.8710     2.7410 H     1 <1>   0.1500 
 24 H       -1.9010    -1.6000     1.6630 H     1 <1>   0.0800 
 25 H       -0.3150    -1.9910     1.0320 H     1 <1>   0.0800 
 26 H       -2.2610    -0.5850    -0.5990 H     1 <1>   0.4500 
 27 H       -2.1930    -3.5600    -0.4110 H     1 <1>   0.0800 
 28 H       -3.1520    -2.6410    -1.5530 H     1 <1>   0.0800 
 29 H       -3.4950    -2.5330     0.1590 H     1 <1>   0.0800 
 30 H       -0.0750    -2.3970    -1.3910 H     1 <1>   0.0800 
 31 H       -0.0690    -0.6430    -1.4430 H     1 <1>   0.0800 
 32 H       -1.1400    -1.5430    -2.4900 H     1 <1>   0.0800 
 33 H        0.7240     4.5310     1.2960 H     1 <1>   0.3700 
 34 H       -2.6310     5.7350    -0.0120 H     1 <1>   0.0800 
 35 H       -2.3660     5.7730    -1.7500 H     1 <1>   0.0800 
 36 H       -2.8730     7.2250    -0.9070 H     1 <1>   0.0800 
 37 H        2.4740     5.8900     1.4740 H     1 <1>   0.0800 
 38 H        3.0400     7.4290     0.9110 H     1 <1>   0.0800 
 39 H        1.2940     9.6770    -1.7730 H     1 <1>   0.0800 
 40 H        2.6650     8.8960    -1.0480 H     1 <1>   0.0800 
 41 H        2.9900     4.8800    -0.7380 H     1 <1>   0.0800 
 42 H        4.4190     5.5990    -0.0250 H     1 <1>   0.0800 
 43 H        3.5630     6.4280    -1.3050 H     1 <1>   0.0800 
 44 H        0.5540    10.4870     0.4420 H     1 <1>   0.0800 
 45 H        2.1730    11.0460     0.0890 H     1 <1>   0.0800 
 46 H        1.9260     9.7120     1.1960 H     1 <1>   0.0800 
@<TRIPOS>BOND
  1   1   2  1   
  2   1   3  1   
  3   2   4  2   
  4   2   5  1   
  5   3   6  2   
  6   3  23  1   
  7   4   6  1   
  8   5   7  1   
  9   5  24  1   
 10   5  25  1   
 11   6   8  1   
 12   7   9  1   
 13   7  10  1   
 14   7  26  1   
 15   8  11  2   
 16   8  12  am  
 17   9  27  1   
 18   9  28  1   
 19   9  29  1   
 20  10  30  1   
 21  10  31  1   
 22  10  32  1   
 23  12  13  1   
 24  12  33  1   
 25  13  14  1   
 26  13  15  2   
 27  14  16  1   
 28  14  17  1   
 29  15  18  1   
 30  15  19  1   
 31  16  18  2   
 32  17  34  1   
 33  17  35  1   
 34  17  36  1   
 35  18  20  1   
 36  19  21  1   
 37  19  37  1   
 38  19  38  1   
 39  20  22  1   
 40  20  39  1   
 41  20  40  1   
 42  21  41  1   
 43  21  42  1   
 44  21  43  1   
 45  22  44  1   
 46  22  45  1   
 47  22  46  1   
@<TRIPOS>SUBSTRUCTURE
  1 ****   8 GROUP 4 **** **** 0

# MOE 2024.06 (io_trps.svl 2023.06)
