@<TRIPOS>MOLECULE
NONAME
50 52 1 0 0 
SMALL
USER_CHARGES


@<TRIPOS>ATOM
  1 F       -0.1820     0.8540    -0.8940 F     1 <1>  -0.3400 
  2 C        1.0360     0.3340    -0.7980 C.3   1 <1>   1.1640 
  3 F        1.6630     1.0290     0.1430 F     1 <1>  -0.3400 
  4 F        1.6520     0.6110    -1.9390 F     1 <1>  -0.3400 
  5 C        1.0250    -1.1680    -0.5020 C.ar  1 <1>  -0.1440 
  6 C       -0.0800    -1.9650    -0.7260 C.ar  1 <1>  -0.1500 
  7 C        2.1390    -1.8200     0.0030 C.ar  1 <1>  -0.1500 
  8 C       -0.0440    -3.3270    -0.4450 C.ar  1 <1>   0.4100 
  9 C        2.0900    -3.1810     0.2490 C.ar  1 <1>   0.1660 
 10 N        1.0300    -3.9340     0.0330 N.ar  1 <1>  -0.6200 
 11 N       -1.1620    -4.1100    -0.6540 N.pl3 1 <1>  -0.8380 
 12 C        3.3030    -3.9020     0.8010 C.3   1 <1>  -0.0970 
 13 C       -1.0750    -5.4160    -1.3870 C.3   1 <1>   0.2090 
 14 C       -2.4800    -3.7100    -0.1110 C.3   1 <1>   0.2090 
 15 C       -1.6680    -6.5950    -0.5760 C.3   1 <1>   0.0000 
 16 C       -3.0350    -4.8430     0.7460 C.3   1 <1>  -0.1600 
 17 C       -3.0620    -6.1360    -0.0680 C.3   1 <1>   0.2000 
 18 C       -1.9180    -7.7910    -1.5300 C.3   1 <1>   0.1200 
 19 C       -0.7170    -6.9730     0.6070 C.3   1 <1>  -0.0160 
 20 O       -3.6710    -7.1140     0.7010 O.3   1 <1>  -0.6800 
 21 O       -0.8090    -8.0630    -2.3200 O.3   1 <1>  -0.6800 
 22 C        0.4410    -7.9030     0.2480 C.ar  1 <1>  -0.1430 
 23 C        1.6210    -7.4020    -0.2760 C.ar  1 <1>  -0.1500 
 24 C        0.3150    -9.2720     0.4360 C.ar  1 <1>  -0.1500 
 25 C        2.6560    -8.2530    -0.6210 C.ar  1 <1>  -0.1500 
 26 C        1.3490   -10.1270     0.0930 C.ar  1 <1>  -0.1500 
 27 C        2.5200    -9.6170    -0.4380 C.ar  1 <1>  -0.1500 
 28 H       -0.9870    -1.5560    -1.1290 H     1 <1>   0.1500 
 29 H        3.0440    -1.2720     0.2040 H     1 <1>   0.1500 
 30 H        4.0990    -3.2150     1.0210 H     1 <1>   0.0800 
 31 H        3.6500    -4.6210     0.0820 H     1 <1>   0.0800 
 32 H        3.0320    -4.4200     1.7030 H     1 <1>   0.0800 
 33 H       -1.6170    -5.3150    -2.3110 H     1 <1>   0.0800 
 34 H       -0.0510    -5.6220    -1.6470 H     1 <1>   0.0800 
 35 H       -2.3810    -2.8210     0.4890 H     1 <1>   0.0800 
 36 H       -3.1490    -3.4990    -0.9280 H     1 <1>   0.0800 
 37 H       -4.0320    -4.5860     1.0530 H     1 <1>   0.0800 
 38 H       -2.4190    -4.9480     1.6210 H     1 <1>   0.0800 
 39 H       -3.7030    -5.9790    -0.9200 H     1 <1>   0.0800 
 40 H       -2.7320    -7.5760    -2.2010 H     1 <1>   0.0800 
 41 H       -2.1640    -8.6790    -0.9740 H     1 <1>   0.0800 
 42 H       -0.3150    -6.0790     1.0490 H     1 <1>   0.0800 
 43 H       -1.2750    -7.4610     1.3820 H     1 <1>   0.0800 
 44 H       -3.2350    -7.1770     1.5710 H     1 <1>   0.4000 
 45 H       -0.0430    -8.2860    -1.7400 H     1 <1>   0.4000 
 46 H        1.7400    -6.3440    -0.4220 H     1 <1>   0.1500 
 47 H       -0.5910    -9.6830     0.8470 H     1 <1>   0.1500 
 48 H        3.5660    -7.8520    -1.0310 H     1 <1>   0.1500 
 49 H        1.2420   -11.1870     0.2390 H     1 <1>   0.1500 
 50 H        3.3240   -10.2800    -0.7060 H     1 <1>   0.1500 
@<TRIPOS>BOND
  1   1   2  1   
  2   2   3  1   
  3   2   4  1   
  4   2   5  1   
  5   5   6  ar  
  6   5   7  ar  
  7   6   8  ar  
  8   6  28  1   
  9   7   9  ar  
 10   7  29  1   
 11   8  10  ar  
 12   8  11  1   
 13   9  10  ar  
 14   9  12  1   
 15  11  13  1   
 16  11  14  1   
 17  12  30  1   
 18  12  31  1   
 19  12  32  1   
 20  13  15  1   
 21  13  33  1   
 22  13  34  1   
 23  14  16  1   
 24  14  35  1   
 25  14  36  1   
 26  15  17  1   
 27  15  18  1   
 28  15  19  1   
 29  16  17  1   
 30  16  37  1   
 31  16  38  1   
 32  17  20  1   
 33  17  39  1   
 34  18  21  1   
 35  18  40  1   
 36  18  41  1   
 37  19  22  1   
 38  19  42  1   
 39  19  43  1   
 40  20  44  1   
 41  21  45  1   
 42  22  23  ar  
 43  22  24  ar  
 44  23  25  ar  
 45  23  46  1   
 46  24  26  ar  
 47  24  47  1   
 48  25  27  ar  
 49  25  48  1   
 50  26  27  ar  
 51  26  49  1   
 52  27  50  1   
@<TRIPOS>SUBSTRUCTURE
  1 ****  10 GROUP 4 **** **** 0

# MOE 2024.06 (io_trps.svl 2023.06)
