@<TRIPOS>MOLECULE
NONAME
58 62 1 0 0 
SMALL
USER_CHARGES


@<TRIPOS>ATOM
  1 O       -0.6310    -0.0310     2.1570 O.2   1 <1>  -0.5700 
  2 C       -1.2100     0.6490     1.3440 C.2   1 <1>   0.5690 
  3 N       -2.0340     0.0750     0.4130 N.am  1 <1>  -0.6600 
  4 C       -1.0150     2.1570     1.4170 C.3   1 <1>  -0.0990 
  5 C       -2.9910     0.7440    -0.5070 C.3   1 <1>   0.1400 
  6 C       -2.1700    -1.4000     0.2920 C.3   1 <1>   0.1400 
  7 C        0.1660     2.7120     0.5850 C.3   1 <1>   0.0000 
  8 C       -4.0660    -0.3120    -0.7530 C.3   1 <1>   0.2000 
  9 C       -3.2770    -1.6230    -0.7450 C.3   1 <1>  -0.0800 
 10 C        1.5110     2.0910     1.0360 C.3   1 <1>  -0.1600 
 11 C       -0.0150     2.4370    -0.9280 C.3   1 <1>  -0.1600 
 12 C        0.2450     4.2440     0.7900 C.3   1 <1>  -0.1600 
 13 O       -4.9370    -0.2880     0.3260 O.3   1 <1>  -0.6800 
 14 C       -4.1050    -2.8980    -0.5050 C.3   1 <1>   0.0210 
 15 C        2.6640     2.6980     0.2260 C.3   1 <1>   0.2800 
 16 C        1.1500     3.0330    -1.7420 C.3   1 <1>  -0.0800 
 17 C        1.4110     4.8540    -0.0120 C.3   1 <1>  -0.0800 
 18 C       -3.2150    -4.1260    -0.5190 C.2   1 <1>   0.1080 
 19 O        3.8450     2.1340     0.6430 O.3   1 <1>  -0.6800 
 20 C        2.4720     2.3990    -1.2680 C.3   1 <1>  -0.1600 
 21 C        2.7320     4.2140     0.4560 C.3   1 <1>  -0.1600 
 22 C        1.2030     4.5550    -1.5090 C.3   1 <1>  -0.1600 
 23 N       -2.5360    -4.4910    -1.5620 N.2   1 <1>  -0.7070 
 24 C       -3.0180    -4.9780     0.5620 C.2   1 <1>  -0.1500 
 25 N       -1.8810    -5.6000    -1.1690 N.pl3 1 <1>   0.3000 
 26 C       -2.1550    -5.9140     0.1140 C.2   1 <1>  -0.3320 
 27 C       -1.5670    -7.1080     0.8450 C.3   1 <1>  -0.0600 
 28 H       -1.9210     2.6530     1.1320 H     1 <1>   0.0800 
 29 H       -0.8470     2.4010     2.4500 H     1 <1>   0.0800 
 30 H       -3.4150     1.6390    -0.0890 H     1 <1>   0.0800 
 31 H       -2.4910     0.9710    -1.4320 H     1 <1>   0.0800 
 32 H       -1.2420    -1.8450    -0.0250 H     1 <1>   0.0800 
 33 H       -2.4460    -1.8090     1.2500 H     1 <1>   0.0800 
 34 H       -4.6270    -0.1520    -1.6570 H     1 <1>   0.0800 
 35 H       -2.7960    -1.7200    -1.7030 H     1 <1>   0.0800 
 36 H        1.4990     1.0270     0.8840 H     1 <1>   0.0800 
 37 H        1.6690     2.2770     2.0830 H     1 <1>   0.0800 
 38 H       -0.0540     1.3760    -1.1060 H     1 <1>   0.0800 
 39 H       -0.9410     2.8650    -1.2690 H     1 <1>   0.0800 
 40 H       -0.6760     4.7050     0.4800 H     1 <1>   0.0800 
 41 H        0.3820     4.4660     1.8350 H     1 <1>   0.0800 
 42 H       -4.4050    -0.3100     1.1480 H     1 <1>   0.4000 
 43 H       -4.8430    -2.9990    -1.2800 H     1 <1>   0.0800 
 44 H       -4.6180    -2.8470     0.4380 H     1 <1>   0.0800 
 45 H        1.0040     2.8280    -2.7890 H     1 <1>   0.0800 
 46 H        1.4460     5.9180     0.1460 H     1 <1>   0.0800 
 47 H        4.5800     2.5080     0.1280 H     1 <1>   0.4000 
 48 H        3.2890     2.8050    -1.8370 H     1 <1>   0.0800 
 49 H        2.4390     1.3350    -1.4230 H     1 <1>   0.0800 
 50 H        2.8820     4.4160     1.5020 H     1 <1>   0.0800 
 51 H        3.5520     4.6380    -0.0960 H     1 <1>   0.0800 
 52 H        0.2870     5.0070    -1.8460 H     1 <1>   0.0800 
 53 H        2.0070     4.9840    -2.0820 H     1 <1>   0.0800 
 54 H       -3.4670    -4.8850     1.5350 H     1 <1>   0.1500 
 55 H       -1.2570    -6.1170    -1.7990 H     1 <1>   0.2700 
 56 H       -1.9380    -7.1420     1.8540 H     1 <1>   0.0800 
 57 H       -0.4950    -7.0330     0.8770 H     1 <1>   0.0800 
 58 H       -1.8420    -8.0210     0.3480 H     1 <1>   0.0800 
@<TRIPOS>BOND
  1   1   2  2   
  2   2   3  am  
  3   2   4  1   
  4   3   5  1   
  5   3   6  1   
  6   4   7  1   
  7   4  28  1   
  8   4  29  1   
  9   5   8  1   
 10   5  30  1   
 11   5  31  1   
 12   6   9  1   
 13   6  32  1   
 14   6  33  1   
 15   7  10  1   
 16   7  11  1   
 17   7  12  1   
 18   8   9  1   
 19   8  13  1   
 20   8  34  1   
 21   9  14  1   
 22   9  35  1   
 23  10  15  1   
 24  10  36  1   
 25  10  37  1   
 26  11  16  1   
 27  11  38  1   
 28  11  39  1   
 29  12  17  1   
 30  12  40  1   
 31  12  41  1   
 32  13  42  1   
 33  14  18  1   
 34  14  43  1   
 35  14  44  1   
 36  15  19  1   
 37  15  20  1   
 38  15  21  1   
 39  16  20  1   
 40  16  22  1   
 41  16  45  1   
 42  17  21  1   
 43  17  22  1   
 44  17  46  1   
 45  18  23  2   
 46  18  24  1   
 47  19  47  1   
 48  20  48  1   
 49  20  49  1   
 50  21  50  1   
 51  21  51  1   
 52  22  52  1   
 53  22  53  1   
 54  23  25  1   
 55  24  26  2   
 56  24  54  1   
 57  25  26  1   
 58  25  55  1   
 59  26  27  1   
 60  27  56  1   
 61  27  57  1   
 62  27  58  1   
@<TRIPOS>SUBSTRUCTURE
  1 ****   3 GROUP 4 **** **** 0

# MOE 2024.06 (io_trps.svl 2023.06)
