@<TRIPOS>MOLECULE
NONAME
64 67 1 0 0 
SMALL
USER_CHARGES


@<TRIPOS>ATOM
  1 O        0.7540     0.6190     2.1070 O.2   1 <1>  -0.5700 
  2 C        1.7690    -0.0320     2.1080 C.2   1 <1>   0.5690 
  3 N        3.0030     0.5660     2.2530 N.am  1 <1>  -0.6600 
  4 C        1.6220    -1.5300     1.8920 C.3   1 <1>  -0.0990 
  5 C        4.3080    -0.1580     2.3010 C.3   1 <1>   0.1400 
  6 C        3.1150     2.0480     2.3670 C.3   1 <1>   0.1400 
  7 C        0.8010    -1.8770     0.6390 C.3   1 <1>   0.0630 
  8 C        4.8230    -0.4620     0.8810 C.3   1 <1>   0.3430 
  9 C        4.0240     2.6300     1.2760 C.3   1 <1>  -0.1600 
 10 C        1.0470    -3.3020     0.1930 C.ar  1 <1>  -0.1440 
 11 C        1.1750    -1.0600    -0.6190 C.3   1 <1>  -0.1600 
 12 N        5.1080     0.7590     0.0550 N.4   1 <1>  -0.9590 
 13 C        4.0470     1.8090    -0.0150 C.3   1 <1>   0.3430 
 14 C        1.2080    -3.3740    -1.1700 C.ar  1 <1>  -0.1440 
 15 C        1.1210    -4.4470     0.9680 C.ar  1 <1>  -0.1500 
 16 C        1.0600    -2.0200    -1.8130 C.3   1 <1>  -0.0170 
 17 C        5.6020     0.4110    -1.3030 C.3   1 <1>   0.5240 
 18 C        1.4630    -4.5810    -1.7930 C.ar  1 <1>  -0.1500 
 19 C        1.3780    -5.6620     0.3530 C.ar  1 <1>  -0.1500 
 20 C        6.5480     1.5320    -1.7080 C.2   1 <1>   0.0460 
 21 C        1.5500    -5.7290    -1.0220 C.ar  1 <1>  -0.1500 
 22 N        7.3500     2.0920    -0.7750 N.2   1 <1>  -0.5650 
 23 C        6.7240     2.1220    -2.9100 C.2   1 <1>  -0.3020 
 24 C        7.9980     3.0020    -1.4270 C.2   1 <1>   0.0060 
 25 N        7.6640     3.0700    -2.7340 N.pl3 1 <1>   0.0330 
 26 C        9.0350     3.9180    -0.8000 C.3   1 <1>   0.0200 
 27 C        8.4490     5.3140    -0.5480 C.3   1 <1>  -0.1600 
 28 C        9.4740     6.2420     0.1160 C.3   1 <1>  -0.1600 
 29 C        8.8740     7.6280     0.3710 C.3   1 <1>  -0.2400 
 30 H        1.1290    -1.9420     2.7530 H     1 <1>   0.0800 
 31 H        2.5730    -2.0130     1.8090 H     1 <1>   0.0800 
 32 H        4.1930    -1.0760     2.8510 H     1 <1>   0.0800 
 33 H        5.0360     0.4300     2.8330 H     1 <1>   0.0800 
 34 H        3.4930     2.3070     3.3420 H     1 <1>   0.0800 
 35 H        2.1410     2.5000     2.2780 H     1 <1>   0.0800 
 36 H       -0.2500    -1.7500     0.8420 H     1 <1>   0.0800 
 37 H        4.0920    -1.0740     0.3800 H     1 <1>   0.0800 
 38 H        5.7260    -1.0430     0.9670 H     1 <1>   0.0800 
 39 H        5.0220     2.7650     1.6530 H     1 <1>   0.0800 
 40 H        3.6520     3.6120     1.0450 H     1 <1>   0.0800 
 41 H        2.1930    -0.7310    -0.5530 H     1 <1>   0.0800 
 42 H        0.5340    -0.2030    -0.7330 H     1 <1>   0.0800 
 43 H        5.9440     1.2440     0.4340 H     1 <1>   0.4500 
 44 H        4.2720     2.4800    -0.8300 H     1 <1>   0.0800 
 45 H        3.0790     1.3700    -0.1970 H     1 <1>   0.0800 
 46 H        0.9800    -4.4020     2.0330 H     1 <1>   0.1500 
 47 H        1.8200    -1.8410    -2.5510 H     1 <1>   0.0800 
 48 H        0.0860    -1.9480    -2.2640 H     1 <1>   0.0800 
 49 H        4.7910     0.3140    -2.0050 H     1 <1>   0.0800 
 50 H        6.1600    -0.5090    -1.2700 H     1 <1>   0.0800 
 51 H        1.5850    -4.6320    -2.8610 H     1 <1>   0.1500 
 52 H        1.4390    -6.5590     0.9440 H     1 <1>   0.1500 
 53 H        1.7470    -6.6770    -1.4910 H     1 <1>   0.1500 
 54 H        6.2550     1.9360    -3.8610 H     1 <1>   0.1500 
 55 H        8.0530     3.7120    -3.4340 H     1 <1>   0.2700 
 56 H        9.8920     3.9870    -1.4460 H     1 <1>   0.0800 
 57 H        9.3590     3.4910     0.1330 H     1 <1>   0.0800 
 58 H        7.5870     5.2200     0.0900 H     1 <1>   0.0800 
 59 H        8.1290     5.7440    -1.4810 H     1 <1>   0.0800 
 60 H       10.3390     6.3440    -0.5170 H     1 <1>   0.0800 
 61 H        9.7940     5.8200     1.0540 H     1 <1>   0.0800 
 62 H        8.5690     8.0840    -0.5550 H     1 <1>   0.0800 
 63 H        9.6050     8.2640     0.8390 H     1 <1>   0.0800 
 64 H        8.0200     7.5560     1.0210 H     1 <1>   0.0800 
@<TRIPOS>BOND
  1   1   2  2   
  2   2   3  am  
  3   2   4  1   
  4   3   5  1   
  5   3   6  1   
  6   4   7  1   
  7   4  30  1   
  8   4  31  1   
  9   5   8  1   
 10   5  32  1   
 11   5  33  1   
 12   6   9  1   
 13   6  34  1   
 14   6  35  1   
 15   7  10  1   
 16   7  11  1   
 17   7  36  1   
 18   8  12  1   
 19   8  37  1   
 20   8  38  1   
 21   9  13  1   
 22   9  39  1   
 23   9  40  1   
 24  10  14  ar  
 25  10  15  ar  
 26  11  16  1   
 27  11  41  1   
 28  11  42  1   
 29  12  13  1   
 30  12  17  1   
 31  12  43  1   
 32  13  44  1   
 33  13  45  1   
 34  14  16  1   
 35  14  18  ar  
 36  15  19  ar  
 37  15  46  1   
 38  16  47  1   
 39  16  48  1   
 40  17  20  1   
 41  17  49  1   
 42  17  50  1   
 43  18  21  ar  
 44  18  51  1   
 45  19  21  ar  
 46  19  52  1   
 47  20  22  1   
 48  20  23  2   
 49  21  53  1   
 50  22  24  2   
 51  23  25  1   
 52  23  54  1   
 53  24  25  1   
 54  24  26  1   
 55  25  55  1   
 56  26  27  1   
 57  26  56  1   
 58  26  57  1   
 59  27  28  1   
 60  27  58  1   
 61  27  59  1   
 62  28  29  1   
 63  28  60  1   
 64  28  61  1   
 65  29  62  1   
 66  29  63  1   
 67  29  64  1   
@<TRIPOS>SUBSTRUCTURE
  1 ****  12 GROUP 4 **** **** 0

# MOE 2024.06 (io_trps.svl 2023.06)
