@<TRIPOS>MOLECULE
NONAME
49 51 1 0 0 
SMALL
USER_CHARGES


@<TRIPOS>ATOM
  1 F        0.6040     0.4650     2.4340 F     1 <1>  -0.1900 
  2 C        1.3940     0.9080     1.4930 C.ar  1 <1>   0.1900 
  3 C        2.0410    -0.0030     0.6760 C.ar  1 <1>  -0.1440 
  4 C        1.5420     2.2740     1.3530 C.ar  1 <1>  -0.1500 
  5 C        2.8780     0.4840    -0.3230 C.ar  1 <1>   0.0830 
  6 C        1.8350    -1.4880     0.8830 C.3   1 <1>   0.4860 
  7 C        2.3740     2.7490     0.3550 C.ar  1 <1>  -0.1500 
  8 O        3.5000    -0.4270    -1.1190 O.3   1 <1>  -0.3630 
  9 C        3.0380     1.8620    -0.4780 C.ar  1 <1>  -0.1500 
 10 N        1.3480    -2.1350    -0.3760 N.4   1 <1>  -0.9590 
 11 C        4.5300    -0.0360    -2.0070 C.3   1 <1>   0.0400 
 12 C       -0.0810    -1.9400    -0.7720 C.3   1 <1>   0.4230 
 13 C        1.6880    -3.5870    -0.3600 C.3   1 <1>   0.2630 
 14 C       -1.0980    -2.0070     0.3660 C.3   1 <1>  -0.1600 
 15 C       -0.3630    -0.6090    -1.4580 C.3   1 <1>  -0.1600 
 16 C       -2.3660    -1.3740    -0.2250 C.3   1 <1>  -0.0800 
 17 C       -1.8870    -0.4530    -1.3730 C.3   1 <1>  -0.0800 
 18 C       -3.2470    -0.6860     0.8390 C.3   1 <1>   0.1400 
 19 C       -2.3380     1.0120    -1.2190 C.3   1 <1>  -0.0990 
 20 N       -4.2090     0.2320     0.1820 N.am  1 <1>  -0.6600 
 21 C       -3.7960     1.0760    -0.8120 C.2   1 <1>   0.5690 
 22 C       -5.6020     0.2320     0.7040 C.3   1 <1>   0.0600 
 23 O       -4.5270     1.8570    -1.3700 O.2   1 <1>  -0.5700 
 24 H        1.0200     2.9480     2.0090 H     1 <1>   0.1500 
 25 H        1.1530    -1.6720     1.6950 H     1 <1>   0.0800 
 26 H        2.7880    -1.9110     1.1540 H     1 <1>   0.0800 
 27 H        2.5050     3.8110     0.2260 H     1 <1>   0.1500 
 28 H        3.6740     2.2690    -1.2420 H     1 <1>   0.1500 
 29 H        1.9250    -1.6800    -1.1050 H     1 <1>   0.4500 
 30 H        4.9420    -0.9210    -2.4600 H     1 <1>   0.0800 
 31 H        5.2970     0.4770    -1.4530 H     1 <1>   0.0800 
 32 H        4.1170     0.6020    -2.7690 H     1 <1>   0.0800 
 33 H       -0.3460    -2.7060    -1.4830 H     1 <1>   0.0800 
 34 H        1.1320    -4.0950     0.4110 H     1 <1>   0.0800 
 35 H        2.7420    -3.7230    -0.1750 H     1 <1>   0.0800 
 36 H        1.4490    -4.0370    -1.3110 H     1 <1>   0.0800 
 37 H       -1.2800    -3.0180     0.6830 H     1 <1>   0.0800 
 38 H       -0.7830    -1.4130     1.2020 H     1 <1>   0.0800 
 39 H        0.0970     0.2070    -0.9380 H     1 <1>   0.0800 
 40 H       -0.0310    -0.6110    -2.4810 H     1 <1>   0.0800 
 41 H       -2.9580    -2.1600    -0.6670 H     1 <1>   0.0800 
 42 H       -2.3230    -0.8280    -2.2860 H     1 <1>   0.0800 
 43 H       -2.6410    -0.1070     1.5140 H     1 <1>   0.0800 
 44 H       -3.7760    -1.4300     1.4110 H     1 <1>   0.0800 
 45 H       -2.2020     1.5420    -2.1440 H     1 <1>   0.0800 
 46 H       -1.7680     1.5120    -0.4580 H     1 <1>   0.0800 
 47 H       -6.0420    -0.7400     0.5710 H     1 <1>   0.0800 
 48 H       -6.2030     0.9550     0.1780 H     1 <1>   0.0800 
 49 H       -5.6010     0.4850     1.7500 H     1 <1>   0.0800 
@<TRIPOS>BOND
  1   1   2  1   
  2   2   3  ar  
  3   2   4  ar  
  4   3   5  ar  
  5   3   6  1   
  6   4   7  ar  
  7   4  24  1   
  8   5   8  1   
  9   5   9  ar  
 10   6  10  1   
 11   6  25  1   
 12   6  26  1   
 13   7   9  ar  
 14   7  27  1   
 15   8  11  1   
 16   9  28  1   
 17  10  12  1   
 18  10  13  1   
 19  10  29  1   
 20  11  30  1   
 21  11  31  1   
 22  11  32  1   
 23  12  14  1   
 24  12  15  1   
 25  12  33  1   
 26  13  34  1   
 27  13  35  1   
 28  13  36  1   
 29  14  16  1   
 30  14  37  1   
 31  14  38  1   
 32  15  17  1   
 33  15  39  1   
 34  15  40  1   
 35  16  17  1   
 36  16  18  1   
 37  16  41  1   
 38  17  19  1   
 39  17  42  1   
 40  18  20  1   
 41  18  43  1   
 42  18  44  1   
 43  19  21  1   
 44  19  45  1   
 45  19  46  1   
 46  20  21  am  
 47  20  22  1   
 48  21  23  2   
 49  22  47  1   
 50  22  48  1   
 51  22  49  1   
@<TRIPOS>SUBSTRUCTURE
  1 ****  15 GROUP 4 **** **** 0

# MOE 2024.06 (io_trps.svl 2023.06)
