@<TRIPOS>MOLECULE
NONAME
45 47 1 0 0 
SMALL
USER_CHARGES


@<TRIPOS>ATOM
  1 O       -0.1700    -0.2710     0.4810 O.2   1 <1>  -0.5700 
  2 C       -0.1390    -1.4680     0.6610 C.2   1 <1>   0.5770 
  3 N       -1.0610    -2.4730     0.5270 N.am  1 <1>  -0.4020 
  4 C        0.9710    -2.4050     1.1710 C.3   1 <1>   0.3110 
  5 C       -2.4410    -2.5290     0.2650 C.ar  1 <1>   0.1170 
  6 C       -0.1050    -3.5210     1.0360 C.3   1 <1>   0.2250 
  7 O        2.0590    -2.5490     0.2970 O.3   1 <1>  -0.5380 
  8 C       -3.0860    -1.4550    -0.3400 C.ar  1 <1>  -0.1500 
  9 C       -3.1960    -3.6480     0.6040 C.ar  1 <1>  -0.1500 
 10 C        0.1300    -4.6300    -0.0040 C.3   1 <1>  -0.1600 
 11 C        2.7920    -1.3850     0.1400 C.3   1 <1>   0.4000 
 12 C       -4.4430    -1.5000    -0.6020 C.ar  1 <1>  -0.1500 
 13 C       -4.5550    -3.6990     0.3420 C.ar  1 <1>  -0.1500 
 14 C        1.1720    -5.6490     0.4740 C.3   1 <1>  -0.0650 
 15 O        3.9270    -1.7500    -0.5600 O.3   1 <1>  -0.5600 
 16 C       -5.1880    -2.6190    -0.2660 C.ar  1 <1>   0.0830 
 17 C        1.3160    -6.7840    -0.5430 C.3   1 <1>  -0.1950 
 18 C        4.7520    -0.6800    -0.8830 C.3   1 <1>   0.0400 
 19 O       -6.5140    -2.5830    -0.5600 O.3   1 <1>  -0.3630 
 20 C        0.3710    -7.9420    -0.5390 C.3   1 <1>  -0.2000 
 21 C        1.8010    -8.1310    -0.1150 C.3   1 <1>  -0.2000 
 22 C       -7.3570    -3.6710    -0.2540 C.3   1 <1>   0.0400 
 23 H        1.2950    -2.2220     2.1800 H     1 <1>   0.0000 
 24 H       -0.4400    -3.8890     1.9890 H     1 <1>   0.0000 
 25 H       -2.5240    -0.5780    -0.6080 H     1 <1>   0.1500 
 26 H       -2.7240    -4.4870     1.0790 H     1 <1>   0.1500 
 27 H       -0.7960    -5.1460    -0.1830 H     1 <1>   0.0800 
 28 H        0.4550    -4.1970    -0.9350 H     1 <1>   0.0800 
 29 H        2.2240    -0.6700    -0.4330 H     1 <1>   0.0800 
 30 H        3.0730    -0.9910     1.1020 H     1 <1>   0.0800 
 31 H       -4.9340    -0.6670    -1.0710 H     1 <1>   0.1500 
 32 H       -5.1010    -4.5800     0.6180 H     1 <1>   0.1500 
 33 H        0.8760    -6.0520     1.4270 H     1 <1>   0.0800 
 34 H        2.1290    -5.1700     0.5950 H     1 <1>   0.0800 
 35 H        1.6590    -6.4310    -1.5020 H     1 <1>   0.1000 
 36 H        5.6010    -1.0640    -1.4200 H     1 <1>   0.0800 
 37 H        5.0830    -0.1990     0.0220 H     1 <1>   0.0800 
 38 H        4.2110     0.0110    -1.5070 H     1 <1>   0.0800 
 39 H       -0.3980    -7.9920     0.2120 H     1 <1>   0.1000 
 40 H        0.0520    -8.3480    -1.4840 H     1 <1>   0.1000 
 41 H        2.4690    -8.6670    -0.7660 H     1 <1>   0.1000 
 42 H        2.0120    -8.3070     0.9260 H     1 <1>   0.1000 
 43 H       -8.3530    -3.4220    -0.5730 H     1 <1>   0.0800 
 44 H       -7.3440    -3.8350     0.8090 H     1 <1>   0.0800 
 45 H       -7.0110    -4.5410    -0.7840 H     1 <1>   0.0800 
@<TRIPOS>BOND
  1   1   2  2   
  2   2   3  am  
  3   2   4  1   
  4   3   5  1   
  5   3   6  1   
  6   4   6  1   
  7   4   7  1   
  8   4  23  1   
  9   5   8  ar  
 10   5   9  ar  
 11   6  10  1   
 12   6  24  1   
 13   7  11  1   
 14   8  12  ar  
 15   8  25  1   
 16   9  13  ar  
 17   9  26  1   
 18  10  14  1   
 19  10  27  1   
 20  10  28  1   
 21  11  15  1   
 22  11  29  1   
 23  11  30  1   
 24  12  16  ar  
 25  12  31  1   
 26  13  16  ar  
 27  13  32  1   
 28  14  17  1   
 29  14  33  1   
 30  14  34  1   
 31  15  18  1   
 32  16  19  1   
 33  17  20  1   
 34  17  21  1   
 35  17  35  1   
 36  18  36  1   
 37  18  37  1   
 38  18  38  1   
 39  19  22  1   
 40  20  21  1   
 41  20  39  1   
 42  20  40  1   
 43  21  41  1   
 44  21  42  1   
 45  22  43  1   
 46  22  44  1   
 47  22  45  1   
@<TRIPOS>SUBSTRUCTURE
  1 ****   3 GROUP 4 **** **** 0

# MOE 2024.06 (io_trps.svl 2023.06)
