@<TRIPOS>MOLECULE
NONAME
62 64 1 0 0 
SMALL
USER_CHARGES


@<TRIPOS>ATOM
  1 CL      -1.7260    -1.0290     0.8980 Cl    1 <1>  -0.1770 
  2 C       -2.4230     0.4330     0.2340 C.ar  1 <1>   0.1770 
  3 C       -3.2920     0.3470    -0.8440 C.ar  1 <1>  -0.1440 
  4 C       -2.0980     1.6440     0.8110 C.ar  1 <1>  -0.1500 
  5 C       -3.8530     1.5160    -1.3400 C.ar  1 <1>  -0.1500 
  6 C       -3.6230    -0.9950    -1.4630 C.3   1 <1>   0.4870 
  7 C       -2.6480     2.8080     0.3040 C.ar  1 <1>   0.0820 
  8 C       -3.5550     2.7400    -0.7620 C.ar  1 <1>   0.0820 
  9 N       -4.4050    -1.7960    -0.4760 N.4   1 <1>  -0.9590 
 10 O       -2.2670     3.9730     0.8810 O.3   1 <1>  -0.3620 
 11 O       -4.1770     3.8240    -1.2840 O.3   1 <1>  -0.3620 
 12 C       -4.4990    -3.2420    -0.8880 C.3   1 <1>   0.3430 
 13 C       -5.7470    -1.1820    -0.2450 C.3   1 <1>   0.3430 
 14 C       -1.5240     4.8870     0.1010 C.3   1 <1>   0.2000 
 15 C       -5.0080     4.5770    -0.4240 C.3   1 <1>   0.0400 
 16 C       -5.3280    -4.1180     0.1070 C.3   1 <1>   0.4230 
 17 C       -6.5060    -1.9890     0.8140 C.3   1 <1>  -0.1600 
 18 C       -0.0890     4.3750    -0.0350 C.3   1 <1>  -0.2400 
 19 C       -1.5640     6.2340     0.8180 C.3   1 <1>  -0.2400 
 20 N       -5.4090    -5.6060    -0.2350 N.4   1 <1>  -0.9590 
 21 C       -6.7110    -3.4850     0.4460 C.3   1 <1>   0.0000 
 22 C       -6.4780    -6.3440     0.5230 C.3   1 <1>   0.3430 
 23 C       -5.5520    -5.9180    -1.6980 C.3   1 <1>   0.2630 
 24 C       -7.2910    -4.2140     1.6910 C.3   1 <1>  -0.1600 
 25 C       -7.7500    -3.5920    -0.7080 C.3   1 <1>   0.1200 
 26 C       -6.7840    -5.6620     1.8580 C.3   1 <1>  -0.1600 
 27 O       -7.2160    -3.1800    -1.9210 O.3   1 <1>  -0.6800 
 28 H       -1.4170     1.6920     1.6420 H     1 <1>   0.1500 
 29 H       -4.5300     1.5060    -2.1770 H     1 <1>   0.1500 
 30 H       -2.7030    -1.5000    -1.7090 H     1 <1>   0.0800 
 31 H       -4.1910    -0.8560    -2.3700 H     1 <1>   0.0800 
 32 H       -3.8690    -1.7150     0.4040 H     1 <1>   0.4500 
 33 H       -4.9560    -3.2940    -1.8610 H     1 <1>   0.0800 
 34 H       -3.5050    -3.6510    -0.9620 H     1 <1>   0.0800 
 35 H       -5.6350    -0.1640     0.0960 H     1 <1>   0.0800 
 36 H       -6.3100    -1.1630    -1.1650 H     1 <1>   0.0800 
 37 H       -1.9840     4.9770    -0.8690 H     1 <1>   0.0800 
 38 H       -5.5220     5.3130    -1.0150 H     1 <1>   0.0800 
 39 H       -4.4090     5.0660     0.3210 H     1 <1>   0.0800 
 40 H       -5.7180     3.9180     0.0420 H     1 <1>   0.0800 
 41 H       -4.7770    -4.0670     1.0310 H     1 <1>   0.0800 
 42 H       -5.9660    -1.8990     1.7410 H     1 <1>   0.0800 
 43 H       -7.4640    -1.5230     0.9710 H     1 <1>   0.0800 
 44 H        0.3520     4.2340     0.9350 H     1 <1>   0.0800 
 45 H        0.5020     5.0880    -0.5800 H     1 <1>   0.0800 
 46 H       -0.0710     3.4470    -0.5770 H     1 <1>   0.0800 
 47 H       -1.1290     6.1500     1.7980 H     1 <1>   0.0800 
 48 H       -2.5790     6.5750     0.9080 H     1 <1>   0.0800 
 49 H       -1.0100     6.9650     0.2580 H     1 <1>   0.0800 
 50 H       -4.5220    -6.0320     0.0760 H     1 <1>   0.4500 
 51 H       -7.3850    -6.3740    -0.0590 H     1 <1>   0.0800 
 52 H       -6.1690    -7.3630     0.6970 H     1 <1>   0.0800 
 53 H       -6.4630    -5.4930    -2.0890 H     1 <1>   0.0800 
 54 H       -5.5840    -6.9850    -1.8500 H     1 <1>   0.0800 
 55 H       -4.7200    -5.5250    -2.2580 H     1 <1>   0.0800 
 56 H       -7.0450    -3.6880     2.5990 H     1 <1>   0.0800 
 57 H       -8.3680    -4.2210     1.6400 H     1 <1>   0.0800 
 58 H       -8.6090    -2.9750    -0.4960 H     1 <1>   0.0800 
 59 H       -8.0980    -4.6030    -0.8340 H     1 <1>   0.0800 
 60 H       -7.5300    -6.2370     2.3830 H     1 <1>   0.0800 
 61 H       -5.8980    -5.6770     2.4690 H     1 <1>   0.0800 
 62 H       -7.9310    -3.1020    -2.5960 H     1 <1>   0.4000 
@<TRIPOS>BOND
  1   1   2  1   
  2   2   3  ar  
  3   2   4  ar  
  4   3   5  ar  
  5   3   6  1   
  6   4   7  ar  
  7   4  28  1   
  8   5   8  ar  
  9   5  29  1   
 10   6   9  1   
 11   6  30  1   
 12   6  31  1   
 13   7   8  ar  
 14   7  10  1   
 15   8  11  1   
 16   9  12  1   
 17   9  13  1   
 18   9  32  1   
 19  10  14  1   
 20  11  15  1   
 21  12  16  1   
 22  12  33  1   
 23  12  34  1   
 24  13  17  1   
 25  13  35  1   
 26  13  36  1   
 27  14  18  1   
 28  14  19  1   
 29  14  37  1   
 30  15  38  1   
 31  15  39  1   
 32  15  40  1   
 33  16  20  1   
 34  16  21  1   
 35  16  41  1   
 36  17  21  1   
 37  17  42  1   
 38  17  43  1   
 39  18  44  1   
 40  18  45  1   
 41  18  46  1   
 42  19  47  1   
 43  19  48  1   
 44  19  49  1   
 45  20  22  1   
 46  20  23  1   
 47  20  50  1   
 48  21  24  1   
 49  21  25  1   
 50  22  26  1   
 51  22  51  1   
 52  22  52  1   
 53  23  53  1   
 54  23  54  1   
 55  23  55  1   
 56  24  26  1   
 57  24  56  1   
 58  24  57  1   
 59  25  27  1   
 60  25  58  1   
 61  25  59  1   
 62  26  60  1   
 63  26  61  1   
 64  27  62  1   
@<TRIPOS>SUBSTRUCTURE
  1 ****   9 GROUP 4 **** **** 0

# MOE 2024.06 (io_trps.svl 2023.06)
