@<TRIPOS>MOLECULE
NONAME
36 37 1 0 0 
SMALL
USER_CHARGES


@<TRIPOS>ATOM
  1 S        0.7000     0.0780    -0.2590 S.3   1 <1>  -0.0800 
  2 C       -0.7100     1.0240     0.1740 C.2   1 <1>   0.1980 
  3 C       -0.3300    -1.3050    -0.4830 C.2   1 <1>  -0.1100 
  4 N       -1.8050     0.3750     0.1470 N.2   1 <1>  -0.5650 
  5 C       -0.4980     2.4800     0.5210 C.3   1 <1>   0.0200 
  6 C       -1.5950    -0.9450    -0.2230 C.2   1 <1>   0.0770 
  7 C       -0.3630     3.3060    -0.7550 C.3   1 <1>   0.2090 
  8 N       -0.1900     4.7420    -0.4150 N.pl3 1 <1>  -0.8690 
  9 C        1.0220     5.3470    -0.1760 C.ar  1 <1>   0.4100 
 10 N        2.0710     4.5590    -0.0770 N.ar  1 <1>  -0.6200 
 11 C        1.1320     6.7260    -0.0380 C.ar  1 <1>  -0.1430 
 12 C        3.2220     5.1520     0.1550 C.ar  1 <1>   0.4770 
 13 C        2.3940     7.2160     0.2020 C.ar  1 <1>   0.1600 
 14 C       -0.1110     7.6150    -0.1530 C.3   1 <1>  -0.0160 
 15 N        3.4550     6.4410     0.3010 N.ar  1 <1>  -0.6200 
 16 C        4.4290     4.2520     0.2670 C.3   1 <1>  -0.0970 
 17 C        0.1340     9.1200     0.0360 C.3   1 <1>  -0.1600 
 18 C       -1.1680     9.9170    -0.0910 C.3   1 <1>  -0.2400 
 19 H        0.1210    -2.2330    -0.7820 H     1 <1>   0.1500 
 20 H        0.3880     2.5810     1.1190 H     1 <1>   0.0800 
 21 H       -1.3420     2.8300     1.0860 H     1 <1>   0.0800 
 22 H       -2.4550    -1.5910    -0.2770 H     1 <1>   0.1500 
 23 H       -1.2450     3.1860    -1.3610 H     1 <1>   0.0800 
 24 H        0.4840     2.9620    -1.3250 H     1 <1>   0.0800 
 25 H       -1.0070     5.3360    -0.5600 H     1 <1>   0.4000 
 26 H        2.5660     8.2700     0.3200 H     1 <1>   0.1500 
 27 H       -0.8260     7.2910     0.5840 H     1 <1>   0.0800 
 28 H       -0.5470     7.4600    -1.1250 H     1 <1>   0.0800 
 29 H        4.1410     3.2200     0.1840 H     1 <1>   0.0800 
 30 H        4.9030     4.4080     1.2180 H     1 <1>   0.0800 
 31 H        5.1230     4.4880    -0.5170 H     1 <1>   0.0800 
 32 H        0.8300     9.4700    -0.7070 H     1 <1>   0.0800 
 33 H        0.5560     9.2980     1.0110 H     1 <1>   0.0800 
 34 H       -1.6040     9.7780    -1.0660 H     1 <1>   0.0800 
 35 H       -0.9710    10.9660     0.0450 H     1 <1>   0.0800 
 36 H       -1.8780     9.6050     0.6550 H     1 <1>   0.0800 
@<TRIPOS>BOND
  1   1   2  1   
  2   1   3  1   
  3   2   4  2   
  4   2   5  1   
  5   3   6  2   
  6   3  19  1   
  7   4   6  1   
  8   5   7  1   
  9   5  20  1   
 10   5  21  1   
 11   6  22  1   
 12   7   8  1   
 13   7  23  1   
 14   7  24  1   
 15   8   9  1   
 16   8  25  1   
 17   9  10  ar  
 18   9  11  ar  
 19  10  12  ar  
 20  11  13  ar  
 21  11  14  1   
 22  12  15  ar  
 23  12  16  1   
 24  13  15  ar  
 25  13  26  1   
 26  14  17  1   
 27  14  27  1   
 28  14  28  1   
 29  16  29  1   
 30  16  30  1   
 31  16  31  1   
 32  17  18  1   
 33  17  32  1   
 34  17  33  1   
 35  18  34  1   
 36  18  35  1   
 37  18  36  1   
@<TRIPOS>SUBSTRUCTURE
  1 ****   8 GROUP 4 **** **** 0

# MOE 2024.06 (io_trps.svl 2023.06)
