@<TRIPOS>MOLECULE
NONAME
53 56 1 0 0 
SMALL
USER_CHARGES


@<TRIPOS>ATOM
  1 F        0.6600     1.2580     1.4960 F     1 <1>  -0.1900 
  2 C        1.7290     1.7190     0.8990 C.ar  1 <1>   0.1900 
  3 C        1.5980     2.6740    -0.0950 C.ar  1 <1>  -0.1440 
  4 C        2.9560     1.2260     1.2890 C.ar  1 <1>  -0.1500 
  5 C        2.7560     3.1380    -0.6990 C.ar  1 <1>  -0.1500 
  6 C        0.2330     3.1970    -0.5160 C.3   1 <1>  -0.0960 
  7 C        4.0970     1.7040     0.6700 C.ar  1 <1>  -0.1500 
  8 C        4.0170     2.6770    -0.3250 C.ar  1 <1>  -0.1440 
  9 C        5.2330     3.2670    -1.0630 C.3   1 <1>   0.0640 
 10 C        6.5930     2.5280    -0.8910 C.3   1 <1>  -0.1600 
 11 C        5.3520     4.8000    -0.8310 C.3   1 <1>  -0.1600 
 12 C        7.5940     3.1860     0.0790 C.3   1 <1>   0.2890 
 13 C        6.4370     5.2010     0.1740 C.3   1 <1>   0.2890 
 14 N        7.6770     4.5950    -0.3230 N.pl3 1 <1>  -0.8380 
 15 C        7.1060     3.2930     1.5220 C.3   1 <1>  -0.1600 
 16 C        6.2310     4.5500     1.5470 C.3   1 <1>  -0.1600 
 17 C        8.8610     5.2990    -0.3470 C.ar  1 <1>   0.4100 
 18 N        9.9080     4.7850     0.2920 N.ar  1 <1>  -0.6200 
 19 C        8.9310     6.5120    -1.0310 C.ar  1 <1>  -0.1500 
 20 C       11.0240     5.4910     0.2570 C.ar  1 <1>   0.1600 
 21 C       10.0980     7.2350    -1.0500 C.ar  1 <1>  -0.1500 
 22 C       11.1980     6.7220    -0.3690 C.ar  1 <1>   0.0860 
 23 C       12.4720     7.4000    -0.3070 C.2   1 <1>   0.5440 
 24 O       13.4930     6.7550    -0.4640 O.2   1 <1>  -0.5700 
 25 N       12.5770     8.7580    -0.0620 N.am  1 <1>  -0.6600 
 26 C       11.5210     9.5560     0.6180 C.3   1 <1>   0.0600 
 27 C       13.8610     9.4830    -0.2700 C.3   1 <1>   0.0600 
 28 H        3.0140     0.4800     2.0600 H     1 <1>   0.1500 
 29 H        2.6760     3.8750    -1.4790 H     1 <1>   0.1500 
 30 H        0.3220     3.9320    -1.2940 H     1 <1>   0.0800 
 31 H       -0.2620     3.6470     0.3270 H     1 <1>   0.0800 
 32 H       -0.3730     2.3850    -0.8780 H     1 <1>   0.0800 
 33 H        5.0360     1.2940     0.9790 H     1 <1>   0.1500 
 34 H        4.9840     3.1480    -2.1040 H     1 <1>   0.0800 
 35 H        7.0790     2.5270    -1.8500 H     1 <1>   0.0800 
 36 H        6.4520     1.4950    -0.6400 H     1 <1>   0.0800 
 37 H        4.4150     5.2150    -0.5110 H     1 <1>   0.0800 
 38 H        5.5990     5.2680    -1.7670 H     1 <1>   0.0800 
 39 H        8.5510     2.6920     0.0220 H     1 <1>   0.0800 
 40 H        6.5180     6.2710     0.2560 H     1 <1>   0.0800 
 41 H        6.6050     2.4140     1.8670 H     1 <1>   0.0800 
 42 H        7.9670     3.4500     2.1480 H     1 <1>   0.0800 
 43 H        6.5680     5.2180     2.3180 H     1 <1>   0.0800 
 44 H        5.1950     4.3190     1.7210 H     1 <1>   0.0800 
 45 H        8.0590     6.8600    -1.5490 H     1 <1>   0.1500 
 46 H       11.8770     5.0720     0.7640 H     1 <1>   0.1500 
 47 H       10.1730     8.1680    -1.5810 H     1 <1>   0.1500 
 48 H       11.9570    10.1290     1.4180 H     1 <1>   0.0800 
 49 H       10.7650     8.9160     1.0380 H     1 <1>   0.0800 
 50 H       11.0640    10.2290    -0.0870 H     1 <1>   0.0800 
 51 H       13.6720    10.4470    -0.7080 H     1 <1>   0.0800 
 52 H       14.5050     8.9280    -0.9310 H     1 <1>   0.0800 
 53 H       14.3620     9.6110     0.6730 H     1 <1>   0.0800 
@<TRIPOS>BOND
  1   1   2  1   
  2   2   3  ar  
  3   2   4  ar  
  4   3   5  ar  
  5   3   6  1   
  6   4   7  ar  
  7   4  28  1   
  8   5   8  ar  
  9   5  29  1   
 10   6  30  1   
 11   6  31  1   
 12   6  32  1   
 13   7   8  ar  
 14   7  33  1   
 15   8   9  1   
 16   9  10  1   
 17   9  11  1   
 18   9  34  1   
 19  10  12  1   
 20  10  35  1   
 21  10  36  1   
 22  11  13  1   
 23  11  37  1   
 24  11  38  1   
 25  12  14  1   
 26  12  15  1   
 27  12  39  1   
 28  13  14  1   
 29  13  16  1   
 30  13  40  1   
 31  14  17  1   
 32  15  16  1   
 33  15  41  1   
 34  15  42  1   
 35  16  43  1   
 36  16  44  1   
 37  17  18  ar  
 38  17  19  ar  
 39  18  20  ar  
 40  19  21  ar  
 41  19  45  1   
 42  20  22  ar  
 43  20  46  1   
 44  21  22  ar  
 45  21  47  1   
 46  22  23  1   
 47  23  24  2   
 48  23  25  am  
 49  25  26  1   
 50  25  27  1   
 51  26  48  1   
 52  26  49  1   
 53  26  50  1   
 54  27  51  1   
 55  27  52  1   
 56  27  53  1   
@<TRIPOS>SUBSTRUCTURE
  1 ****  14 GROUP 4 **** **** 0

# MOE 2024.06 (io_trps.svl 2023.06)
