@<TRIPOS>MOLECULE
NONAME
54 56 1 0 0 
SMALL
USER_CHARGES


@<TRIPOS>ATOM
  1 O       -0.0670     1.0420     1.2890 O.2   1 <1>  -0.5700 
  2 C       -0.0460     2.1410     0.7960 C.2   1 <1>   0.5690 
  3 N       -0.7970     3.1400     1.3090 N.am  1 <1>  -0.7300 
  4 C        0.8140     2.4110    -0.4440 C.3   1 <1>   0.1810 
  5 C       -0.8290     4.5140     0.7490 C.3   1 <1>   0.3640 
  6 O        1.0480     3.7860    -0.6600 O.3   1 <1>  -0.5600 
  7 C       -2.2760     4.9870     0.6640 C.ar  1 <1>  -0.1440 
  8 C       -0.1240     4.5900    -0.6270 C.3   1 <1>   0.2610 
  9 C       -2.5970     6.2790     1.0570 C.ar  1 <1>  -0.1500 
 10 C       -3.2840     4.1560     0.1920 C.ar  1 <1>  -0.1500 
 11 C        0.1590     6.0530    -0.9960 C.2   1 <1>   0.5690 
 12 C       -3.9030     6.7310     0.9840 C.ar  1 <1>  -0.1500 
 13 C       -4.5910     4.6080     0.1200 C.ar  1 <1>  -0.1500 
 14 O       -0.4970     6.5100    -1.9060 O.2   1 <1>  -0.5700 
 15 N        1.0870     6.8350    -0.3360 N.am  1 <1>  -0.6600 
 16 C       -4.9010     5.8960     0.5170 C.ar  1 <1>  -0.1500 
 17 C        1.3250     8.2460    -0.7400 C.3   1 <1>   0.1400 
 18 C        2.0760     6.3560     0.6700 C.3   1 <1>   0.1400 
 19 C        2.7070     8.3350    -1.3920 C.3   1 <1>  -0.1600 
 20 C        3.4870     6.4600     0.0790 C.3   1 <1>  -0.1600 
 21 C        3.8380     7.8860    -0.4310 C.3   1 <1>   0.0610 
 22 C        3.9730     8.9050     0.7310 C.2   1 <1>   0.5690 
 23 C        5.1590     7.8280    -1.2480 C.3   1 <1>  -0.1600 
 24 O        3.8410     8.5520     1.8800 O.2   1 <1>  -0.5700 
 25 N        4.2470    10.2080     0.4340 N.am  1 <1>  -0.7300 
 26 C        6.4060     7.4440    -0.4330 C.3   1 <1>  -0.2400 
 27 C        4.4230    11.2990     1.4260 C.3   1 <1>   0.0600 
 28 H       -1.3970     2.9490     2.1130 H     1 <1>   0.3700 
 29 H        0.3260     2.0100    -1.3130 H     1 <1>   0.0800 
 30 H        1.7680     1.9310    -0.3280 H     1 <1>   0.0800 
 31 H       -0.3080     5.1550     1.4380 H     1 <1>   0.0800 
 32 H       -0.7920     4.2000    -1.3730 H     1 <1>   0.0800 
 33 H       -1.8340     6.9480     1.4160 H     1 <1>   0.1500 
 34 H       -3.0620     3.1510    -0.1240 H     1 <1>   0.1500 
 35 H       -4.1430     7.7350     1.2890 H     1 <1>   0.1500 
 36 H       -5.3660     3.9570    -0.2460 H     1 <1>   0.1500 
 37 H       -5.9170     6.2480     0.4590 H     1 <1>   0.1500 
 38 H        0.5730     8.5780    -1.4360 H     1 <1>   0.0800 
 39 H        1.2740     8.8800     0.1290 H     1 <1>   0.0800 
 40 H        1.9950     6.9610     1.5570 H     1 <1>   0.0800 
 41 H        1.8910     5.3390     0.9590 H     1 <1>   0.0800 
 42 H        2.6980     7.7100    -2.2680 H     1 <1>   0.0800 
 43 H        2.8700     9.3440    -1.7230 H     1 <1>   0.0800 
 44 H        4.1900     6.1570     0.8350 H     1 <1>   0.0800 
 45 H        3.5590     5.7530    -0.7280 H     1 <1>   0.0800 
 46 H        5.0490     7.1190    -2.0510 H     1 <1>   0.0800 
 47 H        5.3390     8.7870    -1.7010 H     1 <1>   0.0800 
 48 H        4.4000    10.4660    -0.5420 H     1 <1>   0.3700 
 49 H        6.3180     6.4480    -0.0370 H     1 <1>   0.0800 
 50 H        6.5610     8.1280     0.3830 H     1 <1>   0.0800 
 51 H        7.2760     7.4740    -1.0650 H     1 <1>   0.0800 
 52 H        4.2470    10.9330     2.4230 H     1 <1>   0.0800 
 53 H        3.7260    12.0940     1.2210 H     1 <1>   0.0800 
 54 H        5.4270    11.6820     1.3700 H     1 <1>   0.0800 
@<TRIPOS>BOND
  1   1   2  2   
  2   2   3  am  
  3   2   4  1   
  4   3   5  1   
  5   3  28  1   
  6   4   6  1   
  7   4  29  1   
  8   4  30  1   
  9   5   7  1   
 10   5   8  1   
 11   5  31  1   
 12   6   8  1   
 13   7   9  ar  
 14   7  10  ar  
 15   8  11  1   
 16   8  32  1   
 17   9  12  ar  
 18   9  33  1   
 19  10  13  ar  
 20  10  34  1   
 21  11  14  2   
 22  11  15  am  
 23  12  16  ar  
 24  12  35  1   
 25  13  16  ar  
 26  13  36  1   
 27  15  17  1   
 28  15  18  1   
 29  16  37  1   
 30  17  19  1   
 31  17  38  1   
 32  17  39  1   
 33  18  20  1   
 34  18  40  1   
 35  18  41  1   
 36  19  21  1   
 37  19  42  1   
 38  19  43  1   
 39  20  21  1   
 40  20  44  1   
 41  20  45  1   
 42  21  22  1   
 43  21  23  1   
 44  22  24  2   
 45  22  25  am  
 46  23  26  1   
 47  23  46  1   
 48  23  47  1   
 49  25  27  1   
 50  25  48  1   
 51  26  49  1   
 52  26  50  1   
 53  26  51  1   
 54  27  52  1   
 55  27  53  1   
 56  27  54  1   
@<TRIPOS>SUBSTRUCTURE
  1 ****  15 GROUP 4 **** **** 0

# MOE 2024.06 (io_trps.svl 2023.06)
