@<TRIPOS>MOLECULE
NONAME
58 62 1 0 0 
SMALL
USER_CHARGES


@<TRIPOS>ATOM
  1 O       -1.9090     0.7230     2.1770 O.2   1 <1>  -0.5700 
  2 C       -2.1950     1.1860     1.0970 C.2   1 <1>   0.5690 
  3 N       -2.6770     0.3710     0.1010 N.am  1 <1>  -0.6600 
  4 C       -2.0450     2.7050     0.8870 C.3   1 <1>   0.1710 
  5 C       -3.2010     0.7700    -1.2310 C.3   1 <1>   0.1400 
  6 C       -2.8090    -1.0970     0.2850 C.3   1 <1>   0.1400 
  7 N       -0.7040     3.1980     0.4520 N.3   1 <1>  -0.8100 
  8 C       -4.0620    -0.4140    -1.6660 C.3   1 <1>   0.2000 
  9 C       -3.3520    -1.6270    -1.0500 C.3   1 <1>  -0.0800 
 10 C       -0.7130     4.6710     0.3630 C.3   1 <1>   0.2530 
 11 C       -0.2500     2.5710    -0.8070 C.3   1 <1>   0.1100 
 12 O       -5.3160    -0.2640    -1.0920 O.3   1 <1>  -0.6800 
 13 C       -4.2320    -2.8880    -0.9190 C.3   1 <1>  -0.0170 
 14 C        0.6780     5.2730     0.4920 C.ar  1 <1>  -0.1440 
 15 C        1.2180     2.8580    -1.1490 C.3   1 <1>   0.1200 
 16 C       -3.5350    -4.1720    -0.4490 C.ar  1 <1>  -0.1440 
 17 C        1.6470     5.0480    -0.4760 C.ar  1 <1>   0.0820 
 18 C        0.9840     6.0970     1.5660 C.ar  1 <1>  -0.1500 
 19 O        1.4140     4.2100    -1.5050 O.3   1 <1>  -0.3630 
 20 C       -4.3130    -5.3150    -0.1350 C.ar  1 <1>   0.0000 
 21 C       -2.1790    -4.2940    -0.3200 C.ar  1 <1>  -0.1500 
 22 C        2.8840     5.6670    -0.3990 C.ar  1 <1>  -0.1500 
 23 C        2.2270     6.7040     1.6560 C.ar  1 <1>  -0.1500 
 24 C       -3.6380    -6.4790     0.3110 C.ar  1 <1>   0.3100 
 25 C       -5.7230    -5.3760    -0.2430 C.ar  1 <1>  -0.1500 
 26 C       -1.6120    -5.4940     0.1260 C.ar  1 <1>   0.1600 
 27 C        3.1760     6.4960     0.6690 C.ar  1 <1>  -0.1500 
 28 N       -2.2900    -6.5510     0.4360 N.ar  1 <1>  -0.6200 
 29 C       -4.3870    -7.6210     0.6360 C.ar  1 <1>  -0.1500 
 30 C       -6.4240    -6.5060     0.0810 C.ar  1 <1>  -0.1500 
 31 C       -5.7510    -7.6440     0.5280 C.ar  1 <1>  -0.1500 
 32 H       -2.2730     3.1590     1.8350 H     1 <1>   0.0800 
 33 H       -2.7900     3.0400     0.1910 H     1 <1>   0.0800 
 34 H       -3.7760     1.6780    -1.1940 H     1 <1>   0.0800 
 35 H       -2.3770     0.8860    -1.9130 H     1 <1>   0.0800 
 36 H       -1.8560    -1.5290     0.5370 H     1 <1>   0.0800 
 37 H       -3.5020    -1.2880     1.0880 H     1 <1>   0.0800 
 38 H       -4.1810    -0.4830    -2.7340 H     1 <1>   0.0800 
 39 H       -2.5150    -1.8520    -1.6860 H     1 <1>   0.0800 
 40 H       -1.1490     4.9800    -0.5720 H     1 <1>   0.0800 
 41 H       -1.3230     5.0720     1.1540 H     1 <1>   0.0800 
 42 H       -0.3330     1.5030    -0.7060 H     1 <1>   0.0800 
 43 H       -0.8750     2.8780    -1.6270 H     1 <1>   0.0800 
 44 H       -5.2090    -0.1030    -0.1330 H     1 <1>   0.4000 
 45 H       -4.6830    -3.0870    -1.8760 H     1 <1>   0.0800 
 46 H       -5.0270    -2.6710    -0.2280 H     1 <1>   0.0800 
 47 H        1.5130     2.2660    -1.9950 H     1 <1>   0.0800 
 48 H        1.8560     2.6140    -0.3170 H     1 <1>   0.0800 
 49 H        0.2560     6.2750     2.3370 H     1 <1>   0.1500 
 50 H       -1.4960    -3.5000    -0.5480 H     1 <1>   0.1500 
 51 H        3.6110     5.4890    -1.1700 H     1 <1>   0.1500 
 52 H        2.4530     7.3420     2.4920 H     1 <1>   0.1500 
 53 H       -6.2680    -4.5180    -0.5900 H     1 <1>   0.1500 
 54 H       -0.5400    -5.5400     0.2170 H     1 <1>   0.1500 
 55 H        4.1380     6.9730     0.7350 H     1 <1>   0.1500 
 56 H       -3.8460    -8.4850     0.9760 H     1 <1>   0.1500 
 57 H       -7.4970    -6.5340    -0.0050 H     1 <1>   0.1500 
 58 H       -6.3120    -8.5270     0.7810 H     1 <1>   0.1500 
@<TRIPOS>BOND
  1   1   2  2   
  2   2   3  am  
  3   2   4  1   
  4   3   5  1   
  5   3   6  1   
  6   4   7  1   
  7   4  32  1   
  8   4  33  1   
  9   5   8  1   
 10   5  34  1   
 11   5  35  1   
 12   6   9  1   
 13   6  36  1   
 14   6  37  1   
 15   7  10  1   
 16   7  11  1   
 17   8   9  1   
 18   8  12  1   
 19   8  38  1   
 20   9  13  1   
 21   9  39  1   
 22  10  14  1   
 23  10  40  1   
 24  10  41  1   
 25  11  15  1   
 26  11  42  1   
 27  11  43  1   
 28  12  44  1   
 29  13  16  1   
 30  13  45  1   
 31  13  46  1   
 32  14  17  ar  
 33  14  18  ar  
 34  15  19  1   
 35  15  47  1   
 36  15  48  1   
 37  16  20  ar  
 38  16  21  ar  
 39  17  19  1   
 40  17  22  ar  
 41  18  23  ar  
 42  18  49  1   
 43  20  24  ar  
 44  20  25  ar  
 45  21  26  ar  
 46  21  50  1   
 47  22  27  ar  
 48  22  51  1   
 49  23  27  ar  
 50  23  52  1   
 51  24  28  ar  
 52  24  29  ar  
 53  25  30  ar  
 54  25  53  1   
 55  26  28  ar  
 56  26  54  1   
 57  27  55  1   
 58  29  31  ar  
 59  29  56  1   
 60  30  31  ar  
 61  30  57  1   
 62  31  58  1   
@<TRIPOS>SUBSTRUCTURE
  1 ****   3 GROUP 4 **** **** 0

# MOE 2024.06 (io_trps.svl 2023.06)
