@<TRIPOS>MOLECULE
NONAME
42 43 1 0 0 
SMALL
USER_CHARGES


@<TRIPOS>ATOM
  1 F        2.8830    -0.7570     1.9560 F     1 <1>  -0.1900 
  2 C        2.1150    -1.3670     1.0900 C.ar  1 <1>   0.1900 
  3 C        1.3240    -0.6100     0.2390 C.ar  1 <1>  -0.1440 
  4 C        2.1300    -2.7470     1.0680 C.ar  1 <1>  -0.1500 
  5 C        0.5210    -1.2880    -0.6640 C.ar  1 <1>  -0.1500 
  6 C        1.3320     0.9110     0.2900 C.3   1 <1>  -0.0960 
  7 C        1.3240    -3.4230     0.1580 C.ar  1 <1>   0.1170 
  8 C        0.5240    -2.6730    -0.7000 C.ar  1 <1>  -0.1500 
  9 N        1.2740    -4.8210     0.0660 N.am  1 <1>  -0.5470 
 10 C        2.0060    -5.8250     0.6330 C.2   1 <1>   0.5690 
 11 O        2.9390    -5.6560     1.3800 O.2   1 <1>  -0.5700 
 12 C        1.5870    -7.2530     0.2780 C.3   1 <1>   0.1710 
 13 N        0.7610    -7.3510    -0.9720 N.3   1 <1>  -0.8100 
 14 C        0.0190    -8.6320    -1.0370 C.3   1 <1>   0.1100 
 15 C        1.6210    -7.2150    -2.1600 C.3   1 <1>   0.0300 
 16 C       -1.2020    -8.6660    -0.1030 C.3   1 <1>   0.2000 
 17 O       -1.8660    -9.8810    -0.3200 O.3   1 <1>  -0.5600 
 18 C       -2.1640    -7.4890    -0.3660 C.3   1 <1>   0.1200 
 19 C       -3.0370   -10.0210     0.4340 C.3   1 <1>   0.1200 
 20 O       -3.3380    -7.6330     0.3830 O.3   1 <1>  -0.5600 
 21 C       -3.9910    -8.8470     0.1560 C.3   1 <1>   0.1200 
 22 H        2.7630    -3.2750     1.7540 H     1 <1>   0.1500 
 23 H       -0.1110    -0.7410    -1.3430 H     1 <1>   0.1500 
 24 H        2.3240     1.2770     0.0940 H     1 <1>   0.0800 
 25 H        1.0270     1.2450     1.2660 H     1 <1>   0.0800 
 26 H        0.6630     1.3260    -0.4410 H     1 <1>   0.0800 
 27 H       -0.1070    -3.1790    -1.4070 H     1 <1>   0.1500 
 28 H        0.5870    -5.2070    -0.5890 H     1 <1>   0.3700 
 29 H        1.0270    -7.6220     1.1160 H     1 <1>   0.0800 
 30 H        2.4700    -7.8610     0.1850 H     1 <1>   0.0800 
 31 H        0.6760    -9.4500    -0.7970 H     1 <1>   0.0800 
 32 H       -0.3440    -8.7760    -2.0410 H     1 <1>   0.0800 
 33 H        2.1660    -6.2870    -2.1300 H     1 <1>   0.0800 
 34 H        1.0180    -7.2210    -3.0530 H     1 <1>   0.0800 
 35 H        2.3260    -8.0280    -2.2120 H     1 <1>   0.0800 
 36 H       -0.8790    -8.6500     0.9220 H     1 <1>   0.0800 
 37 H       -2.4230    -7.4380    -1.4090 H     1 <1>   0.0800 
 38 H       -1.7030    -6.5610    -0.0790 H     1 <1>   0.0800 
 39 H       -2.7750   -10.0560     1.4780 H     1 <1>   0.0800 
 40 H       -3.4980   -10.9530     0.1590 H     1 <1>   0.0800 
 41 H       -4.8430    -8.8920     0.8120 H     1 <1>   0.0800 
 42 H       -4.3340    -8.8710    -0.8640 H     1 <1>   0.0800 
@<TRIPOS>BOND
  1   1   2  1   
  2   2   3  ar  
  3   2   4  ar  
  4   3   5  ar  
  5   3   6  1   
  6   4   7  ar  
  7   4  22  1   
  8   5   8  ar  
  9   5  23  1   
 10   6  24  1   
 11   6  25  1   
 12   6  26  1   
 13   7   8  ar  
 14   7   9  1   
 15   8  27  1   
 16   9  10  am  
 17   9  28  1   
 18  10  11  2   
 19  10  12  1   
 20  12  13  1   
 21  12  29  1   
 22  12  30  1   
 23  13  14  1   
 24  13  15  1   
 25  14  16  1   
 26  14  31  1   
 27  14  32  1   
 28  15  33  1   
 29  15  34  1   
 30  15  35  1   
 31  16  17  1   
 32  16  18  1   
 33  16  36  1   
 34  17  19  1   
 35  18  20  1   
 36  18  37  1   
 37  18  38  1   
 38  19  21  1   
 39  19  39  1   
 40  19  40  1   
 41  20  21  1   
 42  21  41  1   
 43  21  42  1   
@<TRIPOS>SUBSTRUCTURE
  1 ****   9 GROUP 4 **** **** 0

# MOE 2024.06 (io_trps.svl 2023.06)
