@<TRIPOS>MOLECULE
NONAME
59 62 1 0 0 
SMALL
USER_CHARGES


@<TRIPOS>ATOM
  1 F        2.9580     0.5510     3.1210 F     1 <1>  -0.1900 
  2 C        3.3570     1.1770     2.0320 C.ar  1 <1>   0.1900 
  3 C        3.4320     0.5390     0.7920 C.ar  1 <1>   0.4100 
  4 C        3.7190     2.4910     2.1320 C.ar  1 <1>   0.1600 
  5 N        3.8620     1.2210    -0.2560 N.ar  1 <1>  -0.6200 
  6 N        3.0910    -0.7940     0.5700 N.pl3 1 <1>  -0.8380 
  7 N        4.1420     3.1770     1.0860 N.ar  1 <1>  -0.6200 
  8 C        4.1880     2.4820    -0.0480 C.ar  1 <1>   0.7200 
  9 C        2.0360    -1.5020     1.3340 C.3   1 <1>   0.2090 
 10 C        3.3210    -1.4610    -0.7350 C.3   1 <1>   0.2090 
 11 N        4.6190     3.1200    -1.1640 N.pl3 1 <1>  -0.8690 
 12 C        1.4720    -2.5370     0.3680 C.3   1 <1>  -0.1600 
 13 C        2.6040    -2.7990    -0.6200 C.3   1 <1>  -0.1600 
 14 C        4.4830     4.5710    -1.3620 C.3   1 <1>   0.2090 
 15 C        5.7950     5.2200    -0.9120 C.3   1 <1>  -0.1600 
 16 C        5.8530     6.7460    -1.0930 C.3   1 <1>   0.4230 
 17 N        7.1060     7.2880    -0.4750 N.4   1 <1>  -0.9590 
 18 C        4.6380     7.4390    -0.4470 C.3   1 <1>  -0.1600 
 19 C        7.2240     8.7730    -0.6050 C.3   1 <1>   0.3430 
 20 C        8.3640     6.6350    -0.9500 C.3   1 <1>   0.4860 
 21 C        4.7150     8.9680    -0.5140 C.3   1 <1>  -0.1600 
 22 C        6.0400     9.4570     0.0710 C.3   1 <1>  -0.1600 
 23 C        9.5180     7.0970    -0.0820 C.ar  1 <1>  -0.1440 
 24 C        9.6370     6.6390     1.2230 C.ar  1 <1>  -0.1500 
 25 C       10.4610     7.9850    -0.5820 C.ar  1 <1>  -0.1500 
 26 C       10.6780     7.0760     2.0220 C.ar  1 <1>  -0.1500 
 27 C       11.5020     8.4210     0.2190 C.ar  1 <1>  -0.1500 
 28 C       11.6090     7.9690     1.5210 C.ar  1 <1>  -0.1500 
 29 H        3.6620     2.9880     3.0840 H     1 <1>   0.1500 
 30 H        1.2690    -0.8220     1.6660 H     1 <1>   0.0800 
 31 H        2.4860    -1.9870     2.1830 H     1 <1>   0.0800 
 32 H        4.3750    -1.5850    -0.9190 H     1 <1>   0.0800 
 33 H        2.8830    -0.8700    -1.5220 H     1 <1>   0.0800 
 34 H        4.4430     2.5330    -1.9810 H     1 <1>   0.4000 
 35 H        0.6310    -2.1090    -0.1470 H     1 <1>   0.0800 
 36 H        1.1570    -3.4290     0.8780 H     1 <1>   0.0800 
 37 H        3.2870    -3.5230    -0.2120 H     1 <1>   0.0800 
 38 H        2.2490    -3.1450    -1.5740 H     1 <1>   0.0800 
 39 H        3.6470     4.9290    -0.7840 H     1 <1>   0.0800 
 40 H        4.2940     4.7720    -2.4040 H     1 <1>   0.0800 
 41 H        6.5710     4.7560    -1.4900 H     1 <1>   0.0800 
 42 H        5.9440     4.9830     0.1270 H     1 <1>   0.0800 
 43 H        5.8530     6.9720    -2.1480 H     1 <1>   0.0800 
 44 H        7.0500     7.0920     0.5310 H     1 <1>   0.4500 
 45 H        4.5490     7.1270     0.5800 H     1 <1>   0.0800 
 46 H        3.7360     7.1410    -0.9520 H     1 <1>   0.0800 
 47 H        7.2530     9.0480    -1.6470 H     1 <1>   0.0800 
 48 H        8.1340     9.1180    -0.1390 H     1 <1>   0.0800 
 49 H        8.5520     6.8870    -1.9810 H     1 <1>   0.0800 
 50 H        8.2920     5.5640    -0.8670 H     1 <1>   0.0800 
 51 H        3.8920     9.4000     0.0330 H     1 <1>   0.0800 
 52 H        4.6310     9.2910    -1.5390 H     1 <1>   0.0800 
 53 H        6.1210    10.5220    -0.0690 H     1 <1>   0.0800 
 54 H        6.0720     9.2690     1.1300 H     1 <1>   0.0800 
 55 H        8.9300     5.9370     1.6330 H     1 <1>   0.1500 
 56 H       10.4020     8.3470    -1.5950 H     1 <1>   0.1500 
 57 H       10.7710     6.7220     3.0350 H     1 <1>   0.1500 
 58 H       12.2340     9.1100    -0.1690 H     1 <1>   0.1500 
 59 H       12.4200     8.3070     2.1440 H     1 <1>   0.1500 
@<TRIPOS>BOND
  1   1   2  1   
  2   2   3  ar  
  3   2   4  ar  
  4   3   5  ar  
  5   3   6  1   
  6   4   7  ar  
  7   4  29  1   
  8   5   8  ar  
  9   6   9  1   
 10   6  10  1   
 11   7   8  ar  
 12   8  11  1   
 13   9  12  1   
 14   9  30  1   
 15   9  31  1   
 16  10  13  1   
 17  10  32  1   
 18  10  33  1   
 19  11  14  1   
 20  11  34  1   
 21  12  13  1   
 22  12  35  1   
 23  12  36  1   
 24  13  37  1   
 25  13  38  1   
 26  14  15  1   
 27  14  39  1   
 28  14  40  1   
 29  15  16  1   
 30  15  41  1   
 31  15  42  1   
 32  16  17  1   
 33  16  18  1   
 34  16  43  1   
 35  17  19  1   
 36  17  20  1   
 37  17  44  1   
 38  18  21  1   
 39  18  45  1   
 40  18  46  1   
 41  19  22  1   
 42  19  47  1   
 43  19  48  1   
 44  20  23  1   
 45  20  49  1   
 46  20  50  1   
 47  21  22  1   
 48  21  51  1   
 49  21  52  1   
 50  22  53  1   
 51  22  54  1   
 52  23  24  ar  
 53  23  25  ar  
 54  24  26  ar  
 55  24  55  1   
 56  25  27  ar  
 57  25  56  1   
 58  26  28  ar  
 59  26  57  1   
 60  27  28  ar  
 61  27  58  1   
 62  28  59  1   
@<TRIPOS>SUBSTRUCTURE
  1 ****  15 GROUP 4 **** **** 0

# MOE 2024.06 (io_trps.svl 2023.06)
