@<TRIPOS>MOLECULE
NONAME
50 52 1 0 0 
SMALL
USER_CHARGES


@<TRIPOS>ATOM
  1 O       -0.4870     2.6660     2.6370 O.2   1 <1>  -0.5700 
  2 C       -0.1870     3.0780     1.5310 C.2   1 <1>   0.5440 
  3 N       -1.1850     3.2630     0.5960 N.am  1 <1>  -0.6600 
  4 C        1.2040     3.3650     1.2420 C.ar  1 <1>   0.0860 
  5 C       -2.5430     2.6650     0.7700 C.3   1 <1>   0.1400 
  6 C       -1.0580     4.1290    -0.6060 C.3   1 <1>   0.1400 
  7 C        1.8350     2.8650     0.1060 C.ar  1 <1>  -0.1500 
  8 C        1.9690     4.1470     2.1040 C.ar  1 <1>  -0.1500 
  9 C       -2.9420     1.8120    -0.4590 C.3   1 <1>   0.0000 
 10 C       -1.4150     3.3240    -1.8590 C.3   1 <1>  -0.1600 
 11 C        3.1570     3.1420    -0.1870 C.ar  1 <1>   0.0830 
 12 C        3.2930     4.4410     1.8320 C.ar  1 <1>  -0.1500 
 13 C       -4.3660     1.2650    -0.2320 C.3   1 <1>   0.2000 
 14 C       -2.8050     2.6760    -1.7390 C.3   1 <1>  -0.1600 
 15 C       -2.0860     0.5300    -0.5220 C.3   1 <1>  -0.1600 
 16 O        3.6150     2.5800    -1.3400 O.3   1 <1>  -0.3630 
 17 C        3.9070     3.9550     0.6800 C.ar  1 <1>   0.0830 
 18 O       -4.9050     0.8070    -1.4220 O.3   1 <1>  -0.6800 
 19 C       -4.1850     0.0480     0.6730 C.3   1 <1>  -0.1600 
 20 C       -2.7850    -0.5040     0.3720 C.3   1 <1>  -0.1600 
 21 C        4.9650     2.1970    -1.4820 C.3   1 <1>   0.3200 
 22 O        5.1980     4.2630     0.3790 O.3   1 <1>  -0.3630 
 23 C        5.0580     1.1840    -2.5730 C.1   1 <1>  -0.2000 
 24 C        5.9710     5.1470     1.1640 C.3   1 <1>   0.0400 
 25 C        5.1340     0.3780    -3.4440 C.1   1 <1>  -0.1770 
 26 H       -2.5680     2.0600     1.6590 H     1 <1>   0.0800 
 27 H       -3.2510     3.4640     0.9020 H     1 <1>   0.0800 
 28 H       -1.7380     4.9580    -0.5070 H     1 <1>   0.0800 
 29 H       -0.0640     4.5310    -0.6960 H     1 <1>   0.0800 
 30 H        1.2780     2.2370    -0.5650 H     1 <1>   0.1500 
 31 H        1.5070     4.5240     3.0000 H     1 <1>   0.1500 
 32 H       -1.3960     3.9760    -2.7140 H     1 <1>   0.0800 
 33 H       -0.6690     2.5650    -2.0150 H     1 <1>   0.0800 
 34 H        3.8250     5.0520     2.5350 H     1 <1>   0.1500 
 35 H       -5.0410     1.9960     0.1790 H     1 <1>   0.0800 
 36 H       -2.9910     2.0830    -2.6180 H     1 <1>   0.0800 
 37 H       -3.5500     3.4530    -1.7140 H     1 <1>   0.0800 
 38 H       -2.0630     0.1570    -1.5310 H     1 <1>   0.0800 
 39 H       -1.0710     0.6970    -0.2060 H     1 <1>   0.0800 
 40 H       -4.3190     0.1150    -1.7820 H     1 <1>   0.4000 
 41 H       -4.2180     0.3710     1.6990 H     1 <1>   0.0800 
 42 H       -4.9600    -0.6860     0.5280 H     1 <1>   0.0800 
 43 H       -2.2370    -0.6340     1.2910 H     1 <1>   0.0800 
 44 H       -2.8450    -1.4550    -0.1300 H     1 <1>   0.0800 
 45 H        5.5410     3.0680    -1.7340 H     1 <1>   0.0800 
 46 H        5.3060     1.7780    -0.5510 H     1 <1>   0.0800 
 47 H        6.9340     5.2530     0.6980 H     1 <1>   0.0800 
 48 H        6.0870     4.7310     2.1490 H     1 <1>   0.0800 
 49 H        5.4780     6.1020     1.2030 H     1 <1>   0.0800 
 50 H        5.1960    -0.3510    -4.2340 H     1 <1>   0.1770 
@<TRIPOS>BOND
  1   1   2  2   
  2   2   3  am  
  3   2   4  1   
  4   3   5  1   
  5   3   6  1   
  6   4   7  ar  
  7   4   8  ar  
  8   5   9  1   
  9   5  26  1   
 10   5  27  1   
 11   6  10  1   
 12   6  28  1   
 13   6  29  1   
 14   7  11  ar  
 15   7  30  1   
 16   8  12  ar  
 17   8  31  1   
 18   9  13  1   
 19   9  14  1   
 20   9  15  1   
 21  10  14  1   
 22  10  32  1   
 23  10  33  1   
 24  11  16  1   
 25  11  17  ar  
 26  12  17  ar  
 27  12  34  1   
 28  13  18  1   
 29  13  19  1   
 30  13  35  1   
 31  14  36  1   
 32  14  37  1   
 33  15  20  1   
 34  15  38  1   
 35  15  39  1   
 36  16  21  1   
 37  17  22  1   
 38  18  40  1   
 39  19  20  1   
 40  19  41  1   
 41  19  42  1   
 42  20  43  1   
 43  20  44  1   
 44  21  23  1   
 45  21  45  1   
 46  21  46  1   
 47  22  24  1   
 48  23  25  3   
 49  24  47  1   
 50  24  48  1   
 51  24  49  1   
 52  25  50  1   
@<TRIPOS>SUBSTRUCTURE
  1 ****   7 GROUP 4 **** **** 0

# MOE 2024.06 (io_trps.svl 2023.06)
