@<TRIPOS>MOLECULE
NONAME
47 48 1 0 0 
SMALL
USER_CHARGES


@<TRIPOS>ATOM
  1 S       -0.4830    -0.1610     0.4140 S.o2  1 <1>   1.3330 
  2 O        0.0370    -0.6480     1.6680 O.2   1 <1>  -0.6500 
  3 O       -0.9240     1.2060     0.2750 O.2   1 <1>  -0.6500 
  4 N       -1.8110    -1.1730    -0.0660 N.am  1 <1>  -0.6930 
  5 C        0.6990    -0.4900    -0.8750 C.3   1 <1>  -0.1350 
  6 C       -1.7300    -2.5570    -0.0970 C.ar  1 <1>   0.1990 
  7 C       -3.0470    -0.4910    -0.5220 C.3   1 <1>   0.1160 
  8 C       -1.3920    -3.2930     1.0350 C.ar  1 <1>  -0.1500 
  9 C       -1.9800    -3.2540    -1.2750 C.ar  1 <1>  -0.1500 
 10 C       -1.3010    -4.6700     0.9880 C.ar  1 <1>  -0.1500 
 11 C       -1.8910    -4.6310    -1.3200 C.ar  1 <1>  -0.1500 
 12 C       -1.5560    -5.3750    -0.1890 C.ar  1 <1>   0.0860 
 13 C       -1.4700    -6.8180    -0.2520 C.2   1 <1>   0.5440 
 14 O       -0.6420    -7.3210    -0.9890 O.2   1 <1>  -0.5700 
 15 N       -2.3060    -7.6380     0.4800 N.am  1 <1>  -0.6600 
 16 C       -2.1390    -9.1190     0.4460 C.3   1 <1>   0.3200 
 17 C       -3.4970    -7.1310     1.2270 C.3   1 <1>   0.1400 
 18 C       -3.3240    -9.7460    -0.2600 C.2   1 <1>  -0.3320 
 19 C       -4.6420    -6.7750     0.2720 C.3   1 <1>   0.1200 
 20 N       -4.4150   -10.2440     0.3530 N.pl3 1 <1>   0.0330 
 21 C       -3.5260    -9.9140    -1.5850 C.2   1 <1>   0.0770 
 22 O       -5.7750    -6.5010     1.0250 O.3   1 <1>  -0.6800 
 23 C       -5.2160   -10.6760    -0.6440 C.2   1 <1>   0.0060 
 24 N       -4.7170   -10.4950    -1.8220 N.2   1 <1>  -0.5650 
 25 C       -6.5680   -11.3080    -0.3940 C.3   1 <1>  -0.0600 
 26 H        1.5830     0.0960    -0.7180 H     1 <1>   0.0800 
 27 H        0.2840    -0.2400    -1.8300 H     1 <1>   0.0800 
 28 H        0.9690    -1.5270    -0.8730 H     1 <1>   0.0800 
 29 H       -3.3870     0.1860     0.2430 H     1 <1>   0.0800 
 30 H       -3.8240    -1.2090    -0.7180 H     1 <1>   0.0800 
 31 H       -2.8450     0.0710    -1.4180 H     1 <1>   0.0800 
 32 H       -1.2020    -2.7770     1.9600 H     1 <1>   0.1500 
 33 H       -2.2360    -2.7060    -2.1630 H     1 <1>   0.1500 
 34 H       -1.0250    -5.2160     1.8730 H     1 <1>   0.1500 
 35 H       -2.0760    -5.1550    -2.2430 H     1 <1>   0.1500 
 36 H       -2.0560    -9.4950     1.4510 H     1 <1>   0.0800 
 37 H       -1.2370    -9.3900    -0.0750 H     1 <1>   0.0800 
 38 H       -3.2320    -6.2620     1.8010 H     1 <1>   0.0800 
 39 H       -3.8340    -7.8870     1.9140 H     1 <1>   0.0800 
 40 H       -4.8700    -7.5940    -0.3860 H     1 <1>   0.0800 
 41 H       -4.4010    -5.9000    -0.3060 H     1 <1>   0.0800 
 42 H       -4.6160   -10.2830     1.3560 H     1 <1>   0.2700 
 43 H       -2.8660    -9.6340    -2.3900 H     1 <1>   0.1500 
 44 H       -6.5380    -6.3240     0.4390 H     1 <1>   0.4000 
 45 H       -7.2070   -10.6190     0.1280 H     1 <1>   0.0800 
 46 H       -6.4550   -12.2040     0.1870 H     1 <1>   0.0800 
 47 H       -7.0280   -11.5610    -1.3320 H     1 <1>   0.0800 
@<TRIPOS>BOND
  1   1   2  2   
  2   1   3  2   
  3   1   4  am  
  4   1   5  1   
  5   4   6  1   
  6   4   7  1   
  7   5  26  1   
  8   5  27  1   
  9   5  28  1   
 10   6   8  ar  
 11   6   9  ar  
 12   7  29  1   
 13   7  30  1   
 14   7  31  1   
 15   8  10  ar  
 16   8  32  1   
 17   9  11  ar  
 18   9  33  1   
 19  10  12  ar  
 20  10  34  1   
 21  11  12  ar  
 22  11  35  1   
 23  12  13  1   
 24  13  14  2   
 25  13  15  am  
 26  15  16  1   
 27  15  17  1   
 28  16  18  1   
 29  16  36  1   
 30  16  37  1   
 31  17  19  1   
 32  17  38  1   
 33  17  39  1   
 34  18  20  1   
 35  18  21  2   
 36  19  22  1   
 37  19  40  1   
 38  19  41  1   
 39  20  23  1   
 40  20  42  1   
 41  21  24  1   
 42  21  43  1   
 43  22  44  1   
 44  23  24  2   
 45  23  25  1   
 46  25  45  1   
 47  25  46  1   
 48  25  47  1   
@<TRIPOS>SUBSTRUCTURE
  1 ****  12 GROUP 4 **** **** 0

# MOE 2024.06 (io_trps.svl 2023.06)
