@<TRIPOS>MOLECULE
NONAME
60 63 1 0 0 
SMALL
USER_CHARGES


@<TRIPOS>ATOM
  1 O       -0.7570     0.5540     0.6590 O.2   1 <1>  -0.5700 
  2 C       -1.4350     1.5180     0.4060 C.2   1 <1>   0.5690 
  3 N       -2.7250     1.5330    -0.0390 N.am  1 <1>  -0.4770 
  4 C       -0.8980     2.9110     0.5750 C.3   1 <1>  -0.0990 
  5 C       -3.5850     0.4410    -0.2840 C.ar  1 <1>   0.1170 
  6 C       -3.1880     2.9240    -0.2280 C.3   1 <1>   0.1400 
  7 C       -2.1660     3.7770     0.5410 C.3   1 <1>  -0.0190 
  8 C       -4.5280     0.4880    -1.3070 C.ar  1 <1>  -0.1500 
  9 C       -3.5260    -0.7100     0.4960 C.ar  1 <1>  -0.1500 
 10 C       -1.9520     5.1670    -0.0410 C.2   1 <1>   0.5690 
 11 C       -5.3840    -0.5730    -1.5350 C.ar  1 <1>  -0.1500 
 12 C       -4.3780    -1.7770     0.2720 C.ar  1 <1>  -0.1500 
 13 O       -2.6510     5.5330    -0.9540 O.2   1 <1>  -0.5700 
 14 N       -0.9700     5.9440     0.5110 N.am  1 <1>  -0.4940 
 15 C       -5.3200    -1.7130    -0.7510 C.ar  1 <1>   0.0830 
 16 C       -0.6100     7.2760     0.1870 C.2   1 <1>  -0.0880 
 17 O       -6.2010    -2.7050    -1.0520 O.3   1 <1>  -0.3630 
 18 N        0.6670     7.7170     0.0040 N.pl3 1 <1>   0.3140 
 19 C       -1.4130     8.3540     0.0110 C.2   1 <1>  -0.1810 
 20 C       -6.2610    -3.9190    -0.3370 C.3   1 <1>   0.2000 
 21 N        0.6940     9.0460    -0.2650 N.2   1 <1>  -0.7070 
 22 C        1.9050     6.8830     0.0410 C.3   1 <1>   0.1760 
 23 C       -0.5500     9.4080    -0.2660 C.2   1 <1>   0.1390 
 24 C       -2.9240     8.4590     0.0900 C.3   1 <1>  -0.0590 
 25 C       -6.9370    -4.9400    -1.2480 C.3   1 <1>  -0.2400 
 26 C       -7.0740    -3.7010     0.9420 C.3   1 <1>  -0.2400 
 27 C        2.8630     7.2810     1.1640 C.3   1 <1>  -0.1600 
 28 C        2.7560     6.9960    -1.2240 C.3   1 <1>  -0.1600 
 29 C        4.2390     6.7740     0.7190 C.3   1 <1>  -0.1600 
 30 C        4.1500     6.5320    -0.7940 C.3   1 <1>  -0.1600 
 31 H       -0.2490     3.1270    -0.2550 H     1 <1>   0.0800 
 32 H       -0.3640     3.0030     1.5030 H     1 <1>   0.0800 
 33 H       -4.1830     3.0570     0.1600 H     1 <1>   0.0800 
 34 H       -3.1730     3.1520    -1.2800 H     1 <1>   0.0800 
 35 H       -2.5370     3.8910     1.5440 H     1 <1>   0.0800 
 36 H       -4.5960     1.3540    -1.9390 H     1 <1>   0.1500 
 37 H       -2.8040    -0.7740     1.2900 H     1 <1>   0.1500 
 38 H       -6.1090    -0.5280    -2.3280 H     1 <1>   0.1500 
 39 H       -4.2900    -2.6400     0.9010 H     1 <1>   0.1500 
 40 H       -0.4330     5.5190     1.2650 H     1 <1>   0.3700 
 41 H       -5.2600    -4.2490    -0.1210 H     1 <1>   0.0800 
 42 H        1.6300     5.8530     0.1690 H     1 <1>   0.0800 
 43 H       -0.8670    10.4180    -0.4590 H     1 <1>   0.1500 
 44 H       -3.3230     7.6730     0.7040 H     1 <1>   0.0800 
 45 H       -3.3430     8.3710    -0.8970 H     1 <1>   0.0800 
 46 H       -3.2110     9.4050     0.5110 H     1 <1>   0.0800 
 47 H       -7.9290    -4.6140    -1.5060 H     1 <1>   0.0800 
 48 H       -7.0050    -5.8900    -0.7500 H     1 <1>   0.0800 
 49 H       -6.3590    -5.0660    -2.1450 H     1 <1>   0.0800 
 50 H       -8.0650    -3.3620     0.6990 H     1 <1>   0.0800 
 51 H       -6.6000    -2.9730     1.5750 H     1 <1>   0.0800 
 52 H       -7.1510    -4.6230     1.4890 H     1 <1>   0.0800 
 53 H        2.5690     6.8640     2.1100 H     1 <1>   0.0800 
 54 H        2.8970     8.3560     1.2420 H     1 <1>   0.0800 
 55 H        2.8130     8.0260    -1.5350 H     1 <1>   0.0800 
 56 H        2.3620     6.4000    -2.0280 H     1 <1>   0.0800 
 57 H        4.4790     5.8520     1.2210 H     1 <1>   0.0800 
 58 H        5.0000     7.5010     0.9490 H     1 <1>   0.0800 
 59 H        4.9160     7.0710    -1.3260 H     1 <1>   0.0800 
 60 H        4.2620     5.4800    -0.9980 H     1 <1>   0.0800 
@<TRIPOS>BOND
  1   1   2  2   
  2   2   3  am  
  3   2   4  1   
  4   3   5  1   
  5   3   6  1   
  6   4   7  1   
  7   4  31  1   
  8   4  32  1   
  9   5   8  ar  
 10   5   9  ar  
 11   6   7  1   
 12   6  33  1   
 13   6  34  1   
 14   7  10  1   
 15   7  35  1   
 16   8  11  ar  
 17   8  36  1   
 18   9  12  ar  
 19   9  37  1   
 20  10  13  2   
 21  10  14  am  
 22  11  15  ar  
 23  11  38  1   
 24  12  15  ar  
 25  12  39  1   
 26  14  16  1   
 27  14  40  1   
 28  15  17  1   
 29  16  18  1   
 30  16  19  2   
 31  17  20  1   
 32  18  21  1   
 33  18  22  1   
 34  19  23  1   
 35  19  24  1   
 36  20  25  1   
 37  20  26  1   
 38  20  41  1   
 39  21  23  2   
 40  22  27  1   
 41  22  28  1   
 42  22  42  1   
 43  23  43  1   
 44  24  44  1   
 45  24  45  1   
 46  24  46  1   
 47  25  47  1   
 48  25  48  1   
 49  25  49  1   
 50  26  50  1   
 51  26  51  1   
 52  26  52  1   
 53  27  29  1   
 54  27  53  1   
 55  27  54  1   
 56  28  30  1   
 57  28  55  1   
 58  28  56  1   
 59  29  30  1   
 60  29  57  1   
 61  29  58  1   
 62  30  59  1   
 63  30  60  1   
@<TRIPOS>SUBSTRUCTURE
  1 ****   7 GROUP 4 **** **** 0

# MOE 2024.06 (io_trps.svl 2023.06)
