@<TRIPOS>MOLECULE
NONAME
57 60 1 0 0 
SMALL
USER_CHARGES


@<TRIPOS>ATOM
  1 O       -1.2600     1.0770    -2.1690 O.2   1 <1>  -0.5700 
  2 C       -1.5630     0.9260    -1.0000 C.2   1 <1>   0.7160 
  3 N       -1.8190    -0.3440    -0.5330 N.am  1 <1>  -0.6600 
  4 C       -1.6320     2.0550    -0.1310 C.2   1 <1>  -0.0860 
  5 C       -2.1200    -1.4580    -1.4890 C.3   1 <1>   0.3210 
  6 C       -1.9660    -0.6660     0.9160 C.3   1 <1>   0.0600 
  7 C       -2.7520     2.8320     0.2130 C.2   1 <1>   0.3720 
  8 C       -0.6230     2.5940     0.6010 C.2   1 <1>   0.0870 
  9 C       -3.4540    -2.1290    -1.1720 C.2   1 <1>   0.1080 
 10 N       -2.4150     3.7270     1.0810 N.2   1 <1>  -0.4100 
 11 N       -4.0800     2.7330    -0.2640 N.pl3 1 <1>  -0.8210 
 12 O       -1.1390     3.5690     1.2980 O.3   1 <1>  -0.0190 
 13 C        0.7730     2.2620     0.7300 C.ar  1 <1>   0.0530 
 14 N       -4.6140    -1.6550    -1.5230 N.2   1 <1>  -0.7070 
 15 C       -3.5770    -3.3230    -0.4660 C.2   1 <1>  -0.1500 
 16 C       -4.5690     1.4400    -0.8500 C.3   1 <1>   0.2090 
 17 C       -5.1250     3.3920     0.5870 C.3   1 <1>   0.2090 
 18 C        1.4240     2.3900     1.9570 C.ar  1 <1>  -0.1500 
 19 C        1.5260     1.8020    -0.3510 C.ar  1 <1>  -0.1500 
 20 N       -5.5070    -2.5400    -1.0430 N.pl3 1 <1>   0.3000 
 21 C       -4.9050    -3.5600    -0.3960 C.2   1 <1>  -0.3320 
 22 C       -6.0020     1.5390    -1.4000 C.3   1 <1>   0.1200 
 23 C       -6.5120     3.3850    -0.0770 C.3   1 <1>   0.1200 
 24 C        2.7590     2.0620     2.1040 C.ar  1 <1>  -0.1500 
 25 C        2.8610     1.4710    -0.2110 C.ar  1 <1>  -0.1500 
 26 C       -5.6840    -4.6990     0.2460 C.3   1 <1>   0.0200 
 27 O       -6.8780     2.0900    -0.4580 O.3   1 <1>  -0.5600 
 28 C        3.4810     1.5990     1.0190 C.ar  1 <1>  -0.1500 
 29 C       -4.7630    -5.7120     0.9360 C.3   1 <1>  -0.1600 
 30 C       -5.5610    -6.8500     1.5810 C.3   1 <1>  -0.2400 
 31 H       -1.3310    -2.1850    -1.4370 H     1 <1>   0.0800 
 32 H       -2.1650    -1.0920    -2.4990 H     1 <1>   0.0800 
 33 H       -1.4800     0.0740     1.5280 H     1 <1>   0.0800 
 34 H       -1.5190    -1.6220     1.1260 H     1 <1>   0.0800 
 35 H       -3.0100    -0.7030     1.1760 H     1 <1>   0.0800 
 36 H       -2.7640    -3.9070    -0.0720 H     1 <1>   0.1500 
 37 H       -4.5320     0.6670    -0.1030 H     1 <1>   0.0800 
 38 H       -3.9440     1.1490    -1.6730 H     1 <1>   0.0800 
 39 H       -4.8460     4.4150     0.7730 H     1 <1>   0.0800 
 40 H       -5.1840     2.8850     1.5340 H     1 <1>   0.0800 
 41 H        0.8730     2.7500     2.8080 H     1 <1>   0.1500 
 42 H        1.0670     1.7100    -1.3200 H     1 <1>   0.1500 
 43 H       -6.5200    -2.4220    -1.1710 H     1 <1>   0.2700 
 44 H       -6.3620     0.5590    -1.6550 H     1 <1>   0.0800 
 45 H       -6.0170     2.1500    -2.2850 H     1 <1>   0.0800 
 46 H       -6.5130     4.0160    -0.9490 H     1 <1>   0.0800 
 47 H       -7.2540     3.7460     0.6120 H     1 <1>   0.0800 
 48 H        3.2390     2.1680     3.0620 H     1 <1>   0.1500 
 49 H        3.4180     1.1160    -1.0600 H     1 <1>   0.1500 
 50 H       -6.2590    -5.2030    -0.5130 H     1 <1>   0.0800 
 51 H       -6.3690    -4.2930     0.9700 H     1 <1>   0.0800 
 52 H        4.5200     1.3420     1.1300 H     1 <1>   0.1500 
 53 H       -4.1870    -5.2100     1.6950 H     1 <1>   0.0800 
 54 H       -4.0810    -6.1240     0.2130 H     1 <1>   0.0800 
 55 H       -6.2360    -6.4650     2.3250 H     1 <1>   0.0800 
 56 H       -4.8900    -7.5440     2.0580 H     1 <1>   0.0800 
 57 H       -6.1280    -7.3820     0.8380 H     1 <1>   0.0800 
@<TRIPOS>BOND
  1   1   2  2   
  2   2   3  am  
  3   2   4  1   
  4   3   5  1   
  5   3   6  1   
  6   4   7  1   
  7   4   8  2   
  8   5   9  1   
  9   5  31  1   
 10   5  32  1   
 11   6  33  1   
 12   6  34  1   
 13   6  35  1   
 14   7  10  2   
 15   7  11  1   
 16   8  12  1   
 17   8  13  1   
 18   9  14  2   
 19   9  15  1   
 20  10  12  1   
 21  11  16  1   
 22  11  17  1   
 23  13  18  ar  
 24  13  19  ar  
 25  14  20  1   
 26  15  21  2   
 27  15  36  1   
 28  16  22  1   
 29  16  37  1   
 30  16  38  1   
 31  17  23  1   
 32  17  39  1   
 33  17  40  1   
 34  18  24  ar  
 35  18  41  1   
 36  19  25  ar  
 37  19  42  1   
 38  20  21  1   
 39  20  43  1   
 40  21  26  1   
 41  22  27  1   
 42  22  44  1   
 43  22  45  1   
 44  23  27  1   
 45  23  46  1   
 46  23  47  1   
 47  24  28  ar  
 48  24  48  1   
 49  25  28  ar  
 50  25  49  1   
 51  26  29  1   
 52  26  50  1   
 53  26  51  1   
 54  28  52  1   
 55  29  30  1   
 56  29  53  1   
 57  29  54  1   
 58  30  55  1   
 59  30  56  1   
 60  30  57  1   
@<TRIPOS>SUBSTRUCTURE
  1 ****   3 GROUP 4 **** **** 0

# MOE 2024.06 (io_trps.svl 2023.06)
