@<TRIPOS>MOLECULE
NONAME
47 49 1 0 0 
SMALL
USER_CHARGES


@<TRIPOS>ATOM
  1 O        1.7950    -0.1280    -1.6090 O.2   1 <1>  -0.5700 
  2 C        1.9650    -0.5520    -0.4920 C.2   1 <1>   0.5690 
  3 N        2.3850     0.2820     0.5120 N.am  1 <1>  -0.6600 
  4 C        1.7810    -2.0380    -0.2340 C.3   1 <1>  -0.0990 
  5 C        3.3810    -0.1360     1.5360 C.3   1 <1>   0.1400 
  6 C        2.1270     1.7450     0.4200 C.3   1 <1>   0.1400 
  7 C        0.7010    -2.6730    -1.1210 C.3   1 <1>  -0.0170 
  8 C        4.7800    -0.2730     0.8970 C.3   1 <1>   0.3430 
  9 C        3.4070     2.5300     0.1130 C.3   1 <1>  -0.1600 
 10 C        0.5590    -4.1470    -0.7850 C.ar  1 <1>  -0.1440 
 11 N        5.3550     1.0000     0.3290 N.4   1 <1>  -0.9590 
 12 C        4.4660     1.7230    -0.6410 C.3   1 <1>   0.3430 
 13 C        1.2710    -5.1190    -1.4580 C.ar  1 <1>  -0.1500 
 14 C       -0.2860    -4.5900     0.2120 C.ar  1 <1>  -0.1500 
 15 C        6.6830     0.7340    -0.2840 C.3   1 <1>   0.5240 
 16 C        1.1150    -6.4490    -1.1050 C.ar  1 <1>   0.1600 
 17 C       -0.3690    -5.9460     0.4870 C.ar  1 <1>   0.1600 
 18 C        7.4290     2.0450    -0.3800 C.2   1 <1>  -0.1810 
 19 N        0.3150    -6.8850    -0.1450 N.ar  1 <1>  -0.6200 
 20 C        8.1720     2.6560     0.5690 C.2   1 <1>  -0.0100 
 21 C        7.4940     2.8840    -1.5040 C.2   1 <1>  -0.1500 
 22 O        8.6600     3.7910     0.1160 O.3   1 <1>  -0.2800 
 23 C        8.2600     3.9310    -1.1300 C.2   1 <1>  -0.0100 
 24 H        1.4980    -2.1850     0.7920 H     1 <1>   0.0800 
 25 H        2.7150    -2.5380    -0.4070 H     1 <1>   0.0800 
 26 H        3.0900    -1.0820     1.9580 H     1 <1>   0.0800 
 27 H        3.4080     0.5770     2.3420 H     1 <1>   0.0800 
 28 H        1.6890     2.0930     1.3410 H     1 <1>   0.0800 
 29 H        1.4060     1.9290    -0.3600 H     1 <1>   0.0800 
 30 H        0.9620    -2.5620    -2.1590 H     1 <1>   0.0800 
 31 H       -0.2390    -2.1720    -0.9670 H     1 <1>   0.0800 
 32 H        4.7140    -1.0120     0.1160 H     1 <1>   0.0800 
 33 H        5.4530    -0.6570     1.6470 H     1 <1>   0.0800 
 34 H        3.8160     2.9460     1.0160 H     1 <1>   0.0800 
 35 H        3.1210     3.3650    -0.5030 H     1 <1>   0.0800 
 36 H        5.5350     1.6590     1.0960 H     1 <1>   0.4500 
 37 H        5.0540     2.4150    -1.2190 H     1 <1>   0.0800 
 38 H        3.9960     1.0330    -1.3250 H     1 <1>   0.0800 
 39 H        1.9440    -4.8580    -2.2540 H     1 <1>   0.1500 
 40 H       -0.8810    -3.8980     0.7780 H     1 <1>   0.1500 
 41 H        6.5730     0.2890    -1.2600 H     1 <1>   0.0800 
 42 H        7.2480     0.0600     0.3400 H     1 <1>   0.0800 
 43 H        1.6780    -7.1940    -1.6400 H     1 <1>   0.1500 
 44 H       -1.0330    -6.2740     1.2680 H     1 <1>   0.1500 
 45 H        8.4130     2.3730     1.5810 H     1 <1>   0.1500 
 46 H        7.0350     2.7190    -2.4640 H     1 <1>   0.1500 
 47 H        8.5700     4.8060    -1.6780 H     1 <1>   0.1500 
@<TRIPOS>BOND
  1   1   2  2   
  2   2   3  am  
  3   2   4  1   
  4   3   5  1   
  5   3   6  1   
  6   4   7  1   
  7   4  24  1   
  8   4  25  1   
  9   5   8  1   
 10   5  26  1   
 11   5  27  1   
 12   6   9  1   
 13   6  28  1   
 14   6  29  1   
 15   7  10  1   
 16   7  30  1   
 17   7  31  1   
 18   8  11  1   
 19   8  32  1   
 20   8  33  1   
 21   9  12  1   
 22   9  34  1   
 23   9  35  1   
 24  10  13  ar  
 25  10  14  ar  
 26  11  12  1   
 27  11  15  1   
 28  11  36  1   
 29  12  37  1   
 30  12  38  1   
 31  13  16  ar  
 32  13  39  1   
 33  14  17  ar  
 34  14  40  1   
 35  15  18  1   
 36  15  41  1   
 37  15  42  1   
 38  16  19  ar  
 39  16  43  1   
 40  17  19  ar  
 41  17  44  1   
 42  18  20  2   
 43  18  21  1   
 44  20  22  1   
 45  20  45  1   
 46  21  23  2   
 47  21  46  1   
 48  22  23  1   
 49  23  47  1   
@<TRIPOS>SUBSTRUCTURE
  1 ****   2 GROUP 4 **** **** 0

# MOE 2024.06 (io_trps.svl 2023.06)
