@<TRIPOS>MOLECULE
NONAME
47 49 1 0 0 
SMALL
USER_CHARGES


@<TRIPOS>ATOM
  1 F       -1.0130     0.0080    -0.2760 F     1 <1>  -0.1900 
  2 C       -1.5220    -1.1550     0.0490 C.ar  1 <1>   0.1900 
  3 C       -1.4450    -1.5850     1.3640 C.ar  1 <1>   0.1900 
  4 C       -2.1340    -1.9340    -0.9240 C.ar  1 <1>  -0.1440 
  5 F       -0.8710    -0.8360     2.2720 F     1 <1>  -0.1900 
  6 C       -1.9700    -2.8040     1.7470 C.ar  1 <1>  -0.1500 
  7 C       -2.6580    -3.1630    -0.5340 C.ar  1 <1>  -0.1500 
  8 C       -2.2530    -1.4880    -2.3830 C.3   1 <1>   0.0450 
  9 C       -2.5790    -3.5940     0.7840 C.ar  1 <1>  -0.1500 
 10 C       -3.6890    -1.5560    -2.8860 C.2   1 <1>   0.5690 
 11 O       -3.9490    -2.4330    -3.6780 O.2   1 <1>  -0.5700 
 12 N       -4.6480    -0.6790    -2.4390 N.am  1 <1>  -0.6600 
 13 C       -4.4420     0.4030    -1.4420 C.3   1 <1>   0.1400 
 14 C       -6.0790    -0.8420    -2.8030 C.3   1 <1>   0.1400 
 15 C       -5.1840     0.0280    -0.1560 C.3   1 <1>  -0.1600 
 16 C       -6.8630    -1.2340    -1.5480 C.3   1 <1>  -0.1600 
 17 C       -6.6830    -0.2220    -0.3990 C.3   1 <1>   0.2800 
 18 O       -7.2210     1.0010    -0.8400 O.3   1 <1>  -0.5600 
 19 C       -7.3410    -0.7130     0.9110 C.3   1 <1>  -0.1600 
 20 C       -8.3660     1.5330    -0.2390 C.3   1 <1>   0.1200 
 21 C       -8.8800    -0.6390     0.9150 C.3   1 <1>   0.2800 
 22 C       -9.4080     0.4340    -0.0430 C.3   1 <1>  -0.1600 
 23 O       -9.2530    -0.2650     2.1850 O.3   1 <1>  -0.6800 
 24 C       -9.5490    -1.9920     0.6750 C.3   1 <1>  -0.2400 
 25 H       -1.9020    -3.1250     2.7720 H     1 <1>   0.1500 
 26 H       -3.1370    -3.7960    -1.2650 H     1 <1>   0.1500 
 27 H       -1.6490    -2.1390    -2.9890 H     1 <1>   0.0800 
 28 H       -1.8840    -0.4920    -2.5310 H     1 <1>   0.0800 
 29 H       -2.9940    -4.5490     1.0580 H     1 <1>   0.1500 
 30 H       -4.8390     1.3240    -1.8350 H     1 <1>   0.0800 
 31 H       -3.4010     0.5580    -1.2340 H     1 <1>   0.0800 
 32 H       -6.1990    -1.5980    -3.5600 H     1 <1>   0.0800 
 33 H       -6.4530     0.0880    -3.1970 H     1 <1>   0.0800 
 34 H       -5.0620     0.8170     0.5640 H     1 <1>   0.0800 
 35 H       -4.7320    -0.8580     0.2520 H     1 <1>   0.0800 
 36 H       -6.5230    -2.2030    -1.2310 H     1 <1>   0.0800 
 37 H       -7.8990    -1.3240    -1.8070 H     1 <1>   0.0800 
 38 H       -6.9530    -0.1080     1.7110 H     1 <1>   0.0800 
 39 H       -7.0230    -1.7200     1.1110 H     1 <1>   0.0800 
 40 H       -8.7440     2.3040    -0.8880 H     1 <1>   0.0800 
 41 H       -8.0810     1.9770     0.7000 H     1 <1>   0.0800 
 42 H       -9.6210     0.0070    -1.0060 H     1 <1>   0.0800 
 43 H      -10.3290     0.8490     0.3270 H     1 <1>   0.0800 
 44 H       -8.8570     0.5970     2.4050 H     1 <1>   0.4000 
 45 H       -9.2980    -2.3760    -0.2950 H     1 <1>   0.0800 
 46 H      -10.6180    -1.8900     0.7310 H     1 <1>   0.0800 
 47 H       -9.2280    -2.7030     1.4140 H     1 <1>   0.0800 
@<TRIPOS>BOND
  1   1   2  1   
  2   2   3  ar  
  3   2   4  ar  
  4   3   5  1   
  5   3   6  ar  
  6   4   7  ar  
  7   4   8  1   
  8   6   9  ar  
  9   6  25  1   
 10   7   9  ar  
 11   7  26  1   
 12   8  10  1   
 13   8  27  1   
 14   8  28  1   
 15   9  29  1   
 16  10  11  2   
 17  10  12  am  
 18  12  13  1   
 19  12  14  1   
 20  13  15  1   
 21  13  30  1   
 22  13  31  1   
 23  14  16  1   
 24  14  32  1   
 25  14  33  1   
 26  15  17  1   
 27  15  34  1   
 28  15  35  1   
 29  16  17  1   
 30  16  36  1   
 31  16  37  1   
 32  17  18  1   
 33  17  19  1   
 34  18  20  1   
 35  19  21  1   
 36  19  38  1   
 37  19  39  1   
 38  20  22  1   
 39  20  40  1   
 40  20  41  1   
 41  21  22  1   
 42  21  23  1   
 43  21  24  1   
 44  22  42  1   
 45  22  43  1   
 46  23  44  1   
 47  24  45  1   
 48  24  46  1   
 49  24  47  1   
@<TRIPOS>SUBSTRUCTURE
  1 ****  15 GROUP 4 **** **** 0

# MOE 2024.06 (io_trps.svl 2023.06)
