@<TRIPOS>MOLECULE
NONAME
44 45 1 0 0 
SMALL
USER_CHARGES


@<TRIPOS>ATOM
  1 S        0.1010     0.1770     1.1170 S.o2  1 <1>   1.3330 
  2 O       -1.2780     0.1450     1.5510 O.2   1 <1>  -0.6500 
  3 O        1.1460     0.4300     2.0850 O.2   1 <1>  -0.6500 
  4 N        0.4540    -1.2920     0.3440 N.am  1 <1>  -0.8490 
  5 C        0.2290     1.3750    -0.2080 C.3   1 <1>  -0.0550 
  6 C       -0.1890    -2.4330     1.0020 C.3   1 <1>   0.1160 
  7 C        1.8920    -1.5440     0.2000 C.3   1 <1>   0.1160 
  8 C       -0.0610     2.8140     0.2480 C.3   1 <1>  -0.0800 
  9 C       -0.0740     3.7920    -0.9170 C.3   1 <1>   0.2000 
 10 C        0.9890     3.3920     1.2020 C.3   1 <1>   0.2090 
 11 O       -1.3090     3.7610    -1.5520 O.3   1 <1>  -0.6800 
 12 C        0.2260     5.1470    -0.2860 C.3   1 <1>   0.2090 
 13 N        1.0830     4.8480     0.8950 N.pl3 1 <1>  -0.8380 
 14 C        2.3590     5.3630     0.8450 C.ar  1 <1>   0.4100 
 15 N        3.1320     4.9670    -0.1570 N.ar  1 <1>  -0.6200 
 16 C        2.7680     6.2620     1.8210 C.ar  1 <1>  -0.1500 
 17 C        4.3450     5.4850    -0.1950 C.ar  1 <1>   0.1670 
 18 C        4.0370     6.8050     1.7870 C.ar  1 <1>  -0.1440 
 19 C        4.8360     6.3900     0.7320 C.ar  1 <1>  -0.1500 
 20 C        5.2160     5.0290    -1.3460 C.3   1 <1>  -0.0970 
 21 C        4.5270     7.8070     2.8380 C.3   1 <1>   1.1630 
 22 F        3.9360     7.6510     4.0160 F     1 <1>  -0.3400 
 23 F        4.3030     9.0610     2.4690 F     1 <1>  -0.3400 
 24 F        5.8330     7.7140     3.0620 F     1 <1>  -0.3400 
 25 H        1.2100     1.3340    -0.6390 H     1 <1>   0.0800 
 26 H       -0.4750     1.1110    -0.9740 H     1 <1>   0.0800 
 27 H        0.0410    -3.3450     0.4790 H     1 <1>   0.0800 
 28 H       -1.2590    -2.3060     1.0000 H     1 <1>   0.0800 
 29 H        0.1470    -2.5140     2.0230 H     1 <1>   0.0800 
 30 H        2.0550    -2.4420    -0.3710 H     1 <1>   0.0800 
 31 H        2.3530    -1.6560     1.1680 H     1 <1>   0.0800 
 32 H        2.3640    -0.7250    -0.3140 H     1 <1>   0.0800 
 33 H       -1.0100     2.8490     0.7560 H     1 <1>   0.0800 
 34 H        0.6910     3.5580    -1.6380 H     1 <1>   0.0800 
 35 H        1.9470     2.9230     1.0430 H     1 <1>   0.0800 
 36 H        0.7010     3.2460     2.2290 H     1 <1>   0.0800 
 37 H       -2.0280     3.9290    -0.9120 H     1 <1>   0.4000 
 38 H       -0.6780     5.6200     0.0530 H     1 <1>   0.0800 
 39 H        0.7320     5.7890    -0.9870 H     1 <1>   0.0800 
 40 H        2.0640     6.5150     2.5930 H     1 <1>   0.1500 
 41 H        5.8380     6.7700     0.6290 H     1 <1>   0.1500 
 42 H        6.1760     5.5100    -1.3250 H     1 <1>   0.0800 
 43 H        4.7310     5.2620    -2.2760 H     1 <1>   0.0800 
 44 H        5.3580     3.9650    -1.2880 H     1 <1>   0.0800 
@<TRIPOS>BOND
  1   1   2  2   
  2   1   3  2   
  3   1   4  am  
  4   1   5  1   
  5   4   6  1   
  6   4   7  1   
  7   5   8  1   
  8   5  25  1   
  9   5  26  1   
 10   6  27  1   
 11   6  28  1   
 12   6  29  1   
 13   7  30  1   
 14   7  31  1   
 15   7  32  1   
 16   8   9  1   
 17   8  10  1   
 18   8  33  1   
 19   9  11  1   
 20   9  12  1   
 21   9  34  1   
 22  10  13  1   
 23  10  35  1   
 24  10  36  1   
 25  11  37  1   
 26  12  13  1   
 27  12  38  1   
 28  12  39  1   
 29  13  14  1   
 30  14  15  ar  
 31  14  16  ar  
 32  15  17  ar  
 33  16  18  ar  
 34  16  40  1   
 35  17  19  ar  
 36  17  20  1   
 37  18  19  ar  
 38  18  21  1   
 39  19  41  1   
 40  20  42  1   
 41  20  43  1   
 42  20  44  1   
 43  21  22  1   
 44  21  23  1   
 45  21  24  1   
@<TRIPOS>SUBSTRUCTURE
  1 ****  10 GROUP 4 **** **** 0

# MOE 2024.06 (io_trps.svl 2023.06)
