@<TRIPOS>MOLECULE
NONAME
52 55 1 0 0 
SMALL
USER_CHARGES


@<TRIPOS>ATOM
  1 O       -2.1520     1.5550    -2.0550 O.2   1 <1>  -0.5700 
  2 C       -2.5290     1.5020    -0.8960 C.2   1 <1>   0.5440 
  3 N       -3.4460     0.5170    -0.5560 N.am  1 <1>  -0.6600 
  4 C       -2.0220     2.4660     0.0740 C.ar  1 <1>   0.3960 
  5 C       -3.8330    -0.5520    -1.5420 C.3   1 <1>   0.1400 
  6 C       -4.2000     0.5230     0.7400 C.3   1 <1>   0.1400 
  7 N       -1.2150     2.0250     1.0610 N.ar  1 <1>  -0.6200 
  8 C       -2.3860     3.8210    -0.0220 C.ar  1 <1>   0.0830 
  9 C       -3.9770    -1.9320    -0.8790 C.3   1 <1>   0.1400 
 10 C       -4.4040    -0.8890     1.3130 C.3   1 <1>   0.1400 
 11 C       -0.7210     2.9290     1.8840 C.ar  1 <1>   0.1600 
 12 O       -3.2670     4.2780    -0.9370 O.3   1 <1>  -0.3630 
 13 C       -1.8490     4.7490     0.8480 C.ar  1 <1>  -0.1500 
 14 N       -4.9110    -1.8300     0.2750 N.am  1 <1>  -0.6600 
 15 C       -0.9950     4.2840     1.8190 C.ar  1 <1>  -0.1500 
 16 C       -4.6350     4.0800    -0.6650 C.3   1 <1>   0.1200 
 17 C       -6.1860    -2.3240     0.1640 C.2   1 <1>   0.5690 
 18 C       -5.4550     5.0380    -1.5350 C.3   1 <1>  -0.1600 
 19 O       -6.4310    -3.3120    -0.4850 O.2   1 <1>  -0.5700 
 20 C       -7.3610    -1.5650     0.7620 C.3   1 <1>  -0.0990 
 21 C       -6.9010     5.2140    -1.0330 C.3   1 <1>   0.0960 
 22 C       -7.7120    -0.3820    -0.1590 C.3   1 <1>  -0.1600 
 23 N       -7.6040     3.9230    -0.8930 N.pl3 1 <1>   0.3140 
 24 C       -8.5260     0.7320     0.5130 C.3   1 <1>   0.0210 
 25 N       -8.2930     3.3620    -1.8890 N.2   1 <1>  -0.4180 
 26 C       -7.5990     3.1040     0.1610 C.2   1 <1>  -0.3020 
 27 C       -8.2850     2.0250    -0.2420 C.2   1 <1>   0.0460 
 28 N       -8.7140     2.2100    -1.4950 N.2   1 <1>  -0.2270 
 29 H       -3.0940    -0.6250    -2.3210 H     1 <1>   0.0800 
 30 H       -4.7660    -0.2810    -2.0030 H     1 <1>   0.0800 
 31 H       -5.1580     0.9820     0.5800 H     1 <1>   0.0800 
 32 H       -3.6810     1.1100     1.4750 H     1 <1>   0.0800 
 33 H       -3.0160    -2.2750    -0.5380 H     1 <1>   0.0800 
 34 H       -4.3460    -2.6400    -1.6020 H     1 <1>   0.0800 
 35 H       -5.0670    -0.8510     2.1570 H     1 <1>   0.0800 
 36 H       -3.4560    -1.2530     1.6720 H     1 <1>   0.0800 
 37 H       -0.0560     2.5760     2.6560 H     1 <1>   0.1500 
 38 H       -2.0970     5.7920     0.7600 H     1 <1>   0.1500 
 39 H       -0.5430     4.9600     2.5240 H     1 <1>   0.1500 
 40 H       -4.7990     4.2840     0.3800 H     1 <1>   0.0800 
 41 H       -4.8830     3.0550    -0.8830 H     1 <1>   0.0800 
 42 H       -5.4730     4.6690    -2.5460 H     1 <1>   0.0800 
 43 H       -4.9820     6.0040    -1.5400 H     1 <1>   0.0800 
 44 H       -7.1190    -1.2330     1.7510 H     1 <1>   0.0800 
 45 H       -8.2050    -2.2260     0.8380 H     1 <1>   0.0800 
 46 H       -7.4530     5.8240    -1.7260 H     1 <1>   0.0800 
 47 H       -6.9030     5.7050    -0.0770 H     1 <1>   0.0800 
 48 H       -8.2450    -0.7440    -1.0220 H     1 <1>   0.0800 
 49 H       -6.8000     0.0480    -0.5300 H     1 <1>   0.0800 
 50 H       -8.2080     0.8670     1.5310 H     1 <1>   0.0800 
 51 H       -9.5740     0.4900     0.5110 H     1 <1>   0.0800 
 52 H       -7.1100     3.3210     1.0900 H     1 <1>   0.1500 
@<TRIPOS>BOND
  1   1   2  2   
  2   2   3  am  
  3   2   4  1   
  4   3   5  1   
  5   3   6  1   
  6   4   7  ar  
  7   4   8  ar  
  8   5   9  1   
  9   5  29  1   
 10   5  30  1   
 11   6  10  1   
 12   6  31  1   
 13   6  32  1   
 14   7  11  ar  
 15   8  12  1   
 16   8  13  ar  
 17   9  14  1   
 18   9  33  1   
 19   9  34  1   
 20  10  14  1   
 21  10  35  1   
 22  10  36  1   
 23  11  15  ar  
 24  11  37  1   
 25  12  16  1   
 26  13  15  ar  
 27  13  38  1   
 28  14  17  am  
 29  15  39  1   
 30  16  18  1   
 31  16  40  1   
 32  16  41  1   
 33  17  19  2   
 34  17  20  1   
 35  18  21  1   
 36  18  42  1   
 37  18  43  1   
 38  20  22  1   
 39  20  44  1   
 40  20  45  1   
 41  21  23  1   
 42  21  46  1   
 43  21  47  1   
 44  22  24  1   
 45  22  48  1   
 46  22  49  1   
 47  23  25  1   
 48  23  26  1   
 49  24  27  1   
 50  24  50  1   
 51  24  51  1   
 52  25  28  2   
 53  26  27  2   
 54  26  52  1   
 55  27  28  1   
@<TRIPOS>SUBSTRUCTURE
  1 ****   6 GROUP 4 **** **** 0

# MOE 2024.06 (io_trps.svl 2023.06)
