@<TRIPOS>MOLECULE
NONAME
46 48 1 0 0 
SMALL
USER_CHARGES


@<TRIPOS>ATOM
  1 O        2.4080    -1.2480    -2.3290 O.2   1 <1>  -0.5700 
  2 C        1.7360    -0.6780    -1.5020 C.2   1 <1>   0.5690 
  3 N        2.3120     0.2500    -0.6850 N.am  1 <1>  -0.6600 
  4 C        0.2810    -1.0650    -1.3450 C.3   1 <1>  -0.0990 
  5 C        2.4110    -0.0820     0.7830 C.3   1 <1>   0.2200 
  6 C        3.3470     1.1680    -1.2650 C.3   1 <1>   0.1400 
  7 C        0.0870    -2.5880    -1.3650 C.3   1 <1>   0.0960 
  8 C        2.7140     1.1370     1.6710 C.3   1 <1>   0.1200 
  9 C        3.4680    -1.1950     1.0090 C.3   1 <1>   0.3430 
 10 C        4.7120     1.1580    -0.5480 C.3   1 <1>  -0.0800 
 11 N        0.8530    -3.2700    -0.2980 N.pl3 1 <1>   0.3140 
 12 O        4.0920     1.3400     1.7830 O.3   1 <1>  -0.5600 
 13 N        4.4030    -1.3590    -0.1610 N.4   1 <1>  -0.9590 
 14 C        4.6940     2.0120     0.7300 C.3   1 <1>   0.1200 
 15 C        5.3640    -0.2260    -0.3270 C.3   1 <1>   0.3430 
 16 N        0.7270    -2.9470     1.0060 N.2   1 <1>  -0.7070 
 17 C        1.6600    -4.3380    -0.4540 C.2   1 <1>  -0.3020 
 18 C        5.0740    -2.6860    -0.1310 C.3   1 <1>   0.2630 
 19 C        1.4060    -3.8540     1.6430 C.2   1 <1>   0.1390 
 20 C        2.0310    -4.7440     0.7770 C.2   1 <1>  -0.1810 
 21 C        2.9000    -5.9250     1.1610 C.3   1 <1>  -0.0590 
 22 H       -0.1320    -0.6580    -0.4410 H     1 <1>   0.0800 
 23 H       -0.2640    -0.6380    -2.1660 H     1 <1>   0.0800 
 24 H        1.4590    -0.4570     1.1140 H     1 <1>   0.0800 
 25 H        3.5050     0.9170    -2.3010 H     1 <1>   0.0800 
 26 H        2.9500     2.1700    -1.2550 H     1 <1>   0.0800 
 27 H        0.4000    -2.9820    -2.3150 H     1 <1>   0.0800 
 28 H       -0.9520    -2.8230    -1.2280 H     1 <1>   0.0800 
 29 H        2.3550     0.9400     2.6660 H     1 <1>   0.0800 
 30 H        2.2300     2.0290     1.3100 H     1 <1>   0.0800 
 31 H        2.9450    -2.1180     1.1620 H     1 <1>   0.0800 
 32 H        4.0250    -0.9910     1.9080 H     1 <1>   0.0800 
 33 H        5.3790     1.6880    -1.2040 H     1 <1>   0.0800 
 34 H        3.7800    -1.3320    -0.9980 H     1 <1>   0.4500 
 35 H        4.1860     2.9500     0.5770 H     1 <1>   0.0800 
 36 H        5.7030     2.2300     1.0380 H     1 <1>   0.0800 
 37 H        6.0100    -0.1730     0.5350 H     1 <1>   0.0800 
 38 H        5.9840    -0.4370    -1.1830 H     1 <1>   0.0800 
 39 H        1.8960    -4.7560    -1.4160 H     1 <1>   0.1500 
 40 H        5.7170    -2.7620     0.7300 H     1 <1>   0.0800 
 41 H        5.6640    -2.8260    -1.0220 H     1 <1>   0.0800 
 42 H        4.3350    -3.4710    -0.0840 H     1 <1>   0.0800 
 43 H        1.4710    -3.9030     2.7180 H     1 <1>   0.1500 
 44 H        3.7420    -5.5980     1.7440 H     1 <1>   0.0800 
 45 H        3.2570    -6.4270     0.2800 H     1 <1>   0.0800 
 46 H        2.3260    -6.6240     1.7430 H     1 <1>   0.0800 
@<TRIPOS>BOND
  1   1   2  2   
  2   2   3  am  
  3   2   4  1   
  4   3   5  1   
  5   3   6  1   
  6   4   7  1   
  7   4  22  1   
  8   4  23  1   
  9   5   8  1   
 10   5   9  1   
 11   5  24  1   
 12   6  10  1   
 13   6  25  1   
 14   6  26  1   
 15   7  11  1   
 16   7  27  1   
 17   7  28  1   
 18   8  12  1   
 19   8  29  1   
 20   8  30  1   
 21   9  13  1   
 22   9  31  1   
 23   9  32  1   
 24  10  14  1   
 25  10  15  1   
 26  10  33  1   
 27  11  16  1   
 28  11  17  1   
 29  12  14  1   
 30  13  15  1   
 31  13  18  1   
 32  13  34  1   
 33  14  35  1   
 34  14  36  1   
 35  15  37  1   
 36  15  38  1   
 37  16  19  2   
 38  17  20  2   
 39  17  39  1   
 40  18  40  1   
 41  18  41  1   
 42  18  42  1   
 43  19  20  1   
 44  19  43  1   
 45  20  21  1   
 46  21  44  1   
 47  21  45  1   
 48  21  46  1   
@<TRIPOS>SUBSTRUCTURE
  1 ****   9 GROUP 4 **** **** 0

# MOE 2024.06 (io_trps.svl 2023.06)
