@<TRIPOS>MOLECULE
NONAME
48 50 1 0 0 
SMALL
USER_CHARGES


@<TRIPOS>ATOM
  1 CL       1.3530     4.4010     1.9330 Cl    1 <1>  -0.1770 
  2 C        1.8710     4.2190     0.2760 C.ar  1 <1>   0.1770 
  3 C        2.5270     3.0700    -0.1540 C.ar  1 <1>  -0.1440 
  4 C        1.5990     5.2640    -0.5880 C.ar  1 <1>  -0.1500 
  5 C        2.8930     2.9930    -1.4940 C.ar  1 <1>  -0.1500 
  6 C        2.8550     1.9190     0.8000 C.3   1 <1>   0.3640 
  7 C        1.9790     5.1740    -1.9140 C.ar  1 <1>  -0.1500 
  8 C        2.6240     4.0360    -2.3660 C.ar  1 <1>  -0.1500 
  9 N        2.3990     0.6550     0.1720 N.am  1 <1>  -0.7300 
 10 C        4.3760     1.8850     1.1040 C.3   1 <1>   0.2610 
 11 C        3.1300    -0.4800     0.1570 C.2   1 <1>   0.5690 
 12 O        4.7840     0.6220     1.6050 O.3   1 <1>  -0.5600 
 13 C        4.7400     3.0140     2.0810 C.2   1 <1>   0.5690 
 14 O        2.6910    -1.4840    -0.3430 O.2   1 <1>  -0.5700 
 15 C        4.5440    -0.4710     0.7460 C.3   1 <1>   0.1810 
 16 O        4.0710     3.1290     3.0830 O.2   1 <1>  -0.5700 
 17 N        5.7630     3.8980     1.8180 N.am  1 <1>  -0.6600 
 18 C        6.0280     5.0550     2.7350 C.3   1 <1>   0.1400 
 19 C        6.7000     3.8340     0.6640 C.3   1 <1>   0.1400 
 20 C        5.4680     6.3690     2.1730 C.3   1 <1>   0.1400 
 21 C        6.1460     4.5680    -0.5670 C.3   1 <1>  -0.1600 
 22 N        5.9800     6.6600     0.7940 N.am  1 <1>  -0.6600 
 23 C        5.3430     5.8460    -0.2750 C.3   1 <1>   0.1400 
 24 C        6.9510     7.6040     0.5920 C.2   1 <1>   0.5690 
 25 O        7.4890     8.1770     1.5090 O.2   1 <1>  -0.5700 
 26 C        7.3960     7.9620    -0.8070 C.3   1 <1>  -0.1790 
 27 H        1.0910     6.1380    -0.2210 H     1 <1>   0.1500 
 28 H        3.3880     2.1150    -1.8740 H     1 <1>   0.1500 
 29 H        2.3170     2.0300     1.7260 H     1 <1>   0.0800 
 30 H        1.7680     5.9830    -2.5940 H     1 <1>   0.1500 
 31 H        2.9120     3.9590    -3.4010 H     1 <1>   0.1500 
 32 H        1.4420     0.6240    -0.1830 H     1 <1>   0.3700 
 33 H        4.9010     2.0330     0.1820 H     1 <1>   0.0800 
 34 H        5.2630    -0.4400    -0.0510 H     1 <1>   0.0800 
 35 H        4.6970    -1.3710     1.3140 H     1 <1>   0.0800 
 36 H        5.5840     4.8760     3.6990 H     1 <1>   0.0800 
 37 H        7.0870     5.1620     2.8920 H     1 <1>   0.0800 
 38 H        7.6300     4.2970     0.9500 H     1 <1>   0.0800 
 39 H        6.9240     2.8090     0.4220 H     1 <1>   0.0800 
 40 H        5.7340     7.1710     2.8400 H     1 <1>   0.0800 
 41 H        4.3930     6.3160     2.1560 H     1 <1>   0.0800 
 42 H        6.9710     4.8150    -1.2080 H     1 <1>   0.0800 
 43 H        5.5200     3.8990    -1.1250 H     1 <1>   0.0800 
 44 H        4.3530     5.5720     0.0440 H     1 <1>   0.0800 
 45 H        5.2340     6.4250    -1.1750 H     1 <1>   0.0800 
 46 H        7.8110     7.1000    -1.2920 H     1 <1>   0.0800 
 47 H        8.1500     8.7260    -0.7610 H     1 <1>   0.0800 
 48 H        6.5630     8.3360    -1.3700 H     1 <1>   0.0800 
@<TRIPOS>BOND
  1   1   2  1   
  2   2   3  ar  
  3   2   4  ar  
  4   3   5  ar  
  5   3   6  1   
  6   4   7  ar  
  7   4  27  1   
  8   5   8  ar  
  9   5  28  1   
 10   6   9  1   
 11   6  10  1   
 12   6  29  1   
 13   7   8  ar  
 14   7  30  1   
 15   8  31  1   
 16   9  11  am  
 17   9  32  1   
 18  10  12  1   
 19  10  13  1   
 20  10  33  1   
 21  11  14  2   
 22  11  15  1   
 23  12  15  1   
 24  13  16  2   
 25  13  17  am  
 26  15  34  1   
 27  15  35  1   
 28  17  18  1   
 29  17  19  1   
 30  18  20  1   
 31  18  36  1   
 32  18  37  1   
 33  19  21  1   
 34  19  38  1   
 35  19  39  1   
 36  20  22  1   
 37  20  40  1   
 38  20  41  1   
 39  21  23  1   
 40  21  42  1   
 41  21  43  1   
 42  22  23  1   
 43  22  24  am  
 44  23  44  1   
 45  23  45  1   
 46  24  25  2   
 47  24  26  1   
 48  26  46  1   
 49  26  47  1   
 50  26  48  1   
@<TRIPOS>SUBSTRUCTURE
  1 ****  13 GROUP 4 **** **** 0

# MOE 2024.06 (io_trps.svl 2023.06)
