@<TRIPOS>MOLECULE
NONAME
37 40 1 0 0 
SMALL
USER_CHARGES


@<TRIPOS>ATOM
  1 O       -1.4760     0.5930     3.1190 O.2   1 <1>  -0.5700 
  2 C       -2.0690     1.1250     2.1960 C.2   1 <1>   0.5440 
  3 N       -3.1930     0.5130     1.6870 N.am  1 <1>  -0.6600 
  4 C       -1.6130     2.4210     1.7290 C.ar  1 <1>   0.0860 
  5 C       -3.9880     1.0130     0.5300 C.3   1 <1>   0.2350 
  6 C       -3.4470    -0.9530     1.8110 C.3   1 <1>   0.2350 
  7 C       -1.1830     2.6500     0.4190 C.ar  1 <1>   0.0820 
  8 C       -1.6180     3.5120     2.6010 C.ar  1 <1>  -0.1500 
  9 C       -4.0660    -0.1560    -0.4280 C.3   1 <1>  -0.2420 
 10 C       -3.8440    -1.3980     0.4060 C.3   1 <1>  -0.2420 
 11 O       -1.1060     1.6210    -0.4520 O.3   1 <1>  -0.3620 
 12 C       -0.8510     3.9340    -0.0180 C.ar  1 <1>   0.0820 
 13 C       -1.2560     4.7800     2.1830 C.ar  1 <1>  -0.1500 
 14 C       -4.8730     0.2780    -1.6480 C.2   1 <1>   0.9470 
 15 C       -2.9120    -1.0900    -0.7280 C.3   1 <1>  -0.2000 
 16 C       -4.6200    -2.7180     0.4270 C.2   1 <1>   0.9470 
 17 C       -1.3360     1.9280    -1.8090 C.3   1 <1>   0.1200 
 18 O       -0.5130     4.1790    -1.3140 O.3   1 <1>  -0.3630 
 19 C       -0.8810     4.9940     0.8670 C.ar  1 <1>  -0.1500 
 20 O       -4.2580     0.5760    -2.6850 O.co2 1 <1>  -0.9000 
 21 O       -6.0810     0.5150    -1.5310 O.co2 1 <1>  -0.9000 
 22 O       -4.2590    -3.6560    -0.2980 O.co2 1 <1>  -0.9000 
 23 O       -5.5150    -2.8710     1.2700 O.co2 1 <1>  -0.9000 
 24 C       -0.4080     3.0810    -2.2130 C.3   1 <1>   0.1200 
 25 H       -4.9820     1.2600     0.8620 H     1 <1>   0.0800 
 26 H       -3.5620     1.8740     0.0560 H     1 <1>   0.0800 
 27 H       -2.5720    -1.4800     2.1460 H     1 <1>   0.0800 
 28 H       -4.2560    -1.1150     2.5020 H     1 <1>   0.0800 
 29 H       -1.9190     3.3460     3.6210 H     1 <1>   0.1500 
 30 H       -1.2710     5.6020     2.8780 H     1 <1>   0.1500 
 31 H       -1.9030    -0.8030    -0.5060 H     1 <1>   0.1000 
 32 H       -2.9790    -1.7030    -1.6110 H     1 <1>   0.1000 
 33 H       -1.1500     1.0440    -2.3910 H     1 <1>   0.0800 
 34 H       -2.3700     2.2030    -1.9300 H     1 <1>   0.0800 
 35 H       -0.6140     5.9770     0.5240 H     1 <1>   0.1500 
 36 H       -0.6550     3.4320    -3.1980 H     1 <1>   0.0800 
 37 H        0.6130     2.7450    -2.2040 H     1 <1>   0.0800 
@<TRIPOS>BOND
  1   1   2  2   
  2   2   3  am  
  3   2   4  1   
  4   3   5  1   
  5   3   6  1   
  6   4   7  ar  
  7   4   8  ar  
  8   5   9  1   
  9   5  25  1   
 10   5  26  1   
 11   6  10  1   
 12   6  27  1   
 13   6  28  1   
 14   7  11  1   
 15   7  12  ar  
 16   8  13  ar  
 17   8  29  1   
 18   9  10  1   
 19   9  14  1   
 20   9  15  1   
 21  10  15  1   
 22  10  16  1   
 23  11  17  1   
 24  12  18  1   
 25  12  19  ar  
 26  13  19  ar  
 27  13  30  1   
 28  14  20  ar  
 29  14  21  ar  
 30  15  31  1   
 31  15  32  1   
 32  16  22  ar  
 33  16  23  ar  
 34  17  24  1   
 35  17  33  1   
 36  17  34  1   
 37  18  24  1   
 38  19  35  1   
 39  24  36  1   
 40  24  37  1   
@<TRIPOS>SUBSTRUCTURE
  1 ****   5 GROUP 4 **** **** 0

# MOE 2024.06 (io_trps.svl 2023.06)
