@<TRIPOS>MOLECULE
NONAME
52 54 1 0 0 
SMALL
USER_CHARGES


@<TRIPOS>ATOM
  1 CL       1.9920     1.2750     2.7840 Cl    1 <1>  -0.1770 
  2 C        2.9470     0.0460     1.9800 C.ar  1 <1>   0.1770 
  3 C        3.4710     0.2440     0.6990 C.ar  1 <1>   0.0860 
  4 C        3.1480    -1.1300     2.6800 C.ar  1 <1>  -0.1500 
  5 C        3.3080     1.4620    -0.0710 C.2   1 <1>   0.5440 
  6 C        4.2000    -0.8120     0.1530 C.ar  1 <1>  -0.1500 
  7 C        3.8810    -2.1510     2.1070 C.ar  1 <1>  -0.1500 
  8 O        3.2080     1.4120    -1.2820 O.2   1 <1>  -0.5700 
  9 N        3.3260     2.6930     0.5200 N.am  1 <1>  -0.7300 
 10 C        4.4120    -2.0020     0.8350 C.ar  1 <1>   0.1000 
 11 C        3.2060     3.9970    -0.1840 C.3   1 <1>   0.1400 
 12 N        5.1450    -3.0410     0.2790 N.pl3 1 <1>  -0.8380 
 13 C        4.5760     4.7060    -0.3590 C.3   1 <1>   0.0000 
 14 C        4.7850    -3.4890    -1.0920 C.3   1 <1>   0.2090 
 15 C        6.6080    -3.0290     0.5360 C.3   1 <1>   0.2090 
 16 C        5.2390     4.9650     1.0150 C.3   1 <1>  -0.1600 
 17 C        4.3290     6.0820    -1.0370 C.3   1 <1>  -0.1600 
 18 C        5.4720     3.7950    -1.2370 C.3   1 <1>   0.1200 
 19 C        5.3210    -4.9050    -1.3200 C.3   1 <1>  -0.1600 
 20 C        7.1720    -4.4380     0.3270 C.3   1 <1>  -0.1600 
 21 C        4.4190     5.9240     1.9000 C.3   1 <1>   0.1200 
 22 C        4.0860     7.2260    -0.0340 C.3   1 <1>   0.1200 
 23 O        6.7230     4.3610    -1.4650 O.3   1 <1>  -0.6800 
 24 C        6.8350    -4.9840    -1.0690 C.3   1 <1>  -0.1600 
 25 O        3.5480     6.7140     1.1420 O.3   1 <1>  -0.5600 
 26 H        2.7310    -1.2460     3.6640 H     1 <1>   0.1500 
 27 H        4.6190    -0.6980    -0.8300 H     1 <1>   0.1500 
 28 H        4.0470    -3.0760     2.6310 H     1 <1>   0.1500 
 29 H        3.3210     2.7500     1.5410 H     1 <1>   0.3700 
 30 H        2.5230     4.6200     0.3660 H     1 <1>   0.0800 
 31 H        2.7670     3.8330    -1.1540 H     1 <1>   0.0800 
 32 H        5.2110    -2.8150    -1.8160 H     1 <1>   0.0800 
 33 H        3.7130    -3.4800    -1.2040 H     1 <1>   0.0800 
 34 H        6.7950    -2.7060     1.5460 H     1 <1>   0.0800 
 35 H        7.0830    -2.3370    -0.1370 H     1 <1>   0.0800 
 36 H        6.2070     5.4100     0.8620 H     1 <1>   0.0800 
 37 H        5.4110     4.0450     1.5430 H     1 <1>   0.0800 
 38 H        3.4890     6.0190    -1.7060 H     1 <1>   0.0800 
 39 H        5.1690     6.3740    -1.6380 H     1 <1>   0.0800 
 40 H        5.0080     3.6030    -2.1890 H     1 <1>   0.0800 
 41 H        5.6400     2.8510    -0.7480 H     1 <1>   0.0800 
 42 H        5.1030    -5.2100    -2.3270 H     1 <1>   0.0800 
 43 H        4.8070    -5.5750    -0.6530 H     1 <1>   0.0800 
 44 H        6.7570    -5.0870     1.0790 H     1 <1>   0.0800 
 45 H        8.2380    -4.4180     0.4620 H     1 <1>   0.0800 
 46 H        5.0680     6.5750     2.4610 H     1 <1>   0.0800 
 47 H        3.8120     5.3650     2.5910 H     1 <1>   0.0800 
 48 H        3.3920     7.9440    -0.4350 H     1 <1>   0.0800 
 49 H        5.0060     7.7290     0.2100 H     1 <1>   0.0800 
 50 H        6.6360     5.1620    -2.0150 H     1 <1>   0.4000 
 51 H        7.3500    -4.4020    -1.8130 H     1 <1>   0.0800 
 52 H        7.1660    -6.0050    -1.1520 H     1 <1>   0.0800 
@<TRIPOS>BOND
  1   1   2  1   
  2   2   3  ar  
  3   2   4  ar  
  4   3   5  1   
  5   3   6  ar  
  6   4   7  ar  
  7   4  26  1   
  8   5   8  2   
  9   5   9  am  
 10   6  10  ar  
 11   6  27  1   
 12   7  10  ar  
 13   7  28  1   
 14   9  11  1   
 15   9  29  1   
 16  10  12  1   
 17  11  13  1   
 18  11  30  1   
 19  11  31  1   
 20  12  14  1   
 21  12  15  1   
 22  13  16  1   
 23  13  17  1   
 24  13  18  1   
 25  14  19  1   
 26  14  32  1   
 27  14  33  1   
 28  15  20  1   
 29  15  34  1   
 30  15  35  1   
 31  16  21  1   
 32  16  36  1   
 33  16  37  1   
 34  17  22  1   
 35  17  38  1   
 36  17  39  1   
 37  18  23  1   
 38  18  40  1   
 39  18  41  1   
 40  19  24  1   
 41  19  42  1   
 42  19  43  1   
 43  20  24  1   
 44  20  44  1   
 45  20  45  1   
 46  21  25  1   
 47  21  46  1   
 48  21  47  1   
 49  22  25  1   
 50  22  48  1   
 51  22  49  1   
 52  23  50  1   
 53  24  51  1   
 54  24  52  1   
@<TRIPOS>SUBSTRUCTURE
  1 ****   5 GROUP 4 **** **** 0

# MOE 2024.06 (io_trps.svl 2023.06)
