@<TRIPOS>MOLECULE
NONAME
36 37 1 0 0 
SMALL
USER_CHARGES


@<TRIPOS>ATOM
  1 N       -0.0120    -0.0670     0.0560 N.ar  1 <1>  -0.6200 
  2 C       -1.2050     0.4940    -0.1020 C.ar  1 <1>   0.7200 
  3 C        1.0060     0.7560     0.0650 C.ar  1 <1>   0.1660 
  4 N       -1.4780     1.7830    -0.2370 N.ar  1 <1>  -0.6200 
  5 N       -2.2940    -0.3070    -0.1190 N.pl3 1 <1>  -0.8690 
  6 C        0.8380     2.1140    -0.0740 C.ar  1 <1>  -0.1500 
  7 C        2.3810     0.1470     0.2360 C.3   1 <1>  -0.0970 
  8 C       -0.4460     2.5870    -0.2250 C.ar  1 <1>   0.1670 
  9 C       -2.3150    -1.6700     0.4350 C.3   1 <1>   0.2090 
 10 C       -0.7260     4.0660    -0.3840 C.3   1 <1>  -0.0970 
 11 C       -3.6570    -2.3170     0.1040 C.3   1 <1>  -0.1600 
 12 C       -3.7090    -3.7710     0.5910 C.3   1 <1>  -0.0170 
 13 C       -5.0580    -4.4010     0.2890 C.ar  1 <1>   0.1670 
 14 N       -6.0340    -4.1350     1.1430 N.ar  1 <1>  -0.6200 
 15 C       -5.2070    -5.2010    -0.8350 C.ar  1 <1>  -0.1500 
 16 C       -7.2040    -4.6880     0.8670 C.ar  1 <1>   0.1600 
 17 C       -6.4320    -5.7710    -1.1100 C.ar  1 <1>  -0.1500 
 18 C       -7.4530    -5.4990    -0.2260 C.ar  1 <1>  -0.1500 
 19 H       -3.1600     0.2240    -0.0590 H     1 <1>   0.4000 
 20 H        1.6780     2.7820    -0.0660 H     1 <1>   0.1500 
 21 H        2.4240    -0.3850     1.1690 H     1 <1>   0.0800 
 22 H        3.1430     0.9040     0.2310 H     1 <1>   0.0800 
 23 H        2.5690    -0.5440    -0.5650 H     1 <1>   0.0800 
 24 H       -2.1710    -1.6240     1.5020 H     1 <1>   0.0800 
 25 H       -1.5100    -2.2410     0.0030 H     1 <1>   0.0800 
 26 H       -1.3660     4.3970     0.4130 H     1 <1>   0.0800 
 27 H       -1.2230     4.2370    -1.3210 H     1 <1>   0.0800 
 28 H        0.1840     4.6370    -0.3620 H     1 <1>   0.0800 
 29 H       -3.8080    -2.2970    -0.9610 H     1 <1>   0.0800 
 30 H       -4.4480    -1.7610     0.5760 H     1 <1>   0.0800 
 31 H       -3.5430    -3.8060     1.6540 H     1 <1>   0.0800 
 32 H       -2.9290    -4.3410     0.1190 H     1 <1>   0.0800 
 33 H       -4.3740    -5.3750    -1.4920 H     1 <1>   0.1500 
 34 H       -8.0100    -4.4830     1.5510 H     1 <1>   0.1500 
 35 H       -6.5830    -6.3970    -1.9730 H     1 <1>   0.1500 
 36 H       -8.4340    -5.9110    -0.3800 H     1 <1>   0.1500 
@<TRIPOS>BOND
  1   1   2  ar  
  2   1   3  ar  
  3   2   4  ar  
  4   2   5  1   
  5   3   6  ar  
  6   3   7  1   
  7   4   8  ar  
  8   5   9  1   
  9   5  19  1   
 10   6   8  ar  
 11   6  20  1   
 12   7  21  1   
 13   7  22  1   
 14   7  23  1   
 15   8  10  1   
 16   9  11  1   
 17   9  24  1   
 18   9  25  1   
 19  10  26  1   
 20  10  27  1   
 21  10  28  1   
 22  11  12  1   
 23  11  29  1   
 24  11  30  1   
 25  12  13  1   
 26  12  31  1   
 27  12  32  1   
 28  13  14  ar  
 29  13  15  ar  
 30  14  16  ar  
 31  15  17  ar  
 32  15  33  1   
 33  16  18  ar  
 34  16  34  1   
 35  17  18  ar  
 36  17  35  1   
 37  18  36  1   
@<TRIPOS>SUBSTRUCTURE
  1 ****   9 GROUP 4 **** **** 0

# MOE 2024.06 (io_trps.svl 2023.06)
