@<TRIPOS>MOLECULE
NONAME
41 42 1 0 0 
SMALL
USER_CHARGES


@<TRIPOS>ATOM
  1 S        0.2960     0.3270    -1.1450 S.o2  1 <1>   1.3330 
  2 O        0.5220    -0.9290    -1.8260 O.2   1 <1>  -0.6500 
  3 O       -0.7070     1.2410    -1.6410 O.2   1 <1>  -0.6500 
  4 N       -0.1010    -0.0240     0.4700 N.am  1 <1>  -0.8490 
  5 C        1.8680     1.1820    -1.0240 C.3   1 <1>  -0.0550 
  6 C       -0.7080     1.1090     1.1790 C.3   1 <1>   0.1160 
  7 C       -0.9710    -1.1990     0.5810 C.3   1 <1>   0.1160 
  8 C        3.0410     0.2980    -0.5470 C.3   1 <1>  -0.0800 
  9 C        4.4080     0.9610    -0.6170 C.3   1 <1>   0.2200 
 10 C        2.9620    -0.1600     0.9150 C.3   1 <1>   0.1200 
 11 N        4.3410     2.3610    -0.1310 N.am  1 <1>  -0.7300 
 12 C        5.1770     0.1240     0.3950 C.3   1 <1>   0.1200 
 13 O        4.2660    -0.1300     1.4210 O.3   1 <1>  -0.5600 
 14 C        4.3110     3.4770    -0.9140 C.2   1 <1>   0.5440 
 15 O        4.2550     3.3110    -2.1160 O.2   1 <1>  -0.5700 
 16 C        4.2960     4.8210    -0.3600 C.ar  1 <1>   0.0860 
 17 C        4.6890     5.1440     0.9470 C.ar  1 <1>   0.1900 
 18 C        3.8650     5.8940    -1.1470 C.ar  1 <1>  -0.1500 
 19 F        5.1130     4.2090     1.7530 F     1 <1>  -0.1900 
 20 C        4.6620     6.4300     1.4640 C.ar  1 <1>  -0.1500 
 21 C        3.8360     7.1740    -0.6310 C.ar  1 <1>   0.1900 
 22 C        4.2260     7.4700     0.6620 C.ar  1 <1>  -0.1500 
 23 F        3.4210     8.1490    -1.3940 F     1 <1>  -0.1900 
 24 H        2.1170     1.5610    -1.9970 H     1 <1>   0.0800 
 25 H        1.7610     2.0270    -0.3730 H     1 <1>   0.0800 
 26 H       -0.8560     0.8600     2.2150 H     1 <1>   0.0800 
 27 H       -1.6590     1.3620     0.7400 H     1 <1>   0.0800 
 28 H       -0.0640     1.9690     1.1250 H     1 <1>   0.0800 
 29 H       -1.1950    -1.4030     1.6140 H     1 <1>   0.0800 
 30 H       -0.4780    -2.0640     0.1690 H     1 <1>   0.0800 
 31 H       -1.8900    -1.0370     0.0430 H     1 <1>   0.0800 
 32 H        3.0730    -0.5850    -1.1620 H     1 <1>   0.0800 
 33 H        4.8440     0.9180    -1.6010 H     1 <1>   0.0800 
 34 H        2.5740    -1.1600     1.0010 H     1 <1>   0.0800 
 35 H        2.3700     0.5110     1.5130 H     1 <1>   0.0800 
 36 H        4.4140     2.4510     0.8880 H     1 <1>   0.3700 
 37 H        6.0400     0.6310     0.7900 H     1 <1>   0.0800 
 38 H        5.4670    -0.8200    -0.0310 H     1 <1>   0.0800 
 39 H        3.5510     5.7280    -2.1630 H     1 <1>   0.1500 
 40 H        4.9790     6.6110     2.4770 H     1 <1>   0.1500 
 41 H        4.1880     8.4830     1.0230 H     1 <1>   0.1500 
@<TRIPOS>BOND
  1   1   2  2   
  2   1   3  2   
  3   1   4  am  
  4   1   5  1   
  5   4   6  1   
  6   4   7  1   
  7   5   8  1   
  8   5  24  1   
  9   5  25  1   
 10   6  26  1   
 11   6  27  1   
 12   6  28  1   
 13   7  29  1   
 14   7  30  1   
 15   7  31  1   
 16   8   9  1   
 17   8  10  1   
 18   8  32  1   
 19   9  11  1   
 20   9  12  1   
 21   9  33  1   
 22  10  13  1   
 23  10  34  1   
 24  10  35  1   
 25  11  14  am  
 26  11  36  1   
 27  12  13  1   
 28  12  37  1   
 29  12  38  1   
 30  14  15  2   
 31  14  16  1   
 32  16  17  ar  
 33  16  18  ar  
 34  17  19  1   
 35  17  20  ar  
 36  18  21  ar  
 37  18  39  1   
 38  20  22  ar  
 39  20  40  1   
 40  21  22  ar  
 41  21  23  1   
 42  22  41  1   
@<TRIPOS>SUBSTRUCTURE
  1 ****  11 GROUP 4 **** **** 0

# MOE 2024.06 (io_trps.svl 2023.06)
