@<TRIPOS>MOLECULE
NONAME
46 48 1 0 0 
SMALL
USER_CHARGES


@<TRIPOS>ATOM
  1 S        0.6190     0.3660    -0.1650 S.o2  1 <1>   1.3330 
  2 O        0.3680    -0.5050    -1.2920 O.2   1 <1>  -0.6500 
  3 O        0.4900    -0.1570     1.1770 O.2   1 <1>  -0.6500 
  4 N       -0.4120     1.7080    -0.2940 N.am  1 <1>  -0.8490 
  5 C        2.2500     1.0740    -0.3680 C.3   1 <1>  -0.0550 
  6 C       -1.7710     1.3220    -0.6810 C.3   1 <1>   0.1160 
  7 C       -0.4510     2.5320     0.9190 C.3   1 <1>   0.1160 
  8 C        3.3720     0.0180    -0.4170 C.3   1 <1>  -0.0800 
  9 C        4.7680     0.5700    -0.6620 C.3   1 <1>   0.2200 
 10 C        3.5450    -0.7850     0.8790 C.3   1 <1>   0.1200 
 11 N        4.9920     1.8040     0.1270 N.am  1 <1>  -0.7300 
 12 C        5.6180    -0.5500    -0.0800 C.3   1 <1>   0.1200 
 13 O        4.9180    -0.9990     1.0410 O.3   1 <1>  -0.5600 
 14 C        4.8480     3.0900    -0.3210 C.2   1 <1>   0.5440 
 15 O        4.5810     3.2390    -1.5010 O.2   1 <1>  -0.5700 
 16 C        4.9480     4.2070     0.6180 C.ar  1 <1>   0.3960 
 17 N        4.4050     4.0280     1.8120 N.ar  1 <1>  -0.6200 
 18 C        5.6150     5.4210     0.2490 C.ar  1 <1>   0.0000 
 19 C        4.4500     5.0420     2.6830 C.ar  1 <1>   0.1600 
 20 C        5.6360     6.4780     1.1800 C.ar  1 <1>   0.0000 
 21 C        6.2800     5.6460    -0.9810 C.ar  1 <1>  -0.1500 
 22 C        5.0280     6.2450     2.4190 C.ar  1 <1>  -0.1500 
 23 C        6.2600     7.6980     0.8610 C.ar  1 <1>  -0.1500 
 24 C        6.8880     6.8370    -1.2740 C.ar  1 <1>  -0.1500 
 25 C        6.8760     7.8790    -0.3450 C.ar  1 <1>  -0.1500 
 26 H        2.2710     1.6360    -1.2830 H     1 <1>   0.0800 
 27 H        2.4330     1.7580     0.4370 H     1 <1>   0.0800 
 28 H       -2.3940     2.1940    -0.7770 H     1 <1>   0.0800 
 29 H       -2.1960     0.6600     0.0560 H     1 <1>   0.0800 
 30 H       -1.7530     0.8150    -1.6310 H     1 <1>   0.0800 
 31 H       -1.0600     3.4040     0.7530 H     1 <1>   0.0800 
 32 H        0.5410     2.8590     1.1800 H     1 <1>   0.0800 
 33 H       -0.8590     1.9700     1.7440 H     1 <1>   0.0800 
 34 H        3.1460    -0.6800    -1.2050 H     1 <1>   0.0800 
 35 H        4.9740     0.7430    -1.7060 H     1 <1>   0.0800 
 36 H        3.0450    -1.7380     0.8310 H     1 <1>   0.0800 
 37 H        3.1990    -0.2380     1.7380 H     1 <1>   0.0800 
 38 H        5.0760     1.6530     1.1380 H     1 <1>   0.3700 
 39 H        6.6000    -0.2210     0.2110 H     1 <1>   0.0800 
 40 H        5.6940    -1.3710    -0.7720 H     1 <1>   0.0800 
 41 H        3.9920     4.8660     3.6430 H     1 <1>   0.1500 
 42 H        6.3160     4.8660    -1.7200 H     1 <1>   0.1500 
 43 H        5.0290     7.0270     3.1560 H     1 <1>   0.1500 
 44 H        6.2490     8.4930     1.5860 H     1 <1>   0.1500 
 45 H        7.3810     6.9840    -2.2200 H     1 <1>   0.1500 
 46 H        7.3540     8.8110    -0.5930 H     1 <1>   0.1500 
@<TRIPOS>BOND
  1   1   2  2   
  2   1   3  2   
  3   1   4  am  
  4   1   5  1   
  5   4   6  1   
  6   4   7  1   
  7   5   8  1   
  8   5  26  1   
  9   5  27  1   
 10   6  28  1   
 11   6  29  1   
 12   6  30  1   
 13   7  31  1   
 14   7  32  1   
 15   7  33  1   
 16   8   9  1   
 17   8  10  1   
 18   8  34  1   
 19   9  11  1   
 20   9  12  1   
 21   9  35  1   
 22  10  13  1   
 23  10  36  1   
 24  10  37  1   
 25  11  14  am  
 26  11  38  1   
 27  12  13  1   
 28  12  39  1   
 29  12  40  1   
 30  14  15  2   
 31  14  16  1   
 32  16  17  ar  
 33  16  18  ar  
 34  17  19  ar  
 35  18  20  ar  
 36  18  21  ar  
 37  19  22  ar  
 38  19  41  1   
 39  20  22  ar  
 40  20  23  ar  
 41  21  24  ar  
 42  21  42  1   
 43  22  43  1   
 44  23  25  ar  
 45  23  44  1   
 46  24  25  ar  
 47  24  45  1   
 48  25  46  1   
@<TRIPOS>SUBSTRUCTURE
  1 ****  14 GROUP 4 **** **** 0

# MOE 2024.06 (io_trps.svl 2023.06)
