@<TRIPOS>MOLECULE
NONAME
53 55 1 0 0 
SMALL
USER_CHARGES


@<TRIPOS>ATOM
  1 O       -0.9060    -1.3120    -0.2070 O.3   1 <1>  -0.6800 
  2 C        0.2690    -1.7040    -0.8290 C.3   1 <1>   0.1200 
  3 C        1.4230    -1.8070     0.2170 C.3   1 <1>   0.0000 
  4 C        2.7500    -2.3370    -0.3910 C.3   1 <1>   0.4230 
  5 C        1.7260    -0.3900     0.7700 C.3   1 <1>  -0.1600 
  6 C        1.0590    -2.7390     1.3940 C.3   1 <1>  -0.1600 
  7 N        2.7980    -3.8480    -0.6260 N.4   1 <1>  -0.9590 
  8 C        3.2240    -1.4150    -1.5390 C.3   1 <1>   0.2090 
  9 C        2.2720     0.5780    -0.2920 C.3   1 <1>   0.2090 
 10 C        0.9060    -4.2150     0.9760 C.3   1 <1>  -0.1600 
 11 C        1.5210    -4.5800    -0.3810 C.3   1 <1>   0.3430 
 12 C        3.4080    -4.2720    -1.9250 C.3   1 <1>   0.2630 
 13 N        3.4320    -0.0350    -1.0090 N.pl3 1 <1>  -0.8380 
 14 C        4.7050     0.3080    -0.5750 C.ar  1 <1>   0.4100 
 15 N        5.3300    -0.6410     0.1200 N.ar  1 <1>  -0.6200 
 16 C        5.2640     1.5640    -0.8550 C.ar  1 <1>   0.0730 
 17 C        6.5400    -0.3540     0.5730 C.ar  1 <1>   0.1670 
 18 C        4.5480     2.5340    -1.6230 C.1   1 <1>   0.4840 
 19 C        6.5290     1.8410    -0.3760 C.ar  1 <1>  -0.1500 
 20 C        7.1700     0.8610     0.3510 C.ar  1 <1>  -0.1500 
 21 C        7.2440    -1.4470     1.3810 C.3   1 <1>   0.0630 
 22 N        3.9790     3.3270    -2.2160 N.1   1 <1>  -0.5570 
 23 C        7.5320    -0.9900     2.8180 C.3   1 <1>  -0.2400 
 24 C        8.5340    -1.9130     0.6930 C.3   1 <1>  -0.2400 
 25 H       -1.6220    -1.1470    -0.8550 H     1 <1>   0.4000 
 26 H        0.0690    -2.6370    -1.3170 H     1 <1>   0.0800 
 27 H        0.4850    -0.9750    -1.5880 H     1 <1>   0.0800 
 28 H        3.4820    -2.1640     0.3800 H     1 <1>   0.0800 
 29 H        2.4550    -0.4510     1.5590 H     1 <1>   0.0800 
 30 H        0.8370     0.0370     1.2020 H     1 <1>   0.0800 
 31 H        1.8390    -2.6810     2.1350 H     1 <1>   0.0800 
 32 H        0.1550    -2.4050     1.8770 H     1 <1>   0.0800 
 33 H        3.4330    -4.1780     0.1150 H     1 <1>   0.4500 
 34 H        2.5100    -1.3850    -2.3420 H     1 <1>   0.0800 
 35 H        4.1620    -1.7640    -1.9330 H     1 <1>   0.0800 
 36 H        2.5770     1.4910     0.1910 H     1 <1>   0.0800 
 37 H        1.5070     0.8370    -1.0060 H     1 <1>   0.0800 
 38 H       -0.1430    -4.4540     0.9310 H     1 <1>   0.0800 
 39 H        1.3290    -4.8440     1.7390 H     1 <1>   0.0800 
 40 H        0.8200    -4.3470    -1.1640 H     1 <1>   0.0800 
 41 H        1.6930    -5.6440    -0.4130 H     1 <1>   0.0800 
 42 H        2.8060    -3.9310    -2.7520 H     1 <1>   0.0800 
 43 H        3.4790    -5.3460    -1.9720 H     1 <1>   0.0800 
 44 H        4.4010    -3.8620    -2.0250 H     1 <1>   0.0800 
 45 H        7.0020     2.7900    -0.5620 H     1 <1>   0.1500 
 46 H        8.1550     1.0440     0.7410 H     1 <1>   0.1500 
 47 H        6.5840    -2.2950     1.4400 H     1 <1>   0.0800 
 48 H        8.2320    -0.1730     2.8310 H     1 <1>   0.0800 
 49 H        7.9440    -1.8010     3.3910 H     1 <1>   0.0800 
 50 H        6.6200    -0.6680     3.2890 H     1 <1>   0.0800 
 51 H        9.2590    -1.1200     0.6530 H     1 <1>   0.0800 
 52 H        8.3200    -2.2320    -0.3120 H     1 <1>   0.0800 
 53 H        8.9640    -2.7400     1.2290 H     1 <1>   0.0800 
@<TRIPOS>BOND
  1   1   2  1   
  2   1  25  1   
  3   2   3  1   
  4   2  26  1   
  5   2  27  1   
  6   3   4  1   
  7   3   5  1   
  8   3   6  1   
  9   4   7  1   
 10   4   8  1   
 11   4  28  1   
 12   5   9  1   
 13   5  29  1   
 14   5  30  1   
 15   6  10  1   
 16   6  31  1   
 17   6  32  1   
 18   7  11  1   
 19   7  12  1   
 20   7  33  1   
 21   8  13  1   
 22   8  34  1   
 23   8  35  1   
 24   9  13  1   
 25   9  36  1   
 26   9  37  1   
 27  10  11  1   
 28  10  38  1   
 29  10  39  1   
 30  11  40  1   
 31  11  41  1   
 32  12  42  1   
 33  12  43  1   
 34  12  44  1   
 35  13  14  1   
 36  14  15  ar  
 37  14  16  ar  
 38  15  17  ar  
 39  16  18  1   
 40  16  19  ar  
 41  17  20  ar  
 42  17  21  1   
 43  18  22  3   
 44  19  20  ar  
 45  19  45  1   
 46  20  46  1   
 47  21  23  1   
 48  21  24  1   
 49  21  47  1   
 50  23  48  1   
 51  23  49  1   
 52  23  50  1   
 53  24  51  1   
 54  24  52  1   
 55  24  53  1   
@<TRIPOS>SUBSTRUCTURE
  1 ****  13 GROUP 4 **** **** 0

# MOE 2024.06 (io_trps.svl 2023.06)
