@<TRIPOS>MOLECULE
NONAME
47 49 1 0 0 
SMALL
USER_CHARGES


@<TRIPOS>ATOM
  1 S       -0.0290    -0.0260    -1.0770 S.o2  1 <1>   1.3330 
  2 O        0.6560    -0.0400    -2.3500 O.2   1 <1>  -0.6500 
  3 O       -1.0630    -1.0000    -0.8090 O.2   1 <1>  -0.6500 
  4 N        1.1380    -0.1720     0.1480 N.am  1 <1>  -0.8490 
  5 C       -0.7000     1.6220    -0.8390 C.3   1 <1>  -0.0550 
  6 C        2.2240    -1.0850    -0.2200 C.3   1 <1>   0.1160 
  7 C        0.5790    -0.5580     1.4480 C.3   1 <1>   0.1160 
  8 C        0.3210     2.7650    -1.0350 C.3   1 <1>  -0.0800 
  9 C       -0.3120     4.1580    -1.1090 C.3   1 <1>   0.2000 
 10 C        1.3680     2.8800     0.0830 C.3   1 <1>   0.1400 
 11 O       -1.2750     4.2740    -0.1180 O.3   1 <1>  -0.6800 
 12 C        0.8390     5.0970    -0.7580 C.3   1 <1>   0.1400 
 13 N        1.6140     4.3360     0.2520 N.am  1 <1>  -0.6600 
 14 C        2.2470     4.8620     1.3510 C.2   1 <1>   0.5440 
 15 O        2.5640     4.1150     2.2550 O.2   1 <1>  -0.5700 
 16 C        2.5630     6.2710     1.4450 C.ar  1 <1>   0.0860 
 17 C        3.4470     6.9030     0.5560 C.ar  1 <1>  -0.0230 
 18 C        1.9800     7.0370     2.4530 C.ar  1 <1>  -0.1500 
 19 N        4.0840     6.1780    -0.4840 N.pl3 1 <1>   0.3260 
 20 C        3.7040     8.2650     0.6910 C.ar  1 <1>  -0.1500 
 21 C        2.2400     8.3880     2.5770 C.ar  1 <1>  -0.1500 
 22 C        4.7410     5.0080    -0.4620 C.2   1 <1>   0.0370 
 23 C        4.1480     6.4910    -1.7860 C.2   1 <1>   0.0370 
 24 C        3.1040     9.0040     1.6910 C.ar  1 <1>  -0.1500 
 25 N        5.1510     4.6500    -1.6290 N.2   1 <1>  -0.3380 
 26 N        4.7690     5.6040    -2.4810 N.2   1 <1>  -0.3380 
 27 H       -1.4940     1.7600    -1.5460 H     1 <1>   0.0800 
 28 H       -1.1350     1.6900     0.1390 H     1 <1>   0.0800 
 29 H        2.9520    -1.1390     0.5710 H     1 <1>   0.0800 
 30 H        2.7200    -0.7300    -1.1080 H     1 <1>   0.0800 
 31 H        1.8340    -2.0710    -0.4140 H     1 <1>   0.0800 
 32 H        1.3470    -0.5380     2.2020 H     1 <1>   0.0800 
 33 H        0.1610    -1.5510     1.3990 H     1 <1>   0.0800 
 34 H       -0.1980     0.1280     1.7380 H     1 <1>   0.0800 
 35 H        0.8500     2.6000    -1.9580 H     1 <1>   0.0800 
 36 H       -0.7660     4.3760    -2.0610 H     1 <1>   0.0800 
 37 H        2.2810     2.3740    -0.1840 H     1 <1>   0.0800 
 38 H        0.9980     2.4740     1.0080 H     1 <1>   0.0800 
 39 H       -0.8310     4.2280     0.7530 H     1 <1>   0.4000 
 40 H        0.4830     6.0400    -0.3800 H     1 <1>   0.0800 
 41 H        1.4540     5.2570    -1.6260 H     1 <1>   0.0800 
 42 H        1.3140     6.5570     3.1510 H     1 <1>   0.1500 
 43 H        4.3840     8.7580     0.0160 H     1 <1>   0.1500 
 44 H        1.7760     8.9590     3.3630 H     1 <1>   0.1500 
 45 H        4.8900     4.4460     0.4430 H     1 <1>   0.1500 
 46 H        3.7180     7.3900    -2.1840 H     1 <1>   0.1500 
 47 H        3.3110    10.0570     1.7880 H     1 <1>   0.1500 
@<TRIPOS>BOND
  1   1   2  2   
  2   1   3  2   
  3   1   4  am  
  4   1   5  1   
  5   4   6  1   
  6   4   7  1   
  7   5   8  1   
  8   5  27  1   
  9   5  28  1   
 10   6  29  1   
 11   6  30  1   
 12   6  31  1   
 13   7  32  1   
 14   7  33  1   
 15   7  34  1   
 16   8   9  1   
 17   8  10  1   
 18   8  35  1   
 19   9  11  1   
 20   9  12  1   
 21   9  36  1   
 22  10  13  1   
 23  10  37  1   
 24  10  38  1   
 25  11  39  1   
 26  12  13  1   
 27  12  40  1   
 28  12  41  1   
 29  13  14  am  
 30  14  15  2   
 31  14  16  1   
 32  16  17  ar  
 33  16  18  ar  
 34  17  19  1   
 35  17  20  ar  
 36  18  21  ar  
 37  18  42  1   
 38  19  22  1   
 39  19  23  1   
 40  20  24  ar  
 41  20  43  1   
 42  21  24  ar  
 43  21  44  1   
 44  22  25  2   
 45  22  45  1   
 46  23  26  2   
 47  23  46  1   
 48  24  47  1   
 49  25  26  1   
@<TRIPOS>SUBSTRUCTURE
  1 ****  13 GROUP 4 **** **** 0

# MOE 2024.06 (io_trps.svl 2023.06)
