@<TRIPOS>MOLECULE
NONAME
47 49 1 0 0 
SMALL
USER_CHARGES


@<TRIPOS>ATOM
  1 O        0.0360     0.9420     1.2210 O.2   1 <1>  -0.5700 
  2 C       -0.2390     1.7120     0.3220 C.2   1 <1>   0.5440 
  3 N       -1.5530     1.8140    -0.0390 N.am  1 <1>  -0.7300 
  4 C        0.7930     2.4630    -0.3710 C.ar  1 <1>   0.0860 
  5 C       -2.6860     1.1650     0.6680 C.3   1 <1>   0.2200 
  6 C        0.5410     3.7130    -0.9410 C.ar  1 <1>  -0.1500 
  7 C        2.0870     1.9540    -0.4930 C.ar  1 <1>  -0.1500 
  8 C       -2.8010    -0.3320     0.3030 C.3   1 <1>   0.2000 
  9 C       -3.9680     1.9280     0.3260 C.3   1 <1>  -0.1600 
 10 C        1.5270     4.4110    -1.6140 C.ar  1 <1>  -0.1500 
 11 C        3.0770     2.6470    -1.1640 C.ar  1 <1>  -0.1500 
 12 O       -1.7490    -1.0350     0.8620 O.3   1 <1>  -0.6800 
 13 C       -4.0940    -0.9550     0.8460 C.3   1 <1>   0.3430 
 14 C       -5.1850     1.2850     0.9900 C.3   1 <1>   0.3430 
 15 C        2.7980     3.8780    -1.7290 C.ar  1 <1>  -0.1500 
 16 N       -5.3090    -0.1250     0.5370 N.4   1 <1>  -0.9590 
 17 C       -6.5530    -0.7750     1.0240 C.3   1 <1>   0.4860 
 18 C       -6.7710    -2.0490     0.2360 C.ar  1 <1>  -0.1430 
 19 C       -6.8340    -2.0080    -1.1580 C.ar  1 <1>   0.4100 
 20 C       -6.8940    -3.2650     0.8740 C.ar  1 <1>  -0.1500 
 21 N       -6.9810    -3.0590    -1.9290 N.ar  1 <1>  -0.6200 
 22 N       -6.7250    -0.8550    -1.8680 N.pl3 1 <1>  -0.9000 
 23 C       -7.0630    -4.3760     0.0710 C.ar  1 <1>  -0.1500 
 24 C       -7.0970    -4.2190    -1.3030 C.ar  1 <1>   0.1600 
 25 H       -1.7750     2.3320    -0.8910 H     1 <1>   0.3700 
 26 H       -2.5180     1.2410     1.7310 H     1 <1>   0.0800 
 27 H       -0.4350     4.1550    -0.8520 H     1 <1>   0.1500 
 28 H        2.3150     0.9980    -0.0520 H     1 <1>   0.1500 
 29 H       -2.7540    -0.4610    -0.7640 H     1 <1>   0.0800 
 30 H       -3.8810     2.9400     0.6810 H     1 <1>   0.0800 
 31 H       -4.1190     1.9550    -0.7390 H     1 <1>   0.0800 
 32 H        1.3120     5.3730    -2.0480 H     1 <1>   0.1500 
 33 H        4.0670     2.2300    -1.2450 H     1 <1>   0.1500 
 34 H       -0.9560    -0.4360     0.9570 H     1 <1>   0.4000 
 35 H       -3.9940    -1.0550     1.9140 H     1 <1>   0.0800 
 36 H       -4.2030    -1.9400     0.4220 H     1 <1>   0.0800 
 37 H       -6.0730     1.8370     0.7230 H     1 <1>   0.0800 
 38 H       -5.0730     1.3180     2.0620 H     1 <1>   0.0800 
 39 H        3.5670     4.4190    -2.2520 H     1 <1>   0.1500 
 40 H       -5.4430    -0.1410    -0.4960 H     1 <1>   0.4500 
 41 H       -6.4760    -0.9940     2.0770 H     1 <1>   0.0800 
 42 H       -7.3960    -0.1220     0.8680 H     1 <1>   0.0800 
 43 H       -6.8600    -3.3700     1.9460 H     1 <1>   0.1500 
 44 H       -6.3800    -1.1100    -2.8030 H     1 <1>   0.4000 
 45 H       -7.6500    -0.4540    -2.0560 H     1 <1>   0.4000 
 46 H       -7.1670    -5.3560     0.5030 H     1 <1>   0.1500 
 47 H       -7.2270    -5.0940    -1.9200 H     1 <1>   0.1500 
@<TRIPOS>BOND
  1   1   2  2   
  2   2   3  am  
  3   2   4  1   
  4   3   5  1   
  5   3  25  1   
  6   4   6  ar  
  7   4   7  ar  
  8   5   8  1   
  9   5   9  1   
 10   5  26  1   
 11   6  10  ar  
 12   6  27  1   
 13   7  11  ar  
 14   7  28  1   
 15   8  12  1   
 16   8  13  1   
 17   8  29  1   
 18   9  14  1   
 19   9  30  1   
 20   9  31  1   
 21  10  15  ar  
 22  10  32  1   
 23  11  15  ar  
 24  11  33  1   
 25  12  34  1   
 26  13  16  1   
 27  13  35  1   
 28  13  36  1   
 29  14  16  1   
 30  14  37  1   
 31  14  38  1   
 32  15  39  1   
 33  16  17  1   
 34  16  40  1   
 35  17  18  1   
 36  17  41  1   
 37  17  42  1   
 38  18  19  ar  
 39  18  20  ar  
 40  19  21  ar  
 41  19  22  1   
 42  20  23  ar  
 43  20  43  1   
 44  21  24  ar  
 45  22  44  1   
 46  22  45  1   
 47  23  24  ar  
 48  23  46  1   
 49  24  47  1   
@<TRIPOS>SUBSTRUCTURE
  1 ****   8 GROUP 4 **** **** 0

# MOE 2024.06 (io_trps.svl 2023.06)
