@<TRIPOS>MOLECULE
NONAME
56 59 1 0 0 
SMALL
USER_CHARGES


@<TRIPOS>ATOM
  1 O        1.6880     0.3970    -1.5350 O.3   1 <1>  -0.3630 
  2 C        2.0150    -0.5880    -0.6630 C.ar  1 <1>   0.0820 
  3 C        1.4120     1.6760    -0.9900 C.3   1 <1>   0.1200 
  4 C        2.3340    -0.3080     0.6640 C.ar  1 <1>   0.0820 
  5 C        2.0210    -1.8950    -1.1090 C.ar  1 <1>  -0.1500 
  6 C        2.3860     1.9960     0.1530 C.3   1 <1>   0.1200 
  7 O        2.3580     0.9670     1.1240 O.3   1 <1>  -0.3630 
  8 C        2.6400    -1.3400     1.5310 C.ar  1 <1>  -0.1500 
  9 C        2.3190    -2.9350    -0.2370 C.ar  1 <1>  -0.1440 
 10 C        2.6390    -2.6570     1.0910 C.ar  1 <1>  -0.1440 
 11 C        2.2710    -4.3550    -0.7690 C.3   1 <1>   0.4870 
 12 C        3.0070    -3.7490     2.0900 C.3   1 <1>  -0.0960 
 13 N        0.9690    -4.9540    -0.3710 N.4   1 <1>  -0.9590 
 14 C        0.9860    -6.4380    -0.5900 C.3   1 <1>   0.3430 
 15 C       -0.1740    -4.2990    -1.0720 C.3   1 <1>   0.3430 
 16 C       -0.3230    -7.1160    -0.1480 C.3   1 <1>   0.1000 
 17 C       -1.4940    -4.9100    -0.5960 C.3   1 <1>  -0.1600 
 18 C       -0.2590    -8.5870    -0.5340 C.2   1 <1>   0.0060 
 19 C       -1.5320    -6.4320    -0.8090 C.3   1 <1>  -0.1600 
 20 N        0.5900    -9.0240    -1.4090 N.2   1 <1>  -0.5650 
 21 N       -1.0600    -9.5590    -0.0170 N.pl3 1 <1>   0.0480 
 22 C        0.3390   -10.3430    -1.4780 C.2   1 <1>   0.0770 
 23 C       -0.6600   -10.6850    -0.6400 C.2   1 <1>  -0.3020 
 24 C       -2.1440    -9.4600     1.0010 C.3   1 <1>   0.1760 
 25 C       -1.8190   -10.3390     2.2150 C.3   1 <1>  -0.2400 
 26 C       -3.4900    -9.8530     0.3840 C.3   1 <1>  -0.2400 
 27 H        0.4000     1.6730    -0.6260 H     1 <1>   0.0800 
 28 H        1.5000     2.3990    -1.7800 H     1 <1>   0.0800 
 29 H        1.7860    -2.0740    -2.1430 H     1 <1>   0.1500 
 30 H        2.1180     2.9180     0.6370 H     1 <1>   0.0800 
 31 H        3.3910     2.0750    -0.2230 H     1 <1>   0.0800 
 32 H        2.8830    -1.0920     2.5490 H     1 <1>   0.1500 
 33 H        3.0870    -4.9200    -0.3500 H     1 <1>   0.0800 
 34 H        2.3720    -4.3550    -1.8420 H     1 <1>   0.0800 
 35 H        3.3910    -3.3170     2.9980 H     1 <1>   0.0800 
 36 H        3.7730    -4.3880     1.6890 H     1 <1>   0.0800 
 37 H        2.1440    -4.3370     2.3450 H     1 <1>   0.0800 
 38 H        0.8640    -4.7540     0.6300 H     1 <1>   0.4500 
 39 H        1.8060    -6.8880    -0.0540 H     1 <1>   0.0800 
 40 H        1.1320    -6.6420    -1.6380 H     1 <1>   0.0800 
 41 H       -0.0780    -4.4390    -2.1370 H     1 <1>   0.0800 
 42 H       -0.1770    -3.2390    -0.8680 H     1 <1>   0.0800 
 43 H       -0.3950    -7.0410     0.9220 H     1 <1>   0.0800 
 44 H       -2.3020    -4.4570    -1.1440 H     1 <1>   0.0800 
 45 H       -1.6420    -4.6760     0.4440 H     1 <1>   0.0800 
 46 H       -2.4490    -6.8300    -0.4120 H     1 <1>   0.0800 
 47 H       -1.5180    -6.6440    -1.8660 H     1 <1>   0.0800 
 48 H        0.8960   -10.9890    -2.1370 H     1 <1>   0.1500 
 49 H       -1.0960   -11.6510    -0.4600 H     1 <1>   0.1500 
 50 H       -2.2090    -8.4410     1.3340 H     1 <1>   0.0800 
 51 H       -1.7830   -11.3770     1.9370 H     1 <1>   0.0800 
 52 H       -2.5750   -10.2190     2.9700 H     1 <1>   0.0800 
 53 H       -0.8720   -10.0550     2.6380 H     1 <1>   0.0800 
 54 H       -3.4800   -10.8830     0.0700 H     1 <1>   0.0800 
 55 H       -3.7080    -9.2310    -0.4660 H     1 <1>   0.0800 
 56 H       -4.2780    -9.7290     1.1050 H     1 <1>   0.0800 
@<TRIPOS>BOND
  1   1   2  1   
  2   1   3  1   
  3   2   4  ar  
  4   2   5  ar  
  5   3   6  1   
  6   3  27  1   
  7   3  28  1   
  8   4   7  1   
  9   4   8  ar  
 10   5   9  ar  
 11   5  29  1   
 12   6   7  1   
 13   6  30  1   
 14   6  31  1   
 15   8  10  ar  
 16   8  32  1   
 17   9  10  ar  
 18   9  11  1   
 19  10  12  1   
 20  11  13  1   
 21  11  33  1   
 22  11  34  1   
 23  12  35  1   
 24  12  36  1   
 25  12  37  1   
 26  13  14  1   
 27  13  15  1   
 28  13  38  1   
 29  14  16  1   
 30  14  39  1   
 31  14  40  1   
 32  15  17  1   
 33  15  41  1   
 34  15  42  1   
 35  16  18  1   
 36  16  19  1   
 37  16  43  1   
 38  17  19  1   
 39  17  44  1   
 40  17  45  1   
 41  18  20  2   
 42  18  21  1   
 43  19  46  1   
 44  19  47  1   
 45  20  22  1   
 46  21  23  1   
 47  21  24  1   
 48  22  23  2   
 49  22  48  1   
 50  23  49  1   
 51  24  25  1   
 52  24  26  1   
 53  24  50  1   
 54  25  51  1   
 55  25  52  1   
 56  25  53  1   
 57  26  54  1   
 58  26  55  1   
 59  26  56  1   
@<TRIPOS>SUBSTRUCTURE
  1 ****  13 GROUP 4 **** **** 0

# MOE 2024.06 (io_trps.svl 2023.06)
