@<TRIPOS>MOLECULE
NONAME
59 61 1 0 0 
SMALL
USER_CHARGES


@<TRIPOS>ATOM
  1 O       -1.7570     2.0990    -3.1220 O.2   1 <1>  -0.5700 
  2 C       -1.2240     1.5410    -2.1880 C.2   1 <1>   0.5690 
  3 N       -1.9520     0.7140    -1.3630 N.am  1 <1>  -0.6600 
  4 C        0.2770     1.8070    -2.0140 C.3   1 <1>   0.1810 
  5 C       -1.3390    -0.0290    -0.2030 C.3   1 <1>   0.3640 
  6 C       -3.4380     0.6890    -1.5080 C.3   1 <1>   0.1400 
  7 O        0.6370     2.2430    -0.7080 O.3   1 <1>  -0.3630 
  8 C       -0.3110    -1.0260    -0.7470 C.ar  1 <1>  -0.1440 
  9 C       -2.3260    -0.7970     0.7350 C.3   1 <1>   0.2000 
 10 C       -4.0820    -0.4950    -0.7890 C.3   1 <1>   0.1200 
 11 C        0.0770     3.3310    -0.1140 C.ar  1 <1>   0.0820 
 12 C        0.9430    -1.1140    -0.1640 C.ar  1 <1>  -0.1500 
 13 C       -0.6040    -1.8540    -1.8210 C.ar  1 <1>  -0.1500 
 14 O       -3.6790    -0.4850     0.5390 O.3   1 <1>  -0.5600 
 15 C       -2.0380    -0.5320     2.2210 C.3   1 <1>   0.1200 
 16 C        0.1760     3.4480     1.2750 C.ar  1 <1>  -0.1430 
 17 C       -0.5890     4.3080    -0.8470 C.ar  1 <1>  -0.1500 
 18 C        1.8970    -2.0040    -0.6300 C.ar  1 <1>   0.0830 
 19 C        0.3320    -2.7550    -2.2950 C.ar  1 <1>  -0.1500 
 20 O       -0.7310    -0.8740     2.5560 O.3   1 <1>  -0.6800 
 21 C       -0.4250     4.5290     1.9160 C.ar  1 <1>  -0.1440 
 22 C        0.9320     2.3960     2.0900 C.3   1 <1>  -0.0970 
 23 C       -1.1730     5.3810    -0.2050 C.ar  1 <1>  -0.1500 
 24 O        3.0860    -1.9770     0.0330 O.3   1 <1>  -0.3620 
 25 C        1.5910    -2.8510    -1.7060 C.ar  1 <1>   0.0830 
 26 C       -1.0930     5.4880     1.1700 C.ar  1 <1>  -0.1500 
 27 C       -0.3770     4.6960     3.4290 C.3   1 <1>  -0.0970 
 28 C        4.2990    -2.1130    -0.6730 C.3   1 <1>   0.0400 
 29 O        2.5150    -3.7570    -2.1400 O.3   1 <1>  -0.3630 
 30 C        2.2040    -4.7450    -3.0980 C.3   1 <1>   0.0400 
 31 H        0.5980     2.5580    -2.7120 H     1 <1>   0.0800 
 32 H        0.8250     0.9080    -2.2190 H     1 <1>   0.0800 
 33 H       -0.8270     0.6910     0.4080 H     1 <1>   0.0800 
 34 H       -3.8400     1.6030    -1.1070 H     1 <1>   0.0800 
 35 H       -3.6970     0.6470    -2.5520 H     1 <1>   0.0800 
 36 H       -2.2320    -1.8540     0.5580 H     1 <1>   0.0800 
 37 H       -3.8050    -1.4310    -1.2430 H     1 <1>   0.0800 
 38 H       -5.1530    -0.4000    -0.8100 H     1 <1>   0.0800 
 39 H        1.2010    -0.4810     0.6670 H     1 <1>   0.1500 
 40 H       -1.5680    -1.7980    -2.2970 H     1 <1>   0.1500 
 41 H       -2.7030    -1.1100     2.8390 H     1 <1>   0.0800 
 42 H       -2.1680     0.5140     2.4380 H     1 <1>   0.0800 
 43 H       -0.6660     4.2530    -1.9170 H     1 <1>   0.1500 
 44 H        0.0570    -3.3730    -3.1280 H     1 <1>   0.1500 
 45 H       -0.5750    -1.8340     2.4480 H     1 <1>   0.4000 
 46 H        1.5300     2.8640     2.8500 H     1 <1>   0.0800 
 47 H        1.6000     1.8180     1.4790 H     1 <1>   0.0800 
 48 H        0.2340     1.7280     2.5590 H     1 <1>   0.0800 
 49 H       -1.6910     6.1330    -0.7750 H     1 <1>   0.1500 
 50 H       -1.5570     6.3280     1.6560 H     1 <1>   0.1500 
 51 H       -1.0310     5.4860     3.7510 H     1 <1>   0.0800 
 52 H        0.6240     4.9360     3.7390 H     1 <1>   0.0800 
 53 H       -0.6880     3.7880     3.9140 H     1 <1>   0.0800 
 54 H        5.0800    -1.6690    -0.0840 H     1 <1>   0.0800 
 55 H        4.2150    -1.6070    -1.6190 H     1 <1>   0.0800 
 56 H        4.5020    -3.1580    -0.8170 H     1 <1>   0.0800 
 57 H        3.0670    -5.3750    -3.2180 H     1 <1>   0.0800 
 58 H        1.9700    -4.2660    -4.0320 H     1 <1>   0.0800 
 59 H        1.3740    -5.3290    -2.7420 H     1 <1>   0.0800 
@<TRIPOS>BOND
  1   1   2  2   
  2   2   3  am  
  3   2   4  1   
  4   3   5  1   
  5   3   6  1   
  6   4   7  1   
  7   4  31  1   
  8   4  32  1   
  9   5   8  1   
 10   5   9  1   
 11   5  33  1   
 12   6  10  1   
 13   6  34  1   
 14   6  35  1   
 15   7  11  1   
 16   8  12  ar  
 17   8  13  ar  
 18   9  14  1   
 19   9  15  1   
 20   9  36  1   
 21  10  14  1   
 22  10  37  1   
 23  10  38  1   
 24  11  16  ar  
 25  11  17  ar  
 26  12  18  ar  
 27  12  39  1   
 28  13  19  ar  
 29  13  40  1   
 30  15  20  1   
 31  15  41  1   
 32  15  42  1   
 33  16  21  ar  
 34  16  22  1   
 35  17  23  ar  
 36  17  43  1   
 37  18  24  1   
 38  18  25  ar  
 39  19  25  ar  
 40  19  44  1   
 41  20  45  1   
 42  21  26  ar  
 43  21  27  1   
 44  22  46  1   
 45  22  47  1   
 46  22  48  1   
 47  23  26  ar  
 48  23  49  1   
 49  24  28  1   
 50  25  29  1   
 51  26  50  1   
 52  27  51  1   
 53  27  52  1   
 54  27  53  1   
 55  28  54  1   
 56  28  55  1   
 57  28  56  1   
 58  29  30  1   
 59  30  57  1   
 60  30  58  1   
 61  30  59  1   
@<TRIPOS>SUBSTRUCTURE
  1 ****   5 GROUP 4 **** **** 0

# MOE 2024.06 (io_trps.svl 2023.06)
