@<TRIPOS>MOLECULE
NONAME
48 51 1 0 0 
SMALL
USER_CHARGES


@<TRIPOS>ATOM
  1 O       -1.6370     0.4880    -1.7740 O.2   1 <1>  -0.5700 
  2 C       -1.8110     0.9610    -0.6680 C.2   1 <1>   0.5440 
  3 N       -2.1990     0.1250     0.3380 N.am  1 <1>  -0.7300 
  4 C       -1.6350     2.3770    -0.4030 C.ar  1 <1>   0.0860 
  5 C       -2.4420    -1.3270     0.1920 C.3   1 <1>   0.2200 
  6 C       -0.4790     3.0900    -0.7630 C.ar  1 <1>  -0.1440 
  7 C       -2.6530     3.0720     0.2540 C.ar  1 <1>  -0.1500 
  8 C       -3.9350    -1.5720     0.0730 C.3   1 <1>  -0.0800 
  9 C       -2.1090    -2.0410     1.4980 C.3   1 <1>   0.1200 
 10 C       -0.3680     4.4430    -0.4760 C.ar  1 <1>  -0.1500 
 11 C        0.6790     2.4020    -1.4750 C.3   1 <1>  -0.0970 
 12 C       -2.5360     4.4150     0.5480 C.ar  1 <1>   0.0820 
 13 C       -4.3720    -1.5950     1.5420 C.3   1 <1>   0.1200 
 14 C       -4.2340    -2.9000    -0.6480 C.3   1 <1>  -0.0160 
 15 O       -3.2510    -1.9530     2.2980 O.3   1 <1>  -0.5600 
 16 C       -1.3890     5.1120     0.1710 C.ar  1 <1>   0.0820 
 17 O       -3.5480     5.0330     1.2080 O.3   1 <1>  -0.3630 
 18 C       -5.7300    -3.1290    -0.7950 C.ar  1 <1>  -0.1440 
 19 O       -1.2580     6.4350     0.4230 O.3   1 <1>  -0.3630 
 20 C       -3.2660     6.3020     1.7700 C.3   1 <1>   0.1200 
 21 C       -6.4820    -2.4310    -1.7180 C.ar  1 <1>  -0.1500 
 22 C       -6.4140    -4.0430    -0.0180 C.ar  1 <1>  -0.1500 
 23 C       -2.4250     7.1420     0.7980 C.3   1 <1>   0.1200 
 24 C       -7.8430    -2.6700    -1.8140 C.ar  1 <1>   0.1600 
 25 C       -7.7780    -4.2060    -0.1940 C.ar  1 <1>   0.1600 
 26 N       -8.5100    -3.5400    -1.0720 N.ar  1 <1>  -0.6200 
 27 H       -2.3580     0.4950     1.2780 H     1 <1>   0.3700 
 28 H       -1.8780    -1.7180    -0.6400 H     1 <1>   0.0800 
 29 H       -3.5530     2.5600     0.5380 H     1 <1>   0.1500 
 30 H       -4.4180    -0.7730    -0.4620 H     1 <1>   0.0800 
 31 H       -1.2720    -1.6000     2.0100 H     1 <1>   0.0800 
 32 H       -1.9170    -3.0840     1.3210 H     1 <1>   0.0800 
 33 H        0.5110     4.9970    -0.7540 H     1 <1>   0.1500 
 34 H        1.5400     3.0430    -1.5290 H     1 <1>   0.0800 
 35 H        0.3870     2.1390    -2.4760 H     1 <1>   0.0800 
 36 H        0.9590     1.5050    -0.9520 H     1 <1>   0.0800 
 37 H       -5.1660    -2.2940     1.7380 H     1 <1>   0.0800 
 38 H       -4.6760    -0.6130     1.8600 H     1 <1>   0.0800 
 39 H       -3.7930    -3.7240    -0.1140 H     1 <1>   0.0800 
 40 H       -3.7930    -2.8770    -1.6300 H     1 <1>   0.0800 
 41 H       -4.2020     6.7860     1.9830 H     1 <1>   0.0800 
 42 H       -2.7300     6.1490     2.6900 H     1 <1>   0.0800 
 43 H       -6.0220    -1.7050    -2.3630 H     1 <1>   0.1500 
 44 H       -5.9010    -4.6290     0.7230 H     1 <1>   0.1500 
 45 H       -2.1210     8.0660     1.2530 H     1 <1>   0.0800 
 46 H       -2.9870     7.3550    -0.0950 H     1 <1>   0.0800 
 47 H       -8.4130    -2.1160    -2.5400 H     1 <1>   0.1500 
 48 H       -8.2950    -4.9230     0.4210 H     1 <1>   0.1500 
@<TRIPOS>BOND
  1   1   2  2   
  2   2   3  am  
  3   2   4  1   
  4   3   5  1   
  5   3  27  1   
  6   4   6  ar  
  7   4   7  ar  
  8   5   8  1   
  9   5   9  1   
 10   5  28  1   
 11   6  10  ar  
 12   6  11  1   
 13   7  12  ar  
 14   7  29  1   
 15   8  13  1   
 16   8  14  1   
 17   8  30  1   
 18   9  15  1   
 19   9  31  1   
 20   9  32  1   
 21  10  16  ar  
 22  10  33  1   
 23  11  34  1   
 24  11  35  1   
 25  11  36  1   
 26  12  16  ar  
 27  12  17  1   
 28  13  15  1   
 29  13  37  1   
 30  13  38  1   
 31  14  18  1   
 32  14  39  1   
 33  14  40  1   
 34  16  19  1   
 35  17  20  1   
 36  18  21  ar  
 37  18  22  ar  
 38  19  23  1   
 39  20  23  1   
 40  20  41  1   
 41  20  42  1   
 42  21  24  ar  
 43  21  43  1   
 44  22  25  ar  
 45  22  44  1   
 46  23  45  1   
 47  23  46  1   
 48  24  26  ar  
 49  24  47  1   
 50  25  26  ar  
 51  25  48  1   
@<TRIPOS>SUBSTRUCTURE
  1 ****   3 GROUP 4 **** **** 0

# MOE 2024.06 (io_trps.svl 2023.06)
