@<TRIPOS>MOLECULE
NONAME
39 41 1 0 0 
SMALL
USER_CHARGES


@<TRIPOS>ATOM
  1 O        3.0250     1.1950     2.5980 O.2   1 <1>  -0.5700 
  2 C        3.3090     0.7110     1.5250 C.2   1 <1>   0.5440 
  3 N        3.7420     1.4660     0.4930 N.am  1 <1>  -0.7300 
  4 C        3.2330    -0.6600     1.1170 C.ar  1 <1>   0.0860 
  5 C        3.9510     0.6540    -0.7270 C.3   1 <1>   0.3640 
  6 C        3.5940    -0.7380    -0.2170 C.ar  1 <1>  -0.1440 
  7 C        2.8720    -1.8130     1.8040 C.ar  1 <1>  -0.1500 
  8 C        5.4100     0.7280    -1.1650 C.3   1 <1>  -0.0990 
  9 C        3.5980    -1.9470    -0.8880 C.ar  1 <1>  -0.1500 
 10 C        2.8770    -3.0290     1.1400 C.ar  1 <1>  -0.1500 
 11 C        5.7760     2.1480    -1.5100 C.2   1 <1>   0.5690 
 12 C        3.2370    -3.0960    -0.1990 C.ar  1 <1>  -0.1500 
 13 O        5.6370     2.5030    -2.6530 O.2   1 <1>  -0.5700 
 14 N        6.2110     2.9550    -0.5000 N.am  1 <1>  -0.4940 
 15 C        6.6110     4.2940    -0.5350 C.2   1 <1>   0.2040 
 16 O        6.8170     4.9350    -1.6600 O.3   1 <1>  -0.0190 
 17 C        6.8580     5.1500     0.4760 C.2   1 <1>  -0.1810 
 18 N        7.1920     6.1720    -1.4530 N.2   1 <1>  -0.4100 
 19 C        7.2240     6.3270    -0.1780 C.2   1 <1>   0.1080 
 20 C        6.7660     4.9300     1.9770 C.3   1 <1>  -0.0590 
 21 C        7.6160     7.6350     0.4890 C.3   1 <1>   0.0210 
 22 C        9.1050     7.6510     0.8510 C.3   1 <1>  -0.2400 
 23 H        3.4870     2.4550     0.4370 H     1 <1>   0.3700 
 24 H        3.2810     0.9680    -1.5110 H     1 <1>   0.0800 
 25 H        2.5910    -1.7440     2.8410 H     1 <1>   0.1500 
 26 H        5.5500     0.1150    -2.0360 H     1 <1>   0.0800 
 27 H        6.0520     0.3540    -0.3900 H     1 <1>   0.0800 
 28 H        3.8750    -2.0050    -1.9270 H     1 <1>   0.1500 
 29 H        2.5980    -3.9260     1.6650 H     1 <1>   0.1500 
 30 H        3.2350    -4.0460    -0.7050 H     1 <1>   0.1500 
 31 H        6.1690     2.5460     0.4320 H     1 <1>   0.3700 
 32 H        6.4340     3.9320     2.1980 H     1 <1>   0.0800 
 33 H        6.0660     5.6240     2.4080 H     1 <1>   0.0800 
 34 H        7.7290     5.0800     2.4310 H     1 <1>   0.0800 
 35 H        7.0210     7.7820     1.3720 H     1 <1>   0.0800 
 36 H        7.4060     8.4440    -0.1880 H     1 <1>   0.0800 
 37 H        9.3330     6.8580     1.5410 H     1 <1>   0.0800 
 38 H        9.3670     8.5910     1.3010 H     1 <1>   0.0800 
 39 H        9.6970     7.5150    -0.0370 H     1 <1>   0.0800 
@<TRIPOS>BOND
  1   1   2  2   
  2   2   3  am  
  3   2   4  1   
  4   3   5  1   
  5   3  23  1   
  6   4   6  ar  
  7   4   7  ar  
  8   5   6  1   
  9   5   8  1   
 10   5  24  1   
 11   6   9  ar  
 12   7  10  ar  
 13   7  25  1   
 14   8  11  1   
 15   8  26  1   
 16   8  27  1   
 17   9  12  ar  
 18   9  28  1   
 19  10  12  ar  
 20  10  29  1   
 21  11  13  2   
 22  11  14  am  
 23  12  30  1   
 24  14  15  1   
 25  14  31  1   
 26  15  16  1   
 27  15  17  2   
 28  16  18  1   
 29  17  19  1   
 30  17  20  1   
 31  18  19  2   
 32  19  21  1   
 33  20  32  1   
 34  20  33  1   
 35  20  34  1   
 36  21  22  1   
 37  21  35  1   
 38  21  36  1   
 39  22  37  1   
 40  22  38  1   
 41  22  39  1   
@<TRIPOS>SUBSTRUCTURE
  1 ****  14 GROUP 4 **** **** 0

# MOE 2024.06 (io_trps.svl 2023.06)
