@<TRIPOS>MOLECULE
NONAME
31 32 1 0 0 
SMALL
USER_CHARGES


@<TRIPOS>ATOM
  1 O       -0.3790    -0.4390    -0.0270 O.2   1 <1>  -0.5700 
  2 C       -1.3530    -1.1370    -0.1680 C.2   1 <1>   0.5690 
  3 N       -1.3030    -2.4890    -0.0570 N.am  1 <1>  -0.5100 
  4 C       -2.6750    -0.4770    -0.4780 C.3   1 <1>  -0.1790 
  5 C       -2.3650    -3.4270     0.4230 C.3   1 <1>   0.2250 
  6 C       -0.2550    -3.2800     0.6660 C.3   1 <1>   0.2250 
  7 C       -1.2470    -4.4680     0.6700 C.3   1 <1>   0.0000 
  8 C       -1.0520    -5.4600    -0.4880 C.3   1 <1>  -0.0170 
  9 C        0.1870    -6.3130    -0.2670 C.ar  1 <1>  -0.1440 
 10 C        0.1540    -7.3680     0.6320 C.ar  1 <1>  -0.1500 
 11 C        1.3610    -6.0480    -0.9550 C.ar  1 <1>  -0.1500 
 12 C        1.2810    -8.1440     0.8390 C.ar  1 <1>   0.0820 
 13 C        2.4850    -6.8300    -0.7440 C.ar  1 <1>   0.0820 
 14 O        1.2190    -9.1570     1.7170 O.3   1 <1>  -0.5330 
 15 C        2.4560    -7.8840     0.1540 C.ar  1 <1>  -0.1500 
 16 O        3.6080    -6.5520    -1.4250 O.3   1 <1>  -0.5320 
 17 H       -3.1850    -1.0210    -1.2500 H     1 <1>   0.0800 
 18 H       -2.5050     0.5290    -0.8160 H     1 <1>   0.0800 
 19 H       -3.2810    -0.4500     0.4070 H     1 <1>   0.0800 
 20 H       -3.0540    -3.6930    -0.3590 H     1 <1>   0.0000 
 21 H       -2.8290    -3.0650     1.3240 H     1 <1>   0.0000 
 22 H       -0.0620    -2.8720     1.6420 H     1 <1>   0.0000 
 23 H        0.6240    -3.4290     0.0640 H     1 <1>   0.0000 
 24 H       -1.3300    -4.9490     1.6290 H     1 <1>   0.0000 
 25 H       -0.9690    -4.9300    -1.4220 H     1 <1>   0.0800 
 26 H       -1.9130    -6.1010    -0.5550 H     1 <1>   0.0800 
 27 H       -0.7420    -7.5970     1.1800 H     1 <1>   0.1500 
 28 H        1.4190    -5.2360    -1.6580 H     1 <1>   0.1500 
 29 H        2.0530    -9.6520     1.7960 H     1 <1>   0.4500 
 30 H        3.3270    -8.4870     0.3150 H     1 <1>   0.1500 
 31 H        4.3460    -7.1480    -1.2120 H     1 <1>   0.4500 
@<TRIPOS>BOND
  1   1   2  2   
  2   2   3  am  
  3   2   4  1   
  4   3   5  1   
  5   3   6  1   
  6   4  17  1   
  7   4  18  1   
  8   4  19  1   
  9   5   7  1   
 10   5  20  1   
 11   5  21  1   
 12   6   7  1   
 13   6  22  1   
 14   6  23  1   
 15   7   8  1   
 16   7  24  1   
 17   8   9  1   
 18   8  25  1   
 19   8  26  1   
 20   9  10  ar  
 21   9  11  ar  
 22  10  12  ar  
 23  10  27  1   
 24  11  13  ar  
 25  11  28  1   
 26  12  14  1   
 27  12  15  ar  
 28  13  15  ar  
 29  13  16  1   
 30  14  29  1   
 31  15  30  1   
 32  16  31  1   
@<TRIPOS>SUBSTRUCTURE
  1 ****   9 GROUP 4 **** **** 0

# MOE 2024.06 (io_trps.svl 2023.06)
