@<TRIPOS>MOLECULE
NONAME
43 45 1 0 0 
SMALL
USER_CHARGES


@<TRIPOS>ATOM
  1 O        1.1670     5.9130    -2.7620 O.co2 1 <1>  -0.9000 
  2 C        0.0630     5.4660    -2.3780 C.2   1 <1>   0.9790 
  3 O       -0.8660     5.3820    -3.2050 O.co2 1 <1>  -0.9000 
  4 C       -0.1480     5.1050    -0.9710 C.ar  1 <1>   0.1310 
  5 N        0.8890     4.8950    -0.1660 N.ar  1 <1>  -0.6200 
  6 C       -1.4190     5.0170    -0.4280 C.ar  1 <1>  -0.1500 
  7 C        0.6580     4.7510     1.1200 C.ar  1 <1>   0.7200 
  8 C       -1.5540     4.7940     0.9240 C.ar  1 <1>   0.1660 
  9 N       -0.5180     4.6830     1.7210 N.ar  1 <1>  -0.6200 
 10 N        1.7860     4.7680     1.8920 N.pl3 1 <1>  -0.8380 
 11 C       -2.9230     4.6850     1.5600 C.3   1 <1>  -0.0970 
 12 C        2.1950     6.0970     2.4610 C.3   1 <1>   0.2090 
 13 C        2.8250     3.7150     1.6700 C.3   1 <1>   0.2090 
 14 C        3.2700     6.8550     1.6260 C.3   1 <1>   0.4230 
 15 C        4.1470     4.1530     0.9860 C.3   1 <1>  -0.0800 
 16 N        3.2460     6.3900     0.1910 N.4   1 <1>  -0.9590 
 17 C        4.6550     6.7660     2.3150 C.3   1 <1>   0.1200 
 18 C        5.2710     4.5160     1.9720 C.3   1 <1>   0.1200 
 19 C        4.0490     5.1930    -0.1420 C.3   1 <1>   0.3430 
 20 C        3.5480     7.5040    -0.7980 C.3   1 <1>   0.2370 
 21 O        4.8890     5.5000     2.8710 O.3   1 <1>  -0.5600 
 22 C        4.8640     8.2400    -0.5240 C.2   1 <1>   0.9060 
 23 O        5.9210     7.7420    -0.9250 O.co2 1 <1>  -0.9000 
 24 O        4.8330     9.2020     0.2540 O.co2 1 <1>  -0.9000 
 25 H       -2.2710     5.1370    -1.0720 H     1 <1>   0.1500 
 26 H       -3.6980     4.7860     0.8240 H     1 <1>   0.0800 
 27 H       -3.0390     5.4570     2.2990 H     1 <1>   0.0800 
 28 H       -3.0190     3.7280     2.0400 H     1 <1>   0.0800 
 29 H        1.3230     6.7250     2.5130 H     1 <1>   0.0800 
 30 H        2.5300     5.9610     3.4740 H     1 <1>   0.0800 
 31 H        3.0530     3.2640     2.6210 H     1 <1>   0.0800 
 32 H        2.3810     2.9430     1.0630 H     1 <1>   0.0800 
 33 H        3.0040     7.8990     1.6300 H     1 <1>   0.0800 
 34 H        4.5140     3.2690     0.4990 H     1 <1>   0.0800 
 35 H        2.2730     6.0730     0.0060 H     1 <1>   0.4500 
 36 H        4.6700     7.4640     3.1310 H     1 <1>   0.0800 
 37 H        5.4620     7.0270     1.6530 H     1 <1>   0.0800 
 38 H        6.1540     4.8500     1.4520 H     1 <1>   0.0800 
 39 H        5.5330     3.6510     2.5550 H     1 <1>   0.0800 
 40 H        3.6040     4.7290    -1.0080 H     1 <1>   0.0800 
 41 H        5.0460     5.5040    -0.4160 H     1 <1>   0.0800 
 42 H        3.5820     7.1040    -1.7970 H     1 <1>   0.0800 
 43 H        2.7620     8.2350    -0.7650 H     1 <1>   0.0800 
@<TRIPOS>BOND
  1   1   2  ar  
  2   2   3  ar  
  3   2   4  1   
  4   4   5  ar  
  5   4   6  ar  
  6   5   7  ar  
  7   6   8  ar  
  8   6  25  1   
  9   7   9  ar  
 10   7  10  1   
 11   8   9  ar  
 12   8  11  1   
 13  10  12  1   
 14  10  13  1   
 15  11  26  1   
 16  11  27  1   
 17  11  28  1   
 18  12  14  1   
 19  12  29  1   
 20  12  30  1   
 21  13  15  1   
 22  13  31  1   
 23  13  32  1   
 24  14  16  1   
 25  14  17  1   
 26  14  33  1   
 27  15  18  1   
 28  15  19  1   
 29  15  34  1   
 30  16  19  1   
 31  16  20  1   
 32  16  35  1   
 33  17  21  1   
 34  17  36  1   
 35  17  37  1   
 36  18  21  1   
 37  18  38  1   
 38  18  39  1   
 39  19  40  1   
 40  19  41  1   
 41  20  22  1   
 42  20  42  1   
 43  20  43  1   
 44  22  23  ar  
 45  22  24  ar  
@<TRIPOS>SUBSTRUCTURE
  1 ****  16 GROUP 4 **** **** 0

# MOE 2024.06 (io_trps.svl 2023.06)
