@<TRIPOS>MOLECULE
NONAME
48 49 1 0 0 
SMALL
USER_CHARGES


@<TRIPOS>ATOM
  1 S        1.1790     0.2040    -0.4580 S.3   1 <1>  -0.3320 
  2 C        0.6610    -1.4540    -0.0440 C.ar  1 <1>   0.7220 
  3 C        2.2930     0.7370     0.9350 C.3   1 <1>   0.2110 
  4 N       -0.1530    -2.0060    -0.9260 N.ar  1 <1>  -0.6200 
  5 N        1.1390    -1.9520     1.0850 N.ar  1 <1>  -0.6200 
  6 C        2.2430     2.2590     1.0930 C.2   1 <1>   0.5690 
  7 C        3.7030     0.2260     0.6120 C.3   1 <1>  -0.2400 
  8 C       -0.5380    -3.2240    -0.6280 C.ar  1 <1>   0.1660 
  9 C        0.7360    -3.1710     1.3570 C.ar  1 <1>   0.1660 
 10 O        2.4970     2.7410     2.1720 O.2   1 <1>  -0.5700 
 11 N        1.9400     3.0430     0.0210 N.am  1 <1>  -0.7300 
 12 C       -0.1140    -3.8570     0.5190 C.ar  1 <1>  -0.1500 
 13 C       -1.4730    -3.9050    -1.6040 C.3   1 <1>  -0.0970 
 14 C        1.2500    -3.7920     2.6390 C.3   1 <1>  -0.0970 
 15 C        1.8470     4.5250     0.0390 C.3   1 <1>   0.1400 
 16 C        3.0470     5.2160    -0.6620 C.3   1 <1>   0.0000 
 17 C        4.3810     4.8560     0.0370 C.3   1 <1>  -0.1600 
 18 C        2.8610     6.7500    -0.5560 C.3   1 <1>  -0.1600 
 19 C        3.0590     4.7700    -2.1450 C.3   1 <1>   0.1200 
 20 C        4.4810     5.4740     1.4370 C.3   1 <1>   0.1200 
 21 C        3.0640     7.2650     0.8770 C.3   1 <1>   0.1200 
 22 O        4.0990     5.3550    -2.8560 O.3   1 <1>  -0.6800 
 23 O        4.3120     6.8560     1.3380 O.3   1 <1>  -0.5600 
 24 H        1.9200     0.2920     1.8390 H     1 <1>   0.0800 
 25 H        4.0540     0.6540    -0.3100 H     1 <1>   0.0800 
 26 H        3.7000    -0.8460     0.5260 H     1 <1>   0.0800 
 27 H        4.3780     0.5040     1.4010 H     1 <1>   0.0800 
 28 H        1.6770     2.5710    -0.8500 H     1 <1>   0.3700 
 29 H       -0.4370    -4.8530     0.7520 H     1 <1>   0.1500 
 30 H       -2.3740    -3.3260    -1.7010 H     1 <1>   0.0800 
 31 H       -1.7290    -4.8940    -1.2730 H     1 <1>   0.0800 
 32 H       -1.0010    -3.9700    -2.5680 H     1 <1>   0.0800 
 33 H        0.9490    -3.1900     3.4770 H     1 <1>   0.0800 
 34 H        2.3230    -3.8350     2.6130 H     1 <1>   0.0800 
 35 H        0.8650    -4.7860     2.7690 H     1 <1>   0.0800 
 36 H        1.7760     4.8500     1.0620 H     1 <1>   0.0800 
 37 H        0.9300     4.8130    -0.4460 H     1 <1>   0.0800 
 38 H        5.2140     5.2220    -0.5360 H     1 <1>   0.0800 
 39 H        4.4980     3.7900     0.1100 H     1 <1>   0.0800 
 40 H        1.8830     7.0350    -0.9020 H     1 <1>   0.0800 
 41 H        3.5790     7.2600    -1.1720 H     1 <1>   0.0800 
 42 H        2.1370     5.0460    -2.6290 H     1 <1>   0.0800 
 43 H        3.1840     3.7040    -2.2230 H     1 <1>   0.0800 
 44 H        5.4550     5.2930     1.8570 H     1 <1>   0.0800 
 45 H        3.7390     5.0760     2.1080 H     1 <1>   0.0800 
 46 H        2.3110     6.9000     1.5530 H     1 <1>   0.0800 
 47 H        3.0490     8.3410     0.8940 H     1 <1>   0.0800 
 48 H        4.1600     6.3080    -2.6540 H     1 <1>   0.4000 
@<TRIPOS>BOND
  1   1   2  1   
  2   1   3  1   
  3   2   4  ar  
  4   2   5  ar  
  5   3   6  1   
  6   3   7  1   
  7   3  24  1   
  8   4   8  ar  
  9   5   9  ar  
 10   6  10  2   
 11   6  11  am  
 12   7  25  1   
 13   7  26  1   
 14   7  27  1   
 15   8  12  ar  
 16   8  13  1   
 17   9  12  ar  
 18   9  14  1   
 19  11  15  1   
 20  11  28  1   
 21  12  29  1   
 22  13  30  1   
 23  13  31  1   
 24  13  32  1   
 25  14  33  1   
 26  14  34  1   
 27  14  35  1   
 28  15  16  1   
 29  15  36  1   
 30  15  37  1   
 31  16  17  1   
 32  16  18  1   
 33  16  19  1   
 34  17  20  1   
 35  17  38  1   
 36  17  39  1   
 37  18  21  1   
 38  18  40  1   
 39  18  41  1   
 40  19  22  1   
 41  19  42  1   
 42  19  43  1   
 43  20  23  1   
 44  20  44  1   
 45  20  45  1   
 46  21  23  1   
 47  21  46  1   
 48  21  47  1   
 49  22  48  1   
@<TRIPOS>SUBSTRUCTURE
  1 ****   6 GROUP 4 **** **** 0

# MOE 2024.06 (io_trps.svl 2023.06)
