@<TRIPOS>MOLECULE
NONAME
54 57 1 0 0 
SMALL
USER_CHARGES


@<TRIPOS>ATOM
  1 O       -3.8110     3.5380    -0.7490 O.2   1 <1>  -0.5700 
  2 C       -2.9700     2.8150    -1.2300 C.2   1 <1>   0.5690 
  3 N       -3.2800     1.5010    -1.4980 N.am  1 <1>  -0.6600 
  4 C       -1.5930     3.4240    -1.4630 C.3   1 <1>   0.1570 
  5 C       -2.3380     0.4630    -2.0110 C.3   1 <1>   0.3200 
  6 C       -4.6510     0.9920    -1.1670 C.3   1 <1>   0.1400 
  7 N       -0.5780     2.8020    -0.5840 N.pl3 1 <1>   0.0480 
  8 C       -2.2340    -0.6200    -0.9570 C.2   1 <1>  -0.3320 
  9 C       -4.8170     0.9010     0.3630 C.3   1 <1>   0.3430 
 10 C        0.5170     2.1110    -1.0070 C.ar  1 <1>  -0.1520 
 11 C       -0.6630     2.5580     0.7560 C.2   1 <1>   0.1010 
 12 N       -1.5270    -0.5160     0.1890 N.pl3 1 <1>   0.0330 
 13 C       -2.8190    -1.8370    -0.9340 C.2   1 <1>   0.0770 
 14 N       -5.9590     0.0290     0.7980 N.4   1 <1>  -0.9590 
 15 C        1.0000     1.4590     0.1110 C.ar  1 <1>   0.2270 
 16 C        1.1470     1.9660    -2.2480 C.ar  1 <1>  -0.1500 
 17 N        0.2290     1.7400     1.1940 N.2   1 <1>  -0.5650 
 18 C       -1.7160     3.1900     1.6510 C.3   1 <1>  -0.0150 
 19 C       -1.7720    -1.6650     0.8520 C.2   1 <1>   0.0360 
 20 N       -2.5630    -2.4740     0.2220 N.2   1 <1>  -0.5650 
 21 C       -6.3090     0.3270     2.2200 C.3   1 <1>   0.2630 
 22 C       -5.6100    -1.4240     0.6600 C.3   1 <1>   0.2630 
 23 C        2.1180     0.6340     0.0160 C.ar  1 <1>  -0.1500 
 24 C        2.2510     1.1480    -2.3350 C.ar  1 <1>  -0.1500 
 25 C       -1.7430     4.6760     1.8390 C.3   1 <1>  -0.2000 
 26 C       -1.3210     3.7870     2.9670 C.3   1 <1>  -0.2000 
 27 C        2.7370     0.4800    -1.2040 C.ar  1 <1>  -0.1500 
 28 H       -1.6300     4.4760    -1.2500 H     1 <1>   0.0800 
 29 H       -1.3160     3.2950    -2.4910 H     1 <1>   0.0800 
 30 H       -1.3710     0.8650    -2.2410 H     1 <1>   0.0800 
 31 H       -2.7380     0.0460    -2.9200 H     1 <1>   0.0800 
 32 H       -4.7980     0.0290    -1.6220 H     1 <1>   0.0800 
 33 H       -5.3850     1.6710    -1.5660 H     1 <1>   0.0800 
 34 H       -4.9600     1.9010     0.7380 H     1 <1>   0.0800 
 35 H       -3.9040     0.5140     0.7850 H     1 <1>   0.0800 
 36 H       -0.9080     0.2480     0.5060 H     1 <1>   0.2700 
 37 H       -3.4330    -2.2950    -1.6940 H     1 <1>   0.1500 
 38 H       -6.7810     0.2410     0.2130 H     1 <1>   0.4500 
 39 H        0.7850     2.4850    -3.1170 H     1 <1>   0.1500 
 40 H       -2.6530     2.6660     1.6290 H     1 <1>   0.1000 
 41 H       -1.3320    -1.8670     1.8150 H     1 <1>   0.1500 
 42 H       -5.4700     0.1170     2.8640 H     1 <1>   0.0800 
 43 H       -7.1440    -0.2770     2.5350 H     1 <1>   0.0800 
 44 H       -6.5770     1.3660     2.3300 H     1 <1>   0.0800 
 45 H       -4.7320    -1.6580     1.2420 H     1 <1>   0.0800 
 46 H       -5.4060    -1.6690    -0.3690 H     1 <1>   0.0800 
 47 H       -6.4240    -2.0420     1.0020 H     1 <1>   0.0800 
 48 H        2.4740     0.1370     0.9000 H     1 <1>   0.1500 
 49 H        2.7590     1.0160    -3.2760 H     1 <1>   0.1500 
 50 H       -2.6970     5.1710     1.8910 H     1 <1>   0.1000 
 51 H       -0.9870     5.2830     1.3710 H     1 <1>   0.1000 
 52 H       -0.2820     3.7560     3.2470 H     1 <1>   0.1000 
 53 H       -1.9780     3.6720     3.8110 H     1 <1>   0.1000 
 54 H        3.6030    -0.1530    -1.2980 H     1 <1>   0.1500 
@<TRIPOS>BOND
  1   1   2  2   
  2   2   3  am  
  3   2   4  1   
  4   3   5  1   
  5   3   6  1   
  6   4   7  1   
  7   4  28  1   
  8   4  29  1   
  9   5   8  1   
 10   5  30  1   
 11   5  31  1   
 12   6   9  1   
 13   6  32  1   
 14   6  33  1   
 15   7  10  1   
 16   7  11  1   
 17   8  12  1   
 18   8  13  2   
 19   9  14  1   
 20   9  34  1   
 21   9  35  1   
 22  10  15  ar  
 23  10  16  ar  
 24  11  17  2   
 25  11  18  1   
 26  12  19  1   
 27  12  36  1   
 28  13  20  1   
 29  13  37  1   
 30  14  21  1   
 31  14  22  1   
 32  14  38  1   
 33  15  17  1   
 34  15  23  ar  
 35  16  24  ar  
 36  16  39  1   
 37  18  25  1   
 38  18  26  1   
 39  18  40  1   
 40  19  20  2   
 41  19  41  1   
 42  21  42  1   
 43  21  43  1   
 44  21  44  1   
 45  22  45  1   
 46  22  46  1   
 47  22  47  1   
 48  23  27  ar  
 49  23  48  1   
 50  24  27  ar  
 51  24  49  1   
 52  25  26  1   
 53  25  50  1   
 54  25  51  1   
 55  26  52  1   
 56  26  53  1   
 57  27  54  1   
@<TRIPOS>SUBSTRUCTURE
  1 ****  12 GROUP 4 **** **** 0

# MOE 2024.06 (io_trps.svl 2023.06)
