@<TRIPOS>MOLECULE
NONAME
46 49 1 0 0 
SMALL
USER_CHARGES


@<TRIPOS>ATOM
  1 S        0.1430    -0.2450     0.9580 S.3   1 <1>  -0.0800 
  2 C        1.2600    -1.3000     0.0770 C.2   1 <1>  -0.0130 
  3 C        0.8740     1.2050     0.3060 C.2   1 <1>  -0.1100 
  4 C        1.1570    -2.7340     0.2100 C.ar  1 <1>   0.6730 
  5 C        2.1040    -0.5150    -0.6450 C.2   1 <1>  -0.1500 
  6 C        1.8890     0.8890    -0.5180 C.2   1 <1>  -0.1500 
  7 N        0.2320    -3.2420     1.0310 N.ar  1 <1>  -0.6200 
  8 N        2.0070    -3.4730    -0.5130 N.ar  1 <1>  -0.6200 
  9 C        0.1630    -4.5440     1.1320 C.ar  1 <1>   0.1600 
 10 C        1.9200    -4.7740    -0.3990 C.ar  1 <1>   0.1600 
 11 C        0.9890    -5.3750     0.4140 C.ar  1 <1>  -0.1430 
 12 C        0.8650    -6.8770     0.5240 C.3   1 <1>   0.4870 
 13 N        0.1750    -7.4270    -0.6840 N.4   1 <1>  -0.9590 
 14 C       -1.2130    -6.8690    -0.8380 C.3   1 <1>   0.3430 
 15 C        0.0100    -8.9110    -0.5450 C.3   1 <1>   0.3430 
 16 C       -2.1350    -7.8610    -0.1270 C.3   1 <1>   0.2000 
 17 C       -1.4980    -9.1980    -0.5000 C.3   1 <1>  -0.0800 
 18 O       -2.0310    -7.6510     1.2470 O.3   1 <1>  -0.6800 
 19 C       -1.8600   -10.4130     0.3780 C.3   1 <1>   0.0200 
 20 C       -0.9730   -11.5930     0.0300 C.2   1 <1>  -0.0400 
 21 O       -0.7540   -11.8920    -1.2220 O.3   1 <1>  -0.0190 
 22 C       -0.2840   -12.4600     0.7880 C.2   1 <1>  -0.1500 
 23 N        0.0610   -12.8950    -1.3440 N.2   1 <1>  -0.4100 
 24 C        0.3520   -13.2690    -0.1500 C.2   1 <1>   0.1080 
 25 C        1.2640   -14.4310     0.1790 C.3   1 <1>  -0.0590 
 26 H        0.4620     2.1510     0.6110 H     1 <1>   0.1500 
 27 H        2.8880    -0.8960    -1.2760 H     1 <1>   0.1500 
 28 H        2.5030     1.5950    -1.0480 H     1 <1>   0.1500 
 29 H       -0.5790    -4.9490     1.8030 H     1 <1>   0.1500 
 30 H        2.6140    -5.3630    -0.9760 H     1 <1>   0.1500 
 31 H        0.3030    -7.1250     1.4100 H     1 <1>   0.0800 
 32 H        1.8470    -7.3110     0.6170 H     1 <1>   0.0800 
 33 H        0.7300    -7.2020    -1.5200 H     1 <1>   0.4500 
 34 H       -1.3160    -5.8770    -0.4300 H     1 <1>   0.0800 
 35 H       -1.4720    -6.8420    -1.8830 H     1 <1>   0.0800 
 36 H        0.4640    -9.4370    -1.3710 H     1 <1>   0.0800 
 37 H        0.4670    -9.2520     0.3710 H     1 <1>   0.0800 
 38 H       -3.1660    -7.7620    -0.4270 H     1 <1>   0.0800 
 39 H       -1.7960    -9.4300    -1.5090 H     1 <1>   0.0800 
 40 H       -2.8180    -8.0030     1.7180 H     1 <1>   0.4000 
 41 H       -2.8880   -10.6860     0.2130 H     1 <1>   0.0800 
 42 H       -1.7340   -10.1940     1.4240 H     1 <1>   0.0800 
 43 H       -0.2090   -12.5480     1.8560 H     1 <1>   0.1500 
 44 H        2.0640   -14.1040     0.8160 H     1 <1>   0.0800 
 45 H        1.6820   -14.8370    -0.7240 H     1 <1>   0.0800 
 46 H        0.7050   -15.2020     0.6780 H     1 <1>   0.0800 
@<TRIPOS>BOND
  1   1   2  1   
  2   1   3  1   
  3   2   4  1   
  4   2   5  2   
  5   3   6  2   
  6   3  26  1   
  7   4   7  ar  
  8   4   8  ar  
  9   5   6  1   
 10   5  27  1   
 11   6  28  1   
 12   7   9  ar  
 13   8  10  ar  
 14   9  11  ar  
 15   9  29  1   
 16  10  11  ar  
 17  10  30  1   
 18  11  12  1   
 19  12  13  1   
 20  12  31  1   
 21  12  32  1   
 22  13  14  1   
 23  13  15  1   
 24  13  33  1   
 25  14  16  1   
 26  14  34  1   
 27  14  35  1   
 28  15  17  1   
 29  15  36  1   
 30  15  37  1   
 31  16  17  1   
 32  16  18  1   
 33  16  38  1   
 34  17  19  1   
 35  17  39  1   
 36  18  40  1   
 37  19  20  1   
 38  19  41  1   
 39  19  42  1   
 40  20  21  1   
 41  20  22  2   
 42  21  23  1   
 43  22  24  1   
 44  22  43  1   
 45  23  24  2   
 46  24  25  1   
 47  25  44  1   
 48  25  45  1   
 49  25  46  1   
@<TRIPOS>SUBSTRUCTURE
  1 ****  12 GROUP 4 **** **** 0

# MOE 2024.06 (io_trps.svl 2023.06)
