@<TRIPOS>MOLECULE
NONAME
41 42 1 0 0 
SMALL
USER_CHARGES


@<TRIPOS>ATOM
  1 S        0.3060     0.7120    -0.5690 S.o2  1 <1>   1.3330 
  2 O        0.2900    -0.7310    -0.6460 O.2   1 <1>  -0.6500 
  3 O       -0.0550     1.4750    -1.7430 O.2   1 <1>  -0.6500 
  4 N        1.8580     1.1720    -0.0580 N.am  1 <1>  -0.8490 
  5 C       -0.7750     1.1960     0.7880 C.3   1 <1>  -0.0550 
  6 C        2.7140     1.6580    -1.1430 C.3   1 <1>   0.1160 
  7 C        2.5580     0.1570     0.7320 C.3   1 <1>   0.1160 
  8 C       -0.8960     2.6890     1.1870 C.3   1 <1>  -0.0800 
  9 C       -1.2920     3.6320     0.0440 C.3   1 <1>   0.2000 
 10 C        0.3820     3.2970     1.7840 C.3   1 <1>   0.2090 
 11 O       -2.1230     4.6020     0.5840 O.3   1 <1>  -0.6800 
 12 C        0.0050     4.3150    -0.3940 C.3   1 <1>   0.2090 
 13 N        0.8730     4.3050     0.8110 N.pl3 1 <1>  -0.8380 
 14 C        2.2130     4.6140     0.7310 C.ar  1 <1>   0.7200 
 15 N        2.6460     5.1420    -0.4140 N.ar  1 <1>  -0.6200 
 16 N        2.9530     4.3660     1.8120 N.ar  1 <1>  -0.6200 
 17 C        3.9210     5.4480    -0.4680 C.ar  1 <1>   0.1600 
 18 C        4.2260     4.6810     1.7250 C.ar  1 <1>   0.1600 
 19 C        4.7810     5.2350     0.5940 C.ar  1 <1>   0.0820 
 20 O        6.1150     5.5300     0.5970 O.3   1 <1>  -0.3620 
 21 C        6.7020     6.1910    -0.5030 C.3   1 <1>   0.0400 
 22 H       -1.7620     0.8570     0.5410 H     1 <1>   0.0800 
 23 H       -0.4780     0.6480     1.6600 H     1 <1>   0.0800 
 24 H        3.6590     1.9910    -0.7480 H     1 <1>   0.0800 
 25 H        2.2510     2.4950    -1.6370 H     1 <1>   0.0800 
 26 H        2.8810     0.8780    -1.8660 H     1 <1>   0.0800 
 27 H        3.4750     0.5630     1.1230 H     1 <1>   0.0800 
 28 H        2.7830    -0.7030     0.1220 H     1 <1>   0.0800 
 29 H        1.9450    -0.1560     1.5590 H     1 <1>   0.0800 
 30 H       -1.6570     2.7190     1.9470 H     1 <1>   0.0800 
 31 H       -1.8150     3.1530    -0.7670 H     1 <1>   0.0800 
 32 H        1.1300     2.5480     1.9780 H     1 <1>   0.0800 
 33 H        0.1570     3.8000     2.7090 H     1 <1>   0.0800 
 34 H       -1.5750     5.1900     1.1440 H     1 <1>   0.4000 
 35 H       -0.1710     5.3190    -0.7390 H     1 <1>   0.0800 
 36 H        0.4790     3.7610    -1.1810 H     1 <1>   0.0800 
 37 H        4.2800     5.8780    -1.3840 H     1 <1>   0.1500 
 38 H        4.8550     4.4990     2.5780 H     1 <1>   0.1500 
 39 H        7.7410     6.3540    -0.2780 H     1 <1>   0.0800 
 40 H        6.2090     7.1370    -0.6490 H     1 <1>   0.0800 
 41 H        6.6140     5.5690    -1.3760 H     1 <1>   0.0800 
@<TRIPOS>BOND
  1   1   2  2   
  2   1   3  2   
  3   1   4  am  
  4   1   5  1   
  5   4   6  1   
  6   4   7  1   
  7   5   8  1   
  8   5  22  1   
  9   5  23  1   
 10   6  24  1   
 11   6  25  1   
 12   6  26  1   
 13   7  27  1   
 14   7  28  1   
 15   7  29  1   
 16   8   9  1   
 17   8  10  1   
 18   8  30  1   
 19   9  11  1   
 20   9  12  1   
 21   9  31  1   
 22  10  13  1   
 23  10  32  1   
 24  10  33  1   
 25  11  34  1   
 26  12  13  1   
 27  12  35  1   
 28  12  36  1   
 29  13  14  1   
 30  14  15  ar  
 31  14  16  ar  
 32  15  17  ar  
 33  16  18  ar  
 34  17  19  ar  
 35  17  37  1   
 36  18  19  ar  
 37  18  38  1   
 38  19  20  1   
 39  20  21  1   
 40  21  39  1   
 41  21  40  1   
 42  21  41  1   
@<TRIPOS>SUBSTRUCTURE
  1 ****  14 GROUP 4 **** **** 0

# MOE 2024.06 (io_trps.svl 2023.06)
