@<TRIPOS>MOLECULE
NONAME
47 48 1 0 0 
SMALL
USER_CHARGES


@<TRIPOS>ATOM
  1 O        3.8370    -1.8170    -0.0480 O.2   1 <1>  -0.5700 
  2 C        2.8020    -1.4730    -0.5780 C.2   1 <1>   0.5690 
  3 N        2.5250    -0.1730    -0.8910 N.am  1 <1>  -0.4930 
  4 C        1.7490    -2.5330    -0.9580 C.3   1 <1>   0.3950 
  5 C        3.2820     0.9980    -0.6540 C.2   1 <1>   0.0630 
  6 N        1.0810    -2.2540    -2.2820 N.3   1 <1>  -0.8100 
  7 C        0.7210    -2.6360     0.1750 C.ar  1 <1>  -0.1430 
  8 C        4.5090     1.1390    -0.0040 C.2   1 <1>   0.1390 
  9 C        2.9480     2.2510    -1.0230 C.2   1 <1>  -0.3020 
 10 C        0.0240    -3.2380    -2.5790 C.3   1 <1>   0.0300 
 11 C        2.0590    -2.2690    -3.3850 C.3   1 <1>   0.0300 
 12 C        0.7890    -3.6950     1.0700 C.ar  1 <1>  -0.1500 
 13 C       -0.2780    -1.6850     0.3350 C.ar  1 <1>  -0.1500 
 14 N        4.9100     2.3770     0.0320 N.2   1 <1>  -0.7070 
 15 N        3.9400     3.0670    -0.6020 N.pl3 1 <1>   0.3140 
 16 C       -0.1230    -3.8110     2.1060 C.ar  1 <1>  -0.1430 
 17 C       -1.1920    -1.7950     1.3670 C.ar  1 <1>  -0.1500 
 18 C        4.0110     4.5260    -0.7700 C.3   1 <1>   0.1570 
 19 C       -1.1150    -2.8560     2.2510 C.ar  1 <1>  -0.1500 
 20 C       -0.0290    -4.9770     3.0730 C.3   1 <1>  -0.0970 
 21 C        3.6140     5.2180     0.5140 C.2   1 <1>   0.5690 
 22 O        2.8700     6.1670     0.4450 O.2   1 <1>  -0.5700 
 23 N        4.1110     4.7730     1.7000 N.am  1 <1>  -0.7300 
 24 C        3.8240     5.3430     3.0390 C.3   1 <1>   0.0600 
 25 H        1.6570    -0.0600    -1.4210 H     1 <1>   0.3700 
 26 H        2.2640    -3.4750    -1.0350 H     1 <1>   0.0800 
 27 H        5.0620     0.3170     0.4200 H     1 <1>   0.1500 
 28 H        2.0780     2.6010    -1.5460 H     1 <1>   0.1500 
 29 H       -0.7680    -3.1780    -1.8520 H     1 <1>   0.0800 
 30 H        0.4250    -4.2380    -2.5740 H     1 <1>   0.0800 
 31 H       -0.4040    -3.0370    -3.5460 H     1 <1>   0.0800 
 32 H        2.8140    -1.5150    -3.2410 H     1 <1>   0.0800 
 33 H        1.5620    -2.0640    -4.3180 H     1 <1>   0.0800 
 34 H        2.5390    -3.2320    -3.4530 H     1 <1>   0.0800 
 35 H        1.5610    -4.4370     0.9650 H     1 <1>   0.1500 
 36 H       -0.3510    -0.8590    -0.3490 H     1 <1>   0.1500 
 37 H       -1.9630    -1.0540     1.4830 H     1 <1>   0.1500 
 38 H        3.3530     4.8240    -1.5620 H     1 <1>   0.0800 
 39 H        5.0170     4.7960    -1.0240 H     1 <1>   0.0800 
 40 H       -1.8310    -2.9340     3.0500 H     1 <1>   0.1500 
 41 H        1.0000    -5.1760     3.3160 H     1 <1>   0.0800 
 42 H       -0.4570    -5.8560     2.6260 H     1 <1>   0.0800 
 43 H       -0.5560    -4.7600     3.9840 H     1 <1>   0.0800 
 44 H        4.6610     3.8990     1.6790 H     1 <1>   0.3700 
 45 H        3.2210     6.2310     2.9460 H     1 <1>   0.0800 
 46 H        4.7460     5.5970     3.5310 H     1 <1>   0.0800 
 47 H        3.2910     4.6210     3.6330 H     1 <1>   0.0800 
@<TRIPOS>BOND
  1   1   2  2   
  2   2   3  am  
  3   2   4  1   
  4   3   5  1   
  5   3  25  1   
  6   4   6  1   
  7   4   7  1   
  8   4  26  1   
  9   5   8  1   
 10   5   9  2   
 11   6  10  1   
 12   6  11  1   
 13   7  12  ar  
 14   7  13  ar  
 15   8  14  2   
 16   8  27  1   
 17   9  15  1   
 18   9  28  1   
 19  10  29  1   
 20  10  30  1   
 21  10  31  1   
 22  11  32  1   
 23  11  33  1   
 24  11  34  1   
 25  12  16  ar  
 26  12  35  1   
 27  13  17  ar  
 28  13  36  1   
 29  14  15  1   
 30  15  18  1   
 31  16  19  ar  
 32  16  20  1   
 33  17  19  ar  
 34  17  37  1   
 35  18  21  1   
 36  18  38  1   
 37  18  39  1   
 38  19  40  1   
 39  20  41  1   
 40  20  42  1   
 41  20  43  1   
 42  21  22  2   
 43  21  23  am  
 44  23  24  1   
 45  23  44  1   
 46  24  45  1   
 47  24  46  1   
 48  24  47  1   
@<TRIPOS>SUBSTRUCTURE
  1 ****   3 GROUP 4 **** **** 0

# MOE 2024.06 (io_trps.svl 2023.06)
