@<TRIPOS>MOLECULE
NONAME
40 42 1 0 0 
SMALL
USER_CHARGES


@<TRIPOS>ATOM
  1 O       -0.4850     0.9170     1.1130 O.2   1 <1>  -0.5700 
  2 C       -0.2380     2.0710     0.8140 C.2   1 <1>   0.5440 
  3 N       -1.2720     2.9830     0.7420 N.am  1 <1>  -0.6600 
  4 C        1.1350     2.4440     0.5320 C.ar  1 <1>   0.0860 
  5 C       -2.6530     2.6420     1.2030 C.3   1 <1>   0.1400 
  6 C       -1.1700     4.3120     0.0790 C.3   1 <1>   0.1400 
  7 C        1.7730     3.4670     1.2350 C.ar  1 <1>  -0.1500 
  8 C        1.8670     1.7850    -0.4540 C.ar  1 <1>  -0.1500 
  9 C       -3.6600     2.6620     0.0260 C.3   1 <1>   0.0000 
 10 C       -2.1500     4.3870    -1.0970 C.3   1 <1>  -0.1600 
 11 C        3.0790     3.8280     0.9530 C.ar  1 <1>  -0.1500 
 12 C        3.1720     2.1400    -0.7410 C.ar  1 <1>  -0.1500 
 13 C       -5.0970     2.3370     0.4830 C.3   1 <1>   0.2000 
 14 C       -3.5880     4.0350    -0.6770 C.3   1 <1>  -0.1600 
 15 C       -3.3770     1.5000    -0.9430 C.3   1 <1>  -0.1600 
 16 C        3.7800     3.1650    -0.0390 C.ar  1 <1>  -0.1500 
 17 O       -5.4030     2.8570     1.7300 O.3   1 <1>  -0.6800 
 18 C       -5.2240     0.8120     0.5050 C.3   1 <1>  -0.1600 
 19 C       -4.0430     0.2750    -0.3120 C.3   1 <1>  -0.1600 
 20 H       -2.6630     1.6800     1.6840 H     1 <1>   0.0800 
 21 H       -2.9420     3.3740     1.9370 H     1 <1>   0.0800 
 22 H       -1.4070     5.0780     0.7990 H     1 <1>   0.0800 
 23 H       -0.1740     4.4890    -0.2840 H     1 <1>   0.0800 
 24 H        1.2330     3.9780     2.0120 H     1 <1>   0.1500 
 25 H        1.3960     0.9820    -0.9950 H     1 <1>   0.1500 
 26 H       -2.1310     5.3810    -1.5080 H     1 <1>   0.0800 
 27 H       -1.8180     3.7130    -1.8670 H     1 <1>   0.0800 
 28 H        3.5520     4.6210     1.5060 H     1 <1>   0.1500 
 29 H        3.7170     1.6170    -1.5090 H     1 <1>   0.1500 
 30 H       -5.8020     2.7430    -0.2230 H     1 <1>   0.0800 
 31 H       -4.2280     4.0450    -1.5420 H     1 <1>   0.0800 
 32 H       -3.9480     4.7900     0.0010 H     1 <1>   0.0800 
 33 H       -3.8430     1.6960    -1.8920 H     1 <1>   0.0800 
 34 H       -2.3260     1.3340    -1.1070 H     1 <1>   0.0800 
 35 H        4.7960     3.4430    -0.2600 H     1 <1>   0.1500 
 36 H       -4.9240     2.3610     2.4200 H     1 <1>   0.4000 
 37 H       -5.1810     0.4190     1.5060 H     1 <1>   0.0800 
 38 H       -6.1550     0.5220     0.0500 H     1 <1>   0.0800 
 39 H       -3.3400    -0.2120     0.3440 H     1 <1>   0.0800 
 40 H       -4.3590    -0.4300    -1.0620 H     1 <1>   0.0800 
@<TRIPOS>BOND
  1   1   2  2   
  2   2   3  am  
  3   2   4  1   
  4   3   5  1   
  5   3   6  1   
  6   4   7  ar  
  7   4   8  ar  
  8   5   9  1   
  9   5  20  1   
 10   5  21  1   
 11   6  10  1   
 12   6  22  1   
 13   6  23  1   
 14   7  11  ar  
 15   7  24  1   
 16   8  12  ar  
 17   8  25  1   
 18   9  13  1   
 19   9  14  1   
 20   9  15  1   
 21  10  14  1   
 22  10  26  1   
 23  10  27  1   
 24  11  16  ar  
 25  11  28  1   
 26  12  16  ar  
 27  12  29  1   
 28  13  17  1   
 29  13  18  1   
 30  13  30  1   
 31  14  31  1   
 32  14  32  1   
 33  15  19  1   
 34  15  33  1   
 35  15  34  1   
 36  16  35  1   
 37  17  36  1   
 38  18  19  1   
 39  18  37  1   
 40  18  38  1   
 41  19  39  1   
 42  19  40  1   
@<TRIPOS>SUBSTRUCTURE
  1 ****   3 GROUP 4 **** **** 0

# MOE 2024.06 (io_trps.svl 2023.06)
