@<TRIPOS>MOLECULE
NONAME
55 59 1 0 0 
SMALL
USER_CHARGES


@<TRIPOS>ATOM
  1 O       -0.7560     0.4240    -1.6290 O.2   1 <1>  -0.5700 
  2 C       -1.3110     0.3910    -0.5470 C.2   1 <1>   0.7160 
  3 N       -1.7560    -0.8240    -0.0720 N.am  1 <1>  -0.6600 
  4 C       -1.4520     1.6020     0.1960 C.2   1 <1>  -0.0860 
  5 C       -1.8500    -2.0100    -0.9640 C.3   1 <1>   0.3200 
  6 C       -2.2830    -1.0490     1.3120 C.3   1 <1>   0.1400 
  7 C       -2.6590     2.1970     0.5860 C.2   1 <1>   0.3720 
  8 C       -0.5010     2.4460     0.6810 C.2   1 <1>   0.0870 
  9 C       -3.2590    -2.5590    -0.8940 C.2   1 <1>  -0.3320 
 10 C       -3.7650    -1.4560     1.3050 C.3   1 <1>   0.0960 
 11 N       -2.4380     3.2710     1.2590 N.2   1 <1>  -0.4100 
 12 N       -3.9450     1.6950     0.3140 N.pl3 1 <1>  -0.8210 
 13 O       -1.1400     3.4080     1.2980 O.3   1 <1>  -0.0190 
 14 C        0.9430     2.4500     0.6450 C.ar  1 <1>   0.0530 
 15 N       -4.0750    -2.3120     0.1490 N.pl3 1 <1>   0.3140 
 16 C       -3.9540    -3.3280    -1.7600 C.2   1 <1>  -0.1500 
 17 C       -5.1310     2.4000     0.8840 C.3   1 <1>   0.2090 
 18 C       -4.2400     1.3170    -1.0960 C.3   1 <1>   0.2090 
 19 C        1.6920     1.3000     0.3820 C.ar  1 <1>  -0.1500 
 20 C        1.6560     3.6270     0.8860 C.ar  1 <1>  -0.1500 
 21 N       -5.2730    -2.8990    -0.0130 N.2   1 <1>  -0.7070 
 22 C       -5.1930    -3.5050    -1.1550 C.2   1 <1>   0.1080 
 23 C       -6.1070     2.5760    -0.2720 C.3   1 <1>  -0.1600 
 24 C       -5.7450     1.4690    -1.2500 C.3   1 <1>  -0.1600 
 25 C        3.0750     1.3210     0.3560 C.ar  1 <1>  -0.1500 
 26 C        3.0370     3.6550     0.8640 C.ar  1 <1>  -0.1500 
 27 C       -6.3410    -4.3020    -1.7280 C.3   1 <1>  -0.0590 
 28 C        3.7610     2.5060     0.5980 C.ar  1 <1>   0.0830 
 29 O        5.1100     2.6140     0.5920 O.3   1 <1>  -0.3620 
 30 C        5.9390     1.5120     0.2990 C.3   1 <1>   0.0400 
 31 H       -1.1520    -2.7580    -0.6280 H     1 <1>   0.0800 
 32 H       -1.6120    -1.7600    -1.9840 H     1 <1>   0.0800 
 33 H       -2.1600    -0.1720     1.9230 H     1 <1>   0.0800 
 34 H       -1.7120    -1.8390     1.7690 H     1 <1>   0.0800 
 35 H       -4.3920    -0.5890     1.2500 H     1 <1>   0.0800 
 36 H       -4.0100    -1.9870     2.2040 H     1 <1>   0.0800 
 37 H       -3.6480    -3.7290    -2.7090 H     1 <1>   0.1500 
 38 H       -4.8850     3.3540     1.3170 H     1 <1>   0.0800 
 39 H       -5.5690     1.7750     1.6430 H     1 <1>   0.0800 
 40 H       -3.9440     0.3020    -1.2990 H     1 <1>   0.0800 
 41 H       -3.7250     1.9850    -1.7670 H     1 <1>   0.0800 
 42 H        1.1950     0.3680     0.1940 H     1 <1>   0.1500 
 43 H        1.1220     4.5380     1.0910 H     1 <1>   0.1500 
 44 H       -5.9360     3.5370    -0.7260 H     1 <1>   0.0800 
 45 H       -7.1300     2.5180     0.0560 H     1 <1>   0.0800 
 46 H       -6.2170     0.5470    -0.9570 H     1 <1>   0.0800 
 47 H       -6.0220     1.7020    -2.2620 H     1 <1>   0.0800 
 48 H        3.6010     0.4090     0.1450 H     1 <1>   0.1500 
 49 H        3.5670     4.5720     1.0510 H     1 <1>   0.1500 
 50 H       -6.0720    -4.7190    -2.6810 H     1 <1>   0.0800 
 51 H       -7.1940    -3.6610    -1.8500 H     1 <1>   0.0800 
 52 H       -6.5960    -5.0970    -1.0530 H     1 <1>   0.0800 
 53 H        6.9610     1.8430     0.3410 H     1 <1>   0.0800 
 54 H        5.7100     1.1560    -0.6900 H     1 <1>   0.0800 
 55 H        5.7730     0.7450     1.0350 H     1 <1>   0.0800 
@<TRIPOS>BOND
  1   1   2  2   
  2   2   3  am  
  3   2   4  1   
  4   3   5  1   
  5   3   6  1   
  6   4   7  1   
  7   4   8  2   
  8   5   9  1   
  9   5  31  1   
 10   5  32  1   
 11   6  10  1   
 12   6  33  1   
 13   6  34  1   
 14   7  11  2   
 15   7  12  1   
 16   8  13  1   
 17   8  14  1   
 18   9  15  1   
 19   9  16  2   
 20  10  15  1   
 21  10  35  1   
 22  10  36  1   
 23  11  13  1   
 24  12  17  1   
 25  12  18  1   
 26  14  19  ar  
 27  14  20  ar  
 28  15  21  1   
 29  16  22  1   
 30  16  37  1   
 31  17  23  1   
 32  17  38  1   
 33  17  39  1   
 34  18  24  1   
 35  18  40  1   
 36  18  41  1   
 37  19  25  ar  
 38  19  42  1   
 39  20  26  ar  
 40  20  43  1   
 41  21  22  2   
 42  22  27  1   
 43  23  24  1   
 44  23  44  1   
 45  23  45  1   
 46  24  46  1   
 47  24  47  1   
 48  25  28  ar  
 49  25  48  1   
 50  26  28  ar  
 51  26  49  1   
 52  27  50  1   
 53  27  51  1   
 54  27  52  1   
 55  28  29  1   
 56  29  30  1   
 57  30  53  1   
 58  30  54  1   
 59  30  55  1   
@<TRIPOS>SUBSTRUCTURE
  1 ****   2 GROUP 4 **** **** 0

# MOE 2024.06 (io_trps.svl 2023.06)
