@<TRIPOS>MOLECULE
NONAME
52 54 1 0 0 
SMALL
USER_CHARGES


@<TRIPOS>ATOM
  1 S        0.1080    -0.0760    -2.3470 S.o2  1 <1>   1.4470 
  2 O       -0.3030    -1.1030    -3.2800 O.2   1 <1>  -0.6500 
  3 O        0.5160     1.2180    -2.8510 O.2   1 <1>  -0.6500 
  4 N       -1.1920     0.1890    -1.2900 N.am  1 <1>  -0.8490 
  5 C        1.3900    -0.7490    -1.2520 C.ar  1 <1>  -0.0090 
  6 C       -0.9300     1.2950    -0.3660 C.3   1 <1>   0.1960 
  7 C       -2.4290     0.4460    -2.0280 C.3   1 <1>   0.1960 
  8 C        2.6610    -0.1860    -1.1930 C.ar  1 <1>  -0.1500 
  9 C        1.1270    -1.8440    -0.4370 C.ar  1 <1>  -0.1500 
 10 C       -2.0440     1.3640     0.6790 C.3   1 <1>  -0.1600 
 11 C       -3.6120     0.4920    -1.0590 C.3   1 <1>  -0.1600 
 12 C        3.6350    -0.6900    -0.3480 C.ar  1 <1>  -0.1500 
 13 C        2.0930    -2.3560     0.4100 C.ar  1 <1>  -0.1500 
 14 C       -3.4230     1.5570     0.0330 C.3   1 <1>   0.2800 
 15 C        3.3520    -1.7840     0.4640 C.ar  1 <1>   0.0830 
 16 O       -3.3860     2.8070    -0.6120 O.3   1 <1>  -0.5600 
 17 C       -4.5240     1.4880     1.1150 C.3   1 <1>  -0.1600 
 18 O        4.2410    -2.3400     1.3220 O.3   1 <1>  -0.3630 
 19 C       -4.4030     3.7440    -0.4060 C.3   1 <1>   0.1200 
 20 C       -5.8940     2.0230     0.6580 C.3   1 <1>   0.2800 
 21 C        5.5590    -1.8570     1.4340 C.3   1 <1>   0.1200 
 22 C       -5.7650     3.0540    -0.4670 C.3   1 <1>  -0.1600 
 23 O       -6.4450     2.6700     1.7400 O.3   1 <1>  -0.6800 
 24 C       -6.8840     0.9150     0.2990 C.3   1 <1>  -0.2400 
 25 C        6.2900    -2.7100     2.4670 C.3   1 <1>  -0.2400 
 26 H       -0.8720     2.2270    -0.9060 H     1 <1>   0.0800 
 27 H        0.0090     1.1400     0.1370 H     1 <1>   0.0800 
 28 H       -2.6000    -0.3420    -2.7430 H     1 <1>   0.0800 
 29 H       -2.3510     1.3770    -2.5680 H     1 <1>   0.0800 
 30 H        2.8900     0.6610    -1.8180 H     1 <1>   0.1500 
 31 H        0.1510    -2.2990    -0.4700 H     1 <1>   0.1500 
 32 H       -1.8470     2.1740     1.3570 H     1 <1>   0.0800 
 33 H       -2.0340     0.4510     1.2480 H     1 <1>   0.0800 
 34 H       -3.7130    -0.4770    -0.6070 H     1 <1>   0.0800 
 35 H       -4.5060     0.6850    -1.6180 H     1 <1>   0.0800 
 36 H        4.6010    -0.2210    -0.3370 H     1 <1>   0.1500 
 37 H        1.8770    -3.2030     1.0360 H     1 <1>   0.1500 
 38 H       -4.1800     2.0600     1.9580 H     1 <1>   0.0800 
 39 H       -4.6230     0.4730     1.4560 H     1 <1>   0.0800 
 40 H       -4.3190     4.4880    -1.1780 H     1 <1>   0.0800 
 41 H       -4.2430     4.2140     0.5490 H     1 <1>   0.0800 
 42 H        5.5190    -0.8280     1.7500 H     1 <1>   0.0800 
 43 H        6.0340    -1.9350     0.4710 H     1 <1>   0.0800 
 44 H       -5.8480     2.5770    -1.4260 H     1 <1>   0.0800 
 45 H       -6.5580     3.7790    -0.4070 H     1 <1>   0.0800 
 46 H       -5.8700     3.4070     2.0120 H     1 <1>   0.4000 
 47 H       -6.5280     0.3390    -0.5330 H     1 <1>   0.0800 
 48 H       -7.8350     1.3410     0.0320 H     1 <1>   0.0800 
 49 H       -7.0220     0.2520     1.1350 H     1 <1>   0.0800 
 50 H        5.7980    -2.6380     3.4200 H     1 <1>   0.0800 
 51 H        7.3020    -2.3650     2.5750 H     1 <1>   0.0800 
 52 H        6.3100    -3.7370     2.1500 H     1 <1>   0.0800 
@<TRIPOS>BOND
  1   1   2  2   
  2   1   3  2   
  3   1   4  am  
  4   1   5  1   
  5   4   6  1   
  6   4   7  1   
  7   5   8  ar  
  8   5   9  ar  
  9   6  10  1   
 10   6  26  1   
 11   6  27  1   
 12   7  11  1   
 13   7  28  1   
 14   7  29  1   
 15   8  12  ar  
 16   8  30  1   
 17   9  13  ar  
 18   9  31  1   
 19  10  14  1   
 20  10  32  1   
 21  10  33  1   
 22  11  14  1   
 23  11  34  1   
 24  11  35  1   
 25  12  15  ar  
 26  12  36  1   
 27  13  15  ar  
 28  13  37  1   
 29  14  16  1   
 30  14  17  1   
 31  15  18  1   
 32  16  19  1   
 33  17  20  1   
 34  17  38  1   
 35  17  39  1   
 36  18  21  1   
 37  19  22  1   
 38  19  40  1   
 39  19  41  1   
 40  20  22  1   
 41  20  23  1   
 42  20  24  1   
 43  21  25  1   
 44  21  42  1   
 45  21  43  1   
 46  22  44  1   
 47  22  45  1   
 48  23  46  1   
 49  24  47  1   
 50  24  48  1   
 51  24  49  1   
 52  25  50  1   
 53  25  51  1   
 54  25  52  1   
@<TRIPOS>SUBSTRUCTURE
  1 ****   6 GROUP 4 **** **** 0

# MOE 2024.06 (io_trps.svl 2023.06)
