@<TRIPOS>MOLECULE
NONAME
52 54 1 0 0 
SMALL
USER_CHARGES


@<TRIPOS>ATOM
  1 O       -2.6410     0.7560    -0.0410 O.co2 1 <1>  -0.9000 
  2 C       -1.7170     1.3180    -0.6360 C.2   1 <1>   0.9060 
  3 O       -1.4760     1.0900    -1.8270 O.co2 1 <1>  -0.9000 
  4 C       -0.8750     2.3780     0.0830 C.3   1 <1>  -0.1060 
  5 C       -1.7120     3.2160     1.0880 C.3   1 <1>   0.2000 
  6 C       -0.3840     3.2910    -1.0560 C.3   1 <1>   0.3430 
  7 C        0.3170     1.7400     0.8520 C.3   1 <1>  -0.1600 
  8 O       -2.5020     2.4250     1.8840 O.3   1 <1>  -0.6800 
  9 C       -2.5980     4.2340     0.3800 C.3   1 <1>  -0.1600 
 10 N       -0.3620     4.7340    -0.6650 N.4   1 <1>  -0.9590 
 11 C        1.2290     0.8310     0.0080 C.3   1 <1>  -0.1600 
 12 C       -1.7530     5.2370    -0.4110 C.3   1 <1>   0.3430 
 13 C        0.3410     5.5440    -1.6900 C.3   1 <1>   0.4860 
 14 C        2.3640     0.2570     0.8610 C.3   1 <1>  -0.2400 
 15 C        0.5070     6.9580    -1.1640 C.ar  1 <1>  -0.1440 
 16 C        1.4700     7.2460    -0.2080 C.ar  1 <1>  -0.1500 
 17 C       -0.3040     7.9810    -1.6340 C.ar  1 <1>  -0.1500 
 18 C        1.6090     8.5340     0.2760 C.ar  1 <1>  -0.1500 
 19 C       -0.1590     9.2660    -1.1450 C.ar  1 <1>  -0.1500 
 20 C        0.7970     9.5670    -0.1810 C.ar  1 <1>   0.0000 
 21 C        0.9440    10.9120     0.3270 C.ar  1 <1>   0.0000 
 22 C        2.1400    11.6140     0.1880 C.ar  1 <1>   0.1600 
 23 C       -0.1000    11.5550     0.9740 C.ar  1 <1>  -0.1500 
 24 N        2.3720    12.8420     0.6230 N.ar  1 <1>  -0.6200 
 25 C        0.1190    12.8360     1.4330 C.ar  1 <1>  -0.1500 
 26 C        1.3550    13.4260     1.2350 C.ar  1 <1>   0.1600 
 27 H       -1.0580     3.7450     1.7600 H     1 <1>   0.0800 
 28 H       -1.0470     3.1900    -1.9010 H     1 <1>   0.0800 
 29 H        0.5890     2.9670    -1.3800 H     1 <1>   0.0800 
 30 H        0.9140     2.5140     1.3020 H     1 <1>   0.0800 
 31 H       -0.0880     1.1430     1.6540 H     1 <1>   0.0800 
 32 H       -2.7850     1.6380     1.3190 H     1 <1>   0.4000 
 33 H       -3.2640     3.7220    -0.2930 H     1 <1>   0.0800 
 34 H       -3.1980     4.7650     1.0980 H     1 <1>   0.0800 
 35 H        0.1680     4.8120     0.2100 H     1 <1>   0.4500 
 36 H        0.6530     0.0120    -0.3950 H     1 <1>   0.0800 
 37 H        1.6570     1.3670    -0.8190 H     1 <1>   0.0800 
 38 H       -1.6960     6.1630     0.1380 H     1 <1>   0.0800 
 39 H       -2.2480     5.4380    -1.3480 H     1 <1>   0.0800 
 40 H        1.3130     5.1220    -1.8910 H     1 <1>   0.0800 
 41 H       -0.2230     5.5520    -2.6080 H     1 <1>   0.0800 
 42 H        1.9620    -0.3210     1.6760 H     1 <1>   0.0800 
 43 H        2.9760     1.0450     1.2620 H     1 <1>   0.0800 
 44 H        2.9820    -0.3880     0.2620 H     1 <1>   0.0800 
 45 H        2.1230     6.4770     0.1690 H     1 <1>   0.1500 
 46 H       -1.0530     7.7920    -2.3860 H     1 <1>   0.1500 
 47 H        2.3560     8.7490     1.0220 H     1 <1>   0.1500 
 48 H       -0.7900    10.0560    -1.5170 H     1 <1>   0.1500 
 49 H        2.9530    11.1240    -0.3190 H     1 <1>   0.1500 
 50 H       -1.0470    11.0670     1.1150 H     1 <1>   0.1500 
 51 H       -0.6590    13.3770     1.9410 H     1 <1>   0.1500 
 52 H        1.5170    14.4270     1.5990 H     1 <1>   0.1500 
@<TRIPOS>BOND
  1   1   2  ar  
  2   2   3  ar  
  3   2   4  1   
  4   4   5  1   
  5   4   6  1   
  6   4   7  1   
  7   5   8  1   
  8   5   9  1   
  9   5  27  1   
 10   6  10  1   
 11   6  28  1   
 12   6  29  1   
 13   7  11  1   
 14   7  30  1   
 15   7  31  1   
 16   8  32  1   
 17   9  12  1   
 18   9  33  1   
 19   9  34  1   
 20  10  12  1   
 21  10  13  1   
 22  10  35  1   
 23  11  14  1   
 24  11  36  1   
 25  11  37  1   
 26  12  38  1   
 27  12  39  1   
 28  13  15  1   
 29  13  40  1   
 30  13  41  1   
 31  14  42  1   
 32  14  43  1   
 33  14  44  1   
 34  15  16  ar  
 35  15  17  ar  
 36  16  18  ar  
 37  16  45  1   
 38  17  19  ar  
 39  17  46  1   
 40  18  20  ar  
 41  18  47  1   
 42  19  20  ar  
 43  19  48  1   
 44  20  21  1   
 45  21  22  ar  
 46  21  23  ar  
 47  22  24  ar  
 48  22  49  1   
 49  23  25  ar  
 50  23  50  1   
 51  24  26  ar  
 52  25  26  ar  
 53  25  51  1   
 54  26  52  1   
@<TRIPOS>SUBSTRUCTURE
  1 ****  15 GROUP 4 **** **** 0

# MOE 2024.06 (io_trps.svl 2023.06)
