@<TRIPOS>MOLECULE
NONAME
47 49 1 0 0 
SMALL
USER_CHARGES


@<TRIPOS>ATOM
  1 O       -3.4600     1.2760    -3.2120 O.2   1 <1>  -0.5700 
  2 C       -2.7030     1.4200    -2.2820 C.2   1 <1>   0.5690 
  3 N       -2.3080     0.3700    -1.5170 N.am  1 <1>  -0.7300 
  4 C       -2.1870     2.8190    -1.9660 C.3   1 <1>   0.1810 
  5 C       -2.7340    -1.0360    -1.6940 C.3   1 <1>   0.2200 
  6 O       -1.4550     2.8390    -0.7470 O.3   1 <1>  -0.3630 
  7 C       -3.6290    -1.4360    -0.5340 C.3   1 <1>  -0.0800 
  8 C       -1.5380    -1.9710    -1.5200 C.3   1 <1>   0.1200 
  9 C       -0.9180     3.9890    -0.2690 C.ar  1 <1>   0.0820 
 10 C       -2.5990    -1.8340     0.5240 C.3   1 <1>   0.1200 
 11 C       -4.5560    -2.6070    -0.9140 C.3   1 <1>  -0.0160 
 12 O       -1.4880    -2.3240    -0.1670 O.3   1 <1>  -0.5600 
 13 C       -0.2350     3.9060     0.9320 C.ar  1 <1>  -0.1500 
 14 C       -1.0200     5.2190    -0.9150 C.ar  1 <1>  -0.1500 
 15 C       -5.4570    -3.0030     0.2460 C.ar  1 <1>  -0.1440 
 16 C        0.3450     5.0280     1.4980 C.ar  1 <1>   0.0820 
 17 C       -0.4410     6.3450    -0.3540 C.ar  1 <1>  -0.1500 
 18 C       -6.5540    -2.2470     0.6050 C.ar  1 <1>  -0.1500 
 19 C       -5.2260    -4.1370     0.9980 C.ar  1 <1>  -0.1500 
 20 O        0.9940     4.8520     2.6770 O.3   1 <1>  -0.3620 
 21 C        0.2400     6.2550     0.8480 C.ar  1 <1>  -0.1500 
 22 C       -7.3420    -2.6470     1.6710 C.ar  1 <1>   0.1600 
 23 C       -6.0770    -4.4490     2.0450 C.ar  1 <1>   0.1600 
 24 C        1.6210     5.9290     3.3370 C.3   1 <1>   0.0400 
 25 N       -7.1290    -3.7290     2.4010 N.ar  1 <1>  -0.6200 
 26 H       -1.6740     0.5520    -0.7330 H     1 <1>   0.3700 
 27 H       -3.0210     3.4900    -1.8720 H     1 <1>   0.0800 
 28 H       -1.5390     3.1440    -2.7590 H     1 <1>   0.0800 
 29 H       -3.2060    -1.1610    -2.6550 H     1 <1>   0.0800 
 30 H       -4.2300    -0.6090    -0.1990 H     1 <1>   0.0800 
 31 H       -0.6090    -1.5090    -1.8060 H     1 <1>   0.0800 
 32 H       -1.6820    -2.8760    -2.0840 H     1 <1>   0.0800 
 33 H       -2.9520    -2.5870     1.2060 H     1 <1>   0.0800 
 34 H       -2.2770    -0.9710     1.0820 H     1 <1>   0.0800 
 35 H       -3.9740    -3.4570    -1.2250 H     1 <1>   0.0800 
 36 H       -5.1740    -2.3160    -1.7460 H     1 <1>   0.0800 
 37 H       -0.1520     2.9610     1.4350 H     1 <1>   0.1500 
 38 H       -1.5400     5.3240    -1.8480 H     1 <1>   0.1500 
 39 H       -0.5210     7.2950    -0.8540 H     1 <1>   0.1500 
 40 H       -6.8030    -1.3510     0.0660 H     1 <1>   0.1500 
 41 H       -4.3930    -4.7810     0.7810 H     1 <1>   0.1500 
 42 H        0.6780     7.1440     1.2600 H     1 <1>   0.1500 
 43 H       -8.1940    -2.0440     1.9360 H     1 <1>   0.1500 
 44 H       -5.8810    -5.3370     2.6220 H     1 <1>   0.1500 
 45 H        2.0650     5.5540     4.2410 H     1 <1>   0.0800 
 46 H        0.8810     6.6720     3.5750 H     1 <1>   0.0800 
 47 H        2.3840     6.3350     2.6970 H     1 <1>   0.0800 
@<TRIPOS>BOND
  1   1   2  2   
  2   2   3  am  
  3   2   4  1   
  4   3   5  1   
  5   3  26  1   
  6   4   6  1   
  7   4  27  1   
  8   4  28  1   
  9   5   7  1   
 10   5   8  1   
 11   5  29  1   
 12   6   9  1   
 13   7  10  1   
 14   7  11  1   
 15   7  30  1   
 16   8  12  1   
 17   8  31  1   
 18   8  32  1   
 19   9  13  ar  
 20   9  14  ar  
 21  10  12  1   
 22  10  33  1   
 23  10  34  1   
 24  11  15  1   
 25  11  35  1   
 26  11  36  1   
 27  13  16  ar  
 28  13  37  1   
 29  14  17  ar  
 30  14  38  1   
 31  15  18  ar  
 32  15  19  ar  
 33  16  20  1   
 34  16  21  ar  
 35  17  21  ar  
 36  17  39  1   
 37  18  22  ar  
 38  18  40  1   
 39  19  23  ar  
 40  19  41  1   
 41  20  24  1   
 42  21  42  1   
 43  22  25  ar  
 44  22  43  1   
 45  23  25  ar  
 46  23  44  1   
 47  24  45  1   
 48  24  46  1   
 49  24  47  1   
@<TRIPOS>SUBSTRUCTURE
  1 ****   3 GROUP 4 **** **** 0

# MOE 2024.06 (io_trps.svl 2023.06)
