@<TRIPOS>MOLECULE
NONAME
45 47 1 0 0 
SMALL
USER_CHARGES


@<TRIPOS>ATOM
  1 S        1.9040    -1.0440    -2.6630 S.3   1 <1>  -0.0800 
  2 C        1.7150    -0.8770    -0.9200 C.2   1 <1>   0.3250 
  3 C        1.1830    -2.6180    -2.6010 C.2   1 <1>  -0.1100 
  4 N        1.1610    -1.9150    -0.3900 N.2   1 <1>  -0.5650 
  5 C        2.1810     0.3320    -0.2720 C.ar  1 <1>   0.0530 
  6 C        0.8660    -2.8940    -1.3270 C.2   1 <1>   0.0460 
  7 C        2.4060     0.3500     1.1040 C.ar  1 <1>  -0.1500 
  8 C        2.4280     1.5200    -0.9630 C.ar  1 <1>  -0.1500 
  9 C        0.2050    -4.1840    -0.8520 C.3   1 <1>   0.5240 
 10 C        2.8550     1.4840     1.7570 C.ar  1 <1>  -0.1500 
 11 C        2.8780     2.6570    -0.3170 C.ar  1 <1>  -0.1500 
 12 N       -1.0100    -3.8570    -0.0430 N.4   1 <1>  -0.9590 
 13 C        3.0980     2.6600     1.0560 C.ar  1 <1>  -0.1430 
 14 C       -2.1160    -4.8380    -0.3110 C.3   1 <1>   0.3430 
 15 C       -0.6710    -3.7160     1.4030 C.3   1 <1>   0.3430 
 16 C        3.6050     3.9220     1.7770 C.3   1 <1>   1.1630 
 17 C       -2.3120    -5.8770     0.8050 C.3   1 <1>  -0.0800 
 18 C       -0.2560    -5.0540     2.0370 C.3   1 <1>  -0.1600 
 19 F        4.9290     3.9590     1.8400 F     1 <1>  -0.3400 
 20 F        3.2280     5.0450     1.1770 F     1 <1>  -0.3400 
 21 F        3.1690     4.0070     3.0290 F     1 <1>  -0.3400 
 22 C       -0.9770    -6.2770     1.4480 C.3   1 <1>   0.2000 
 23 C       -3.0730    -7.0930     0.2630 C.3   1 <1>   0.1200 
 24 O       -0.1640    -6.8330     0.4720 O.3   1 <1>  -0.6800 
 25 O       -4.2050    -6.6320    -0.3860 O.3   1 <1>  -0.6800 
 26 H        1.0820    -3.1570    -3.5270 H     1 <1>   0.1500 
 27 H        2.2310    -0.5450     1.6740 H     1 <1>   0.1500 
 28 H        2.2670     1.5710    -2.0250 H     1 <1>   0.1500 
 29 H        0.9040    -4.7540    -0.2640 H     1 <1>   0.0800 
 30 H       -0.0680    -4.7730    -1.7110 H     1 <1>   0.0800 
 31 H        3.0190     1.4440     2.8220 H     1 <1>   0.1500 
 32 H        3.0560     3.5490    -0.8960 H     1 <1>   0.1500 
 33 H       -1.2930    -2.9280    -0.3810 H     1 <1>   0.4500 
 34 H       -3.0480    -4.3120    -0.4450 H     1 <1>   0.0800 
 35 H       -1.9140    -5.3620    -1.2310 H     1 <1>   0.0800 
 36 H        0.1180    -2.9910     1.5340 H     1 <1>   0.0800 
 37 H       -1.5400    -3.3460     1.9230 H     1 <1>   0.0800 
 38 H       -2.9290    -5.4390     1.5690 H     1 <1>   0.0800 
 39 H       -0.4960    -4.9900     3.0830 H     1 <1>   0.0800 
 40 H        0.8120    -5.1770     1.9770 H     1 <1>   0.0800 
 41 H       -1.1340    -7.0260     2.2080 H     1 <1>   0.0800 
 42 H       -3.3780    -7.7470     1.0640 H     1 <1>   0.0800 
 43 H       -2.4800    -7.6460    -0.4470 H     1 <1>   0.0800 
 44 H        0.5130    -7.4130     0.8820 H     1 <1>   0.4000 
 45 H       -4.7730    -7.3790    -0.6730 H     1 <1>   0.4000 
@<TRIPOS>BOND
  1   1   2  1   
  2   1   3  1   
  3   2   4  2   
  4   2   5  1   
  5   3   6  2   
  6   3  26  1   
  7   4   6  1   
  8   5   7  ar  
  9   5   8  ar  
 10   6   9  1   
 11   7  10  ar  
 12   7  27  1   
 13   8  11  ar  
 14   8  28  1   
 15   9  12  1   
 16   9  29  1   
 17   9  30  1   
 18  10  13  ar  
 19  10  31  1   
 20  11  13  ar  
 21  11  32  1   
 22  12  14  1   
 23  12  15  1   
 24  12  33  1   
 25  13  16  1   
 26  14  17  1   
 27  14  34  1   
 28  14  35  1   
 29  15  18  1   
 30  15  36  1   
 31  15  37  1   
 32  16  19  1   
 33  16  20  1   
 34  16  21  1   
 35  17  22  1   
 36  17  23  1   
 37  17  38  1   
 38  18  22  1   
 39  18  39  1   
 40  18  40  1   
 41  22  24  1   
 42  22  41  1   
 43  23  25  1   
 44  23  42  1   
 45  23  43  1   
 46  24  44  1   
 47  25  45  1   
@<TRIPOS>SUBSTRUCTURE
  1 ****   4 GROUP 4 **** **** 0

# MOE 2024.06 (io_trps.svl 2023.06)
