@<TRIPOS>MOLECULE
NONAME
53 55 1 0 0 
SMALL
USER_CHARGES


@<TRIPOS>ATOM
  1 O       -0.7590    -3.3330    -0.7690 O.2   1 <1>  -0.5700 
  2 C        0.4210    -3.5500    -0.8630 C.2   1 <1>   0.5690 
  3 N        1.0010    -3.8020    -2.0550 N.am  1 <1>  -0.7300 
  4 C        1.3080    -3.5610     0.3630 C.3   1 <1>  -0.0990 
  5 C        2.4410    -4.0980    -2.2060 C.3   1 <1>   0.1400 
  6 C        2.6320    -2.8260     0.0790 C.3   1 <1>  -0.0800 
  7 C        3.2690    -3.1720    -1.2920 C.3   1 <1>  -0.0800 
  8 C        3.7040    -3.0900     1.1450 C.3   1 <1>  -0.1600 
  9 C        4.6610    -3.7360    -0.9790 C.3   1 <1>  -0.1600 
 10 C        5.0190    -3.1250     0.3730 C.3   1 <1>   0.2200 
 11 N        6.1010    -3.8570     1.0950 N.am  1 <1>  -0.6600 
 12 C        7.2540    -3.2270     1.5300 C.2   1 <1>   0.5440 
 13 C        5.9490    -5.3300     1.3100 C.3   1 <1>   0.0600 
 14 O        8.0660    -3.8730     2.1700 O.2   1 <1>  -0.5700 
 15 C        7.5270    -1.8260     1.2920 C.ar  1 <1>   0.0860 
 16 C        7.8030    -1.3200     0.0160 C.ar  1 <1>   0.0830 
 17 C        7.5390    -0.9270     2.3580 C.ar  1 <1>  -0.1500 
 18 O        7.8040    -2.1450    -1.0510 O.3   1 <1>  -0.3630 
 19 C        8.0530     0.0310    -0.1790 C.ar  1 <1>  -0.1500 
 20 C        7.7950     0.4190     2.1670 C.ar  1 <1>  -0.1500 
 21 C        9.0410    -2.4450    -1.6620 C.3   1 <1>   0.1200 
 22 C        8.0500     0.9010     0.8950 C.ar  1 <1>  -0.1500 
 23 C        9.7610    -3.5270    -0.8510 C.3   1 <1>  -0.1600 
 24 C       11.0610    -3.9640    -1.5370 C.3   1 <1>  -0.1600 
 25 C       11.7740    -5.0420    -0.7160 C.3   1 <1>  -0.2400 
 26 H        0.3970    -3.8300    -2.8790 H     1 <1>   0.3700 
 27 H        0.7930    -3.0940     1.1830 H     1 <1>   0.0800 
 28 H        1.4930    -4.5870     0.6190 H     1 <1>   0.0800 
 29 H        2.6020    -5.1290    -1.9380 H     1 <1>   0.0800 
 30 H        2.7380    -3.9620    -3.2320 H     1 <1>   0.0800 
 31 H        2.4190    -1.7690     0.0690 H     1 <1>   0.0800 
 32 H        3.4090    -2.2430    -1.8200 H     1 <1>   0.0800 
 33 H        3.5250    -4.0340     1.6250 H     1 <1>   0.0800 
 34 H        3.7160    -2.3140     1.8900 H     1 <1>   0.0800 
 35 H        5.3800    -3.4600    -1.7300 H     1 <1>   0.0800 
 36 H        4.6110    -4.8060    -0.9080 H     1 <1>   0.0800 
 37 H        5.3080    -2.1040     0.1950 H     1 <1>   0.0800 
 38 H        4.9280    -5.6420     1.1990 H     1 <1>   0.0800 
 39 H        6.2790    -5.5900     2.3010 H     1 <1>   0.0800 
 40 H        6.5590    -5.8560     0.5970 H     1 <1>   0.0800 
 41 H        7.3480    -1.3020     3.3490 H     1 <1>   0.1500 
 42 H        8.2460     0.3980    -1.1710 H     1 <1>   0.1500 
 43 H        7.7980     1.0920     3.0080 H     1 <1>   0.1500 
 44 H        8.8290    -2.8020    -2.6540 H     1 <1>   0.0800 
 45 H        9.6320    -1.5480    -1.7280 H     1 <1>   0.0800 
 46 H        8.2470     1.9490     0.7440 H     1 <1>   0.1500 
 47 H        9.9910    -3.1450     0.1290 H     1 <1>   0.0800 
 48 H        9.1100    -4.3770    -0.7410 H     1 <1>   0.0800 
 49 H       10.8420    -4.3520    -2.5170 H     1 <1>   0.0800 
 50 H       11.7150    -3.1160    -1.6490 H     1 <1>   0.0800 
 51 H       11.1460    -5.9090    -0.6080 H     1 <1>   0.0800 
 52 H       12.0160    -4.6690     0.2640 H     1 <1>   0.0800 
 53 H       12.6850    -5.3380    -1.2060 H     1 <1>   0.0800 
@<TRIPOS>BOND
  1   1   2  2   
  2   2   3  am  
  3   2   4  1   
  4   3   5  1   
  5   3  26  1   
  6   4   6  1   
  7   4  27  1   
  8   4  28  1   
  9   5   7  1   
 10   5  29  1   
 11   5  30  1   
 12   6   7  1   
 13   6   8  1   
 14   6  31  1   
 15   7   9  1   
 16   7  32  1   
 17   8  10  1   
 18   8  33  1   
 19   8  34  1   
 20   9  10  1   
 21   9  35  1   
 22   9  36  1   
 23  10  11  1   
 24  10  37  1   
 25  11  12  am  
 26  11  13  1   
 27  12  14  2   
 28  12  15  1   
 29  13  38  1   
 30  13  39  1   
 31  13  40  1   
 32  15  16  ar  
 33  15  17  ar  
 34  16  18  1   
 35  16  19  ar  
 36  17  20  ar  
 37  17  41  1   
 38  18  21  1   
 39  19  22  ar  
 40  19  42  1   
 41  20  22  ar  
 42  20  43  1   
 43  21  23  1   
 44  21  44  1   
 45  21  45  1   
 46  22  46  1   
 47  23  24  1   
 48  23  47  1   
 49  23  48  1   
 50  24  25  1   
 51  24  49  1   
 52  24  50  1   
 53  25  51  1   
 54  25  52  1   
 55  25  53  1   
@<TRIPOS>SUBSTRUCTURE
  1 ****  10 GROUP 4 **** **** 0

# MOE 2024.06 (io_trps.svl 2023.06)
