@<TRIPOS>MOLECULE
NONAME
47 49 1 0 0 
SMALL
USER_CHARGES


@<TRIPOS>ATOM
  1 O        0.5170    -0.7320    -2.0270 O.2   1 <1>  -0.5700 
  2 C        1.3210    -1.2310    -1.2630 C.2   1 <1>   0.5440 
  3 N        2.2130    -0.4170    -0.6030 N.am  1 <1>  -0.6600 
  4 C        1.3110    -2.6640    -1.0570 C.ar  1 <1>   0.0860 
  5 C        2.9760    -0.8100     0.6030 C.3   1 <1>   0.1400 
  6 C        2.2270     1.0540    -0.7790 C.3   1 <1>   0.1400 
  7 C        0.1690    -3.3410    -0.6750 C.ar  1 <1>  -0.1500 
  8 C        2.4350    -3.4590    -1.2340 C.ar  1 <1>  -0.1500 
  9 C        3.6450     0.4730     1.0840 C.3   1 <1>  -0.1600 
 10 C        2.7710     1.5970     0.5360 C.3   1 <1>  -0.1600 
 11 C        0.1860    -4.7130    -0.4720 C.ar  1 <1>   0.4100 
 12 C        2.3610    -4.8190    -1.0090 C.ar  1 <1>   0.1600 
 13 N        1.2710    -5.4590    -0.6290 N.ar  1 <1>  -0.6200 
 14 N       -0.9700    -5.3470    -0.0900 N.pl3 1 <1>  -0.8690 
 15 C       -1.0730    -6.8270    -0.1220 C.3   1 <1>   0.3890 
 16 C       -2.4510    -7.2700     0.3470 C.2   1 <1>  -0.0400 
 17 O       -2.8290    -8.5070     0.1110 O.3   1 <1>  -0.2800 
 18 C       -3.4270    -6.6080     1.0060 C.2   1 <1>  -0.1500 
 19 C       -4.0530    -8.6970     0.5990 C.2   1 <1>   0.0550 
 20 C       -4.4620    -7.5290     1.1720 C.2   1 <1>  -0.1500 
 21 C       -4.7140    -9.9820     0.4800 C.2   1 <1>   0.7150 
 22 O       -4.0640   -11.0130     0.5350 O.2   1 <1>  -0.5700 
 23 N       -6.0880   -10.0830     0.3150 N.am  1 <1>  -0.6600 
 24 C       -6.7950   -11.3840     0.4840 C.3   1 <1>   0.0600 
 25 C       -6.9290    -8.9910    -0.2440 C.3   1 <1>   0.0600 
 26 H        3.7090    -1.5630     0.3720 H     1 <1>   0.0800 
 27 H        2.2940    -1.1810     1.3490 H     1 <1>   0.0800 
 28 H        1.2400     1.4340    -0.9850 H     1 <1>   0.0800 
 29 H        2.8840     1.3010    -1.5940 H     1 <1>   0.0800 
 30 H       -0.7440    -2.7950    -0.5320 H     1 <1>   0.1500 
 31 H        3.3580    -3.0100    -1.5510 H     1 <1>   0.1500 
 32 H        4.6300     0.5360     0.6550 H     1 <1>   0.0800 
 33 H        3.7280     0.5040     2.1560 H     1 <1>   0.0800 
 34 H        1.9470     1.7800     1.2040 H     1 <1>   0.0800 
 35 H        3.3170     2.5130     0.3940 H     1 <1>   0.0800 
 36 H        3.2470    -5.4160    -1.1510 H     1 <1>   0.1500 
 37 H       -1.8330    -4.9020    -0.4010 H     1 <1>   0.4000 
 38 H       -0.3210    -7.2620     0.5130 H     1 <1>   0.0800 
 39 H       -0.9110    -7.1720    -1.1290 H     1 <1>   0.0800 
 40 H       -3.4280    -5.5900     1.3530 H     1 <1>   0.1500 
 41 H       -5.3940    -7.3330     1.6720 H     1 <1>   0.1500 
 42 H       -6.2020   -12.0640     1.0730 H     1 <1>   0.0800 
 43 H       -6.9730   -11.8270    -0.4800 H     1 <1>   0.0800 
 44 H       -7.7340   -11.2290     0.9850 H     1 <1>   0.0800 
 45 H       -6.3180    -8.2350    -0.7050 H     1 <1>   0.0800 
 46 H       -7.5150    -8.5450     0.5410 H     1 <1>   0.0800 
 47 H       -7.5920    -9.3880    -0.9940 H     1 <1>   0.0800 
@<TRIPOS>BOND
  1   1   2  2   
  2   2   3  am  
  3   2   4  1   
  4   3   5  1   
  5   3   6  1   
  6   4   7  ar  
  7   4   8  ar  
  8   5   9  1   
  9   5  26  1   
 10   5  27  1   
 11   6  10  1   
 12   6  28  1   
 13   6  29  1   
 14   7  11  ar  
 15   7  30  1   
 16   8  12  ar  
 17   8  31  1   
 18   9  10  1   
 19   9  32  1   
 20   9  33  1   
 21  10  34  1   
 22  10  35  1   
 23  11  13  ar  
 24  11  14  1   
 25  12  13  ar  
 26  12  36  1   
 27  14  15  1   
 28  14  37  1   
 29  15  16  1   
 30  15  38  1   
 31  15  39  1   
 32  16  17  1   
 33  16  18  2   
 34  17  19  1   
 35  18  20  1   
 36  18  40  1   
 37  19  20  2   
 38  19  21  1   
 39  20  41  1   
 40  21  22  2   
 41  21  23  am  
 42  23  24  1   
 43  23  25  1   
 44  24  42  1   
 45  24  43  1   
 46  24  44  1   
 47  25  45  1   
 48  25  46  1   
 49  25  47  1   
@<TRIPOS>SUBSTRUCTURE
  1 ****  14 GROUP 4 **** **** 0

# MOE 2024.06 (io_trps.svl 2023.06)
