@<TRIPOS>MOLECULE
NONAME
50 53 1 0 0 
SMALL
USER_CHARGES


@<TRIPOS>ATOM
  1 O        0.6600     1.3300     1.1690 O.co2 1 <1>  -0.9000 
  2 C        1.5060     0.4570     0.9750 C.2   1 <1>   0.9060 
  3 O        1.7520    -0.4070     1.8350 O.co2 1 <1>  -0.9000 
  4 C        2.2820     0.4250    -0.3570 C.3   1 <1>  -0.1060 
  5 C        3.6940    -0.1350    -0.1020 C.3   1 <1>   0.4230 
  6 C        2.4610     1.8530    -0.9320 C.3   1 <1>  -0.1600 
  7 C        1.5510    -0.4520    -1.4000 C.3   1 <1>  -0.1600 
  8 N        3.6050    -1.5630     0.3590 N.4   1 <1>  -0.9590 
  9 C        4.4680     0.7990     0.8610 C.3   1 <1>   0.1100 
 10 C        3.2660     2.7500     0.0150 C.3   1 <1>   0.1100 
 11 C        1.5560    -1.9320    -0.9860 C.3   1 <1>  -0.1600 
 12 C        2.9620    -2.4370    -0.6550 C.3   1 <1>   0.3430 
 13 C        4.8600    -2.1440     0.9010 C.3   1 <1>   0.2630 
 14 N        4.5890     2.1570     0.2970 N.3   1 <1>  -0.8100 
 15 C        5.3830     3.0190     1.2090 C.3   1 <1>   0.2530 
 16 C        5.7840     4.3660     0.6040 C.ar  1 <1>   0.1670 
 17 N        6.9010     4.4360    -0.0610 N.ar  1 <1>  -0.6200 
 18 C        4.9420     5.4730     0.8130 C.ar  1 <1>  -0.1500 
 19 C        7.2500     5.6350    -0.5930 C.ar  1 <1>   0.3100 
 20 C        5.2720     6.6890     0.2970 C.ar  1 <1>  -0.1500 
 21 C        6.4640     6.7970    -0.4380 C.ar  1 <1>   0.0000 
 22 C        8.4420     5.7290    -1.3280 C.ar  1 <1>  -0.1500 
 23 C        6.9010     8.0030    -1.0210 C.ar  1 <1>  -0.1500 
 24 C        8.8500     6.9110    -1.8880 C.ar  1 <1>  -0.1500 
 25 C        8.0700     8.0610    -1.7310 C.ar  1 <1>  -0.1500 
 26 H        4.2280    -0.1200    -1.0360 H     1 <1>   0.0800 
 27 H        1.4950     2.3020    -1.0890 H     1 <1>   0.0800 
 28 H        2.9640     1.8230    -1.8820 H     1 <1>   0.0800 
 29 H        0.5340    -0.1100    -1.5020 H     1 <1>   0.0800 
 30 H        2.0290    -0.3540    -2.3600 H     1 <1>   0.0800 
 31 H        2.9050    -1.4630     1.1450 H     1 <1>   0.4500 
 32 H        5.4600     0.4140     1.0050 H     1 <1>   0.0800 
 33 H        3.9720     0.8460     1.8160 H     1 <1>   0.0800 
 34 H        2.7200     2.8970     0.9340 H     1 <1>   0.0800 
 35 H        3.3910     3.7080    -0.4580 H     1 <1>   0.0800 
 36 H        1.1430    -2.5270    -1.7810 H     1 <1>   0.0800 
 37 H        0.9230    -2.0690    -0.1250 H     1 <1>   0.0800 
 38 H        3.5600    -2.4470    -1.5520 H     1 <1>   0.0800 
 39 H        2.8930    -3.4440    -0.2780 H     1 <1>   0.0800 
 40 H        5.6250    -2.1520     0.1430 H     1 <1>   0.0800 
 41 H        4.6840    -3.1540     1.2350 H     1 <1>   0.0800 
 42 H        5.2030    -1.5650     1.7430 H     1 <1>   0.0800 
 43 H        4.8320     3.1850     2.1190 H     1 <1>   0.0800 
 44 H        6.2920     2.5060     1.4690 H     1 <1>   0.0800 
 45 H        4.0380     5.3420     1.3810 H     1 <1>   0.1500 
 46 H        4.6490     7.5540     0.4370 H     1 <1>   0.1500 
 47 H        9.0260     4.8340    -1.4370 H     1 <1>   0.1500 
 48 H        6.2960     8.8840    -0.8970 H     1 <1>   0.1500 
 49 H        9.7660     6.9670    -2.4490 H     1 <1>   0.1500 
 50 H        8.4020     8.9830    -2.1760 H     1 <1>   0.1500 
@<TRIPOS>BOND
  1   1   2  ar  
  2   2   3  ar  
  3   2   4  1   
  4   4   5  1   
  5   4   6  1   
  6   4   7  1   
  7   5   8  1   
  8   5   9  1   
  9   5  26  1   
 10   6  10  1   
 11   6  27  1   
 12   6  28  1   
 13   7  11  1   
 14   7  29  1   
 15   7  30  1   
 16   8  12  1   
 17   8  13  1   
 18   8  31  1   
 19   9  14  1   
 20   9  32  1   
 21   9  33  1   
 22  10  14  1   
 23  10  34  1   
 24  10  35  1   
 25  11  12  1   
 26  11  36  1   
 27  11  37  1   
 28  12  38  1   
 29  12  39  1   
 30  13  40  1   
 31  13  41  1   
 32  13  42  1   
 33  14  15  1   
 34  15  16  1   
 35  15  43  1   
 36  15  44  1   
 37  16  17  ar  
 38  16  18  ar  
 39  17  19  ar  
 40  18  20  ar  
 41  18  45  1   
 42  19  21  ar  
 43  19  22  ar  
 44  20  21  ar  
 45  20  46  1   
 46  21  23  ar  
 47  22  24  ar  
 48  22  47  1   
 49  23  25  ar  
 50  23  48  1   
 51  24  25  ar  
 52  24  49  1   
 53  25  50  1   
@<TRIPOS>SUBSTRUCTURE
  1 ****  14 GROUP 4 **** **** 0

# MOE 2024.06 (io_trps.svl 2023.06)
