@<TRIPOS>MOLECULE
NONAME
53 55 1 0 0 
SMALL
USER_CHARGES


@<TRIPOS>ATOM
  1 S        0.2790     0.4420     1.7760 S.o2  1 <1>   1.5010 
  2 O       -0.2840     1.7050     2.2040 O.2   1 <1>  -0.6500 
  3 O        0.8150    -0.4670     2.7630 O.2   1 <1>  -0.6500 
  4 N        1.6120     0.8760     0.8140 N.am  1 <1>  -0.8490 
  5 C       -0.8140    -0.3750     0.5880 C.2   1 <1>  -0.0630 
  6 C        2.5530     1.7110     1.5960 C.3   1 <1>   0.1960 
  7 C        2.2970    -0.3000     0.2520 C.3   1 <1>   0.1960 
  8 C       -1.5640     0.3090    -0.3640 C.2   1 <1>   0.1080 
  9 C       -1.0770    -1.6880     0.3230 C.2   1 <1>  -0.3320 
 10 C        3.6700     2.4240     0.7770 C.3   1 <1>   0.4230 
 11 C        3.2650     0.0840    -0.8860 C.3   1 <1>  -0.0800 
 12 N       -2.2100    -0.4810    -1.1540 N.2   1 <1>  -0.7070 
 13 C       -1.6720     1.8110    -0.5220 C.3   1 <1>  -0.0590 
 14 N       -1.9330    -1.7260    -0.7320 N.pl3 1 <1>   0.3140 
 15 C       -0.5350    -2.9140     1.0510 C.3   1 <1>  -0.0600 
 16 N        3.3440     2.6620    -0.6890 N.4   1 <1>  -0.9590 
 17 C        5.0440     1.7430     0.9560 C.3   1 <1>   0.1200 
 18 C        4.7470    -0.0930    -0.5210 C.3   1 <1>   0.1200 
 19 C        2.9390     1.4550    -1.4960 C.3   1 <1>   0.3430 
 20 C       -2.5930    -2.8740    -1.4330 C.3   1 <1>   0.1760 
 21 C        2.2630     3.6890    -0.8000 C.3   1 <1>   0.2630 
 22 O        4.9970     0.3640     0.7660 O.3   1 <1>  -0.5600 
 23 C       -3.7050    -3.4930    -0.5740 C.3   1 <1>  -0.2400 
 24 C       -1.5960    -3.9350    -1.9210 C.3   1 <1>  -0.2400 
 25 H        1.9980     2.4920     2.0880 H     1 <1>   0.0800 
 26 H        2.9970     1.1200     2.3820 H     1 <1>   0.0800 
 27 H        2.8050    -0.8490     1.0310 H     1 <1>   0.0800 
 28 H        1.5620    -0.9660    -0.1670 H     1 <1>   0.0800 
 29 H        3.7910     3.3930     1.2310 H     1 <1>   0.0800 
 30 H        3.0860    -0.6270    -1.6730 H     1 <1>   0.0800 
 31 H       -0.6960     2.2540    -0.5650 H     1 <1>   0.0800 
 32 H       -2.2150     2.2230     0.3100 H     1 <1>   0.0800 
 33 H       -2.2030     2.0470    -1.4260 H     1 <1>   0.0800 
 34 H       -0.0310    -2.6420     1.9590 H     1 <1>   0.0800 
 35 H        0.1660    -3.4400     0.4290 H     1 <1>   0.0800 
 36 H       -1.3330    -3.5800     1.3210 H     1 <1>   0.0800 
 37 H        4.1930     3.0440    -1.1230 H     1 <1>   0.4500 
 38 H        5.3750     1.8930     1.9690 H     1 <1>   0.0800 
 39 H        5.7850     2.1640     0.3000 H     1 <1>   0.0800 
 40 H        5.4050     0.4030    -1.2150 H     1 <1>   0.0800 
 41 H        4.9910    -1.1430    -0.5210 H     1 <1>   0.0800 
 42 H        1.8720     1.4820    -1.6510 H     1 <1>   0.0800 
 43 H        3.3990     1.5180    -2.4680 H     1 <1>   0.0800 
 44 H       -3.0630    -2.4560    -2.3070 H     1 <1>   0.0800 
 45 H        1.3570     3.3210    -0.3440 H     1 <1>   0.0800 
 46 H        2.0600     3.9130    -1.8350 H     1 <1>   0.0800 
 47 H        2.5520     4.6000    -0.3010 H     1 <1>   0.0800 
 48 H       -3.3060    -3.9730     0.2990 H     1 <1>   0.0800 
 49 H       -4.2430    -4.2260    -1.1470 H     1 <1>   0.0800 
 50 H       -4.3980    -2.7280    -0.2710 H     1 <1>   0.0800 
 51 H       -1.2040    -4.5100    -1.1050 H     1 <1>   0.0800 
 52 H       -0.7900    -3.4660    -2.4570 H     1 <1>   0.0800 
 53 H       -2.0950    -4.6130    -2.5910 H     1 <1>   0.0800 
@<TRIPOS>BOND
  1   1   2  2   
  2   1   3  2   
  3   1   4  am  
  4   1   5  1   
  5   4   6  1   
  6   4   7  1   
  7   5   8  1   
  8   5   9  2   
  9   6  10  1   
 10   6  25  1   
 11   6  26  1   
 12   7  11  1   
 13   7  27  1   
 14   7  28  1   
 15   8  12  2   
 16   8  13  1   
 17   9  14  1   
 18   9  15  1   
 19  10  16  1   
 20  10  17  1   
 21  10  29  1   
 22  11  18  1   
 23  11  19  1   
 24  11  30  1   
 25  12  14  1   
 26  13  31  1   
 27  13  32  1   
 28  13  33  1   
 29  14  20  1   
 30  15  34  1   
 31  15  35  1   
 32  15  36  1   
 33  16  19  1   
 34  16  21  1   
 35  16  37  1   
 36  17  22  1   
 37  17  38  1   
 38  17  39  1   
 39  18  22  1   
 40  18  40  1   
 41  18  41  1   
 42  19  42  1   
 43  19  43  1   
 44  20  23  1   
 45  20  24  1   
 46  20  44  1   
 47  21  45  1   
 48  21  46  1   
 49  21  47  1   
 50  23  48  1   
 51  23  49  1   
 52  23  50  1   
 53  24  51  1   
 54  24  52  1   
 55  24  53  1   
@<TRIPOS>SUBSTRUCTURE
  1 ****   4 GROUP 4 **** **** 0

# MOE 2024.06 (io_trps.svl 2023.06)
