@<TRIPOS>MOLECULE
NONAME
51 54 1 0 0 
SMALL
USER_CHARGES


@<TRIPOS>ATOM
  1 S       -0.2170     2.0920     2.3150 S.3   1 <1>  -0.0800 
  2 C       -1.0330     3.2070     1.2500 C.2   1 <1>  -0.1400 
  3 C       -1.2650     0.8180     1.7380 C.2   1 <1>   0.2280 
  4 C       -1.9940     2.5430     0.5880 C.2   1 <1>   0.0460 
  5 C       -0.5810     4.6540     1.2270 C.3   1 <1>   0.5230 
  6 N       -2.1110     1.1940     0.8640 N.2   1 <1>  -0.5650 
  7 C       -2.9710     3.0950    -0.4310 C.3   1 <1>  -0.0590 
  8 N        0.7410     4.7960     0.5610 N.4   1 <1>  -0.9590 
  9 C        1.8980     4.5360     1.4860 C.3   1 <1>   0.3430 
 10 C        0.8150     4.0780    -0.7480 C.3   1 <1>   0.3430 
 11 C        3.2250     5.1360     0.9640 C.3   1 <1>   0.2200 
 12 C        2.0450     4.4270    -1.6160 C.3   1 <1>  -0.0800 
 13 N        2.9440     6.2420    -0.0300 N.am  1 <1>  -0.6600 
 14 C        4.1700     4.0450     0.4350 C.3   1 <1>   0.1200 
 15 C        3.1190     3.3320    -1.5470 C.3   1 <1>   0.1200 
 16 C        2.6380     5.8430    -1.4460 C.3   1 <1>   0.1400 
 17 C        2.7500     7.5160     0.4670 C.2   1 <1>   0.5690 
 18 O        3.4590     3.0490    -0.2340 O.3   1 <1>  -0.5600 
 19 O        2.7970     7.7130     1.6580 O.2   1 <1>  -0.5700 
 20 C        2.4200     8.7260    -0.4200 C.3   1 <1>   0.2010 
 21 N        1.0460     9.2840    -0.1760 N.am  1 <1>  -0.4690 
 22 C       -0.0700     8.4590    -0.1890 C.2   1 <1>   0.8410 
 23 C        0.9030    10.6150     0.1300 C.2   1 <1>  -0.0410 
 24 O        0.0330     7.2740    -0.4660 O.2   1 <1>  -0.5700 
 25 N       -1.3140     8.9310     0.1180 N.2   1 <1>  -0.6610 
 26 C       -0.3350    11.0780     0.4190 C.2   1 <1>  -0.1360 
 27 C       -1.4230    10.1790     0.4010 C.2   1 <1>   0.3760 
 28 H       -1.1230    -0.1660     2.1510 H     1 <1>   0.1500 
 29 H       -0.5370     5.0410     2.2320 H     1 <1>   0.0800 
 30 H       -1.3080     5.2350     0.6830 H     1 <1>   0.0800 
 31 H       -2.8170     4.1450    -0.5950 H     1 <1>   0.0800 
 32 H       -3.9760     2.9430    -0.0810 H     1 <1>   0.0800 
 33 H       -2.8540     2.5730    -1.3640 H     1 <1>   0.0800 
 34 H        0.8110     5.8030     0.3140 H     1 <1>   0.4500 
 35 H        1.6920     4.9880     2.4420 H     1 <1>   0.0800 
 36 H        2.0200     3.4770     1.6450 H     1 <1>   0.0800 
 37 H        0.7960     3.0130    -0.5760 H     1 <1>   0.0800 
 38 H       -0.0680     4.3280    -1.3140 H     1 <1>   0.0800 
 39 H        3.7410     5.5600     1.8090 H     1 <1>   0.0800 
 40 H        1.6980     4.3860    -2.6330 H     1 <1>   0.0800 
 41 H        4.6480     3.5630     1.2710 H     1 <1>   0.0800 
 42 H        4.9380     4.4510    -0.2000 H     1 <1>   0.0800 
 43 H        4.0090     3.6050    -2.0910 H     1 <1>   0.0800 
 44 H        2.7370     2.4190    -1.9720 H     1 <1>   0.0800 
 45 H        1.9340     6.5340    -1.8730 H     1 <1>   0.0800 
 46 H        3.5430     5.9190    -2.0250 H     1 <1>   0.0800 
 47 H        2.5210     8.4860    -1.4600 H     1 <1>   0.0800 
 48 H        3.1480     9.4840    -0.1990 H     1 <1>   0.0800 
 49 H        1.7750    11.2500     0.1360 H     1 <1>   0.1500 
 50 H       -0.5220    12.1070     0.6680 H     1 <1>   0.1500 
 51 H       -2.3940    10.5760     0.6420 H     1 <1>   0.0600 
@<TRIPOS>BOND
  1   1   2  1   
  2   1   3  1   
  3   2   4  2   
  4   2   5  1   
  5   3   6  2   
  6   3  28  1   
  7   4   6  1   
  8   4   7  1   
  9   5   8  1   
 10   5  29  1   
 11   5  30  1   
 12   7  31  1   
 13   7  32  1   
 14   7  33  1   
 15   8   9  1   
 16   8  10  1   
 17   8  34  1   
 18   9  11  1   
 19   9  35  1   
 20   9  36  1   
 21  10  12  1   
 22  10  37  1   
 23  10  38  1   
 24  11  13  1   
 25  11  14  1   
 26  11  39  1   
 27  12  15  1   
 28  12  16  1   
 29  12  40  1   
 30  13  16  1   
 31  13  17  am  
 32  14  18  1   
 33  14  41  1   
 34  14  42  1   
 35  15  18  1   
 36  15  43  1   
 37  15  44  1   
 38  16  45  1   
 39  16  46  1   
 40  17  19  2   
 41  17  20  1   
 42  20  21  1   
 43  20  47  1   
 44  20  48  1   
 45  21  22  am  
 46  21  23  1   
 47  22  24  2   
 48  22  25  1   
 49  23  26  2   
 50  23  49  1   
 51  25  27  2   
 52  26  27  1   
 53  26  50  1   
 54  27  51  1   
@<TRIPOS>SUBSTRUCTURE
  1 ****   8 GROUP 4 **** **** 0

# MOE 2024.06 (io_trps.svl 2023.06)
