@<TRIPOS>MOLECULE
NONAME
41 44 1 0 0 
SMALL
USER_CHARGES


@<TRIPOS>ATOM
  1 S        0.5640    -0.2820     0.4070 S.3   1 <1>  -0.0800 
  2 C        0.1900    -1.9130    -0.1510 C.ar  1 <1>   0.2970 
  3 C       -0.9570    -0.1850     1.3020 C.2   1 <1>  -0.1100 
  4 N        0.9880    -2.6200    -0.9230 N.ar  1 <1>  -0.5670 
  5 C       -1.0290    -2.3130     0.3340 C.ar  1 <1>   0.0000 
  6 C       -1.6630    -1.3210     1.1600 C.2   1 <1>  -0.1500 
  7 C        0.4890    -3.8090    -1.2060 C.ar  1 <1>   0.4700 
  8 C       -1.4300    -3.5900    -0.0510 C.ar  1 <1>   0.4100 
  9 N       -0.6660    -4.3430    -0.8250 N.ar  1 <1>  -0.6200 
 10 N       -2.6490    -4.0930     0.3360 N.pl3 1 <1>  -0.8380 
 11 C       -3.8430    -3.7190    -0.4720 C.3   1 <1>   0.2090 
 12 C       -2.7800    -5.5210     0.7180 C.3   1 <1>   0.2090 
 13 C       -4.6840    -4.9960    -0.6390 C.3   1 <1>   0.2000 
 14 C       -3.6960    -6.1250    -0.3440 C.3   1 <1>  -0.0800 
 15 O       -5.7110    -5.0330     0.3150 O.3   1 <1>  -0.5600 
 16 C       -4.3360    -7.4580     0.0810 C.3   1 <1>   0.0200 
 17 C       -6.8760    -4.3580    -0.0410 C.3   1 <1>   0.0400 
 18 C       -3.3250    -8.5880     0.1930 C.2   1 <1>  -0.0400 
 19 O       -3.7150    -9.7380     0.6750 O.3   1 <1>  -0.0190 
 20 C       -2.0220    -8.6950    -0.1140 C.2   1 <1>  -0.1500 
 21 N       -2.7450   -10.6060     0.7090 N.2   1 <1>  -0.4100 
 22 C       -1.7120   -10.0050     0.2400 C.2   1 <1>   0.1080 
 23 C       -0.3490   -10.6430     0.0950 C.3   1 <1>  -0.0590 
 24 H       -1.1500     0.7250     1.8430 H     1 <1>   0.1500 
 25 H       -2.6210    -1.5320     1.6040 H     1 <1>   0.1500 
 26 H        1.1030    -4.4330    -1.8340 H     1 <1>   0.1500 
 27 H       -4.4000    -2.9430     0.0220 H     1 <1>   0.0800 
 28 H       -3.5200    -3.3700    -1.4380 H     1 <1>   0.0800 
 29 H       -1.8240    -6.0140     0.7570 H     1 <1>   0.0800 
 30 H       -3.2440    -5.5770     1.6880 H     1 <1>   0.0800 
 31 H       -5.1090    -5.0850    -1.6230 H     1 <1>   0.0800 
 32 H       -3.1070    -6.2840    -1.2300 H     1 <1>   0.0800 
 33 H       -5.0820    -7.7410    -0.6390 H     1 <1>   0.0800 
 34 H       -4.8270    -7.3400     1.0310 H     1 <1>   0.0800 
 35 H       -7.5760    -4.4530     0.7710 H     1 <1>   0.0800 
 36 H       -7.2900    -4.8060    -0.9270 H     1 <1>   0.0800 
 37 H       -6.6560    -3.3180    -0.2070 H     1 <1>   0.0800 
 38 H       -1.3440    -7.9750    -0.5340 H     1 <1>   0.1500 
 39 H       -0.0600   -10.6550    -0.9390 H     1 <1>   0.0800 
 40 H       -0.3760   -11.6530     0.4620 H     1 <1>   0.0800 
 41 H        0.3750   -10.0870     0.6610 H     1 <1>   0.0800 
@<TRIPOS>BOND
  1   1   2  1   
  2   1   3  1   
  3   2   4  ar  
  4   2   5  ar  
  5   3   6  2   
  6   3  24  1   
  7   4   7  ar  
  8   5   6  1   
  9   5   8  ar  
 10   6  25  1   
 11   7   9  ar  
 12   7  26  1   
 13   8   9  ar  
 14   8  10  1   
 15  10  11  1   
 16  10  12  1   
 17  11  13  1   
 18  11  27  1   
 19  11  28  1   
 20  12  14  1   
 21  12  29  1   
 22  12  30  1   
 23  13  14  1   
 24  13  15  1   
 25  13  31  1   
 26  14  16  1   
 27  14  32  1   
 28  15  17  1   
 29  16  18  1   
 30  16  33  1   
 31  16  34  1   
 32  17  35  1   
 33  17  36  1   
 34  17  37  1   
 35  18  19  1   
 36  18  20  2   
 37  19  21  1   
 38  20  22  1   
 39  20  38  1   
 40  21  22  2   
 41  22  23  1   
 42  23  39  1   
 43  23  40  1   
 44  23  41  1   
@<TRIPOS>SUBSTRUCTURE
  1 ****  12 GROUP 4 **** **** 0

# MOE 2024.06 (io_trps.svl 2023.06)
