@<TRIPOS>MOLECULE
NONAME
41 43 1 0 0 
SMALL
USER_CHARGES


@<TRIPOS>ATOM
  1 O       -0.3100     0.0170     0.5100 O.2   1 <1>  -0.5700 
  2 C       -1.3590     0.6260     0.6150 C.2   1 <1>   0.7160 
  3 N       -2.5400    -0.0750     0.5220 N.am  1 <1>  -0.6600 
  4 C       -1.3570     2.0550     0.8170 C.2   1 <1>  -0.0860 
  5 C       -3.8510     0.5390     0.1900 C.3   1 <1>   0.1400 
  6 C       -2.5710    -1.5380     0.2730 C.3   1 <1>   0.1400 
  7 C       -0.6540     3.0580     0.2140 C.2   1 <1>  -0.3320 
  8 C       -2.1380     2.7360     1.7520 C.2   1 <1>   0.1390 
  9 C       -4.6680    -0.5930    -0.4340 C.3   1 <1>   0.2000 
 10 C       -4.0510    -1.8850     0.0950 C.3   1 <1>  -0.0800 
 11 N       -1.0380     4.2180     0.7790 N.pl3 1 <1>   0.3140 
 12 C        0.3860     2.9420    -0.8910 C.3   1 <1>  -0.0600 
 13 N       -1.9650     4.0180     1.7280 N.2   1 <1>  -0.7070 
 14 O       -6.0040    -0.5220    -0.0720 O.3   1 <1>  -0.6800 
 15 C       -4.3140    -3.0860    -0.8290 C.3   1 <1>  -0.0170 
 16 C       -0.5540     5.5690     0.4670 C.3   1 <1>   0.0160 
 17 C       -3.7520    -4.3770    -0.2560 C.ar  1 <1>   0.1670 
 18 N       -2.4590    -4.5920    -0.4390 N.ar  1 <1>  -0.6200 
 19 C       -4.5890    -5.2620     0.4220 C.ar  1 <1>   0.1600 
 20 C       -2.0630    -5.7340     0.0960 C.ar  1 <1>   0.1600 
 21 N       -4.1950    -6.4040     0.9600 N.ar  1 <1>  -0.6200 
 22 C       -2.9020    -6.6110     0.7740 C.ar  1 <1>   0.1600 
 23 H       -4.3160     0.8910     1.0940 H     1 <1>   0.0800 
 24 H       -3.7270     1.3500    -0.5060 H     1 <1>   0.0800 
 25 H       -2.0140    -1.7550    -0.6250 H     1 <1>   0.0800 
 26 H       -2.1320    -2.0770     1.0960 H     1 <1>   0.0800 
 27 H       -2.8160     2.2480     2.4320 H     1 <1>   0.1500 
 28 H       -4.6030    -0.5380    -1.5080 H     1 <1>   0.0800 
 29 H       -4.4460    -2.0940     1.0740 H     1 <1>   0.0800 
 30 H        0.5110     1.9150    -1.1850 H     1 <1>   0.0800 
 31 H        1.3360     3.3090    -0.5460 H     1 <1>   0.0800 
 32 H        0.0810     3.5070    -1.7530 H     1 <1>   0.0800 
 33 H       -6.0980    -0.5470     0.9000 H     1 <1>   0.4000 
 34 H       -3.8720    -2.9110    -1.7950 H     1 <1>   0.0800 
 35 H       -5.3740    -3.1920    -0.9760 H     1 <1>   0.0800 
 36 H       -0.7560     5.7870    -0.5640 H     1 <1>   0.0800 
 37 H        0.5010     5.6170     0.6560 H     1 <1>   0.0800 
 38 H       -1.0640     6.2780     1.0920 H     1 <1>   0.0800 
 39 H       -5.6310    -5.0150     0.5250 H     1 <1>   0.1500 
 40 H       -1.0230    -5.9900    -0.0050 H     1 <1>   0.1500 
 41 H       -2.4870    -7.5180     1.1750 H     1 <1>   0.1500 
@<TRIPOS>BOND
  1   1   2  2   
  2   2   3  am  
  3   2   4  1   
  4   3   5  1   
  5   3   6  1   
  6   4   7  2   
  7   4   8  1   
  8   5   9  1   
  9   5  23  1   
 10   5  24  1   
 11   6  10  1   
 12   6  25  1   
 13   6  26  1   
 14   7  11  1   
 15   7  12  1   
 16   8  13  2   
 17   8  27  1   
 18   9  10  1   
 19   9  14  1   
 20   9  28  1   
 21  10  15  1   
 22  10  29  1   
 23  11  13  1   
 24  11  16  1   
 25  12  30  1   
 26  12  31  1   
 27  12  32  1   
 28  14  33  1   
 29  15  17  1   
 30  15  34  1   
 31  15  35  1   
 32  16  36  1   
 33  16  37  1   
 34  16  38  1   
 35  17  18  ar  
 36  17  19  ar  
 37  18  20  ar  
 38  19  21  ar  
 39  19  39  1   
 40  20  22  ar  
 41  20  40  1   
 42  21  22  ar  
 43  22  41  1   
@<TRIPOS>SUBSTRUCTURE
  1 ****   3 GROUP 4 **** **** 0

# MOE 2024.06 (io_trps.svl 2023.06)
