@<TRIPOS>MOLECULE
NONAME
55 59 1 0 0 
SMALL
USER_CHARGES


@<TRIPOS>ATOM
  1 O       -1.4810     0.4530    -0.7640 O.2   1 <1>  -0.5700 
  2 C       -1.7050     0.5840     0.4300 C.2   1 <1>   0.7160 
  3 N       -2.2640    -0.4510     1.1170 N.am  1 <1>  -0.7300 
  4 C       -1.3830     1.8260     1.1160 C.2   1 <1>   0.2030 
  5 C       -2.6270    -1.7840     0.5860 C.3   1 <1>   0.2200 
  6 N       -1.6250     2.0920     2.3880 N.2   1 <1>  -0.7070 
  7 C       -0.7610     2.9290     0.5170 C.2   1 <1>  -0.1810 
  8 C       -4.1340    -1.9580     0.6610 C.3   1 <1>  -0.0800 
  9 C       -2.1270    -2.8760     1.5320 C.3   1 <1>   0.1200 
 10 N       -1.1660     3.3360     2.6020 N.pl3 1 <1>   0.3000 
 11 C       -0.6350     3.8580     1.4770 C.2   1 <1>  -0.3320 
 12 C       -0.2980     3.0870    -0.9160 C.3   1 <1>   0.5240 
 13 C       -4.3140    -2.4240     2.1070 C.3   1 <1>   0.1200 
 14 C       -4.6330    -3.0080    -0.3530 C.3   1 <1>  -0.0170 
 15 O       -3.1620    -3.1380     2.4370 O.3   1 <1>  -0.5600 
 16 C        0.0000     5.2180     1.2520 C.3   1 <1>   0.0200 
 17 N       -0.1280     4.5550    -1.1880 N.4   1 <1>  -0.9590 
 18 C       -6.1480    -3.1820    -0.2880 C.ar  1 <1>  -0.1430 
 19 C        0.6980     5.2390    -0.1260 C.3   1 <1>   0.3430 
 20 C        0.4180     4.7850    -2.5580 C.3   1 <1>   0.2630 
 21 C       -7.0480    -2.2450    -0.8490 C.ar  1 <1>   0.0000 
 22 C       -6.6810    -4.2750     0.3310 C.ar  1 <1>  -0.1500 
 23 C       -8.4340    -2.4990    -0.7070 C.ar  1 <1>   0.3100 
 24 C       -6.6570    -1.0760    -1.5430 C.ar  1 <1>  -0.1500 
 25 C       -8.0690    -4.4340     0.4100 C.ar  1 <1>   0.1600 
 26 N       -8.9270    -3.5940    -0.0760 N.ar  1 <1>  -0.6200 
 27 C       -9.3520    -1.5820    -1.2430 C.ar  1 <1>  -0.1500 
 28 C       -7.5780    -0.2030    -2.0560 C.ar  1 <1>  -0.1500 
 29 C       -8.9430    -0.4550    -1.9040 C.ar  1 <1>  -0.1500 
 30 H       -2.4210    -0.3020     2.1190 H     1 <1>   0.3700 
 31 H       -2.2370    -1.9080    -0.4100 H     1 <1>   0.0800 
 32 H       -4.6470    -1.0280     0.4940 H     1 <1>   0.0800 
 33 H       -1.2440    -2.5820     2.0730 H     1 <1>   0.0800 
 34 H       -1.9350    -3.7860     0.9920 H     1 <1>   0.0800 
 35 H       -1.2290     3.7930     3.5230 H     1 <1>   0.2700 
 36 H       -1.0290     2.6650    -1.5860 H     1 <1>   0.0800 
 37 H        0.6350     2.5650    -1.0520 H     1 <1>   0.0800 
 38 H       -5.1760    -3.0510     2.2530 H     1 <1>   0.0800 
 39 H       -4.3740    -1.5790     2.7720 H     1 <1>   0.0800 
 40 H       -4.1590    -3.9530    -0.1560 H     1 <1>   0.0800 
 41 H       -4.3510    -2.7210    -1.3510 H     1 <1>   0.0800 
 42 H       -0.7550     5.9840     1.2900 H     1 <1>   0.0800 
 43 H        0.7250     5.4260     2.0200 H     1 <1>   0.0800 
 44 H       -1.0770     4.9480    -1.1260 H     1 <1>   0.4500 
 45 H        1.6460     4.7330    -0.0400 H     1 <1>   0.0800 
 46 H        0.8910     6.2620    -0.4060 H     1 <1>   0.0800 
 47 H        1.4080     4.3660    -2.6430 H     1 <1>   0.0800 
 48 H        0.4730     5.8410    -2.7670 H     1 <1>   0.0800 
 49 H       -0.2160     4.3230    -3.2970 H     1 <1>   0.0800 
 50 H       -6.0590    -5.0310     0.7760 H     1 <1>   0.1500 
 51 H       -5.6140    -0.8630    -1.6750 H     1 <1>   0.1500 
 52 H       -8.4470    -5.3110     0.9100 H     1 <1>   0.1500 
 53 H      -10.3960    -1.7980    -1.1160 H     1 <1>   0.1500 
 54 H       -7.2660     0.6840    -2.5800 H     1 <1>   0.1500 
 55 H       -9.6590     0.2380    -2.3110 H     1 <1>   0.1500 
@<TRIPOS>BOND
  1   1   2  2   
  2   2   3  am  
  3   2   4  1   
  4   3   5  1   
  5   3  30  1   
  6   4   6  2   
  7   4   7  1   
  8   5   8  1   
  9   5   9  1   
 10   5  31  1   
 11   6  10  1   
 12   7  11  2   
 13   7  12  1   
 14   8  13  1   
 15   8  14  1   
 16   8  32  1   
 17   9  15  1   
 18   9  33  1   
 19   9  34  1   
 20  10  11  1   
 21  10  35  1   
 22  11  16  1   
 23  12  17  1   
 24  12  36  1   
 25  12  37  1   
 26  13  15  1   
 27  13  38  1   
 28  13  39  1   
 29  14  18  1   
 30  14  40  1   
 31  14  41  1   
 32  16  19  1   
 33  16  42  1   
 34  16  43  1   
 35  17  19  1   
 36  17  20  1   
 37  17  44  1   
 38  18  21  ar  
 39  18  22  ar  
 40  19  45  1   
 41  19  46  1   
 42  20  47  1   
 43  20  48  1   
 44  20  49  1   
 45  21  23  ar  
 46  21  24  ar  
 47  22  25  ar  
 48  22  50  1   
 49  23  26  ar  
 50  23  27  ar  
 51  24  28  ar  
 52  24  51  1   
 53  25  26  ar  
 54  25  52  1   
 55  27  29  ar  
 56  27  53  1   
 57  28  29  ar  
 58  28  54  1   
 59  29  55  1   
@<TRIPOS>SUBSTRUCTURE
  1 ****   3 GROUP 4 **** **** 0

# MOE 2024.06 (io_trps.svl 2023.06)
