@<TRIPOS>MOLECULE
NONAME
37 39 1 0 0 
SMALL
USER_CHARGES


@<TRIPOS>ATOM
  1 F       -0.4980     0.3440    -0.1090 F     1 <1>  -0.3400 
  2 C       -1.7110    -0.2000    -0.0290 C.3   1 <1>   1.1640 
  3 F       -2.4110     0.3410    -1.0220 F     1 <1>  -0.3400 
  4 F       -2.2390     0.2680     1.0980 F     1 <1>  -0.3400 
  5 C       -1.6820    -1.7510    -0.0850 C.ar  1 <1>   0.1660 
  6 N       -2.8180    -2.4310    -0.0280 N.ar  1 <1>  -0.6200 
  7 C       -0.4810    -2.4270    -0.1950 C.ar  1 <1>  -0.1500 
  8 C       -2.7420    -3.7570    -0.0780 C.ar  1 <1>   0.7200 
  9 C       -0.5110    -3.7990    -0.2400 C.ar  1 <1>   0.1600 
 10 N       -1.6280    -4.4730    -0.1840 N.ar  1 <1>  -0.6200 
 11 N       -3.9250    -4.4460    -0.0110 N.pl3 1 <1>  -0.8380 
 12 C       -5.2560    -3.8040    -0.1280 C.3   1 <1>   0.2090 
 13 C       -4.0250    -5.9100    -0.2120 C.3   1 <1>   0.2090 
 14 C       -6.2270    -4.9510    -0.4230 C.3   1 <1>   0.2000 
 15 C       -5.5050    -6.2300     0.0010 C.3   1 <1>  -0.0800 
 16 O       -7.4120    -4.8270     0.2890 O.3   1 <1>  -0.6800 
 17 C       -6.0000    -7.4690    -0.7630 C.3   1 <1>  -0.0170 
 18 C       -5.2980    -8.7360    -0.3010 C.ar  1 <1>   0.1670 
 19 N       -4.1060    -8.9760    -0.8240 N.ar  1 <1>  -0.6200 
 20 C       -5.9120    -9.5740     0.6290 C.ar  1 <1>   0.1600 
 21 C       -3.5750   -10.0940    -0.3590 C.ar  1 <1>   0.1600 
 22 N       -5.3830   -10.6940     1.0940 N.ar  1 <1>  -0.6200 
 23 C       -4.1920   -10.9250     0.5680 C.ar  1 <1>   0.1600 
 24 H        0.4630    -1.9150    -0.2440 H     1 <1>   0.1500 
 25 H        0.4080    -4.3550    -0.3260 H     1 <1>   0.1500 
 26 H       -5.4950    -3.3150     0.8010 H     1 <1>   0.0800 
 27 H       -5.2580    -3.0880    -0.9320 H     1 <1>   0.0800 
 28 H       -3.7160    -6.1520    -1.2150 H     1 <1>   0.0800 
 29 H       -3.4010    -6.4410     0.4890 H     1 <1>   0.0800 
 30 H       -6.4600    -4.9630    -1.4740 H     1 <1>   0.0800 
 31 H       -5.6410    -6.3820     1.0580 H     1 <1>   0.0800 
 32 H       -7.2220    -4.7520     1.2450 H     1 <1>   0.4000 
 33 H       -5.8330    -7.3420    -1.8180 H     1 <1>   0.0800 
 34 H       -7.0610    -7.5730    -0.6150 H     1 <1>   0.0800 
 35 H       -6.8840    -9.3060     1.0050 H     1 <1>   0.1500 
 36 H       -2.6030   -10.3670    -0.7300 H     1 <1>   0.1500 
 37 H       -3.6800   -11.8150     0.8860 H     1 <1>   0.1500 
@<TRIPOS>BOND
  1   1   2  1   
  2   2   3  1   
  3   2   4  1   
  4   2   5  1   
  5   5   6  ar  
  6   5   7  ar  
  7   6   8  ar  
  8   7   9  ar  
  9   7  24  1   
 10   8  10  ar  
 11   8  11  1   
 12   9  10  ar  
 13   9  25  1   
 14  11  12  1   
 15  11  13  1   
 16  12  14  1   
 17  12  26  1   
 18  12  27  1   
 19  13  15  1   
 20  13  28  1   
 21  13  29  1   
 22  14  15  1   
 23  14  16  1   
 24  14  30  1   
 25  15  17  1   
 26  15  31  1   
 27  16  32  1   
 28  17  18  1   
 29  17  33  1   
 30  17  34  1   
 31  18  19  ar  
 32  18  20  ar  
 33  19  21  ar  
 34  20  22  ar  
 35  20  35  1   
 36  21  23  ar  
 37  21  36  1   
 38  22  23  ar  
 39  23  37  1   
@<TRIPOS>SUBSTRUCTURE
  1 ****  11 GROUP 4 **** **** 0

# MOE 2024.06 (io_trps.svl 2023.06)
