@<TRIPOS>MOLECULE
NONAME
43 45 1 0 0 
SMALL
USER_CHARGES


@<TRIPOS>ATOM
  1 O        2.0620     1.1300    -2.1810 O.3   1 <1>  -0.0190 
  2 N        3.0610     1.7000    -1.5600 N.2   1 <1>  -0.4100 
  3 C        1.4480     0.4570    -1.2360 C.2   1 <1>   0.2980 
  4 C        2.9800     1.3420    -0.3410 C.2   1 <1>   0.5990 
  5 N        1.9620     0.5390    -0.0780 N.2   1 <1>  -0.5650 
  6 C        0.2110    -0.3440    -1.5980 C.3   1 <1>   0.0200 
  7 N        3.8570     1.7480     0.6510 N.pl3 1 <1>  -0.8210 
  8 C       -0.9590     0.5620    -2.0030 C.3   1 <1>  -0.2400 
  9 C        3.2100     2.4360     1.8100 C.3   1 <1>   0.2090 
 10 C        4.8740     0.7330     1.0160 C.3   1 <1>   0.2090 
 11 C        3.9840     3.7040     2.1930 C.3   1 <1>   0.0200 
 12 C        6.2050     1.1580     0.4090 C.3   1 <1>  -0.2400 
 13 C        3.9290     4.7820     1.1220 C.2   1 <1>   0.0060 
 14 N        3.7760     6.0360     1.3710 N.2   1 <1>  -0.5650 
 15 N        4.0410     4.4950    -0.1990 N.pl3 1 <1>   0.0330 
 16 C        3.7820     6.6300     0.1400 C.ar  1 <1>   0.2270 
 17 C        3.9430     5.6780    -0.8510 C.ar  1 <1>  -0.1520 
 18 C        3.6510     7.9800    -0.2050 C.ar  1 <1>  -0.1440 
 19 C        3.9720     6.0250    -2.2020 C.ar  1 <1>  -0.1500 
 20 C        3.6820     8.3280    -1.5400 C.ar  1 <1>  -0.1500 
 21 C        3.4780     9.0180     0.8900 C.3   1 <1>  -0.0970 
 22 C        3.8410     7.3540    -2.5350 C.ar  1 <1>  -0.1500 
 23 H       -0.0770    -0.9400    -0.7500 H     1 <1>   0.0800 
 24 H        0.4530    -1.0110    -2.4060 H     1 <1>   0.0800 
 25 H       -1.2060     1.2290    -1.1960 H     1 <1>   0.0800 
 26 H       -1.8240    -0.0330    -2.2380 H     1 <1>   0.0800 
 27 H       -0.6980     1.1480    -2.8680 H     1 <1>   0.0800 
 28 H        3.1600     1.7680     2.6530 H     1 <1>   0.0800 
 29 H        2.2000     2.7150     1.5560 H     1 <1>   0.0800 
 30 H        4.5900    -0.2340     0.6320 H     1 <1>   0.0800 
 31 H        4.9700     0.6540     2.0850 H     1 <1>   0.0800 
 32 H        5.0080     3.4570     2.3980 H     1 <1>   0.0800 
 33 H        3.5600     4.1060     3.0950 H     1 <1>   0.0800 
 34 H        6.1200     1.2130    -0.6620 H     1 <1>   0.0800 
 35 H        6.9640     0.4390     0.6560 H     1 <1>   0.0800 
 36 H        6.5010     2.1180     0.7920 H     1 <1>   0.0800 
 37 H        4.1110     3.5470    -0.5930 H     1 <1>   0.2700 
 38 H        4.0920     5.2640    -2.9520 H     1 <1>   0.1500 
 39 H        3.5840     9.3570    -1.8360 H     1 <1>   0.1500 
 40 H        2.5920     8.7980     1.4580 H     1 <1>   0.0800 
 41 H        3.3920    10.0070     0.4780 H     1 <1>   0.0800 
 42 H        4.3250     8.9880     1.5520 H     1 <1>   0.0800 
 43 H        3.8590     7.6580    -3.5670 H     1 <1>   0.1500 
@<TRIPOS>BOND
  1   1   2  1   
  2   1   3  1   
  3   2   4  2   
  4   3   5  2   
  5   3   6  1   
  6   4   5  1   
  7   4   7  1   
  8   6   8  1   
  9   6  23  1   
 10   6  24  1   
 11   7   9  1   
 12   7  10  1   
 13   8  25  1   
 14   8  26  1   
 15   8  27  1   
 16   9  11  1   
 17   9  28  1   
 18   9  29  1   
 19  10  12  1   
 20  10  30  1   
 21  10  31  1   
 22  11  13  1   
 23  11  32  1   
 24  11  33  1   
 25  12  34  1   
 26  12  35  1   
 27  12  36  1   
 28  13  14  2   
 29  13  15  1   
 30  14  16  1   
 31  15  17  1   
 32  15  37  1   
 33  16  17  ar  
 34  16  18  ar  
 35  17  19  ar  
 36  18  20  ar  
 37  18  21  1   
 38  19  22  ar  
 39  19  38  1   
 40  20  22  ar  
 41  20  39  1   
 42  21  40  1   
 43  21  41  1   
 44  21  42  1   
 45  22  43  1   
@<TRIPOS>SUBSTRUCTURE
  1 ****  15 GROUP 4 **** **** 0

# MOE 2024.06 (io_trps.svl 2023.06)
