@<TRIPOS>MOLECULE
NONAME
49 51 1 0 0 
SMALL
USER_CHARGES


@<TRIPOS>ATOM
  1 S       -0.9020     0.6270     1.0530 S.o2  1 <1>   1.4470 
  2 O       -1.6590     1.8180     1.3820 O.2   1 <1>  -0.6500 
  3 O       -0.7710    -0.4010     2.0640 O.2   1 <1>  -0.6500 
  4 N       -1.6280    -0.0730    -0.3120 N.am  1 <1>  -0.8490 
  5 C        0.7590     1.1050     0.4660 C.ar  1 <1>  -0.0090 
  6 C       -0.9640    -1.2920    -0.8280 C.3   1 <1>   0.1960 
  7 C       -3.0840    -0.1780    -0.2640 C.3   1 <1>   0.1960 
  8 C        0.9840     1.9840    -0.5990 C.ar  1 <1>  -0.1440 
  9 C        1.8750     0.5650     1.0990 C.ar  1 <1>  -0.1500 
 10 C       -1.7640    -2.6140    -0.6840 C.3   1 <1>  -0.1060 
 11 C       -3.5360    -1.3070     0.6680 C.3   1 <1>  -0.1600 
 12 C        2.2780     2.2890    -0.9950 C.ar  1 <1>  -0.1500 
 13 C       -0.1670     2.6290    -1.3630 C.3   1 <1>  -0.0970 
 14 C        3.1630     0.8710     0.7020 C.ar  1 <1>  -0.1500 
 15 C       -2.6420    -2.7960    -1.9320 C.2   1 <1>   0.9060 
 16 C       -2.6170    -2.5380     0.6080 C.3   1 <1>   0.2000 
 17 C       -0.7900    -3.8270    -0.6580 C.3   1 <1>  -0.0650 
 18 C        3.3720     1.7370    -0.3530 C.ar  1 <1>  -0.1440 
 19 O       -2.1570    -2.5690    -3.0460 O.co2 1 <1>  -0.9000 
 20 O       -3.8090    -3.2050    -1.8210 O.co2 1 <1>  -0.9000 
 21 O       -3.4130    -3.6620     0.7130 O.3   1 <1>  -0.6800 
 22 C        0.2220    -3.8670     0.5030 C.3   1 <1>  -0.1950 
 23 C        4.7800     2.0830    -0.8000 C.3   1 <1>  -0.0970 
 24 C        1.5900    -3.2690     0.3920 C.3   1 <1>  -0.2000 
 25 C        1.4180    -4.7600     0.4020 C.3   1 <1>  -0.2000 
 26 H       -0.7160    -1.1270    -1.8620 H     1 <1>   0.0800 
 27 H       -0.0260    -1.3960    -0.3200 H     1 <1>   0.0800 
 28 H       -3.5170     0.7560     0.0500 H     1 <1>   0.0800 
 29 H       -3.4450    -0.3770    -1.2600 H     1 <1>   0.0800 
 30 H        1.7350    -0.1150     1.9230 H     1 <1>   0.1500 
 31 H       -4.5400    -1.5750     0.3890 H     1 <1>   0.0800 
 32 H       -3.5600    -0.9440     1.6780 H     1 <1>   0.0800 
 33 H        2.4410     2.9640    -1.8170 H     1 <1>   0.1500 
 34 H        0.1940     3.3530    -2.0690 H     1 <1>   0.0800 
 35 H       -0.8340     3.1330    -0.6870 H     1 <1>   0.0800 
 36 H       -0.7190     1.8820    -1.9060 H     1 <1>   0.0800 
 37 H        3.9980     0.4320     1.2190 H     1 <1>   0.1500 
 38 H       -1.9750    -2.5220     1.4700 H     1 <1>   0.0800 
 39 H       -1.3770    -4.7290    -0.6170 H     1 <1>   0.0800 
 40 H       -0.2540    -3.8550    -1.5920 H     1 <1>   0.0800 
 41 H       -3.8420    -3.7500    -0.1880 H     1 <1>   0.4000 
 42 H       -0.2570    -3.8530     1.4670 H     1 <1>   0.1000 
 43 H        5.4600     1.2860    -0.5560 H     1 <1>   0.0800 
 44 H        5.1070     2.9810    -0.3080 H     1 <1>   0.0800 
 45 H        4.8080     2.2380    -1.8640 H     1 <1>   0.0800 
 46 H        1.8870    -2.7970    -0.5290 H     1 <1>   0.1000 
 47 H        2.0010    -2.7810     1.2580 H     1 <1>   0.1000 
 48 H        1.7180    -5.3130     1.2750 H     1 <1>   0.1000 
 49 H        1.5830    -5.3060    -0.5100 H     1 <1>   0.1000 
@<TRIPOS>BOND
  1   1   2  2   
  2   1   3  2   
  3   1   4  am  
  4   1   5  1   
  5   4   6  1   
  6   4   7  1   
  7   5   8  ar  
  8   5   9  ar  
  9   6  10  1   
 10   6  26  1   
 11   6  27  1   
 12   7  11  1   
 13   7  28  1   
 14   7  29  1   
 15   8  12  ar  
 16   8  13  1   
 17   9  14  ar  
 18   9  30  1   
 19  10  15  1   
 20  10  16  1   
 21  10  17  1   
 22  11  16  1   
 23  11  31  1   
 24  11  32  1   
 25  12  18  ar  
 26  12  33  1   
 27  13  34  1   
 28  13  35  1   
 29  13  36  1   
 30  14  18  ar  
 31  14  37  1   
 32  15  19  ar  
 33  15  20  ar  
 34  16  21  1   
 35  16  38  1   
 36  17  22  1   
 37  17  39  1   
 38  17  40  1   
 39  18  23  1   
 40  21  41  1   
 41  22  24  1   
 42  22  25  1   
 43  22  42  1   
 44  23  43  1   
 45  23  44  1   
 46  23  45  1   
 47  24  25  1   
 48  24  46  1   
 49  24  47  1   
 50  25  48  1   
 51  25  49  1   
@<TRIPOS>SUBSTRUCTURE
  1 ****   6 GROUP 4 **** **** 0

# MOE 2024.06 (io_trps.svl 2023.06)
