@<TRIPOS>MOLECULE
NONAME
50 53 1 0 0 
SMALL
USER_CHARGES


@<TRIPOS>ATOM
  1 O        0.3880     0.3480    -2.0030 O.3   1 <1>  -0.0190 
  2 N        0.5930     1.5910    -1.6920 N.2   1 <1>  -0.4100 
  3 C        1.2960    -0.3060    -1.3260 C.2   1 <1>   0.2980 
  4 C        1.5790     1.6310    -0.8660 C.2   1 <1>   0.5150 
  5 N        2.0630     0.4110    -0.6110 N.2   1 <1>  -0.5650 
  6 C        1.3540    -1.8240    -1.4510 C.3   1 <1>   0.2900 
  7 C        2.1140     2.8380    -0.2740 C.2   1 <1>   0.1410 
  8 N        0.1660    -2.5080    -0.8860 N.3   1 <1>  -0.8100 
  9 O        3.1270     2.7980     0.5890 O.3   1 <1>  -0.2800 
 10 C        1.7440     4.1380    -0.4440 C.2   1 <1>  -0.1500 
 11 C        0.1720    -3.9490    -1.2370 C.3   1 <1>   0.1100 
 12 C        0.0040    -2.2660     0.5520 C.3   1 <1>   0.1100 
 13 C        3.4080     4.0280     0.9680 C.2   1 <1>  -0.0100 
 14 C        2.5850     4.9090     0.3630 C.2   1 <1>  -0.1500 
 15 C       -0.8640    -4.8130    -0.4580 C.3   1 <1>   0.0000 
 16 C       -1.3800    -2.7500     1.0050 C.3   1 <1>  -0.1600 
 17 C       -1.9470    -3.8510     0.0950 C.3   1 <1>   0.2000 
 18 C       -1.5630    -5.7760    -1.4500 C.3   1 <1>   0.1200 
 19 C       -0.2020    -5.6100     0.7140 C.3   1 <1>  -0.0160 
 20 O       -2.9330    -4.5340     0.7940 O.3   1 <1>  -0.6800 
 21 O       -0.6400    -6.4750    -2.2200 O.3   1 <1>  -0.6800 
 22 C        0.8330    -6.6630     0.3260 C.ar  1 <1>  -0.1440 
 23 C        2.1760    -6.3330     0.2150 C.ar  1 <1>  -0.1500 
 24 C        0.4410    -7.9760     0.1020 C.ar  1 <1>  -0.1500 
 25 C        3.1080    -7.2910    -0.1410 C.ar  1 <1>  -0.1500 
 26 C        1.3710    -8.9350    -0.2550 C.ar  1 <1>  -0.1500 
 27 C        2.7060    -8.5930    -0.3800 C.ar  1 <1>  -0.1500 
 28 H        2.2410    -2.1780    -0.9560 H     1 <1>   0.0800 
 29 H        1.4350    -2.0660    -2.4960 H     1 <1>   0.0800 
 30 H        0.9580     4.5150    -1.0740 H     1 <1>   0.1500 
 31 H       -0.0450    -4.0110    -2.2910 H     1 <1>   0.0800 
 32 H        1.1570    -4.3530    -1.1060 H     1 <1>   0.0800 
 33 H        0.7830    -2.7780     1.0920 H     1 <1>   0.0800 
 34 H        0.0880    -1.2150     0.7730 H     1 <1>   0.0800 
 35 H        4.2080     4.1850     1.6700 H     1 <1>   0.1500 
 36 H        2.5570     5.9800     0.4590 H     1 <1>   0.1500 
 37 H       -2.0560    -1.9140     0.9830 H     1 <1>   0.0800 
 38 H       -1.3040    -3.0860     2.0230 H     1 <1>   0.0800 
 39 H       -2.4310    -3.3750    -0.7430 H     1 <1>   0.0800 
 40 H       -2.1890    -5.2250    -2.1300 H     1 <1>   0.0800 
 41 H       -2.1770    -6.4890    -0.9260 H     1 <1>   0.0800 
 42 H        0.2680    -4.9310     1.4000 H     1 <1>   0.0800 
 43 H       -0.9700    -6.1140     1.2720 H     1 <1>   0.0800 
 44 H       -2.6230    -4.7540     1.6910 H     1 <1>   0.4000 
 45 H        0.0080    -6.9310    -1.6350 H     1 <1>   0.4000 
 46 H        2.5070    -5.3280     0.4090 H     1 <1>   0.1500 
 47 H       -0.5930    -8.2610     0.2020 H     1 <1>   0.1500 
 48 H        4.1470    -7.0270    -0.2300 H     1 <1>   0.1500 
 49 H        1.0580    -9.9490    -0.4340 H     1 <1>   0.1500 
 50 H        3.4300    -9.3390    -0.6590 H     1 <1>   0.1500 
@<TRIPOS>BOND
  1   1   2  1   
  2   1   3  1   
  3   2   4  2   
  4   3   5  2   
  5   3   6  1   
  6   4   5  1   
  7   4   7  1   
  8   6   8  1   
  9   6  28  1   
 10   6  29  1   
 11   7   9  1   
 12   7  10  2   
 13   8  11  1   
 14   8  12  1   
 15   9  13  1   
 16  10  14  1   
 17  10  30  1   
 18  11  15  1   
 19  11  31  1   
 20  11  32  1   
 21  12  16  1   
 22  12  33  1   
 23  12  34  1   
 24  13  14  2   
 25  13  35  1   
 26  14  36  1   
 27  15  17  1   
 28  15  18  1   
 29  15  19  1   
 30  16  17  1   
 31  16  37  1   
 32  16  38  1   
 33  17  20  1   
 34  17  39  1   
 35  18  21  1   
 36  18  40  1   
 37  18  41  1   
 38  19  22  1   
 39  19  42  1   
 40  19  43  1   
 41  20  44  1   
 42  21  45  1   
 43  22  23  ar  
 44  22  24  ar  
 45  23  25  ar  
 46  23  46  1   
 47  24  26  ar  
 48  24  47  1   
 49  25  27  ar  
 50  25  48  1   
 51  26  27  ar  
 52  26  49  1   
 53  27  50  1   
@<TRIPOS>SUBSTRUCTURE
  1 ****   8 GROUP 4 **** **** 0

# MOE 2024.06 (io_trps.svl 2023.06)
