@<TRIPOS>MOLECULE
NONAME
50 53 1 0 0 
SMALL
USER_CHARGES


@<TRIPOS>ATOM
  1 O       -2.5140    -1.4270    -3.2440 O.2   1 <1>  -0.5700 
  2 C       -2.5820    -1.5190    -2.0500 C.2   1 <1>   0.5690 
  3 N       -2.3790    -0.4420    -1.2720 N.am  1 <1>  -0.7300 
  4 C       -2.9400    -2.8390    -1.4250 C.3   1 <1>  -0.0190 
  5 C       -2.4380    -0.4200     0.2080 C.3   1 <1>   0.2200 
  6 C       -1.8130    -3.3590    -0.5040 C.3   1 <1>   0.1200 
  7 C       -4.3400    -2.7170    -0.8050 C.3   1 <1>   0.3430 
  8 C       -1.3880    -1.3930     0.8030 C.3   1 <1>   0.1200 
  9 C       -3.8890    -0.6930     0.6980 C.3   1 <1>   0.3430 
 10 O       -1.7960    -2.7380     0.7550 O.3   1 <1>  -0.5600 
 11 N       -4.3470    -2.1260     0.5790 N.4   1 <1>  -0.9590 
 12 C       -5.6170    -2.3870     1.3060 C.3   1 <1>   0.5240 
 13 C       -5.8280    -3.8830     1.3750 C.2   1 <1>  -0.1810 
 14 C       -5.0510    -4.7860     2.0910 C.2   1 <1>   0.1390 
 15 C       -6.7570    -4.6500     0.7630 C.2   1 <1>  -0.3020 
 16 N       -5.4480    -6.0030     1.9240 N.2   1 <1>  -0.7070 
 17 N       -6.5320    -5.9460     1.1070 N.pl3 1 <1>   0.5930 
 18 C       -7.2440    -7.0890     0.6430 C.ar  1 <1>  -0.0230 
 19 C       -8.6100    -7.0300     0.3820 C.ar  1 <1>  -0.1500 
 20 C       -6.5850    -8.2940     0.4320 C.ar  1 <1>  -0.1500 
 21 C       -9.3040    -8.1320    -0.0910 C.ar  1 <1>  -0.1440 
 22 C       -7.2690    -9.3990    -0.0390 C.ar  1 <1>  -0.1500 
 23 C       -8.6270    -9.3280    -0.3060 C.ar  1 <1>  -0.1440 
 24 C      -10.7970    -8.0100    -0.3610 C.3   1 <1>  -0.0970 
 25 C       -9.3420   -10.5670    -0.8250 C.3   1 <1>  -0.0970 
 26 H       -2.0820     0.4120    -1.7580 H     1 <1>   0.3700 
 27 H       -3.0200    -3.5360    -2.2400 H     1 <1>   0.0800 
 28 H       -2.1680     0.5760     0.5150 H     1 <1>   0.0800 
 29 H       -0.8480    -3.2310    -0.9680 H     1 <1>   0.0800 
 30 H       -1.9560    -4.4120    -0.3270 H     1 <1>   0.0800 
 31 H       -4.7540    -3.7110    -0.7630 H     1 <1>   0.0800 
 32 H       -4.9690    -2.1330    -1.4590 H     1 <1>   0.0800 
 33 H       -1.2360    -1.1560     1.8420 H     1 <1>   0.0800 
 34 H       -0.4400    -1.2930     0.3010 H     1 <1>   0.0800 
 35 H       -4.5610    -0.0490     0.1560 H     1 <1>   0.0800 
 36 H       -3.9350    -0.4080     1.7360 H     1 <1>   0.0800 
 37 H       -3.6040    -2.6700     1.0620 H     1 <1>   0.4500 
 38 H       -5.5660    -1.9880     2.3060 H     1 <1>   0.0800 
 39 H       -6.4430    -1.9250     0.7910 H     1 <1>   0.0800 
 40 H       -4.2070    -4.5320     2.7130 H     1 <1>   0.1500 
 41 H       -7.5600    -4.3780     0.1040 H     1 <1>   0.1500 
 42 H       -9.1430    -6.1120     0.5560 H     1 <1>   0.1500 
 43 H       -5.5310    -8.3710     0.6390 H     1 <1>   0.1500 
 44 H       -6.7330   -10.3190    -0.1940 H     1 <1>   0.1500 
 45 H      -11.1530    -7.0200    -0.1410 H     1 <1>   0.0800 
 46 H      -11.3400    -8.7060     0.2530 H     1 <1>   0.0800 
 47 H      -11.0040    -8.2210    -1.3950 H     1 <1>   0.0800 
 48 H       -8.6600   -11.3910    -0.9320 H     1 <1>   0.0800 
 49 H       -9.7790   -10.3650    -1.7860 H     1 <1>   0.0800 
 50 H      -10.1170   -10.8590    -0.1400 H     1 <1>   0.0800 
@<TRIPOS>BOND
  1   1   2  2   
  2   2   3  am  
  3   2   4  1   
  4   3   5  1   
  5   3  26  1   
  6   4   6  1   
  7   4   7  1   
  8   4  27  1   
  9   5   8  1   
 10   5   9  1   
 11   5  28  1   
 12   6  10  1   
 13   6  29  1   
 14   6  30  1   
 15   7  11  1   
 16   7  31  1   
 17   7  32  1   
 18   8  10  1   
 19   8  33  1   
 20   8  34  1   
 21   9  11  1   
 22   9  35  1   
 23   9  36  1   
 24  11  12  1   
 25  11  37  1   
 26  12  13  1   
 27  12  38  1   
 28  12  39  1   
 29  13  14  1   
 30  13  15  2   
 31  14  16  2   
 32  14  40  1   
 33  15  17  1   
 34  15  41  1   
 35  16  17  1   
 36  17  18  1   
 37  18  19  ar  
 38  18  20  ar  
 39  19  21  ar  
 40  19  42  1   
 41  20  22  ar  
 42  20  43  1   
 43  21  23  ar  
 44  21  24  1   
 45  22  23  ar  
 46  22  44  1   
 47  23  25  1   
 48  24  45  1   
 49  24  46  1   
 50  24  47  1   
 51  25  48  1   
 52  25  49  1   
 53  25  50  1   
@<TRIPOS>SUBSTRUCTURE
  1 ****  13 GROUP 4 **** **** 0

# MOE 2024.06 (io_trps.svl 2023.06)
