@<TRIPOS>MOLECULE
NONAME
56 58 1 0 0 
SMALL
USER_CHARGES


@<TRIPOS>ATOM
  1 O       -0.1380     0.3650     0.9320 O.2   1 <1>  -0.5700 
  2 C       -0.0990     1.4960     0.4340 C.2   1 <1>   0.3890 
  3 C       -1.2550     2.1130    -0.0650 C.3   1 <1>  -0.7150 
  4 C        1.1640     2.1910     0.4240 C.ar  1 <1>   0.0860 
  5 C       -1.2150     3.5000    -0.2900 C.2   1 <1>   0.5350 
  6 C       -2.4070     1.3520    -0.3330 C.2   1 <1>   0.5350 
  7 C        1.2020     3.5470     0.0640 C.ar  1 <1>   0.1170 
  8 C        2.3570     1.5440     0.7640 C.ar  1 <1>  -0.1500 
  9 O       -2.2490     4.1450    -0.4890 O.2   1 <1>  -0.5700 
 10 N       -0.0050     4.1950    -0.2780 N.am  1 <1>  -0.4770 
 11 O       -2.3720     0.2800    -0.9300 O.2   1 <1>  -0.5700 
 12 N       -3.6230     1.8650     0.0330 N.am  1 <1>  -0.5470 
 13 C        2.4440     4.1960     0.0710 C.ar  1 <1>  -0.1500 
 14 C        3.5670     2.2020     0.7600 C.ar  1 <1>  -0.1500 
 15 C       -0.0400     5.6270    -0.7210 C.3   1 <1>   0.1400 
 16 C       -4.9040     1.3210     0.0840 C.ar  1 <1>   0.1170 
 17 C        3.6080     3.5400     0.4110 C.ar  1 <1>  -0.1500 
 18 C       -0.4150     6.5910     0.4250 C.3   1 <1>  -0.0800 
 19 C       -6.0060     2.1650     0.0390 C.ar  1 <1>  -0.1500 
 20 C       -5.1360    -0.0440     0.2010 C.ar  1 <1>  -0.1500 
 21 C       -0.5370     8.0230    -0.1130 C.3   1 <1>  -0.2400 
 22 C        0.5790     6.5690     1.5960 C.3   1 <1>  -0.2400 
 23 C       -7.2920     1.6640     0.1030 C.ar  1 <1>  -0.1500 
 24 C       -6.4220    -0.5450     0.2650 C.ar  1 <1>  -0.1500 
 25 C       -7.5400     0.2920     0.2180 C.ar  1 <1>   0.0860 
 26 C       -8.8840    -0.2470     0.2880 C.2   1 <1>   0.6340 
 27 O       -9.1270    -1.4330     0.4000 O.2   1 <1>  -0.5700 
 28 O       -9.9100     0.6090     0.2290 O.3   1 <1>  -0.4300 
 29 C      -11.2480     0.1650     0.2900 C.3   1 <1>   0.1200 
 30 C      -12.1640     1.3860     0.1960 C.3   1 <1>  -0.1600 
 31 C      -13.6400     0.9800     0.2560 C.3   1 <1>  -0.2400 
 32 H        2.3150     0.5030     1.0340 H     1 <1>   0.1500 
 33 H       -3.5180     2.8780     0.1290 H     1 <1>   0.3700 
 34 H        2.5230     5.2320    -0.1830 H     1 <1>   0.1500 
 35 H        4.4690     1.6810     1.0250 H     1 <1>   0.1500 
 36 H       -0.7730     5.7210    -1.5030 H     1 <1>   0.0800 
 37 H        0.8920     5.9130    -1.1660 H     1 <1>   0.0800 
 38 H        4.5480     4.0630     0.4080 H     1 <1>   0.1500 
 39 H       -1.3820     6.2960     0.7970 H     1 <1>   0.0800 
 40 H       -5.8390     3.2240    -0.0520 H     1 <1>   0.1500 
 41 H       -4.2920    -0.7100     0.2430 H     1 <1>   0.1500 
 42 H        0.4050     8.3660    -0.5010 H     1 <1>   0.0800 
 43 H       -0.8520     8.6890     0.6710 H     1 <1>   0.0800 
 44 H       -1.2700     8.0600    -0.9000 H     1 <1>   0.0800 
 45 H        1.5600     6.8650     1.2740 H     1 <1>   0.0800 
 46 H        0.6340     5.5800     2.0180 H     1 <1>   0.0800 
 47 H        0.2540     7.2400     2.3710 H     1 <1>   0.0800 
 48 H       -8.1190     2.3510     0.0630 H     1 <1>   0.1500 
 49 H       -6.5640    -1.6090     0.3520 H     1 <1>   0.1500 
 50 H      -11.3910    -0.3550     1.2230 H     1 <1>   0.0800 
 51 H      -11.4190    -0.5120    -0.5300 H     1 <1>   0.0800 
 52 H      -11.9750     1.8990    -0.7320 H     1 <1>   0.0800 
 53 H      -11.9480     2.0550     1.0110 H     1 <1>   0.0800 
 54 H      -13.8840     0.3220    -0.5600 H     1 <1>   0.0800 
 55 H      -14.2650     1.8540     0.1870 H     1 <1>   0.0800 
 56 H      -13.8560     0.4780     1.1830 H     1 <1>   0.0800 
@<TRIPOS>BOND
  1   1   2  2   
  2   2   3  1   
  3   2   4  1   
  4   3   5  1   
  5   3   6  1   
  6   4   7  ar  
  7   4   8  ar  
  8   5   9  2   
  9   5  10  am  
 10   6  11  2   
 11   6  12  am  
 12   7  10  1   
 13   7  13  ar  
 14   8  14  ar  
 15   8  32  1   
 16  10  15  1   
 17  12  16  1   
 18  12  33  1   
 19  13  17  ar  
 20  13  34  1   
 21  14  17  ar  
 22  14  35  1   
 23  15  18  1   
 24  15  36  1   
 25  15  37  1   
 26  16  19  ar  
 27  16  20  ar  
 28  17  38  1   
 29  18  21  1   
 30  18  22  1   
 31  18  39  1   
 32  19  23  ar  
 33  19  40  1   
 34  20  24  ar  
 35  20  41  1   
 36  21  42  1   
 37  21  43  1   
 38  21  44  1   
 39  22  45  1   
 40  22  46  1   
 41  22  47  1   
 42  23  25  ar  
 43  23  48  1   
 44  24  25  ar  
 45  24  49  1   
 46  25  26  1   
 47  26  27  2   
 48  26  28  1   
 49  28  29  1   
 50  29  30  1   
 51  29  50  1   
 52  29  51  1   
 53  30  31  1   
 54  30  52  1   
 55  30  53  1   
 56  31  54  1   
 57  31  55  1   
 58  31  56  1   
@<TRIPOS>SUBSTRUCTURE
  1 ****  12 GROUP 4 **** **** 0

# MOE 2024.06 (io_trps.svl 2023.06)
