@<TRIPOS>MOLECULE
NONAME
45 47 1 0 0 
SMALL
USER_CHARGES


@<TRIPOS>ATOM
  1 S       -0.5160    -1.0270    -1.4590 S.3   1 <1>  -0.0800 
  2 C       -0.8370    -2.0200    -0.0440 C.2   1 <1>  -0.1400 
  3 C        1.0070    -0.4770    -0.7820 C.2   1 <1>  -0.1100 
  4 C        0.1660    -1.9080     0.8470 C.2   1 <1>  -0.1500 
  5 C       -2.1260    -2.8180    -0.0260 C.3   1 <1>   0.3200 
  6 C        1.2160    -1.0290     0.4270 C.2   1 <1>  -0.1500 
  7 N       -3.2500    -1.8760     0.0070 N.am  1 <1>  -0.7300 
  8 C       -4.4600    -2.1490     0.5410 C.2   1 <1>   0.6900 
  9 O       -4.6870    -3.2760     0.9440 O.2   1 <1>  -0.5700 
 10 N       -5.4060    -1.1610     0.6240 N.am  1 <1>  -0.6600 
 11 C       -6.7400    -1.4220     1.2380 C.3   1 <1>   0.1400 
 12 C       -5.3160     0.1690    -0.0360 C.3   1 <1>   0.1400 
 13 C       -7.8410    -1.4070     0.1620 C.3   1 <1>   0.0000 
 14 C       -6.3770     0.2690    -1.1370 C.3   1 <1>  -0.1600 
 15 C       -9.2150    -1.6760     0.8010 C.3   1 <1>   0.2000 
 16 C       -7.7880    -0.0570    -0.6100 C.3   1 <1>  -0.1600 
 17 C       -7.7250    -2.5980    -0.8060 C.3   1 <1>  -0.1600 
 18 O       -9.7530    -0.5270     1.3860 O.3   1 <1>  -0.5600 
 19 C      -10.0990    -2.2010    -0.3330 C.3   1 <1>  -0.1600 
 20 C       -9.1390    -2.8380    -1.3480 C.3   1 <1>  -0.1600 
 21 C      -10.8350    -0.7500     2.2330 C.3   1 <1>   0.0400 
 22 H        1.5900     0.2100    -1.3690 H     1 <1>   0.1500 
 23 H        0.2170    -2.4090     1.7980 H     1 <1>   0.1500 
 24 H       -2.1560    -3.4530     0.8430 H     1 <1>   0.0800 
 25 H       -2.1970    -3.4310    -0.9070 H     1 <1>   0.0800 
 26 H        2.0740    -0.8570     1.0530 H     1 <1>   0.1500 
 27 H       -3.0080    -0.9120    -0.1950 H     1 <1>   0.3700 
 28 H       -6.7420    -2.3670     1.7540 H     1 <1>   0.0800 
 29 H       -6.9440    -0.6560     1.9660 H     1 <1>   0.0800 
 30 H       -5.4890     0.9330     0.7030 H     1 <1>   0.0800 
 31 H       -4.3430     0.3320    -0.4610 H     1 <1>   0.0800 
 32 H       -6.3720     1.2650    -1.5410 H     1 <1>   0.0800 
 33 H       -6.1130    -0.4000    -1.9360 H     1 <1>   0.0800 
 34 H       -9.1080    -2.4370     1.5580 H     1 <1>   0.0800 
 35 H       -8.4870    -0.0610    -1.4270 H     1 <1>   0.0800 
 36 H       -8.0790     0.7380     0.0540 H     1 <1>   0.0800 
 37 H       -7.0130    -2.4380    -1.5950 H     1 <1>   0.0800 
 38 H       -7.4120    -3.4710    -0.2570 H     1 <1>   0.0800 
 39 H      -10.8050    -2.9230     0.0350 H     1 <1>   0.0800 
 40 H      -10.6220    -1.3830    -0.7980 H     1 <1>   0.0800 
 41 H       -9.3280    -3.8910    -1.4630 H     1 <1>   0.0800 
 42 H       -9.2530    -2.3570    -2.3050 H     1 <1>   0.0800 
 43 H      -11.1420     0.1980     2.6380 H     1 <1>   0.0800 
 44 H      -10.5330    -1.4040     3.0320 H     1 <1>   0.0800 
 45 H      -11.6460    -1.1820     1.6740 H     1 <1>   0.0800 
@<TRIPOS>BOND
  1   1   2  1   
  2   1   3  1   
  3   2   4  2   
  4   2   5  1   
  5   3   6  2   
  6   3  22  1   
  7   4   6  1   
  8   4  23  1   
  9   5   7  1   
 10   5  24  1   
 11   5  25  1   
 12   6  26  1   
 13   7   8  am  
 14   7  27  1   
 15   8   9  2   
 16   8  10  am  
 17  10  11  1   
 18  10  12  1   
 19  11  13  1   
 20  11  28  1   
 21  11  29  1   
 22  12  14  1   
 23  12  30  1   
 24  12  31  1   
 25  13  15  1   
 26  13  16  1   
 27  13  17  1   
 28  14  16  1   
 29  14  32  1   
 30  14  33  1   
 31  15  18  1   
 32  15  19  1   
 33  15  34  1   
 34  16  35  1   
 35  16  36  1   
 36  17  20  1   
 37  17  37  1   
 38  17  38  1   
 39  18  21  1   
 40  19  20  1   
 41  19  39  1   
 42  19  40  1   
 43  20  41  1   
 44  20  42  1   
 45  21  43  1   
 46  21  44  1   
 47  21  45  1   
@<TRIPOS>SUBSTRUCTURE
  1 ****  10 GROUP 4 **** **** 0

# MOE 2024.06 (io_trps.svl 2023.06)
