@<TRIPOS>MOLECULE
NONAME
53 55 1 0 0 
SMALL
USER_CHARGES


@<TRIPOS>ATOM
  1 S        1.1080     0.2050    -0.3380 S.o2  1 <1>   1.3330 
  2 O        1.2390     0.2160    -1.7760 O.2   1 <1>  -0.6500 
  3 O        2.2480     0.5730     0.4730 O.2   1 <1>  -0.6500 
  4 N        0.4980    -1.2880     0.1770 N.am  1 <1>  -0.8490 
  5 C       -0.1750     1.3760     0.0950 C.3   1 <1>  -0.0550 
  6 C        1.5610    -2.2250     0.5580 C.3   1 <1>   0.1160 
  7 C       -0.3930    -1.9230    -0.8010 C.3   1 <1>   0.1160 
  8 C        0.1710     2.8110    -0.3680 C.3   1 <1>  -0.0800 
  9 C       -0.8070     3.8990     0.0700 C.3   1 <1>   0.2000 
 10 C        1.5250     3.3240     0.1320 C.3   1 <1>   0.3430 
 11 O       -1.1710     3.7010     1.3980 O.3   1 <1>  -0.6800 
 12 C        0.0010     5.1980    -0.0500 C.3   1 <1>   0.3430 
 13 N        1.4490     4.8080     0.0500 N.4   1 <1>  -0.9590 
 14 C        2.1580     5.5040     1.1460 C.3   1 <1>   0.5230 
 15 C        2.2300     6.9500     0.7280 C.2   1 <1>  -0.3320 
 16 N        3.1510     7.4470    -0.1630 N.pl3 1 <1>   0.0480 
 17 C        1.4210     7.9530     1.1490 C.2   1 <1>  -0.1500 
 18 C        2.8900     8.7860    -0.3230 C.ar  1 <1>  -0.1520 
 19 C        4.3100     6.7680    -0.7830 C.3   1 <1>   0.0160 
 20 C        1.8160     9.1310     0.4890 C.ar  1 <1>   0.0000 
 21 C        3.5100     9.7540    -1.1200 C.ar  1 <1>  -0.1500 
 22 C        1.3510    10.4490     0.5120 C.ar  1 <1>  -0.1500 
 23 C        3.0410    11.0470    -1.0890 C.ar  1 <1>  -0.1500 
 24 C        1.9590    11.4020    -0.2730 C.ar  1 <1>  -0.1440 
 25 C        1.4800    12.8420    -0.2730 C.3   1 <1>  -0.0970 
 26 H       -1.1000     1.0770    -0.3600 H     1 <1>   0.0800 
 27 H       -0.3150     1.3480     1.1590 H     1 <1>   0.0800 
 28 H        1.1350    -3.1510     0.9080 H     1 <1>   0.0800 
 29 H        2.1540    -1.8090     1.3550 H     1 <1>   0.0800 
 30 H        2.2040    -2.4280    -0.2820 H     1 <1>   0.0800 
 31 H       -0.8130    -2.8250    -0.3880 H     1 <1>   0.0800 
 32 H        0.1480    -2.1700    -1.7010 H     1 <1>   0.0800 
 33 H       -1.2020    -1.2600    -1.0550 H     1 <1>   0.0800 
 34 H        0.2110     2.8090    -1.4450 H     1 <1>   0.0800 
 35 H       -1.7070     3.9230    -0.5210 H     1 <1>   0.0800 
 36 H        2.3380     2.9320    -0.4610 H     1 <1>   0.0800 
 37 H        1.6660     3.0150     1.1560 H     1 <1>   0.0800 
 38 H       -0.4130     3.6770     2.0110 H     1 <1>   0.4000 
 39 H       -0.2880     5.8990     0.7160 H     1 <1>   0.0800 
 40 H       -0.1810     5.6450    -1.0140 H     1 <1>   0.0800 
 41 H        1.9000     5.1330    -0.8140 H     1 <1>   0.4500 
 42 H        1.6100     5.4080     2.0690 H     1 <1>   0.0800 
 43 H        3.1500     5.1050     1.2820 H     1 <1>   0.0800 
 44 H        0.6060     7.9280     1.8520 H     1 <1>   0.1500 
 45 H        4.4060     5.7650    -0.4140 H     1 <1>   0.0800 
 46 H        5.2030     7.3170    -0.5430 H     1 <1>   0.0800 
 47 H        4.1830     6.7540    -1.8500 H     1 <1>   0.0800 
 48 H        4.3420     9.4920    -1.7480 H     1 <1>   0.1500 
 49 H        0.5210    10.6960     1.1490 H     1 <1>   0.1500 
 50 H        3.5080    11.8020    -1.6970 H     1 <1>   0.1500 
 51 H        2.2770    13.4920     0.0390 H     1 <1>   0.0800 
 52 H        0.6500    12.9710     0.3990 H     1 <1>   0.0800 
 53 H        1.1680    13.1230    -1.2620 H     1 <1>   0.0800 
@<TRIPOS>BOND
  1   1   2  2   
  2   1   3  2   
  3   1   4  am  
  4   1   5  1   
  5   4   6  1   
  6   4   7  1   
  7   5   8  1   
  8   5  26  1   
  9   5  27  1   
 10   6  28  1   
 11   6  29  1   
 12   6  30  1   
 13   7  31  1   
 14   7  32  1   
 15   7  33  1   
 16   8   9  1   
 17   8  10  1   
 18   8  34  1   
 19   9  11  1   
 20   9  12  1   
 21   9  35  1   
 22  10  13  1   
 23  10  36  1   
 24  10  37  1   
 25  11  38  1   
 26  12  13  1   
 27  12  39  1   
 28  12  40  1   
 29  13  14  1   
 30  13  41  1   
 31  14  15  1   
 32  14  42  1   
 33  14  43  1   
 34  15  16  1   
 35  15  17  2   
 36  16  18  1   
 37  16  19  1   
 38  17  20  1   
 39  17  44  1   
 40  18  20  ar  
 41  18  21  ar  
 42  19  45  1   
 43  19  46  1   
 44  19  47  1   
 45  20  22  ar  
 46  21  23  ar  
 47  21  48  1   
 48  22  24  ar  
 49  22  49  1   
 50  23  24  ar  
 51  23  50  1   
 52  24  25  1   
 53  25  51  1   
 54  25  52  1   
 55  25  53  1   
@<TRIPOS>SUBSTRUCTURE
  1 ****  13 GROUP 4 **** **** 0

# MOE 2024.06 (io_trps.svl 2023.06)
