@<TRIPOS>MOLECULE
NONAME
46 48 1 0 0 
SMALL
USER_CHARGES


@<TRIPOS>ATOM
  1 O       -0.0140     0.8190     0.8600 O.co2 1 <1>  -0.9000 
  2 C       -0.7570     1.6900     1.3480 C.2   1 <1>   0.9790 
  3 O       -0.7850     1.8220     2.5860 O.co2 1 <1>  -0.9000 
  4 C       -1.5770     2.5230     0.5130 C.ar  1 <1>  -0.1790 
  5 C       -1.0520     3.6600    -0.1170 C.ar  1 <1>   0.4100 
  6 C       -2.9120     2.2170     0.3070 C.ar  1 <1>  -0.1500 
  7 N       -1.7590     4.4500    -0.9210 N.ar  1 <1>  -0.6200 
  8 N        0.2580     4.0580     0.0380 N.pl3 1 <1>  -0.8380 
  9 C       -3.6440     3.0400    -0.5170 C.ar  1 <1>  -0.1500 
 10 C       -3.0240     4.1310    -1.1020 C.ar  1 <1>   0.1670 
 11 C        1.2490     3.4770    -0.9070 C.3   1 <1>   0.2090 
 12 C        0.7910     4.2890     1.4000 C.3   1 <1>   0.2090 
 13 C       -3.8050     5.0480    -2.0170 C.3   1 <1>  -0.0970 
 14 C        2.4270     4.4490    -1.0500 C.3   1 <1>   0.2000 
 15 C        1.9190     5.3140     1.2990 C.3   1 <1>  -0.1600 
 16 O        3.4220     3.8810    -1.8450 O.3   1 <1>  -0.6800 
 17 C        3.0070     4.8230     0.3350 C.3   1 <1>   0.2200 
 18 N        4.0380     5.8900     0.2270 N.am  1 <1>  -0.7300 
 19 C        5.3410     5.7150    -0.1390 C.2   1 <1>   0.5440 
 20 O        5.6970     4.6020    -0.4700 O.2   1 <1>  -0.5700 
 21 C        6.2720     6.8300    -0.1340 C.ar  1 <1>   0.0860 
 22 C        5.8560     8.1430    -0.3680 C.ar  1 <1>  -0.1500 
 23 C        7.6310     6.6230     0.1070 C.ar  1 <1>  -0.1500 
 24 C        6.7500     9.1980    -0.3460 C.ar  1 <1>  -0.1500 
 25 C        8.5300     7.6740     0.1300 C.ar  1 <1>  -0.1500 
 26 C        8.0900     8.9650    -0.0950 C.ar  1 <1>  -0.1500 
 27 H       -3.3450     1.3560     0.7850 H     1 <1>   0.1500 
 28 H       -4.6800     2.8320    -0.7000 H     1 <1>   0.1500 
 29 H        1.5880     2.5280    -0.5250 H     1 <1>   0.0800 
 30 H        0.7840     3.3230    -1.8650 H     1 <1>   0.0800 
 31 H        0.0040     4.6450     2.0430 H     1 <1>   0.0800 
 32 H        1.1720     3.3660     1.8070 H     1 <1>   0.0800 
 33 H       -4.8220     4.7190    -2.1220 H     1 <1>   0.0800 
 34 H       -3.3400     5.0630    -2.9860 H     1 <1>   0.0800 
 35 H       -3.7970     6.0430    -1.6130 H     1 <1>   0.0800 
 36 H        2.0770     5.3350    -1.5470 H     1 <1>   0.0800 
 37 H        2.3380     5.4610     2.2770 H     1 <1>   0.0800 
 38 H        1.4990     6.2400     0.9510 H     1 <1>   0.0800 
 39 H        4.3050     4.0970    -1.4480 H     1 <1>   0.4000 
 40 H        3.4540     3.9370     0.7580 H     1 <1>   0.0800 
 41 H        3.7180     6.8150     0.5090 H     1 <1>   0.3700 
 42 H        4.8210     8.3430    -0.5810 H     1 <1>   0.1500 
 43 H        7.9810     5.6200     0.2790 H     1 <1>   0.1500 
 44 H        6.4070    10.2020    -0.5280 H     1 <1>   0.1500 
 45 H        9.5730     7.4860     0.3210 H     1 <1>   0.1500 
 46 H        8.7880     9.7850    -0.0770 H     1 <1>   0.1500 
@<TRIPOS>BOND
  1   1   2  ar  
  2   2   3  ar  
  3   2   4  1   
  4   4   5  ar  
  5   4   6  ar  
  6   5   7  ar  
  7   5   8  1   
  8   6   9  ar  
  9   6  27  1   
 10   7  10  ar  
 11   8  11  1   
 12   8  12  1   
 13   9  10  ar  
 14   9  28  1   
 15  10  13  1   
 16  11  14  1   
 17  11  29  1   
 18  11  30  1   
 19  12  15  1   
 20  12  31  1   
 21  12  32  1   
 22  13  33  1   
 23  13  34  1   
 24  13  35  1   
 25  14  16  1   
 26  14  17  1   
 27  14  36  1   
 28  15  17  1   
 29  15  37  1   
 30  15  38  1   
 31  16  39  1   
 32  17  18  1   
 33  17  40  1   
 34  18  19  am  
 35  18  41  1   
 36  19  20  2   
 37  19  21  1   
 38  21  22  ar  
 39  21  23  ar  
 40  22  24  ar  
 41  22  42  1   
 42  23  25  ar  
 43  23  43  1   
 44  24  26  ar  
 45  24  44  1   
 46  25  26  ar  
 47  25  45  1   
 48  26  46  1   
@<TRIPOS>SUBSTRUCTURE
  1 ****  17 GROUP 4 **** **** 0

# MOE 2024.06 (io_trps.svl 2023.06)
