@<TRIPOS>MOLECULE
NONAME
51 53 1 0 0 
SMALL
USER_CHARGES


@<TRIPOS>ATOM
  1 CL       0.3060    -2.1000    -1.5960 Cl    1 <1>  -0.1770 
  2 C       -1.0960    -2.2170    -0.5600 C.ar  1 <1>   0.1770 
  3 C       -1.6700    -1.0920     0.0050 C.ar  1 <1>   0.1900 
  4 C       -1.6390    -3.4650    -0.3090 C.ar  1 <1>  -0.1500 
  5 F       -1.1640     0.0890    -0.2310 F     1 <1>  -0.1900 
  6 C       -2.7810    -1.1860     0.8230 C.ar  1 <1>  -0.1500 
  7 C       -2.7620    -3.5780     0.5040 C.ar  1 <1>  -0.1440 
  8 C       -3.3250    -2.4370     1.0710 C.ar  1 <1>  -0.1500 
  9 C       -3.3560    -4.9490     0.7600 C.3   1 <1>   0.4870 
 10 N       -4.1700    -5.3090    -0.4280 N.4   1 <1>  -0.9590 
 11 C       -4.2610    -6.7970    -0.5880 C.3   1 <1>   0.5660 
 12 C       -5.5220    -4.6610    -0.4060 C.3   1 <1>   0.3430 
 13 C       -2.8610    -7.2950    -0.9190 C.ar  1 <1>  -0.1430 
 14 C       -5.2920    -7.2490    -1.6580 C.3   1 <1>   0.2000 
 15 C       -6.4040    -5.1560    -1.5650 C.3   1 <1>   0.1200 
 16 C       -2.2300    -8.1590    -0.0340 C.ar  1 <1>  -0.1500 
 17 C       -2.1920    -6.8970    -2.0720 C.ar  1 <1>  -0.1500 
 18 O       -6.5060    -6.5480    -1.5240 O.3   1 <1>  -0.5600 
 19 C       -5.5790    -8.7530    -1.5210 C.3   1 <1>   0.1200 
 20 C       -0.9450    -8.6090    -0.2780 C.ar  1 <1>   0.0830 
 21 C       -0.9030    -7.3370    -2.3170 C.ar  1 <1>  -0.1500 
 22 O       -5.8010    -9.0780    -0.1840 O.3   1 <1>  -0.6800 
 23 O       -0.4110    -9.4620     0.6290 O.3   1 <1>  -0.3630 
 24 C       -0.2640    -8.1750    -1.4200 C.ar  1 <1>   0.0830 
 25 C       -0.0940   -10.7610     0.1750 C.3   1 <1>   0.0400 
 26 O        1.0100    -8.5350    -1.7060 O.3   1 <1>  -0.3630 
 27 C        2.0150    -8.0730    -0.8300 C.3   1 <1>   0.0400 
 28 H       -1.1680    -4.3280    -0.7490 H     1 <1>   0.1500 
 29 H       -3.2030    -0.2940     1.2540 H     1 <1>   0.1500 
 30 H       -4.1860    -2.5060     1.7160 H     1 <1>   0.1500 
 31 H       -3.9620    -4.9460     1.6520 H     1 <1>   0.0800 
 32 H       -2.5510    -5.6540     0.8970 H     1 <1>   0.0800 
 33 H       -3.6520    -4.9660    -1.2420 H     1 <1>   0.4500 
 34 H       -4.5670    -7.2260     0.3520 H     1 <1>   0.0800 
 35 H       -6.0240    -4.8930     0.5190 H     1 <1>   0.0800 
 36 H       -5.4180    -3.5900    -0.4700 H     1 <1>   0.0800 
 37 H       -4.9200    -7.0580    -2.6490 H     1 <1>   0.0800 
 38 H       -6.0050    -4.8600    -2.5210 H     1 <1>   0.0800 
 39 H       -7.3990    -4.7560    -1.4700 H     1 <1>   0.0800 
 40 H       -2.7260    -8.5050     0.8580 H     1 <1>   0.1500 
 41 H       -2.6510    -6.2460    -2.7960 H     1 <1>   0.1500 
 42 H       -4.7390    -9.3330    -1.8650 H     1 <1>   0.0800 
 43 H       -6.4510    -9.0190    -2.0940 H     1 <1>   0.0800 
 44 H       -0.3770    -7.0320    -3.2060 H     1 <1>   0.1500 
 45 H       -6.2140    -9.9650    -0.1090 H     1 <1>   0.4000 
 46 H        0.1940   -11.3520     1.0250 H     1 <1>   0.0800 
 47 H        0.7200   -10.7090    -0.5240 H     1 <1>   0.0800 
 48 H       -0.9620   -11.1890    -0.2940 H     1 <1>   0.0800 
 49 H        2.9680    -8.3750    -1.2240 H     1 <1>   0.0800 
 50 H        1.8700    -8.5060     0.1430 H     1 <1>   0.0800 
 51 H        1.9630    -7.0010    -0.7740 H     1 <1>   0.0800 
@<TRIPOS>BOND
  1   1   2  1   
  2   2   3  ar  
  3   2   4  ar  
  4   3   5  1   
  5   3   6  ar  
  6   4   7  ar  
  7   4  28  1   
  8   6   8  ar  
  9   6  29  1   
 10   7   8  ar  
 11   7   9  1   
 12   8  30  1   
 13   9  10  1   
 14   9  31  1   
 15   9  32  1   
 16  10  11  1   
 17  10  12  1   
 18  10  33  1   
 19  11  13  1   
 20  11  14  1   
 21  11  34  1   
 22  12  15  1   
 23  12  35  1   
 24  12  36  1   
 25  13  16  ar  
 26  13  17  ar  
 27  14  18  1   
 28  14  19  1   
 29  14  37  1   
 30  15  18  1   
 31  15  38  1   
 32  15  39  1   
 33  16  20  ar  
 34  16  40  1   
 35  17  21  ar  
 36  17  41  1   
 37  19  22  1   
 38  19  42  1   
 39  19  43  1   
 40  20  23  1   
 41  20  24  ar  
 42  21  24  ar  
 43  21  44  1   
 44  22  45  1   
 45  23  25  1   
 46  24  26  1   
 47  25  46  1   
 48  25  47  1   
 49  25  48  1   
 50  26  27  1   
 51  27  49  1   
 52  27  50  1   
 53  27  51  1   
@<TRIPOS>SUBSTRUCTURE
  1 ****  13 GROUP 4 **** **** 0

# MOE 2024.06 (io_trps.svl 2023.06)
