@<TRIPOS>MOLECULE
NONAME
36 38 1 0 0 
SMALL
USER_CHARGES


@<TRIPOS>ATOM
  1 CL      -1.2650    -0.4920     0.0460 Cl    1 <1>  -0.1770 
  2 C       -2.5190     0.7220     0.1720 C.ar  1 <1>   0.1770 
  3 C       -3.8100     0.3770     0.4850 C.ar  1 <1>   0.1600 
  4 C       -2.2450     2.0500    -0.0380 C.ar  1 <1>   0.1600 
  5 N       -4.7620     1.2790     0.5830 N.ar  1 <1>  -0.6200 
  6 N       -3.1790     2.9710     0.0530 N.ar  1 <1>  -0.6200 
  7 C       -4.4100     2.5500     0.3610 C.ar  1 <1>   0.7200 
  8 N       -5.3990     3.5070     0.4570 N.pl3 1 <1>  -0.8380 
  9 C       -6.7680     3.2190     0.9900 C.3   1 <1>   0.2090 
 10 C       -5.2260     4.9150     0.0020 C.3   1 <1>   0.2090 
 11 C       -7.8520     3.4910    -0.0820 C.3   1 <1>   0.0000 
 12 C       -6.2770     5.2440    -1.0640 C.3   1 <1>  -0.1600 
 13 C       -9.2750     3.2140     0.4450 C.3   1 <1>   0.2000 
 14 C       -7.7090     4.9450    -0.5860 C.3   1 <1>  -0.1600 
 15 C       -7.7430     2.4690    -1.2280 C.3   1 <1>  -0.1600 
 16 O       -9.4410     3.5550     1.7770 O.3   1 <1>  -0.6800 
 17 C       -9.5420     1.7190     0.2480 C.3   1 <1>  -0.1600 
 18 C       -8.4690     1.2190    -0.7270 C.3   1 <1>  -0.1600 
 19 H       -4.0590    -0.6550     0.6560 H     1 <1>   0.1500 
 20 H       -1.2440     2.3550    -0.2850 H     1 <1>   0.1500 
 21 H       -6.8480     2.2080     1.3460 H     1 <1>   0.0800 
 22 H       -6.9310     3.8660     1.8350 H     1 <1>   0.0800 
 23 H       -5.3470     5.5700     0.8480 H     1 <1>   0.0800 
 24 H       -4.2460     5.0850    -0.4070 H     1 <1>   0.0800 
 25 H       -6.1970     6.2840    -1.3250 H     1 <1>   0.0800 
 26 H       -6.0580     4.6710    -1.9480 H     1 <1>   0.0800 
 27 H       -9.9890     3.7810    -0.1290 H     1 <1>   0.0800 
 28 H       -8.4030     5.1320    -1.3870 H     1 <1>   0.0800 
 29 H       -7.9540     5.6150     0.2200 H     1 <1>   0.0800 
 30 H       -8.2560     2.8420    -2.0980 H     1 <1>   0.0800 
 31 H       -6.7250     2.2530    -1.5020 H     1 <1>   0.0800 
 32 H       -8.9790     2.9110     2.3450 H     1 <1>   0.4000 
 33 H       -9.4760     1.1730     1.1730 H     1 <1>   0.0800 
 34 H      -10.5210     1.5830    -0.1750 H     1 <1>   0.0800 
 35 H       -7.7690     0.5890    -0.2040 H     1 <1>   0.0800 
 36 H       -8.8950     0.6590    -1.5420 H     1 <1>   0.0800 
@<TRIPOS>BOND
  1   1   2  1   
  2   2   3  ar  
  3   2   4  ar  
  4   3   5  ar  
  5   3  19  1   
  6   4   6  ar  
  7   4  20  1   
  8   5   7  ar  
  9   6   7  ar  
 10   7   8  1   
 11   8   9  1   
 12   8  10  1   
 13   9  11  1   
 14   9  21  1   
 15   9  22  1   
 16  10  12  1   
 17  10  23  1   
 18  10  24  1   
 19  11  13  1   
 20  11  14  1   
 21  11  15  1   
 22  12  14  1   
 23  12  25  1   
 24  12  26  1   
 25  13  16  1   
 26  13  17  1   
 27  13  27  1   
 28  14  28  1   
 29  14  29  1   
 30  15  18  1   
 31  15  30  1   
 32  15  31  1   
 33  16  32  1   
 34  17  18  1   
 35  17  33  1   
 36  17  34  1   
 37  18  35  1   
 38  18  36  1   
@<TRIPOS>SUBSTRUCTURE
  1 ****   8 GROUP 4 **** **** 0

# MOE 2024.06 (io_trps.svl 2023.06)
