@<TRIPOS>MOLECULE
NONAME
55 57 1 0 0 
SMALL
USER_CHARGES


@<TRIPOS>ATOM
  1 O        3.7410    -1.0230    -1.7500 O.2   1 <1>  -0.5700 
  2 C        2.7490    -1.3090    -1.0990 C.2   1 <1>   0.5440 
  3 N        2.2630    -0.3120    -0.2910 N.am  1 <1>  -0.6600 
  4 C        2.1610    -2.6380    -1.1280 C.ar  1 <1>   0.0860 
  5 C        2.0450     1.0440    -0.9110 C.3   1 <1>   0.1400 
  6 C        2.8220    -0.2420     1.0970 C.3   1 <1>   0.1400 
  7 C        0.9850    -2.9390    -0.4440 C.ar  1 <1>  -0.1500 
  8 C        2.7550    -3.6750    -1.8480 C.ar  1 <1>  -0.1500 
  9 C        3.2080     2.0390    -0.6170 C.3   1 <1>   0.4230 
 10 C        4.1730     0.5230     1.1190 C.3   1 <1>   0.3430 
 11 C        0.4110    -4.1990    -0.4500 C.ar  1 <1>   0.1000 
 12 C        2.2070    -4.9440    -1.8770 C.ar  1 <1>  -0.1500 
 13 N        4.4100     1.2490    -0.1760 N.4   1 <1>  -0.9590 
 14 C        2.7490     3.1060     0.4050 C.3   1 <1>  -0.1600 
 15 N       -0.7720    -4.3540     0.2850 N.pl3 1 <1>  -0.8380 
 16 C        1.0340    -5.2240    -1.1840 C.ar  1 <1>   0.0830 
 17 C        5.7350     1.9250    -0.2840 C.3   1 <1>   0.2630 
 18 C        3.7740     4.1910     0.7690 C.3   1 <1>  -0.2400 
 19 C       -1.9970    -4.6220    -0.5270 C.3   1 <1>   0.2090 
 20 C       -0.7030    -5.2960     1.4420 C.3   1 <1>   0.2090 
 21 O        0.4650    -6.4640    -1.1960 O.3   1 <1>  -0.3620 
 22 C       -3.2540    -4.6240     0.3640 C.3   1 <1>   0.1200 
 23 C       -2.0150    -5.2670     2.2490 C.3   1 <1>   0.1200 
 24 C        1.0060    -7.5320    -1.9410 C.3   1 <1>   0.0400 
 25 O       -3.1210    -5.5290     1.4270 O.3   1 <1>  -0.5600 
 26 H        1.1070     1.4440    -0.5690 H     1 <1>   0.0800 
 27 H        1.9600     0.9300    -1.9790 H     1 <1>   0.0800 
 28 H        2.9660    -1.2360     1.4860 H     1 <1>   0.0800 
 29 H        2.1130     0.2530     1.7380 H     1 <1>   0.0800 
 30 H        0.4810    -2.1740     0.1170 H     1 <1>   0.1500 
 31 H        3.6630    -3.4830    -2.3950 H     1 <1>   0.1500 
 32 H        3.4420     2.5480    -1.5380 H     1 <1>   0.0800 
 33 H        4.9680    -0.1860     1.2800 H     1 <1>   0.0800 
 34 H        4.1800     1.2170     1.9430 H     1 <1>   0.0800 
 35 H        2.7110    -5.6990    -2.4490 H     1 <1>   0.1500 
 36 H        4.4100     0.4680    -0.8730 H     1 <1>   0.4500 
 37 H        2.3910     2.6410     1.3060 H     1 <1>   0.0800 
 38 H        1.9030     3.6110    -0.0280 H     1 <1>   0.0800 
 39 H        5.8500     2.6700     0.4830 H     1 <1>   0.0800 
 40 H        5.8330     2.3990    -1.2480 H     1 <1>   0.0800 
 41 H        6.5270     1.2030    -0.1790 H     1 <1>   0.0800 
 42 H        4.5290     3.8090     1.4300 H     1 <1>   0.0800 
 43 H        3.2770     4.9960     1.2840 H     1 <1>   0.0800 
 44 H        4.2370     4.5990    -0.1140 H     1 <1>   0.0800 
 45 H       -1.9110    -5.5770    -1.0150 H     1 <1>   0.0800 
 46 H       -2.0930    -3.8660    -1.2850 H     1 <1>   0.0800 
 47 H        0.1180    -5.0180     2.0780 H     1 <1>   0.0800 
 48 H       -0.5310    -6.2980     1.0920 H     1 <1>   0.0800 
 49 H       -4.1130    -4.9180    -0.2110 H     1 <1>   0.0800 
 50 H       -3.4250    -3.6420     0.7680 H     1 <1>   0.0800 
 51 H       -2.1480    -4.3030     2.7070 H     1 <1>   0.0800 
 52 H       -1.9920    -6.0180     3.0170 H     1 <1>   0.0800 
 53 H        0.3730    -8.3890    -1.8020 H     1 <1>   0.0800 
 54 H        1.9950    -7.7460    -1.5780 H     1 <1>   0.0800 
 55 H        1.0250    -7.2580    -2.9810 H     1 <1>   0.0800 
@<TRIPOS>BOND
  1   1   2  2   
  2   2   3  am  
  3   2   4  1   
  4   3   5  1   
  5   3   6  1   
  6   4   7  ar  
  7   4   8  ar  
  8   5   9  1   
  9   5  26  1   
 10   5  27  1   
 11   6  10  1   
 12   6  28  1   
 13   6  29  1   
 14   7  11  ar  
 15   7  30  1   
 16   8  12  ar  
 17   8  31  1   
 18   9  13  1   
 19   9  14  1   
 20   9  32  1   
 21  10  13  1   
 22  10  33  1   
 23  10  34  1   
 24  11  15  1   
 25  11  16  ar  
 26  12  16  ar  
 27  12  35  1   
 28  13  17  1   
 29  13  36  1   
 30  14  18  1   
 31  14  37  1   
 32  14  38  1   
 33  15  19  1   
 34  15  20  1   
 35  16  21  1   
 36  17  39  1   
 37  17  40  1   
 38  17  41  1   
 39  18  42  1   
 40  18  43  1   
 41  18  44  1   
 42  19  22  1   
 43  19  45  1   
 44  19  46  1   
 45  20  23  1   
 46  20  47  1   
 47  20  48  1   
 48  21  24  1   
 49  22  25  1   
 50  22  49  1   
 51  22  50  1   
 52  23  25  1   
 53  23  51  1   
 54  23  52  1   
 55  24  53  1   
 56  24  54  1   
 57  24  55  1   
@<TRIPOS>SUBSTRUCTURE
  1 ****   7 GROUP 4 **** **** 0

# MOE 2024.06 (io_trps.svl 2023.06)
