@<TRIPOS>MOLECULE
NONAME
40 41 1 0 0 
SMALL
USER_CHARGES


@<TRIPOS>ATOM
  1 O       -0.9220    -0.4260    -0.3140 O.3   1 <1>  -0.2800 
  2 C       -0.4570     0.2350     0.6970 C.2   1 <1>   0.2980 
  3 C       -0.5150    -1.6380    -0.1060 C.2   1 <1>   0.2980 
  4 N        0.2140    -0.5130     1.4920 N.2   1 <1>  -0.3380 
  5 C       -0.7480     1.7300     0.8110 C.3   1 <1>   0.1000 
  6 N        0.1770    -1.7370     0.9660 N.2   1 <1>  -0.3380 
  7 C       -0.8450    -2.7570    -1.0910 C.3   1 <1>   0.2900 
  8 C       -0.0320     2.5090    -0.3020 C.3   1 <1>  -0.2400 
  9 C       -0.3540     2.3000     2.1820 C.3   1 <1>  -0.2400 
 10 N       -2.2510    -3.2260    -1.0140 N.3   1 <1>  -0.8100 
 11 C       -2.3960    -4.5620    -1.6310 C.3   1 <1>   0.2900 
 12 C       -3.1890    -2.2630    -1.6180 C.3   1 <1>   0.0300 
 13 C       -3.7760    -5.1660    -1.3970 C.2   1 <1>   0.0060 
 14 N       -4.5540    -5.5360    -2.3670 N.2   1 <1>  -0.5650 
 15 N       -4.3060    -5.3750    -0.1640 N.pl3 1 <1>   0.0480 
 16 C       -5.6460    -6.0100    -1.7420 C.2   1 <1>   0.0770 
 17 C       -5.5130    -5.9210    -0.4020 C.2   1 <1>  -0.3020 
 18 C       -3.7380    -5.0830     1.1720 C.3   1 <1>   0.0960 
 19 C       -2.8450    -6.2340     1.6460 C.3   1 <1>  -0.2400 
 20 H       -1.8090     1.8600     0.6890 H     1 <1>   0.0800 
 21 H       -0.1890    -3.5770    -0.8580 H     1 <1>   0.0800 
 22 H       -0.6190    -2.4280    -2.0900 H     1 <1>   0.0800 
 23 H        1.0340     2.3840    -0.2160 H     1 <1>   0.0800 
 24 H       -0.2650     3.5560    -0.2390 H     1 <1>   0.0800 
 25 H       -0.3420     2.1470    -1.2660 H     1 <1>   0.0800 
 26 H        0.7050     2.1960     2.3420 H     1 <1>   0.0800 
 27 H       -0.8690     1.7690     2.9630 H     1 <1>   0.0800 
 28 H       -0.6140     3.3420     2.2480 H     1 <1>   0.0800 
 29 H       -1.6670    -5.2340    -1.2140 H     1 <1>   0.0800 
 30 H       -2.2210    -4.4950    -2.6910 H     1 <1>   0.0800 
 31 H       -3.1300    -1.3140    -1.1150 H     1 <1>   0.0800 
 32 H       -4.2020    -2.6180    -1.5240 H     1 <1>   0.0800 
 33 H       -2.9700    -2.1230    -2.6630 H     1 <1>   0.0800 
 34 H       -6.4830    -6.3970    -2.2980 H     1 <1>   0.1500 
 35 H       -6.1960    -6.2100     0.3750 H     1 <1>   0.1500 
 36 H       -4.5490    -4.9410     1.8640 H     1 <1>   0.0800 
 37 H       -3.1750    -4.1690     1.1310 H     1 <1>   0.0800 
 38 H       -3.4110    -7.1470     1.7020 H     1 <1>   0.0800 
 39 H       -2.4560    -6.0110     2.6230 H     1 <1>   0.0800 
 40 H       -2.0170    -6.3670     0.9730 H     1 <1>   0.0800 
@<TRIPOS>BOND
  1   1   2  1   
  2   1   3  1   
  3   2   4  2   
  4   2   5  1   
  5   3   6  2   
  6   3   7  1   
  7   4   6  1   
  8   5   8  1   
  9   5   9  1   
 10   5  20  1   
 11   7  10  1   
 12   7  21  1   
 13   7  22  1   
 14   8  23  1   
 15   8  24  1   
 16   8  25  1   
 17   9  26  1   
 18   9  27  1   
 19   9  28  1   
 20  10  11  1   
 21  10  12  1   
 22  11  13  1   
 23  11  29  1   
 24  11  30  1   
 25  12  31  1   
 26  12  32  1   
 27  12  33  1   
 28  13  14  2   
 29  13  15  1   
 30  14  16  1   
 31  15  17  1   
 32  15  18  1   
 33  16  17  2   
 34  16  34  1   
 35  17  35  1   
 36  18  19  1   
 37  18  36  1   
 38  18  37  1   
 39  19  38  1   
 40  19  39  1   
 41  19  40  1   
@<TRIPOS>SUBSTRUCTURE
  1 ****  10 GROUP 4 **** **** 0

# MOE 2024.06 (io_trps.svl 2023.06)
