@<TRIPOS>MOLECULE
NONAME
57 59 1 0 0 
SMALL
USER_CHARGES


@<TRIPOS>ATOM
  1 O       -0.8970     1.1700     1.7050 O.2   1 <1>  -0.5700 
  2 C       -1.6930     1.7860     1.0330 C.2   1 <1>   0.5690 
  3 N       -3.0030     1.3770     0.9190 N.am  1 <1>  -0.6600 
  4 C       -1.2010     3.0350     0.3120 C.3   1 <1>  -0.0990 
  5 C       -3.9830     2.0230    -0.0080 C.3   1 <1>   0.2200 
  6 C       -3.4680     0.2090     1.7320 C.3   1 <1>   0.0600 
  7 C        0.1960     3.5020     0.7470 C.3   1 <1>  -0.0160 
  8 C       -4.9940     2.8940     0.7280 C.3   1 <1>  -0.1600 
  9 C       -4.8530     1.0540    -0.8070 C.3   1 <1>  -0.1600 
 10 C        0.5900     4.7640    -0.0150 C.ar  1 <1>  -0.1440 
 11 C       -6.1470     3.0750    -0.2710 C.3   1 <1>  -0.0800 
 12 C       -6.0430     1.9090    -1.2690 C.3   1 <1>  -0.0800 
 13 C        1.3000     4.7280    -1.2140 C.ar  1 <1>  -0.1440 
 14 C        0.2120     5.9890     0.5150 C.ar  1 <1>  -0.1500 
 15 C       -7.5420     2.9890     0.3630 C.3   1 <1>  -0.1600 
 16 C       -7.3880     1.1740    -1.2260 C.3   1 <1>  -0.1600 
 17 C        1.6150     5.9160    -1.8550 C.ar  1 <1>  -0.1500 
 18 C        1.7510     3.4180    -1.8480 C.3   1 <1>  -0.0970 
 19 C        0.5300     7.1690    -0.1310 C.ar  1 <1>  -0.1500 
 20 C       -7.9850     1.5440     0.1290 C.3   1 <1>   0.4230 
 21 C        1.2320     7.1330    -1.3200 C.ar  1 <1>  -0.1500 
 22 N       -9.4630     1.3230     0.1980 N.4   1 <1>  -0.9590 
 23 C      -10.2860     2.1590    -0.7400 C.3   1 <1>   0.2630 
 24 C       -9.9570     1.4950     1.6000 C.3   1 <1>   0.2630 
 25 H       -1.1860     2.8330    -0.7420 H     1 <1>   0.0800 
 26 H       -1.8930     3.8340     0.4960 H     1 <1>   0.0800 
 27 H       -3.4690     2.6410    -0.7230 H     1 <1>   0.0800 
 28 H       -4.4740     0.3610     2.0770 H     1 <1>   0.0800 
 29 H       -2.8380     0.0720     2.5950 H     1 <1>   0.0800 
 30 H       -3.4230    -0.6860     1.1350 H     1 <1>   0.0800 
 31 H        0.9150     2.7190     0.5860 H     1 <1>   0.0800 
 32 H        0.1910     3.7060     1.8040 H     1 <1>   0.0800 
 33 H       -5.3330     2.3890     1.6140 H     1 <1>   0.0800 
 34 H       -4.5610     3.8400     1.0030 H     1 <1>   0.0800 
 35 H       -4.3100     0.6480    -1.6430 H     1 <1>   0.0800 
 36 H       -5.2020     0.2510    -0.1860 H     1 <1>   0.0800 
 37 H       -6.0250     4.0130    -0.7890 H     1 <1>   0.0800 
 38 H       -5.8460     2.2860    -2.2600 H     1 <1>   0.0800 
 39 H       -0.3340     6.0300     1.4410 H     1 <1>   0.1500 
 40 H       -8.1810     3.6790    -0.1550 H     1 <1>   0.0800 
 41 H       -7.5220     3.2410     1.4090 H     1 <1>   0.0800 
 42 H       -7.2700     0.1100    -1.3380 H     1 <1>   0.0800 
 43 H       -7.9930     1.5480    -2.0310 H     1 <1>   0.0800 
 44 H        2.1640     5.9040    -2.7800 H     1 <1>   0.1500 
 45 H        2.1830     3.5870    -2.8170 H     1 <1>   0.0800 
 46 H        0.9180     2.7510    -1.9650 H     1 <1>   0.0800 
 47 H        2.4920     2.9480    -1.2260 H     1 <1>   0.0800 
 48 H        0.2310     8.1130     0.2910 H     1 <1>   0.1500 
 49 H       -7.4990     0.9300     0.8710 H     1 <1>   0.0800 
 50 H        1.4830     8.0480    -1.8270 H     1 <1>   0.1500 
 51 H       -9.6140     0.3370    -0.0630 H     1 <1>   0.4500 
 52 H      -10.1870     3.2050    -0.5010 H     1 <1>   0.0800 
 53 H      -11.3270     1.8890    -0.6620 H     1 <1>   0.0800 
 54 H       -9.9740     2.0060    -1.7590 H     1 <1>   0.0800 
 55 H       -9.8260     2.5160     1.9200 H     1 <1>   0.0800 
 56 H       -9.4110     0.8520     2.2720 H     1 <1>   0.0800 
 57 H      -11.0040     1.2460     1.6620 H     1 <1>   0.0800 
@<TRIPOS>BOND
  1   1   2  2   
  2   2   3  am  
  3   2   4  1   
  4   3   5  1   
  5   3   6  1   
  6   4   7  1   
  7   4  25  1   
  8   4  26  1   
  9   5   8  1   
 10   5   9  1   
 11   5  27  1   
 12   6  28  1   
 13   6  29  1   
 14   6  30  1   
 15   7  10  1   
 16   7  31  1   
 17   7  32  1   
 18   8  11  1   
 19   8  33  1   
 20   8  34  1   
 21   9  12  1   
 22   9  35  1   
 23   9  36  1   
 24  10  13  ar  
 25  10  14  ar  
 26  11  12  1   
 27  11  15  1   
 28  11  37  1   
 29  12  16  1   
 30  12  38  1   
 31  13  17  ar  
 32  13  18  1   
 33  14  19  ar  
 34  14  39  1   
 35  15  20  1   
 36  15  40  1   
 37  15  41  1   
 38  16  20  1   
 39  16  42  1   
 40  16  43  1   
 41  17  21  ar  
 42  17  44  1   
 43  18  45  1   
 44  18  46  1   
 45  18  47  1   
 46  19  21  ar  
 47  19  48  1   
 48  20  22  1   
 49  20  49  1   
 50  21  50  1   
 51  22  23  1   
 52  22  24  1   
 53  22  51  1   
 54  23  52  1   
 55  23  53  1   
 56  23  54  1   
 57  24  55  1   
 58  24  56  1   
 59  24  57  1   
@<TRIPOS>SUBSTRUCTURE
  1 ****   5 GROUP 4 **** **** 0

# MOE 2024.06 (io_trps.svl 2023.06)
