@<TRIPOS>MOLECULE
NONAME
50 53 1 0 0 
SMALL
USER_CHARGES


@<TRIPOS>ATOM
  1 O        0.1660     2.0330    -1.8990 O.2   1 <1>  -0.5700 
  2 C       -0.3240     3.1130    -1.6610 C.2   1 <1>   0.5690 
  3 N       -1.0670     3.3770    -0.5430 N.am  1 <1>  -0.5090 
  4 C       -0.0980     4.2580    -2.6410 C.3   1 <1>   0.1810 
  5 C       -1.6520     4.7390    -0.3400 C.3   1 <1>   0.3640 
  6 C       -1.1770     2.4200     0.5840 C.3   1 <1>   0.0490 
  7 O        0.1590     5.4500    -1.9460 O.3   1 <1>  -0.5600 
  8 C       -3.1200     4.7760    -0.7740 C.ar  1 <1>  -0.1440 
  9 C       -0.8700     5.8750    -1.0600 C.3   1 <1>   0.2610 
 10 C       -1.8270     1.0980     0.3280 C.3   1 <1>  -0.2000 
 11 C       -2.5120     2.1080     1.1900 C.3   1 <1>  -0.2000 
 12 C       -3.9530     5.7320    -0.2060 C.ar  1 <1>   0.1600 
 13 C       -3.6610     3.9090    -1.7090 C.ar  1 <1>  -0.1500 
 14 C       -0.3640     6.8550     0.0080 C.2   1 <1>   0.5690 
 15 N       -5.2370     5.8850    -0.4840 N.ar  1 <1>  -0.6200 
 16 C       -4.9970     4.0570    -2.0090 C.ar  1 <1>  -0.1500 
 17 O       -1.1130     7.7660     0.2780 O.2   1 <1>  -0.5700 
 18 N        0.8280     6.7020     0.6790 N.am  1 <1>  -0.6600 
 19 C       -5.7300     5.0450    -1.3780 C.ar  1 <1>   0.1600 
 20 C        1.3410     7.7900     1.5620 C.3   1 <1>   0.3210 
 21 C        1.7630     5.5510     0.4990 C.3   1 <1>   0.0600 
 22 C        2.7260     8.2290     1.1130 C.2   1 <1>  -0.1810 
 23 C        3.1100     8.8480    -0.0250 C.2   1 <1>  -0.3320 
 24 C        3.9020     8.0530     1.8350 C.2   1 <1>   0.1390 
 25 N        4.4480     9.0090     0.0570 N.pl3 1 <1>   0.3000 
 26 C        2.2760     9.3010    -1.2120 C.3   1 <1>  -0.0600 
 27 N        4.9390     8.5160     1.2090 N.2   1 <1>  -0.7070 
 28 H       -0.9600     4.3950    -3.2670 H     1 <1>   0.0800 
 29 H        0.7580     4.0440    -3.2560 H     1 <1>   0.0800 
 30 H       -1.6330     4.9390     0.7180 H     1 <1>   0.0800 
 31 H       -0.3090     2.4350     1.2230 H     1 <1>   0.1000 
 32 H       -1.5640     6.4270    -1.6680 H     1 <1>   0.0800 
 33 H       -2.2080     0.8990    -0.6580 H     1 <1>   0.1000 
 34 H       -1.4080     0.2220     0.7920 H     1 <1>   0.1000 
 35 H       -2.5720     1.9070     2.2450 H     1 <1>   0.1000 
 36 H       -3.4120     2.5550     0.8080 H     1 <1>   0.1000 
 37 H       -3.5460     6.4190     0.5190 H     1 <1>   0.1500 
 38 H       -3.0840     3.1380    -2.1880 H     1 <1>   0.1500 
 39 H       -5.4710     3.4100    -2.7250 H     1 <1>   0.1500 
 40 H       -6.7740     5.1500    -1.6190 H     1 <1>   0.1500 
 41 H        0.6880     8.6450     1.5410 H     1 <1>   0.0800 
 42 H        1.3810     7.4310     2.5750 H     1 <1>   0.0800 
 43 H        2.3280     5.3870     1.3990 H     1 <1>   0.0800 
 44 H        2.4460     5.7670    -0.3050 H     1 <1>   0.0800 
 45 H        1.2260     4.6490     0.2700 H     1 <1>   0.0800 
 46 H        3.9630     7.5860     2.8040 H     1 <1>   0.1500 
 47 H        5.0490     9.4470    -0.6510 H     1 <1>   0.2700 
 48 H        1.2310     9.1280    -1.0250 H     1 <1>   0.0800 
 49 H        2.5570     8.7520    -2.0930 H     1 <1>   0.0800 
 50 H        2.4190    10.3520    -1.3900 H     1 <1>   0.0800 
@<TRIPOS>BOND
  1   1   2  2   
  2   2   3  am  
  3   2   4  1   
  4   3   5  1   
  5   3   6  1   
  6   4   7  1   
  7   4  28  1   
  8   4  29  1   
  9   5   8  1   
 10   5   9  1   
 11   5  30  1   
 12   6  10  1   
 13   6  11  1   
 14   6  31  1   
 15   7   9  1   
 16   8  12  ar  
 17   8  13  ar  
 18   9  14  1   
 19   9  32  1   
 20  10  11  1   
 21  10  33  1   
 22  10  34  1   
 23  11  35  1   
 24  11  36  1   
 25  12  15  ar  
 26  12  37  1   
 27  13  16  ar  
 28  13  38  1   
 29  14  17  2   
 30  14  18  am  
 31  15  19  ar  
 32  16  19  ar  
 33  16  39  1   
 34  18  20  1   
 35  18  21  1   
 36  19  40  1   
 37  20  22  1   
 38  20  41  1   
 39  20  42  1   
 40  21  43  1   
 41  21  44  1   
 42  21  45  1   
 43  22  23  2   
 44  22  24  1   
 45  23  25  1   
 46  23  26  1   
 47  24  27  2   
 48  24  46  1   
 49  25  27  1   
 50  25  47  1   
 51  26  48  1   
 52  26  49  1   
 53  26  50  1   
@<TRIPOS>SUBSTRUCTURE
  1 ****   9 GROUP 4 **** **** 0

# MOE 2024.06 (io_trps.svl 2023.06)
