@<TRIPOS>MOLECULE
NONAME
45 46 1 0 0 
SMALL
USER_CHARGES


@<TRIPOS>ATOM
  1 N       -0.4300    -0.5080    -0.9060 N.2   1 <1>  -0.3380 
  2 N        0.3360    -1.5710    -0.6530 N.2   1 <1>  -0.3380 
  3 C       -1.6220    -0.7950    -0.5110 C.2   1 <1>   0.0070 
  4 C       -0.4260    -2.4570    -0.1140 C.2   1 <1>   0.0360 
  5 N       -1.6840    -2.0290     0.0010 N.pl3 1 <1>   0.0480 
  6 C       -2.7950     0.1590    -0.6200 C.3   1 <1>  -0.0600 
  7 C       -2.8390    -2.7720     0.5380 C.3   1 <1>   0.0960 
  8 C       -3.5050    -3.5740    -0.5860 C.3   1 <1>   0.1100 
  9 N       -4.6620    -4.3330    -0.0510 N.3   1 <1>  -0.8100 
 10 C       -4.4320    -5.8000     0.0360 C.3   1 <1>   0.1900 
 11 C       -5.8890    -4.0160    -0.8270 C.3   1 <1>   0.1100 
 12 C       -5.6980    -6.5530     0.5280 C.3   1 <1>   0.3430 
 13 C       -3.2840    -6.1000     1.0060 C.3   1 <1>  -0.2400 
 14 C       -7.1590    -4.7280    -0.2950 C.3   1 <1>   0.4230 
 15 N       -6.9340    -6.2070    -0.2570 N.4   1 <1>  -0.9590 
 16 C       -7.5540    -4.1860     1.0850 C.3   1 <1>  -0.2400 
 17 C       -8.1200    -6.9740     0.1810 C.3   1 <1>   0.4810 
 18 C       -7.9400    -8.3870    -0.3200 C.2   1 <1>  -0.2880 
 19 C       -8.5720    -8.9170    -1.3730 C.2   1 <1>  -0.3000 
 20 H       -0.0980    -3.4280     0.2060 H     1 <1>   0.1500 
 21 H       -3.5720    -0.2700    -1.2250 H     1 <1>   0.0800 
 22 H       -2.4730     1.0780    -1.0780 H     1 <1>   0.0800 
 23 H       -3.1810     0.3840     0.3580 H     1 <1>   0.0800 
 24 H       -2.4940    -3.4270     1.3150 H     1 <1>   0.0800 
 25 H       -3.5400    -2.0750     0.9570 H     1 <1>   0.0800 
 26 H       -2.7890    -4.2400    -1.0380 H     1 <1>   0.0800 
 27 H       -3.8270    -2.8800    -1.3450 H     1 <1>   0.0800 
 28 H       -4.1690    -6.1780    -0.9380 H     1 <1>   0.0800 
 29 H       -6.0590    -2.9530    -0.7950 H     1 <1>   0.0800 
 30 H       -5.7440    -4.2870    -1.8590 H     1 <1>   0.0800 
 31 H       -5.8510    -6.3100     1.5660 H     1 <1>   0.0800 
 32 H       -5.5110    -7.6120     0.4660 H     1 <1>   0.0800 
 33 H       -3.4730    -5.6540     1.9660 H     1 <1>   0.0800 
 34 H       -2.3460    -5.7390     0.6250 H     1 <1>   0.0800 
 35 H       -3.1800    -7.1620     1.1400 H     1 <1>   0.0800 
 36 H       -7.9670    -4.5150    -0.9780 H     1 <1>   0.0800 
 37 H       -6.7630    -6.5110    -1.2220 H     1 <1>   0.4500 
 38 H       -6.7780    -4.3500     1.8110 H     1 <1>   0.0800 
 39 H       -8.4740    -4.6160     1.4350 H     1 <1>   0.0800 
 40 H       -7.7070    -3.1230     1.0160 H     1 <1>   0.0800 
 41 H       -8.2270    -6.9520     1.2540 H     1 <1>   0.0800 
 42 H       -9.0090    -6.5540    -0.2640 H     1 <1>   0.0800 
 43 H       -7.2410    -8.9580     0.2670 H     1 <1>   0.1500 
 44 H       -8.4300    -9.9330    -1.7070 H     1 <1>   0.1500 
 45 H       -9.2870    -8.4010    -1.9940 H     1 <1>   0.1500 
@<TRIPOS>BOND
  1   1   2  1   
  2   1   3  2   
  3   2   4  2   
  4   3   5  1   
  5   3   6  1   
  6   4   5  1   
  7   4  20  1   
  8   5   7  1   
  9   6  21  1   
 10   6  22  1   
 11   6  23  1   
 12   7   8  1   
 13   7  24  1   
 14   7  25  1   
 15   8   9  1   
 16   8  26  1   
 17   8  27  1   
 18   9  10  1   
 19   9  11  1   
 20  10  12  1   
 21  10  13  1   
 22  10  28  1   
 23  11  14  1   
 24  11  29  1   
 25  11  30  1   
 26  12  15  1   
 27  12  31  1   
 28  12  32  1   
 29  13  33  1   
 30  13  34  1   
 31  13  35  1   
 32  14  15  1   
 33  14  16  1   
 34  14  36  1   
 35  15  17  1   
 36  15  37  1   
 37  16  38  1   
 38  16  39  1   
 39  16  40  1   
 40  17  18  1   
 41  17  41  1   
 42  17  42  1   
 43  18  19  2   
 44  18  43  1   
 45  19  44  1   
 46  19  45  1   
@<TRIPOS>SUBSTRUCTURE
  1 ****   9 GROUP 4 **** **** 0

# MOE 2024.06 (io_trps.svl 2023.06)
