@<TRIPOS>MOLECULE
NONAME
44 45 1 0 0 
SMALL
USER_CHARGES


@<TRIPOS>ATOM
  1 O        1.2560    -0.0210     2.1210 O.co2 1 <1>  -0.9000 
  2 C        2.2180    -0.5570     1.5460 C.2   1 <1>   0.9790 
  3 O        2.3950    -1.7800     1.6780 O.co2 1 <1>  -0.9000 
  4 C        3.1360     0.2400     0.7410 C.ar  1 <1>  -0.1790 
  5 C        4.2590    -0.3340     0.1460 C.ar  1 <1>  -0.1500 
  6 C        2.9350     1.6060     0.5430 C.ar  1 <1>  -0.1500 
  7 C        5.1460     0.4230    -0.6100 C.ar  1 <1>   0.0820 
  8 C        3.8120     2.3950    -0.1940 C.ar  1 <1>   0.0860 
  9 O        6.2510    -0.0850    -1.2110 O.3   1 <1>  -0.3630 
 10 C        4.9160     1.7760    -0.7740 C.ar  1 <1>  -0.1500 
 11 C        3.6110     3.8200    -0.3300 C.2   1 <1>   0.5440 
 12 C        6.5330    -1.4670    -1.1420 C.3   1 <1>   0.0400 
 13 O        2.6140     4.2690    -0.8610 O.2   1 <1>  -0.5700 
 14 N        4.5900     4.6550     0.1500 N.am  1 <1>  -0.4940 
 15 C        4.7280     6.0630     0.1520 C.2   1 <1>  -0.0880 
 16 N        3.7480     7.0030     0.2740 N.pl3 1 <1>   0.3140 
 17 C        5.8970     6.7430     0.0690 C.2   1 <1>  -0.1810 
 18 N        4.2630     8.2530     0.2780 N.2   1 <1>  -0.7070 
 19 C        2.3090     6.8090     0.4950 C.3   1 <1>   0.0160 
 20 C        5.5420     8.0880     0.1510 C.2   1 <1>   0.1080 
 21 C        7.2940     6.1660    -0.0860 C.3   1 <1>   0.0210 
 22 C        6.4960     9.2680     0.1030 C.3   1 <1>   0.0210 
 23 C        7.9160     5.8950     1.2850 C.3   1 <1>  -0.2400 
 24 C        6.7270     9.7350    -1.3370 C.3   1 <1>  -0.2400 
 25 H        4.4090    -1.3880     0.2980 H     1 <1>   0.1500 
 26 H        2.0670     2.0640     0.9880 H     1 <1>   0.1500 
 27 H        5.6040     2.3500    -1.3660 H     1 <1>   0.1500 
 28 H        7.4310    -1.6550    -1.7000 H     1 <1>   0.0800 
 29 H        5.7110    -2.0110    -1.5730 H     1 <1>   0.0800 
 30 H        6.6750    -1.7430    -0.1120 H     1 <1>   0.0800 
 31 H        5.3980     4.1590     0.5260 H     1 <1>   0.3700 
 32 H        2.1560     5.9450     1.1130 H     1 <1>   0.0800 
 33 H        1.8280     6.6670    -0.4550 H     1 <1>   0.0800 
 34 H        1.9050     7.6780     0.9780 H     1 <1>   0.0800 
 35 H        7.9110     6.8490    -0.6410 H     1 <1>   0.0800 
 36 H        7.2410     5.2490    -0.6460 H     1 <1>   0.0800 
 37 H        7.4310     8.9970     0.5570 H     1 <1>   0.0800 
 38 H        6.0720    10.0740     0.6770 H     1 <1>   0.0800 
 39 H        7.9820     6.8090     1.8480 H     1 <1>   0.0800 
 40 H        8.9050     5.4870     1.1700 H     1 <1>   0.0800 
 41 H        7.3130     5.1970     1.8370 H     1 <1>   0.0800 
 42 H        7.1520     8.9410    -1.9240 H     1 <1>   0.0800 
 43 H        7.3910    10.5800    -1.3540 H     1 <1>   0.0800 
 44 H        5.7880    10.0220    -1.7780 H     1 <1>   0.0800 
@<TRIPOS>BOND
  1   1   2  ar  
  2   2   3  ar  
  3   2   4  1   
  4   4   5  ar  
  5   4   6  ar  
  6   5   7  ar  
  7   5  25  1   
  8   6   8  ar  
  9   6  26  1   
 10   7   9  1   
 11   7  10  ar  
 12   8  10  ar  
 13   8  11  1   
 14   9  12  1   
 15  10  27  1   
 16  11  13  2   
 17  11  14  am  
 18  12  28  1   
 19  12  29  1   
 20  12  30  1   
 21  14  15  1   
 22  14  31  1   
 23  15  16  1   
 24  15  17  2   
 25  16  18  1   
 26  16  19  1   
 27  17  20  1   
 28  17  21  1   
 29  18  20  2   
 30  19  32  1   
 31  19  33  1   
 32  19  34  1   
 33  20  22  1   
 34  21  23  1   
 35  21  35  1   
 36  21  36  1   
 37  22  24  1   
 38  22  37  1   
 39  22  38  1   
 40  23  39  1   
 41  23  40  1   
 42  23  41  1   
 43  24  42  1   
 44  24  43  1   
 45  24  44  1   
@<TRIPOS>SUBSTRUCTURE
  1 ****  14 GROUP 4 **** **** 0

# MOE 2024.06 (io_trps.svl 2023.06)
