@<TRIPOS>MOLECULE
NONAME
34 35 1 0 0 
SMALL
USER_CHARGES


@<TRIPOS>ATOM
  1 F       -0.5900    -0.1660     0.2250 F     1 <1>  -0.1900 
  2 C       -1.6550    -0.9230     0.0800 C.ar  1 <1>   0.1900 
  3 C       -2.9280    -0.4190    -0.1700 C.ar  1 <1>   0.3920 
  4 C       -1.4990    -2.2810     0.1850 C.ar  1 <1>   0.1600 
  5 O       -3.2510     0.8890    -0.2980 O.3   1 <1>  -0.3630 
  6 N       -3.9530    -1.2330    -0.3030 N.ar  1 <1>  -0.6200 
  7 N       -2.5180    -3.1040     0.0550 N.ar  1 <1>  -0.6200 
  8 C       -2.3250     1.9530    -0.2590 C.3   1 <1>   0.0400 
  9 C       -3.6910    -2.5240    -0.1900 C.ar  1 <1>   0.7200 
 10 N       -4.7730    -3.3190    -0.3390 N.pl3 1 <1>  -0.8690 
 11 C       -4.8710    -4.6650     0.2480 C.3   1 <1>   0.2090 
 12 C       -6.2560    -5.2310    -0.0510 C.3   1 <1>  -0.1600 
 13 C       -6.4050    -6.6590     0.4920 C.3   1 <1>  -0.0170 
 14 C       -7.8020    -7.1980     0.2330 C.ar  1 <1>   0.1670 
 15 N       -8.7510    -6.7770     1.0550 N.ar  1 <1>  -0.6200 
 16 C       -8.0180    -8.0760    -0.8180 C.ar  1 <1>  -0.1500 
 17 C       -9.9640    -7.2500     0.8190 C.ar  1 <1>   0.1600 
 18 C       -9.2870    -8.5620    -1.0520 C.ar  1 <1>  -0.1500 
 19 C      -10.2820    -8.1290    -0.2030 C.ar  1 <1>  -0.1500 
 20 H       -0.5260    -2.6950     0.3790 H     1 <1>   0.1500 
 21 H       -2.8640     2.8690    -0.4220 H     1 <1>   0.0800 
 22 H       -1.5980     1.8150    -1.0400 H     1 <1>   0.0800 
 23 H       -1.8550     1.9750     0.7080 H     1 <1>   0.0800 
 24 H       -5.6360    -2.7760    -0.3520 H     1 <1>   0.4000 
 25 H       -4.7110    -4.6050     1.3120 H     1 <1>   0.0800 
 26 H       -4.1090    -5.2940    -0.1820 H     1 <1>   0.0800 
 27 H       -6.4170    -5.2400    -1.1150 H     1 <1>   0.0800 
 28 H       -7.0030    -4.6050     0.4060 H     1 <1>   0.0800 
 29 H       -6.2270    -6.6660     1.5540 H     1 <1>   0.0800 
 30 H       -5.6760    -7.3010     0.0320 H     1 <1>   0.0800 
 31 H       -7.2040    -8.3780    -1.4510 H     1 <1>   0.1500 
 32 H      -10.7500    -6.9190     1.4760 H     1 <1>   0.1500 
 33 H       -9.4910    -9.2450    -1.8580 H     1 <1>   0.1500 
 34 H      -11.2940    -8.4670    -0.3280 H     1 <1>   0.1500 
@<TRIPOS>BOND
  1   1   2  1   
  2   2   3  ar  
  3   2   4  ar  
  4   3   5  1   
  5   3   6  ar  
  6   4   7  ar  
  7   4  20  1   
  8   5   8  1   
  9   6   9  ar  
 10   7   9  ar  
 11   8  21  1   
 12   8  22  1   
 13   8  23  1   
 14   9  10  1   
 15  10  11  1   
 16  10  24  1   
 17  11  12  1   
 18  11  25  1   
 19  11  26  1   
 20  12  13  1   
 21  12  27  1   
 22  12  28  1   
 23  13  14  1   
 24  13  29  1   
 25  13  30  1   
 26  14  15  ar  
 27  14  16  ar  
 28  15  17  ar  
 29  16  18  ar  
 30  16  31  1   
 31  17  19  ar  
 32  17  32  1   
 33  18  19  ar  
 34  18  33  1   
 35  19  34  1   
@<TRIPOS>SUBSTRUCTURE
  1 ****  10 GROUP 4 **** **** 0

# MOE 2024.06 (io_trps.svl 2023.06)
