@<TRIPOS>MOLECULE
NONAME
49 50 1 0 0 
SMALL
USER_CHARGES


@<TRIPOS>ATOM
  1 O       -0.5980     0.4860     1.4010 O.2   1 <1>  -0.5700 
  2 C       -0.2770     1.5410     0.8890 C.2   1 <1>   0.5690 
  3 N       -1.1860     2.5870     0.8830 N.am  1 <1>  -0.6600 
  4 C        1.1340     1.6080     0.1930 C.3   1 <1>   0.3410 
  5 C       -2.6230     2.3290     1.2300 C.3   1 <1>   0.1400 
  6 C       -0.8570     3.9890     0.4780 C.3   1 <1>   0.1400 
  7 O        1.7880     2.8210     0.5220 O.3   1 <1>  -0.5600 
  8 C        2.0390     0.4410     0.6460 C.3   1 <1>  -0.2400 
  9 C        0.9380     1.5340    -1.3330 C.3   1 <1>  -0.2400 
 10 C       -3.5840     3.0370     0.2430 C.3   1 <1>   0.0000 
 11 C       -1.9700     4.9720     0.8550 C.3   1 <1>  -0.1600 
 12 C        3.0610     3.1130     0.0320 C.3   1 <1>   0.1200 
 13 C       -5.0360     2.6300     0.5740 C.3   1 <1>   0.2000 
 14 C       -3.3490     4.5710     0.2980 C.3   1 <1>  -0.1600 
 15 C       -3.4110     2.4630    -1.1780 C.3   1 <1>  -0.1600 
 16 C        3.3850     4.5390     0.4580 C.3   1 <1>  -0.2400 
 17 O       -5.9250     3.5230    -0.0380 O.3   1 <1>  -0.5600 
 18 C       -5.2250     1.2480    -0.0670 C.3   1 <1>  -0.1600 
 19 C       -4.1890     1.1440    -1.1950 C.3   1 <1>  -0.1600 
 20 C       -7.1800     3.6080     0.5570 C.3   1 <1>   0.0400 
 21 H       -2.8170     1.2710     1.2270 H     1 <1>   0.0800 
 22 H       -2.8030     2.6840     2.2290 H     1 <1>   0.0800 
 23 H        0.0420     4.3070     0.9740 H     1 <1>   0.0800 
 24 H       -0.6960     4.0230    -0.5850 H     1 <1>   0.0800 
 25 H        1.5420    -0.4960     0.4680 H     1 <1>   0.0800 
 26 H        2.2320     0.5190     1.7000 H     1 <1>   0.0800 
 27 H        2.9660     0.4140     0.1060 H     1 <1>   0.0800 
 28 H        0.3120     0.6920    -1.5670 H     1 <1>   0.0800 
 29 H        1.8700     1.3980    -1.8480 H     1 <1>   0.0800 
 30 H        0.4520     2.4210    -1.6940 H     1 <1>   0.0800 
 31 H       -2.0190     5.0210     1.9290 H     1 <1>   0.0800 
 32 H       -1.7140     5.9560     0.5040 H     1 <1>   0.0800 
 33 H        3.7740     2.4300     0.4590 H     1 <1>   0.0800 
 34 H        3.0670     3.0400    -1.0410 H     1 <1>   0.0800 
 35 H       -5.2130     2.6260     1.6370 H     1 <1>   0.0800 
 36 H       -3.4740     4.9910    -0.6840 H     1 <1>   0.0800 
 37 H       -4.0940     5.0300     0.9250 H     1 <1>   0.0800 
 38 H       -3.8700     3.1270    -1.8900 H     1 <1>   0.0800 
 39 H       -2.3830     2.3220    -1.4600 H     1 <1>   0.0800 
 40 H        3.3710     4.6140     1.5310 H     1 <1>   0.0800 
 41 H        2.6680     5.2220     0.0400 H     1 <1>   0.0800 
 42 H        4.3640     4.8100     0.1080 H     1 <1>   0.0800 
 43 H       -5.0240     0.4860     0.6650 H     1 <1>   0.0800 
 44 H       -6.2240     1.1110    -0.4390 H     1 <1>   0.0800 
 45 H       -3.5220     0.3210    -1.0040 H     1 <1>   0.0800 
 46 H       -4.6640     0.9960    -2.1500 H     1 <1>   0.0800 
 47 H       -7.7750     4.2950    -0.0180 H     1 <1>   0.0800 
 48 H       -7.0710     3.9780     1.5620 H     1 <1>   0.0800 
 49 H       -7.6460     2.6390     0.5580 H     1 <1>   0.0800 
@<TRIPOS>BOND
  1   1   2  2   
  2   2   3  am  
  3   2   4  1   
  4   3   5  1   
  5   3   6  1   
  6   4   7  1   
  7   4   8  1   
  8   4   9  1   
  9   5  10  1   
 10   5  21  1   
 11   5  22  1   
 12   6  11  1   
 13   6  23  1   
 14   6  24  1   
 15   7  12  1   
 16   8  25  1   
 17   8  26  1   
 18   8  27  1   
 19   9  28  1   
 20   9  29  1   
 21   9  30  1   
 22  10  13  1   
 23  10  14  1   
 24  10  15  1   
 25  11  14  1   
 26  11  31  1   
 27  11  32  1   
 28  12  16  1   
 29  12  33  1   
 30  12  34  1   
 31  13  17  1   
 32  13  18  1   
 33  13  35  1   
 34  14  36  1   
 35  14  37  1   
 36  15  19  1   
 37  15  38  1   
 38  15  39  1   
 39  16  40  1   
 40  16  41  1   
 41  16  42  1   
 42  17  20  1   
 43  18  19  1   
 44  18  43  1   
 45  18  44  1   
 46  19  45  1   
 47  19  46  1   
 48  20  47  1   
 49  20  48  1   
 50  20  49  1   
@<TRIPOS>SUBSTRUCTURE
  1 ****   3 GROUP 4 **** **** 0

# MOE 2024.06 (io_trps.svl 2023.06)
