@<TRIPOS>MOLECULE
NONAME
49 52 1 0 0 
SMALL
USER_CHARGES


@<TRIPOS>ATOM
  1 S        0.5110     0.4410    -2.6200 S.3   1 <1>  -0.0800 
  2 C        0.8620    -0.7810    -1.3730 C.2   1 <1>  -0.0450 
  3 C        1.4460     1.6790    -1.7950 C.2   1 <1>  -0.1100 
  4 C        1.6400    -0.1990    -0.4190 C.2   1 <1>   0.0620 
  5 C        0.3160    -2.0980    -1.5390 C.2   1 <1>   0.7150 
  6 C        1.9730     1.1740    -0.6680 C.2   1 <1>   0.0620 
  7 O        2.1000    -0.8210     0.6910 O.3   1 <1>  -0.3420 
  8 O       -0.1770    -2.4580    -2.5940 O.2   1 <1>  -0.5700 
  9 N        0.2460    -3.0030    -0.5030 N.am  1 <1>  -0.6600 
 10 O        2.7670     1.8690     0.1870 O.3   1 <1>  -0.3420 
 11 C        2.7490    -0.0340     1.6790 C.3   1 <1>   0.1200 
 12 C       -0.4280    -2.6280     0.7740 C.3   1 <1>   0.1400 
 13 C        0.2020    -4.4630    -0.7990 C.3   1 <1>   0.1400 
 14 C        3.5830     1.0820     1.0320 C.3   1 <1>   0.1200 
 15 C       -1.8870    -3.1470     0.8120 C.3   1 <1>   0.4230 
 16 C       -1.2570    -4.9490    -0.8180 C.3   1 <1>   0.3430 
 17 N       -1.9810    -4.6280     0.4730 N.4   1 <1>  -0.9590 
 18 C       -2.7970    -2.3090    -0.1170 C.3   1 <1>   0.1200 
 19 C       -3.4300    -5.0420     0.4620 C.3   1 <1>   0.4230 
 20 O       -4.1130    -2.7790    -0.0510 O.3   1 <1>  -0.5600 
 21 C       -4.2790    -4.1130    -0.4390 C.3   1 <1>   0.1200 
 22 C       -3.5670    -6.5270     0.0870 C.3   1 <1>  -0.1600 
 23 C       -4.9540    -7.0920     0.4310 C.3   1 <1>  -0.1600 
 24 C       -5.0250    -8.5900     0.1210 C.3   1 <1>  -0.2400 
 25 H        1.5090     2.6540    -2.2430 H     1 <1>   0.1500 
 26 H        1.9960     0.3920     2.3170 H     1 <1>   0.0800 
 27 H        3.3770    -0.6860     2.2600 H     1 <1>   0.0800 
 28 H        0.1280    -3.0400     1.5980 H     1 <1>   0.0800 
 29 H       -0.4300    -1.5580     0.8940 H     1 <1>   0.0800 
 30 H        0.6570    -4.6560    -1.7570 H     1 <1>   0.0800 
 31 H        0.7670    -5.0000    -0.0580 H     1 <1>   0.0800 
 32 H        4.3790     0.6650     0.4390 H     1 <1>   0.0800 
 33 H        4.0040     1.7280     1.7810 H     1 <1>   0.0800 
 34 H       -2.2540    -2.9960     1.8140 H     1 <1>   0.0800 
 35 H       -1.2640    -6.0120    -0.9930 H     1 <1>   0.0800 
 36 H       -1.7560    -4.4740    -1.6470 H     1 <1>   0.0800 
 37 H       -1.5180    -5.1470     1.2270 H     1 <1>   0.4500 
 38 H       -2.4680    -2.3480    -1.1420 H     1 <1>   0.0800 
 39 H       -2.8050    -1.2800     0.1970 H     1 <1>   0.0800 
 40 H       -3.8140    -4.9330     1.4630 H     1 <1>   0.0800 
 41 H       -5.3250    -4.3440    -0.3360 H     1 <1>   0.0800 
 42 H       -4.0100    -4.2100    -1.4760 H     1 <1>   0.0800 
 43 H       -3.3950    -6.6650    -0.9660 H     1 <1>   0.0800 
 44 H       -2.8350    -7.0970     0.6330 H     1 <1>   0.0800 
 45 H       -5.1660    -6.9450     1.4770 H     1 <1>   0.0800 
 46 H       -5.7200    -6.5920    -0.1380 H     1 <1>   0.0800 
 47 H       -4.2980    -9.1360     0.6980 H     1 <1>   0.0800 
 48 H       -4.8460    -8.7730    -0.9250 H     1 <1>   0.0800 
 49 H       -6.0020    -8.9700     0.3660 H     1 <1>   0.0800 
@<TRIPOS>BOND
  1   1   2  1   
  2   1   3  1   
  3   2   4  2   
  4   2   5  1   
  5   3   6  2   
  6   3  25  1   
  7   4   6  1   
  8   4   7  1   
  9   5   8  2   
 10   5   9  am  
 11   6  10  1   
 12   7  11  1   
 13   9  12  1   
 14   9  13  1   
 15  10  14  1   
 16  11  14  1   
 17  11  26  1   
 18  11  27  1   
 19  12  15  1   
 20  12  28  1   
 21  12  29  1   
 22  13  16  1   
 23  13  30  1   
 24  13  31  1   
 25  14  32  1   
 26  14  33  1   
 27  15  17  1   
 28  15  18  1   
 29  15  34  1   
 30  16  17  1   
 31  16  35  1   
 32  16  36  1   
 33  17  19  1   
 34  17  37  1   
 35  18  20  1   
 36  18  38  1   
 37  18  39  1   
 38  19  21  1   
 39  19  22  1   
 40  19  40  1   
 41  20  21  1   
 42  21  41  1   
 43  21  42  1   
 44  22  23  1   
 45  22  43  1   
 46  22  44  1   
 47  23  24  1   
 48  23  45  1   
 49  23  46  1   
 50  24  47  1   
 51  24  48  1   
 52  24  49  1   
@<TRIPOS>SUBSTRUCTURE
  1 ****   9 GROUP 4 **** **** 0

# MOE 2024.06 (io_trps.svl 2023.06)
