@<TRIPOS>MOLECULE
NONAME
46 48 1 0 0 
SMALL
USER_CHARGES


@<TRIPOS>ATOM
  1 O        2.3790    -1.6420     1.8770 O.2   1 <1>  -0.5700 
  2 C        1.4580    -1.8500     1.1020 C.2   1 <1>   0.5440 
  3 N        0.3120    -1.0750     1.2470 N.am  1 <1>  -0.6600 
  4 C        1.6320    -2.8710     0.0620 C.ar  1 <1>   0.3960 
  5 C        0.0880    -0.2230     2.4480 C.3   1 <1>   0.0600 
  6 C       -0.7700    -0.9790     0.2280 C.3   1 <1>   0.0600 
  7 N        0.6220    -3.7010    -0.2530 N.ar  1 <1>  -0.6200 
  8 C        2.8740    -2.9590    -0.5690 C.ar  1 <1>  -0.1500 
  9 C        0.8610    -4.6090    -1.1860 C.ar  1 <1>   0.4100 
 10 C        3.1130    -3.9020    -1.5450 C.ar  1 <1>  -0.1500 
 11 N       -0.1700    -5.4680    -1.4950 N.pl3 1 <1>  -0.8380 
 12 C        2.0720    -4.7420    -1.8500 C.ar  1 <1>  -0.1500 
 13 C       -1.4010    -4.8620    -2.0660 C.3   1 <1>   0.2090 
 14 C       -0.5790    -6.4190    -0.4170 C.3   1 <1>   0.2090 
 15 C       -2.4510    -4.9870    -0.9640 C.3   1 <1>   0.2000 
 16 C       -2.1060    -6.3040    -0.2720 C.3   1 <1>  -0.0800 
 17 O       -2.2430    -3.9630    -0.0570 O.3   1 <1>  -0.6800 
 18 C       -2.8420    -7.4880    -0.9270 C.3   1 <1>  -0.0170 
 19 C       -2.6510    -8.7740    -0.1400 C.ar  1 <1>   0.1670 
 20 N       -1.6680    -9.5700    -0.5320 N.ar  1 <1>  -0.6200 
 21 C       -3.4940    -9.0520     0.9270 C.ar  1 <1>  -0.1500 
 22 C       -1.5190   -10.6850     0.1650 C.ar  1 <1>   0.1600 
 23 C       -3.3260   -10.2170     1.6450 C.ar  1 <1>  -0.1500 
 24 C       -2.3060   -11.0510     1.2430 C.ar  1 <1>  -0.1500 
 25 H       -0.9190    -0.3520     2.8050 H     1 <1>   0.0800 
 26 H        0.2460     0.8100     2.1940 H     1 <1>   0.0800 
 27 H        0.7650    -0.4930     3.2410 H     1 <1>   0.0800 
 28 H       -1.0230     0.0530     0.0630 H     1 <1>   0.0800 
 29 H       -1.6430    -1.5000     0.5800 H     1 <1>   0.0800 
 30 H       -0.4610    -1.4040    -0.7100 H     1 <1>   0.0800 
 31 H        3.6550    -2.2790    -0.2800 H     1 <1>   0.1500 
 32 H        4.0680    -3.9780    -2.0380 H     1 <1>   0.1500 
 33 H        2.1700    -5.5100    -2.5940 H     1 <1>   0.1500 
 34 H       -1.2520    -3.8350    -2.3550 H     1 <1>   0.0800 
 35 H       -1.7000    -5.4310    -2.9290 H     1 <1>   0.0800 
 36 H       -0.2700    -7.4150    -0.6790 H     1 <1>   0.0800 
 37 H       -0.1040    -6.1500     0.5120 H     1 <1>   0.0800 
 38 H       -3.4630    -4.9260    -1.3230 H     1 <1>   0.0800 
 39 H       -2.3820    -6.2660     0.7670 H     1 <1>   0.0800 
 40 H       -1.2600    -3.8810     0.0670 H     1 <1>   0.4000 
 41 H       -2.4950    -7.6330    -1.9360 H     1 <1>   0.0800 
 42 H       -3.8940    -7.2720    -0.9750 H     1 <1>   0.0800 
 43 H       -4.2740    -8.3640     1.1960 H     1 <1>   0.1500 
 44 H       -0.7240   -11.3440    -0.1410 H     1 <1>   0.1500 
 45 H       -3.9610   -10.4620     2.4780 H     1 <1>   0.1500 
 46 H       -2.1200   -11.9750     1.7580 H     1 <1>   0.1500 
@<TRIPOS>BOND
  1   1   2  2   
  2   2   3  am  
  3   2   4  1   
  4   3   5  1   
  5   3   6  1   
  6   4   7  ar  
  7   4   8  ar  
  8   5  25  1   
  9   5  26  1   
 10   5  27  1   
 11   6  28  1   
 12   6  29  1   
 13   6  30  1   
 14   7   9  ar  
 15   8  10  ar  
 16   8  31  1   
 17   9  11  1   
 18   9  12  ar  
 19  10  12  ar  
 20  10  32  1   
 21  11  13  1   
 22  11  14  1   
 23  12  33  1   
 24  13  15  1   
 25  13  34  1   
 26  13  35  1   
 27  14  16  1   
 28  14  36  1   
 29  14  37  1   
 30  15  16  1   
 31  15  17  1   
 32  15  38  1   
 33  16  18  1   
 34  16  39  1   
 35  17  40  1   
 36  18  19  1   
 37  18  41  1   
 38  18  42  1   
 39  19  20  ar  
 40  19  21  ar  
 41  20  22  ar  
 42  21  23  ar  
 43  21  43  1   
 44  22  24  ar  
 45  22  44  1   
 46  23  24  ar  
 47  23  45  1   
 48  24  46  1   
@<TRIPOS>SUBSTRUCTURE
  1 ****  14 GROUP 4 **** **** 0

# MOE 2024.06 (io_trps.svl 2023.06)
