@<TRIPOS>MOLECULE
NONAME
57 60 1 0 0 
SMALL
USER_CHARGES


@<TRIPOS>ATOM
  1 O        0.9960    -4.4730    -2.2370 O.2   1 <1>  -0.5700 
  2 C        1.5800    -3.8380    -1.3730 C.2   1 <1>   0.5440 
  3 N        2.2000    -2.6570    -1.7320 N.am  1 <1>  -0.6600 
  4 C        1.5940    -4.3370    -0.0050 C.ar  1 <1>   0.3960 
  5 C        2.5560    -1.5670    -0.7890 C.3   1 <1>   0.1400 
  6 C        2.2190    -2.1610    -3.1300 C.3   1 <1>   0.1400 
  7 N        0.4370    -4.6980     0.5650 N.ar  1 <1>  -0.6200 
  8 C        2.8070    -4.4490     0.6780 C.ar  1 <1>   0.1600 
  9 C        2.9840    -0.4000    -1.6720 C.3   1 <1>  -0.1600 
 10 C        2.2880    -0.6440    -3.0060 C.3   1 <1>  -0.1600 
 11 C        0.5520    -5.1560     1.7930 C.ar  1 <1>   0.4100 
 12 N        2.9440    -4.8850     1.9230 N.ar  1 <1>  -0.6200 
 13 N       -0.6260    -5.5930     2.3760 N.pl3 1 <1>  -0.8690 
 14 C        1.7890    -5.2310     2.4530 C.ar  1 <1>   0.1600 
 15 C       -1.9790    -5.1990     1.8350 C.3   1 <1>   0.2090 
 16 C       -2.7540    -6.3390     1.1070 C.3   1 <1>   0.5660 
 17 N       -2.1450    -6.9410    -0.1310 N.4   1 <1>  -0.9590 
 18 C       -4.1760    -5.9200     0.7700 C.ar  1 <1>  -0.1430 
 19 C       -0.9210    -7.7320     0.1760 C.3   1 <1>   0.3430 
 20 C       -1.8770    -5.9750    -1.2430 C.3   1 <1>   0.3430 
 21 C       -5.2010    -6.8160     1.0390 C.ar  1 <1>   0.1600 
 22 C       -4.5010    -4.6940     0.2100 C.ar  1 <1>  -0.1500 
 23 C       -0.5440    -8.5730    -1.0440 C.3   1 <1>  -0.1600 
 24 C       -1.5110    -6.7540    -2.5080 C.3   1 <1>  -0.1600 
 25 N       -6.4780    -6.6000     0.7930 N.ar  1 <1>  -0.6200 
 26 C       -5.8340    -4.4550    -0.0470 C.ar  1 <1>  -0.1500 
 27 C       -0.3190    -7.6930    -2.2800 C.3   1 <1>  -0.1600 
 28 C       -6.7710    -5.4260     0.2580 C.ar  1 <1>   0.1600 
 29 H        3.3560    -1.8570    -0.1300 H     1 <1>   0.0800 
 30 H        1.6870    -1.2970    -0.2120 H     1 <1>   0.0800 
 31 H        1.3410    -2.4700    -3.6730 H     1 <1>   0.0800 
 32 H        3.0980    -2.5390    -3.6240 H     1 <1>   0.0800 
 33 H        3.7070    -4.1650     0.1600 H     1 <1>   0.1500 
 34 H        4.0510    -0.4350    -1.8060 H     1 <1>   0.0800 
 35 H        2.7180     0.5490    -1.2390 H     1 <1>   0.0800 
 36 H        1.2870    -0.2510    -2.9760 H     1 <1>   0.0800 
 37 H        2.8140    -0.2000    -3.8320 H     1 <1>   0.0800 
 38 H       -0.5970    -5.6450     3.4030 H     1 <1>   0.4000 
 39 H        1.8030    -5.6060     3.4600 H     1 <1>   0.1500 
 40 H       -1.8930    -4.3490     1.1830 H     1 <1>   0.0800 
 41 H       -2.5820    -4.8770     2.6670 H     1 <1>   0.0800 
 42 H       -2.8400    -7.1300     1.8330 H     1 <1>   0.0800 
 43 H       -2.8380    -7.5970    -0.5040 H     1 <1>   0.4500 
 44 H       -1.0930    -8.3770     1.0220 H     1 <1>   0.0800 
 45 H       -0.1060    -7.0710     0.4120 H     1 <1>   0.0800 
 46 H       -1.0660    -5.3160    -0.9900 H     1 <1>   0.0800 
 47 H       -2.7500    -5.3770    -1.4420 H     1 <1>   0.0800 
 48 H       -4.9710    -7.7710     1.4810 H     1 <1>   0.1500 
 49 H       -3.7700    -3.9400    -0.0260 H     1 <1>   0.1500 
 50 H       -1.3180    -9.2950    -1.2400 H     1 <1>   0.0800 
 51 H        0.3590    -9.1170    -0.8290 H     1 <1>   0.0800 
 52 H       -1.2580    -6.0510    -3.2840 H     1 <1>   0.0800 
 53 H       -2.3650    -7.3140    -2.8460 H     1 <1>   0.0800 
 54 H       -6.1530    -3.5230    -0.4800 H     1 <1>   0.1500 
 55 H       -0.1620    -8.3070    -3.1500 H     1 <1>   0.0800 
 56 H        0.5710    -7.1020    -2.1350 H     1 <1>   0.0800 
 57 H       -7.8100    -5.2290     0.0520 H     1 <1>   0.1500 
@<TRIPOS>BOND
  1   1   2  2   
  2   2   3  am  
  3   2   4  1   
  4   3   5  1   
  5   3   6  1   
  6   4   7  ar  
  7   4   8  ar  
  8   5   9  1   
  9   5  29  1   
 10   5  30  1   
 11   6  10  1   
 12   6  31  1   
 13   6  32  1   
 14   7  11  ar  
 15   8  12  ar  
 16   8  33  1   
 17   9  10  1   
 18   9  34  1   
 19   9  35  1   
 20  10  36  1   
 21  10  37  1   
 22  11  13  1   
 23  11  14  ar  
 24  12  14  ar  
 25  13  15  1   
 26  13  38  1   
 27  14  39  1   
 28  15  16  1   
 29  15  40  1   
 30  15  41  1   
 31  16  17  1   
 32  16  18  1   
 33  16  42  1   
 34  17  19  1   
 35  17  20  1   
 36  17  43  1   
 37  18  21  ar  
 38  18  22  ar  
 39  19  23  1   
 40  19  44  1   
 41  19  45  1   
 42  20  24  1   
 43  20  46  1   
 44  20  47  1   
 45  21  25  ar  
 46  21  48  1   
 47  22  26  ar  
 48  22  49  1   
 49  23  27  1   
 50  23  50  1   
 51  23  51  1   
 52  24  27  1   
 53  24  52  1   
 54  24  53  1   
 55  25  28  ar  
 56  26  28  ar  
 57  26  54  1   
 58  27  55  1   
 59  27  56  1   
 60  28  57  1   
@<TRIPOS>SUBSTRUCTURE
  1 ****   7 GROUP 4 **** **** 0

# MOE 2024.06 (io_trps.svl 2023.06)
