@<TRIPOS>MOLECULE
NONAME
48 50 1 0 0 
SMALL
USER_CHARGES


@<TRIPOS>ATOM
  1 F       -0.3530    -0.5860     0.1380 F     1 <1>  -0.1900 
  2 C       -1.5400    -1.1300     0.1160 C.ar  1 <1>   0.1900 
  3 C       -2.1780    -1.2910    -1.0990 C.ar  1 <1>  -0.1500 
  4 C       -2.1150    -1.5230     1.3090 C.ar  1 <1>  -0.1500 
  5 C       -3.4370    -1.8670    -1.1150 C.ar  1 <1>  -0.1500 
  6 C       -3.3750    -2.0980     1.2790 C.ar  1 <1>  -0.1500 
  7 C       -4.0390    -2.2700     0.0700 C.ar  1 <1>  -0.1430 
  8 C       -5.4210    -2.9020     0.0440 C.3   1 <1>  -0.0160 
  9 C       -5.3160    -4.4190    -0.1510 C.3   1 <1>  -0.1600 
 10 C       -6.7020    -5.0910    -0.1740 C.3   1 <1>  -0.0990 
 11 C       -6.6590    -6.6060    -0.3470 C.2   1 <1>   0.5690 
 12 O       -5.6440    -7.1300    -0.7360 O.2   1 <1>  -0.5700 
 13 N       -7.7750    -7.3460    -0.0730 N.am  1 <1>  -0.6600 
 14 C       -9.1200    -6.8300     0.2840 C.3   1 <1>   0.1400 
 15 C       -7.7960    -8.8210    -0.2170 C.3   1 <1>   0.1400 
 16 C      -10.0490    -8.0330     0.1280 C.3   1 <1>   0.2000 
 17 C       -9.1600    -9.2600     0.3190 C.3   1 <1>  -0.0800 
 18 O      -11.0630    -8.0220     1.0700 O.3   1 <1>  -0.6800 
 19 C       -9.7150   -10.5170    -0.3670 C.3   1 <1>   0.0200 
 20 C       -8.7660   -11.6880    -0.2030 C.2   1 <1>  -0.0400 
 21 O       -8.5100   -12.1590     0.9880 O.3   1 <1>  -0.0190 
 22 C       -8.0640   -12.4070    -1.0910 C.2   1 <1>  -0.1500 
 23 N       -7.6700   -13.1520     0.9450 N.2   1 <1>  -0.4100 
 24 C       -7.3840   -13.3250    -0.2950 C.2   1 <1>   0.1080 
 25 C       -6.4340   -14.3830    -0.8100 C.3   1 <1>  -0.0590 
 26 H       -1.6970    -0.9740    -2.0070 H     1 <1>   0.1500 
 27 H       -1.5880    -1.3830     2.2340 H     1 <1>   0.1500 
 28 H       -3.9460    -2.0030    -2.0540 H     1 <1>   0.1500 
 29 H       -3.8350    -2.4130     2.1990 H     1 <1>   0.1500 
 30 H       -5.9320    -2.6870     0.9660 H     1 <1>   0.0800 
 31 H       -5.9970    -2.4700    -0.7570 H     1 <1>   0.0800 
 32 H       -4.7280    -4.8430     0.6450 H     1 <1>   0.0800 
 33 H       -4.8040    -4.6230    -1.0770 H     1 <1>   0.0800 
 34 H       -7.2800    -4.6840    -0.9820 H     1 <1>   0.0800 
 35 H       -7.2050    -4.8690     0.7490 H     1 <1>   0.0800 
 36 H       -9.1070    -6.4870     1.3040 H     1 <1>   0.0800 
 37 H       -9.4120    -6.0340    -0.3780 H     1 <1>   0.0800 
 38 H       -7.6880    -9.0690    -1.2590 H     1 <1>   0.0800 
 39 H       -6.9890    -9.2710     0.3390 H     1 <1>   0.0800 
 40 H      -10.4960    -8.0200    -0.8520 H     1 <1>   0.0800 
 41 H       -9.0380    -9.4530     1.3710 H     1 <1>   0.0800 
 42 H      -10.7000    -8.1520     1.9680 H     1 <1>   0.4000 
 43 H       -9.8650   -10.3280    -1.4150 H     1 <1>   0.0800 
 44 H      -10.6660   -10.7740     0.0650 H     1 <1>   0.0800 
 45 H       -8.0090   -12.3240    -2.1610 H     1 <1>   0.1500 
 46 H       -6.9450   -15.0280    -1.5010 H     1 <1>   0.0800 
 47 H       -6.0650   -14.9740     0.0090 H     1 <1>   0.0800 
 48 H       -5.6030   -13.9170    -1.3050 H     1 <1>   0.0800 
@<TRIPOS>BOND
  1   1   2  1   
  2   2   3  ar  
  3   2   4  ar  
  4   3   5  ar  
  5   3  26  1   
  6   4   6  ar  
  7   4  27  1   
  8   5   7  ar  
  9   5  28  1   
 10   6   7  ar  
 11   6  29  1   
 12   7   8  1   
 13   8   9  1   
 14   8  30  1   
 15   8  31  1   
 16   9  10  1   
 17   9  32  1   
 18   9  33  1   
 19  10  11  1   
 20  10  34  1   
 21  10  35  1   
 22  11  12  2   
 23  11  13  am  
 24  13  14  1   
 25  13  15  1   
 26  14  16  1   
 27  14  36  1   
 28  14  37  1   
 29  15  17  1   
 30  15  38  1   
 31  15  39  1   
 32  16  17  1   
 33  16  18  1   
 34  16  40  1   
 35  17  19  1   
 36  17  41  1   
 37  18  42  1   
 38  19  20  1   
 39  19  43  1   
 40  19  44  1   
 41  20  21  1   
 42  20  22  2   
 43  21  23  1   
 44  22  24  1   
 45  22  45  1   
 46  23  24  2   
 47  24  25  1   
 48  25  46  1   
 49  25  47  1   
 50  25  48  1   
@<TRIPOS>SUBSTRUCTURE
  1 ****  11 GROUP 4 **** **** 0

# MOE 2024.06 (io_trps.svl 2023.06)
