@<TRIPOS>MOLECULE
NONAME
52 54 1 0 0 
SMALL
USER_CHARGES


@<TRIPOS>ATOM
  1 O        0.7970     0.7800     1.1440 O.2   1 <1>  -0.5700 
  2 C        1.4490    -0.1230     0.6730 C.2   1 <1>   0.5690 
  3 N        2.6340     0.1180     0.0190 N.am  1 <1>  -0.6600 
  4 C        0.9130    -1.5290     0.8860 C.3   1 <1>   0.1570 
  5 C        3.5250    -0.9120    -0.6110 C.3   1 <1>   0.1400 
  6 C        3.1170     1.5130    -0.1780 C.3   1 <1>   0.1400 
  7 N        0.4870    -2.1580    -0.3820 N.pl3 1 <1>   0.0480 
  8 C        4.8080    -1.1520     0.2010 C.3   1 <1>   0.1400 
  9 C        3.9630     1.9800     1.0140 C.3   1 <1>  -0.1600 
 10 C        0.6820    -3.4370    -0.7940 C.2   1 <1>   0.0060 
 11 C       -0.1680    -1.5700    -1.4010 C.2   1 <1>  -0.3020 
 12 N        5.5520     0.1160     0.4840 N.am  1 <1>  -0.6600 
 13 C        4.9540     0.9460     1.5680 C.3   1 <1>   0.1400 
 14 N        0.2170    -3.6790    -1.9740 N.2   1 <1>  -0.5650 
 15 C        1.3760    -4.4990     0.0360 C.3   1 <1>  -0.0600 
 16 C       -0.3210    -2.5080    -2.3580 C.2   1 <1>   0.0770 
 17 C        6.6630     0.4520    -0.2470 C.2   1 <1>   0.5690 
 18 O        7.0330    -0.2330    -1.1710 O.2   1 <1>  -0.5700 
 19 C        7.4550     1.7110     0.0970 C.3   1 <1>  -0.0990 
 20 C        8.6390     1.9940    -0.8470 C.3   1 <1>  -0.1600 
 21 C        9.3980     3.2690    -0.4570 C.3   1 <1>   0.0210 
 22 C       10.5610     3.5560    -1.3920 C.2   1 <1>  -0.1810 
 23 C       11.4320     4.6370    -1.2890 C.2   1 <1>   0.1390 
 24 C       10.9960     2.8750    -2.4750 C.2   1 <1>  -0.3020 
 25 N       12.3350     4.6370    -2.2220 N.2   1 <1>  -0.7070 
 26 N       12.0620     3.5430    -2.9570 N.pl3 1 <1>   0.3000 
 27 H        0.0640    -1.4840     1.5420 H     1 <1>   0.0800 
 28 H        1.6730    -2.1240     1.3510 H     1 <1>   0.0800 
 29 H        3.8000    -0.5880    -1.6010 H     1 <1>   0.0800 
 30 H        3.0110    -1.8460    -0.7280 H     1 <1>   0.0800 
 31 H        2.2780     2.1760    -0.3070 H     1 <1>   0.0800 
 32 H        3.7080     1.5630    -1.0770 H     1 <1>   0.0800 
 33 H        5.4380    -1.8330    -0.3460 H     1 <1>   0.0800 
 34 H        4.5580    -1.6350     1.1290 H     1 <1>   0.0800 
 35 H        3.2990     2.2720     1.8090 H     1 <1>   0.0800 
 36 H        4.4970     2.8640     0.7210 H     1 <1>   0.0800 
 37 H       -0.4820    -0.5410    -1.3920 H     1 <1>   0.1500 
 38 H        4.4310     0.2990     2.2520 H     1 <1>   0.0800 
 39 H        5.7250     1.4420     2.1320 H     1 <1>   0.0800 
 40 H        0.8700    -4.6250     0.9750 H     1 <1>   0.0800 
 41 H        2.4010    -4.2290     0.2100 H     1 <1>   0.0800 
 42 H        1.3560    -5.4370    -0.4900 H     1 <1>   0.0800 
 43 H       -0.7980    -2.4020    -3.3180 H     1 <1>   0.1500 
 44 H        7.8270     1.6060     1.0990 H     1 <1>   0.0800 
 45 H        6.7850     2.5500     0.0680 H     1 <1>   0.0800 
 46 H        8.2710     2.0940    -1.8540 H     1 <1>   0.0800 
 47 H        9.3170     1.1570    -0.8250 H     1 <1>   0.0800 
 48 H        9.7790     3.1680     0.5450 H     1 <1>   0.0800 
 49 H        8.7260     4.1090    -0.4770 H     1 <1>   0.0800 
 50 H       11.3750     5.3940    -0.5260 H     1 <1>   0.1500 
 51 H       10.6180     1.9730    -2.9220 H     1 <1>   0.1500 
 52 H       12.6200     3.2810    -3.7780 H     1 <1>   0.2700 
@<TRIPOS>BOND
  1   1   2  2   
  2   2   3  am  
  3   2   4  1   
  4   3   5  1   
  5   3   6  1   
  6   4   7  1   
  7   4  27  1   
  8   4  28  1   
  9   5   8  1   
 10   5  29  1   
 11   5  30  1   
 12   6   9  1   
 13   6  31  1   
 14   6  32  1   
 15   7  10  1   
 16   7  11  1   
 17   8  12  1   
 18   8  33  1   
 19   8  34  1   
 20   9  13  1   
 21   9  35  1   
 22   9  36  1   
 23  10  14  2   
 24  10  15  1   
 25  11  16  2   
 26  11  37  1   
 27  12  13  1   
 28  12  17  am  
 29  13  38  1   
 30  13  39  1   
 31  14  16  1   
 32  15  40  1   
 33  15  41  1   
 34  15  42  1   
 35  16  43  1   
 36  17  18  2   
 37  17  19  1   
 38  19  20  1   
 39  19  44  1   
 40  19  45  1   
 41  20  21  1   
 42  20  46  1   
 43  20  47  1   
 44  21  22  1   
 45  21  48  1   
 46  21  49  1   
 47  22  23  1   
 48  22  24  2   
 49  23  25  2   
 50  23  50  1   
 51  24  26  1   
 52  24  51  1   
 53  25  26  1   
 54  26  52  1   
@<TRIPOS>SUBSTRUCTURE
  1 ****  12 GROUP 4 **** **** 0

# MOE 2024.06 (io_trps.svl 2023.06)
