@<TRIPOS>MOLECULE
NONAME
49 52 1 0 0 
SMALL
USER_CHARGES


@<TRIPOS>ATOM
  1 O       -0.8650     0.5960    -2.6850 O.2   1 <1>  -0.5700 
  2 C       -1.4820     1.0190    -1.7360 C.2   1 <1>   0.5690 
  3 N       -2.2180     0.1770    -0.9370 N.am  1 <1>  -0.6600 
  4 C       -1.4050     2.5200    -1.4740 C.3   1 <1>   0.0820 
  5 C       -2.1790    -1.3090    -1.1270 C.3   1 <1>   0.1400 
  6 C       -3.0180     0.5900     0.2610 C.3   1 <1>   0.1400 
  7 C       -0.9490     2.8780    -0.0620 C.2   1 <1>  -0.1810 
  8 C       -3.5750    -1.9420    -0.9790 C.3   1 <1>   0.3440 
  9 C       -4.3690    -0.1560     0.3360 C.3   1 <1>   0.2950 
 10 C        0.0050     2.3260     0.7070 C.2   1 <1>  -0.0400 
 11 C       -1.4750     3.8810     0.7540 C.2   1 <1>   0.1080 
 12 O       -4.1670    -1.5330     0.2250 O.3   1 <1>  -0.5600 
 13 C       -3.4780    -3.4640    -1.0090 C.ar  1 <1>  -0.1440 
 14 C       -5.1530     0.0810     1.6390 C.3   1 <1>  -0.1950 
 15 O        0.0040     2.9470     1.8550 O.3   1 <1>  -0.0190 
 16 C        0.9950     1.1990     0.4860 C.3   1 <1>  -0.0600 
 17 N       -0.8910     3.8900     1.8970 N.2   1 <1>  -0.4100 
 18 C       -2.5820     4.8450     0.3860 C.3   1 <1>  -0.0590 
 19 C       -3.6010    -4.1360    -2.2180 C.ar  1 <1>  -0.1500 
 20 C       -3.2530    -4.1970     0.1480 C.ar  1 <1>  -0.1500 
 21 C       -5.0610     1.3410     2.4470 C.3   1 <1>  -0.2000 
 22 C       -4.5320     0.0480     3.0010 C.3   1 <1>  -0.2000 
 23 C       -3.5000    -5.5160    -2.2680 C.ar  1 <1>  -0.1500 
 24 C       -3.1510    -5.5770     0.1000 C.ar  1 <1>  -0.1500 
 25 C       -3.2740    -6.2370    -1.1100 C.ar  1 <1>  -0.1500 
 26 H       -0.7200     2.9600    -2.1760 H     1 <1>   0.0800 
 27 H       -2.3750     2.9330    -1.6670 H     1 <1>   0.0800 
 28 H       -1.7890    -1.5560    -2.0990 H     1 <1>   0.0800 
 29 H       -1.5220    -1.7400    -0.3930 H     1 <1>   0.0800 
 30 H       -2.4430     0.3860     1.1460 H     1 <1>   0.0800 
 31 H       -3.2220     1.6420     0.2330 H     1 <1>   0.0800 
 32 H       -4.2070    -1.6130    -1.7860 H     1 <1>   0.0800 
 33 H       -4.9850     0.1580    -0.4900 H     1 <1>   0.0800 
 34 H       -6.1340    -0.3570     1.5600 H     1 <1>   0.1000 
 35 H        0.9580     0.8460    -0.5280 H     1 <1>   0.0800 
 36 H        0.7690     0.3830     1.1480 H     1 <1>   0.0800 
 37 H        1.9900     1.5470     0.6900 H     1 <1>   0.0800 
 38 H       -2.3340     5.3580    -0.5250 H     1 <1>   0.0800 
 39 H       -2.7060     5.5740     1.1680 H     1 <1>   0.0800 
 40 H       -3.5070     4.3140     0.2590 H     1 <1>   0.0800 
 41 H       -3.7750    -3.5910    -3.1290 H     1 <1>   0.1500 
 42 H       -3.1600    -3.6930     1.0950 H     1 <1>   0.1500 
 43 H       -4.3400     2.1080     2.2220 H     1 <1>   0.1000 
 44 H       -5.9620     1.7470     2.8740 H     1 <1>   0.1000 
 45 H       -5.0720    -0.4400     3.7940 H     1 <1>   0.1000 
 46 H       -3.4680    -0.0820     3.0990 H     1 <1>   0.1000 
 47 H       -3.5970    -6.0290    -3.2090 H     1 <1>   0.1500 
 48 H       -2.9790    -6.1340     1.0030 H     1 <1>   0.1500 
 49 H       -3.1960    -7.3100    -1.1480 H     1 <1>   0.1500 
@<TRIPOS>BOND
  1   1   2  2   
  2   2   3  am  
  3   2   4  1   
  4   3   5  1   
  5   3   6  1   
  6   4   7  1   
  7   4  26  1   
  8   4  27  1   
  9   5   8  1   
 10   5  28  1   
 11   5  29  1   
 12   6   9  1   
 13   6  30  1   
 14   6  31  1   
 15   7  10  2   
 16   7  11  1   
 17   8  12  1   
 18   8  13  1   
 19   8  32  1   
 20   9  12  1   
 21   9  14  1   
 22   9  33  1   
 23  10  15  1   
 24  10  16  1   
 25  11  17  2   
 26  11  18  1   
 27  13  19  ar  
 28  13  20  ar  
 29  14  21  1   
 30  14  22  1   
 31  14  34  1   
 32  15  17  1   
 33  16  35  1   
 34  16  36  1   
 35  16  37  1   
 36  18  38  1   
 37  18  39  1   
 38  18  40  1   
 39  19  23  ar  
 40  19  41  1   
 41  20  24  ar  
 42  20  42  1   
 43  21  22  1   
 44  21  43  1   
 45  21  44  1   
 46  22  45  1   
 47  22  46  1   
 48  23  25  ar  
 49  23  47  1   
 50  24  25  ar  
 51  24  48  1   
 52  25  49  1   
@<TRIPOS>SUBSTRUCTURE
  1 ****   6 GROUP 4 **** **** 0

# MOE 2024.06 (io_trps.svl 2023.06)
