@<TRIPOS>MOLECULE
NONAME
67 70 1 0 0 
SMALL
USER_CHARGES


@<TRIPOS>ATOM
  1 O       -1.3900    -0.1060     1.9320 O.3   1 <1>  -0.5600 
  2 C       -2.0050    -0.5810     0.7690 C.3   1 <1>   0.1200 
  3 C       -2.1050     0.8880     2.6070 C.3   1 <1>   0.1200 
  4 C       -2.2190     0.5720    -0.2290 C.3   1 <1>   0.2090 
  5 C       -2.3210     2.1150     1.6990 C.3   1 <1>   0.2090 
  6 N       -2.9790     1.7090     0.4050 N.pl3 1 <1>  -0.8380 
  7 C       -4.0390     2.3380    -0.1450 C.ar  1 <1>   0.4610 
  8 N       -4.0040     3.6730    -0.1480 N.ar  1 <1>  -0.1790 
  9 C       -5.1760     1.7030    -0.7440 C.ar  1 <1>  -0.1430 
 10 C       -4.9320     4.4920    -0.7580 C.ar  1 <1>   0.3610 
 11 C       -6.1160     2.4710    -1.3710 C.ar  1 <1>  -0.1500 
 12 C       -5.3160     0.1790    -0.6110 C.3   1 <1>   0.2530 
 13 C       -6.0160     3.8870    -1.4090 C.ar  1 <1>   0.0000 
 14 C       -4.8090     5.8840    -0.7510 C.ar  1 <1>  -0.1500 
 15 N       -6.6770    -0.3770    -0.7460 N.3   1 <1>  -0.8100 
 16 C       -6.9510     4.7070    -2.0540 C.ar  1 <1>  -0.1500 
 17 C       -5.7400     6.6740    -1.3850 C.ar  1 <1>  -0.1430 
 18 C       -7.0670    -0.7440    -2.1280 C.3   1 <1>   0.2900 
 19 C       -7.7130     0.1410     0.1790 C.3   1 <1>   0.1100 
 20 C       -6.8140     6.0730    -2.0400 C.ar  1 <1>  -0.1500 
 21 C       -5.6280     8.1900    -1.3920 C.3   1 <1>  -0.0970 
 22 C       -8.2670    -1.6670    -2.1020 C.2   1 <1>  -0.3320 
 23 C       -8.5000    -1.0170     0.8320 C.3   1 <1>   0.3430 
 24 N       -9.4780    -1.3410    -2.5980 N.pl3 1 <1>   0.0330 
 25 C       -8.3840    -2.9240    -1.6150 C.2   1 <1>   0.0460 
 26 N       -9.3200    -0.6120     2.0200 N.4   1 <1>  -0.9590 
 27 C      -10.2630    -2.4060    -2.3350 C.2   1 <1>   0.0360 
 28 N       -9.6470    -3.3650    -1.7260 N.2   1 <1>  -0.5650 
 29 C       -7.3270    -3.8130    -0.9970 C.3   1 <1>  -0.0590 
 30 C       -9.9140    -1.8440     2.6280 C.3   1 <1>   0.2630 
 31 C      -10.4090     0.3470     1.6560 C.3   1 <1>   0.2630 
 32 H       -2.9370    -1.0460     1.0370 H     1 <1>   0.0800 
 33 H       -1.3590    -1.3270     0.3420 H     1 <1>   0.0800 
 34 H       -1.5350     1.1640     3.4770 H     1 <1>   0.0800 
 35 H       -3.0460     0.4780     2.9290 H     1 <1>   0.0800 
 36 H       -2.7030     0.2160    -1.1180 H     1 <1>   0.0800 
 37 H       -1.2480     0.9280    -0.5300 H     1 <1>   0.0800 
 38 H       -1.3630     2.5630     1.4970 H     1 <1>   0.0800 
 39 H       -2.9280     2.8290     2.2280 H     1 <1>   0.0800 
 40 H       -3.1700     4.1000     0.2420 H     1 <1>   0.4570 
 41 H       -6.9800     2.0470    -1.8470 H     1 <1>   0.1500 
 42 H       -4.9550    -0.1060     0.3620 H     1 <1>   0.0800 
 43 H       -4.6830    -0.3010    -1.3360 H     1 <1>   0.0800 
 44 H       -3.9780     6.3470    -0.2490 H     1 <1>   0.1500 
 45 H       -7.7860     4.2610    -2.5670 H     1 <1>   0.1500 
 46 H       -6.2530    -1.2660    -2.6040 H     1 <1>   0.0800 
 47 H       -7.2840     0.1310    -2.7120 H     1 <1>   0.0800 
 48 H       -8.3830     0.7890    -0.3560 H     1 <1>   0.0800 
 49 H       -7.2320     0.7040     0.9590 H     1 <1>   0.0800 
 50 H       -7.5410     6.6940    -2.5400 H     1 <1>   0.1500 
 51 H       -4.7570     8.5210    -0.8550 H     1 <1>   0.0800 
 52 H       -6.4970     8.6250    -0.9310 H     1 <1>   0.0800 
 53 H       -5.5600     8.5490    -2.4040 H     1 <1>   0.0800 
 54 H       -7.7900    -1.7700     1.1320 H     1 <1>   0.0800 
 55 H       -9.1540    -1.4560     0.0990 H     1 <1>   0.0800 
 56 H       -9.7570    -0.4930    -3.1010 H     1 <1>   0.2700 
 57 H       -8.6990    -0.1780     2.7190 H     1 <1>   0.4500 
 58 H      -11.3010    -2.4400    -2.6190 H     1 <1>   0.1500 
 59 H       -6.3850    -3.3000    -0.9360 H     1 <1>   0.0800 
 60 H       -7.2050    -4.6920    -1.6030 H     1 <1>   0.0800 
 61 H       -7.6320    -4.1140    -0.0130 H     1 <1>   0.0800 
 62 H      -10.5490    -2.3440     1.9130 H     1 <1>   0.0800 
 63 H      -10.5010    -1.5910     3.4950 H     1 <1>   0.0800 
 64 H       -9.1350    -2.5270     2.9270 H     1 <1>   0.0800 
 65 H      -11.0610    -0.0920     0.9190 H     1 <1>   0.0800 
 66 H       -9.9930     1.2560     1.2530 H     1 <1>   0.0800 
 67 H      -10.9930     0.5960     2.5270 H     1 <1>   0.0800 
@<TRIPOS>BOND
  1   1   2  1   
  2   1   3  1   
  3   2   4  1   
  4   2  32  1   
  5   2  33  1   
  6   3   5  1   
  7   3  34  1   
  8   3  35  1   
  9   4   6  1   
 10   4  36  1   
 11   4  37  1   
 12   5   6  1   
 13   5  38  1   
 14   5  39  1   
 15   6   7  1   
 16   7   8  ar  
 17   7   9  ar  
 18   8  10  ar  
 19   8  40  1   
 20   9  11  ar  
 21   9  12  1   
 22  10  13  ar  
 23  10  14  ar  
 24  11  13  ar  
 25  11  41  1   
 26  12  15  1   
 27  12  42  1   
 28  12  43  1   
 29  13  16  ar  
 30  14  17  ar  
 31  14  44  1   
 32  15  18  1   
 33  15  19  1   
 34  16  20  ar  
 35  16  45  1   
 36  17  20  ar  
 37  17  21  1   
 38  18  22  1   
 39  18  46  1   
 40  18  47  1   
 41  19  23  1   
 42  19  48  1   
 43  19  49  1   
 44  20  50  1   
 45  21  51  1   
 46  21  52  1   
 47  21  53  1   
 48  22  24  1   
 49  22  25  2   
 50  23  26  1   
 51  23  54  1   
 52  23  55  1   
 53  24  27  1   
 54  24  56  1   
 55  25  28  1   
 56  25  29  1   
 57  26  30  1   
 58  26  31  1   
 59  26  57  1   
 60  27  28  2   
 61  27  58  1   
 62  29  59  1   
 63  29  60  1   
 64  29  61  1   
 65  30  62  1   
 66  30  63  1   
 67  30  64  1   
 68  31  65  1   
 69  31  66  1   
 70  31  67  1   
@<TRIPOS>SUBSTRUCTURE
  1 ****   9 GROUP 4 **** **** 0

# MOE 2024.06 (io_trps.svl 2023.06)
