@<TRIPOS>MOLECULE
NONAME
40 41 1 0 0 
SMALL
USER_CHARGES


@<TRIPOS>ATOM
  1 S       -0.7950     0.6730     0.9940 S.o2  1 <1>   1.4470 
  2 O       -0.7160    -0.2450     2.1100 O.2   1 <1>  -0.6500 
  3 O       -1.3690     1.9780     1.2590 O.2   1 <1>  -0.6500 
  4 N       -1.7120    -0.0530    -0.2400 N.am  1 <1>  -0.8490 
  5 C        0.8580     0.8600     0.2730 C.ar  1 <1>  -0.0090 
  6 C       -1.2700    -1.3930    -0.6780 C.3   1 <1>   0.1960 
  7 C       -3.1630     0.0610    -0.0870 C.3   1 <1>   0.1960 
  8 C        1.1260     1.7890    -0.7290 C.ar  1 <1>   0.0820 
  9 C        1.9090     0.0550     0.7000 C.ar  1 <1>  -0.1500 
 10 C       -1.8210    -2.5300     0.1930 C.3   1 <1>  -0.1860 
 11 C       -3.7260    -1.0170     0.8420 C.3   1 <1>  -0.1600 
 12 O        0.1460     2.5780    -1.2130 O.3   1 <1>  -0.3620 
 13 C        2.3950     1.9090    -1.2740 C.ar  1 <1>  -0.1500 
 14 C        3.1820     0.1670     0.1650 C.ar  1 <1>  -0.1440 
 15 C       -1.4580    -3.8740    -0.4030 C.2   1 <1>   0.9060 
 16 C       -3.3360    -2.3950     0.3230 C.3   1 <1>   0.2000 
 17 C        0.1450     3.9210    -0.7860 C.3   1 <1>   0.0400 
 18 C        3.4230     1.1020    -0.8260 C.ar  1 <1>  -0.1500 
 19 C        4.2900    -0.7440     0.6620 C.3   1 <1>  -0.0970 
 20 O       -0.6840    -3.9260    -1.3630 O.co2 1 <1>  -0.9000 
 21 O       -1.9650    -4.8910     0.0890 O.co2 1 <1>  -0.9000 
 22 O       -3.7960    -3.3450     1.2050 O.3   1 <1>  -0.6800 
 23 H       -1.6100    -1.5440    -1.6890 H     1 <1>   0.0800 
 24 H       -0.1940    -1.4450    -0.7020 H     1 <1>   0.0800 
 25 H       -3.4240     1.0390     0.2810 H     1 <1>   0.0800 
 26 H       -3.6150    -0.0480    -1.0580 H     1 <1>   0.0800 
 27 H        1.7230    -0.6810     1.4660 H     1 <1>   0.1500 
 28 H       -1.3680    -2.4860     1.1630 H     1 <1>   0.0800 
 29 H       -4.7960    -0.9370     0.8720 H     1 <1>   0.0800 
 30 H       -3.3430    -0.8750     1.8370 H     1 <1>   0.0800 
 31 H        2.5710     2.6270    -2.0540 H     1 <1>   0.1500 
 32 H       -3.8000    -2.5860    -0.6310 H     1 <1>   0.0800 
 33 H       -0.7260     4.4010    -1.1930 H     1 <1>   0.0800 
 34 H        1.0370     4.4050    -1.1410 H     1 <1>   0.0800 
 35 H        0.1050     3.9450     0.2890 H     1 <1>   0.0800 
 36 H        4.4040     1.1990    -1.2570 H     1 <1>   0.1500 
 37 H        5.2520    -0.3960     0.3320 H     1 <1>   0.0800 
 38 H        4.1350    -1.7400     0.2850 H     1 <1>   0.0800 
 39 H        4.2880    -0.7770     1.7370 H     1 <1>   0.0800 
 40 H       -3.2810    -4.1780     0.9890 H     1 <1>   0.4000 
@<TRIPOS>BOND
  1   1   2  2   
  2   1   3  2   
  3   1   4  am  
  4   1   5  1   
  5   4   6  1   
  6   4   7  1   
  7   5   8  ar  
  8   5   9  ar  
  9   6  10  1   
 10   6  23  1   
 11   6  24  1   
 12   7  11  1   
 13   7  25  1   
 14   7  26  1   
 15   8  12  1   
 16   8  13  ar  
 17   9  14  ar  
 18   9  27  1   
 19  10  15  1   
 20  10  16  1   
 21  10  28  1   
 22  11  16  1   
 23  11  29  1   
 24  11  30  1   
 25  12  17  1   
 26  13  18  ar  
 27  13  31  1   
 28  14  18  ar  
 29  14  19  1   
 30  15  20  ar  
 31  15  21  ar  
 32  16  22  1   
 33  16  32  1   
 34  17  33  1   
 35  17  34  1   
 36  17  35  1   
 37  18  36  1   
 38  19  37  1   
 39  19  38  1   
 40  19  39  1   
 41  22  40  1   
@<TRIPOS>SUBSTRUCTURE
  1 ****   4 GROUP 4 **** **** 0

# MOE 2024.06 (io_trps.svl 2023.06)
