@<TRIPOS>MOLECULE
NONAME
39 41 1 0 0 
SMALL
USER_CHARGES


@<TRIPOS>ATOM
  1 O       -1.3470     0.6100     0.9900 O.3   1 <1>  -0.3400 
  2 C       -0.8270     1.6570     0.3010 C.ar  1 <1>   0.0830 
  3 C       -1.2820    -0.7070     0.4760 C.3   1 <1>   0.2580 
  4 C       -0.0210     1.5190    -0.8260 C.ar  1 <1>  -0.1500 
  5 C       -1.1370     2.9230     0.7680 C.ar  1 <1>  -0.1500 
  6 C       -2.2860    -0.9550    -0.6710 C.3   1 <1>   0.2450 
  7 C       -2.1430    -1.6860     1.2990 C.3   1 <1>   0.2450 
  8 C        0.4640     2.6410    -1.4800 C.ar  1 <1>  -0.1440 
  9 C       -0.6550     4.0450     0.1180 C.ar  1 <1>  -0.1500 
 10 N       -2.6600    -2.2570    -0.0020 N.3   1 <1>  -0.5900 
 11 C        0.1430     3.9030    -1.0050 C.ar  1 <1>  -0.1500 
 12 C        1.3410     2.4950    -2.7110 C.3   1 <1>  -0.0970 
 13 C       -3.9870    -2.6640    -0.0610 C.ar  1 <1>   0.4100 
 14 N       -4.9070    -1.7930     0.3430 N.ar  1 <1>  -0.6200 
 15 C       -4.3250    -3.9520    -0.5350 C.ar  1 <1>   0.1670 
 16 C       -6.1390    -2.2560     0.2520 C.ar  1 <1>   0.1670 
 17 N       -5.5580    -4.4120    -0.6240 N.ar  1 <1>  -0.6200 
 18 C       -3.2330    -4.9070    -0.9840 C.3   1 <1>  -0.0970 
 19 C       -6.4530    -3.5260    -0.2170 C.ar  1 <1>   0.1600 
 20 C       -7.2310    -1.3060     0.6980 C.3   1 <1>  -0.0970 
 21 H       -0.2720    -1.0370     0.3060 H     1 <1>   0.0000 
 22 H        0.2400     0.5510    -1.2050 H     1 <1>   0.1500 
 23 H       -1.7570     3.0250     1.6400 H     1 <1>   0.1500 
 24 H       -1.8160    -1.1260    -1.6230 H     1 <1>   0.0000 
 25 H       -3.1010    -0.2530    -0.6980 H     1 <1>   0.0000 
 26 H       -2.9150    -1.2090     1.8780 H     1 <1>   0.0000 
 27 H       -1.5660    -2.4130     1.8420 H     1 <1>   0.0000 
 28 H       -0.9000     5.0260     0.4840 H     1 <1>   0.1500 
 29 H        0.5120     4.7800    -1.5060 H     1 <1>   0.1500 
 30 H        1.8600     1.5540    -2.6980 H     1 <1>   0.0800 
 31 H        2.0720     3.2840    -2.7450 H     1 <1>   0.0800 
 32 H        0.7340     2.5460    -3.5970 H     1 <1>   0.0800 
 33 H       -2.6830    -4.4730    -1.7980 H     1 <1>   0.0800 
 34 H       -3.6550    -5.8400    -1.3110 H     1 <1>   0.0800 
 35 H       -2.5610    -5.1000    -0.1680 H     1 <1>   0.0800 
 36 H       -7.4840    -3.8280    -0.2590 H     1 <1>   0.1500 
 37 H       -7.0780    -1.0420     1.7280 H     1 <1>   0.0800 
 38 H       -8.2030    -1.7510     0.5930 H     1 <1>   0.0800 
 39 H       -7.1910    -0.4100     0.1040 H     1 <1>   0.0800 
@<TRIPOS>BOND
  1   1   2  1   
  2   1   3  1   
  3   2   4  ar  
  4   2   5  ar  
  5   3   6  1   
  6   3   7  1   
  7   3  21  1   
  8   4   8  ar  
  9   4  22  1   
 10   5   9  ar  
 11   5  23  1   
 12   6  10  1   
 13   6  24  1   
 14   6  25  1   
 15   7  10  1   
 16   7  26  1   
 17   7  27  1   
 18   8  11  ar  
 19   8  12  1   
 20   9  11  ar  
 21   9  28  1   
 22  10  13  1   
 23  11  29  1   
 24  12  30  1   
 25  12  31  1   
 26  12  32  1   
 27  13  14  ar  
 28  13  15  ar  
 29  14  16  ar  
 30  15  17  ar  
 31  15  18  1   
 32  16  19  ar  
 33  16  20  1   
 34  17  19  ar  
 35  18  33  1   
 36  18  34  1   
 37  18  35  1   
 38  19  36  1   
 39  20  37  1   
 40  20  38  1   
 41  20  39  1   
@<TRIPOS>SUBSTRUCTURE
  1 ****   6 GROUP 4 **** **** 0

# MOE 2024.06 (io_trps.svl 2023.06)
