@<TRIPOS>MOLECULE
NONAME
53 55 1 0 0 
SMALL
USER_CHARGES


@<TRIPOS>ATOM
  1 S        0.6850     0.2590    -0.4530 S.o2  1 <1>   1.3330 
  2 O       -0.3670     0.0860    -1.4260 O.2   1 <1>  -0.6500 
  3 O        2.0170     0.6030    -0.8990 O.2   1 <1>  -0.6500 
  4 N        0.7550    -1.0930     0.5660 N.am  1 <1>  -0.8490 
  5 C        0.1870     1.5830     0.6460 C.3   1 <1>  -0.0550 
  6 C        1.8020    -2.0420     0.1700 C.3   1 <1>   0.1160 
  7 C       -0.5270    -1.7960     0.6910 C.3   1 <1>   0.1160 
  8 C        0.0020     2.9220    -0.1040 C.3   1 <1>  -0.0800 
  9 C       -0.3840     4.1170     0.7650 C.3   1 <1>   0.2000 
 10 C        1.2660     3.3840    -0.8470 C.3   1 <1>   0.3430 
 11 O        0.4040     4.1310     1.9140 O.3   1 <1>  -0.6800 
 12 C        0.0210     5.3040    -0.1140 C.3   1 <1>   0.3430 
 13 N        1.2750     4.8780    -0.8130 N.4   1 <1>  -0.9590 
 14 C        2.4800     5.3760    -0.0920 C.3   1 <1>   0.4860 
 15 C        2.5320     6.8860    -0.2160 C.ar  1 <1>  -0.1440 
 16 C        2.2060     7.6840     0.8700 C.ar  1 <1>  -0.1500 
 17 C        2.9050     7.4850    -1.4110 C.ar  1 <1>  -0.1500 
 18 C        2.2410     9.0630     0.7590 C.ar  1 <1>  -0.1500 
 19 C        2.9400     8.8640    -1.5200 C.ar  1 <1>  -0.1500 
 20 C        2.6070     9.6620    -0.4360 C.ar  1 <1>  -0.1440 
 21 C        2.6420    11.1850    -0.5470 C.3   1 <1>   0.2390 
 22 N        3.6280    11.7770     0.3820 N.pl3 1 <1>   0.3140 
 23 N        3.2930    12.7590     1.2430 N.2   1 <1>  -0.7070 
 24 C        4.9370    11.4660     0.4890 C.2   1 <1>  -0.3020 
 25 C        4.3920    13.0420     1.8730 C.2   1 <1>   0.1390 
 26 C        5.4590    12.2640     1.4440 C.2   1 <1>  -0.1500 
 27 H       -0.7360     1.3150     1.1210 H     1 <1>   0.0800 
 28 H        0.9340     1.6870     1.4100 H     1 <1>   0.0800 
 29 H        1.8310    -2.8730     0.8530 H     1 <1>   0.0800 
 30 H        2.7660    -1.5600     0.1880 H     1 <1>   0.0800 
 31 H        1.6180    -2.4100    -0.8270 H     1 <1>   0.0800 
 32 H       -0.4450    -2.5910     1.4140 H     1 <1>   0.0800 
 33 H       -0.8220    -2.2160    -0.2580 H     1 <1>   0.0800 
 34 H       -1.2950    -1.1180     1.0210 H     1 <1>   0.0800 
 35 H       -0.7690     2.7850    -0.8440 H     1 <1>   0.0800 
 36 H       -1.4240     4.1450     1.0460 H     1 <1>   0.0800 
 37 H        1.2650     3.0140    -1.8610 H     1 <1>   0.0800 
 38 H        2.1400     2.9990    -0.3460 H     1 <1>   0.0800 
 39 H       -0.0140     3.6190     2.6400 H     1 <1>   0.4000 
 40 H        0.1570     6.1980     0.4720 H     1 <1>   0.0800 
 41 H       -0.7520     5.4790    -0.8430 H     1 <1>   0.0800 
 42 H        1.2990     5.2790    -1.7590 H     1 <1>   0.4500 
 43 H        2.4350     5.0920     0.9480 H     1 <1>   0.0800 
 44 H        3.3730     4.9530    -0.5230 H     1 <1>   0.0800 
 45 H        1.9260     7.2450     1.8140 H     1 <1>   0.1500 
 46 H        3.1780     6.8900    -2.2660 H     1 <1>   0.1500 
 47 H        1.9900     9.6740     1.6110 H     1 <1>   0.1500 
 48 H        3.2330     9.3130    -2.4550 H     1 <1>   0.1500 
 49 H        1.6740    11.5870    -0.3110 H     1 <1>   0.0800 
 50 H        2.9000    11.4880    -1.5440 H     1 <1>   0.0800 
 51 H        5.4110    10.7080    -0.1070 H     1 <1>   0.1500 
 52 H        4.4570    13.7960     2.6400 H     1 <1>   0.1500 
 53 H        6.4680    12.3110     1.8130 H     1 <1>   0.1500 
@<TRIPOS>BOND
  1   1   2  2   
  2   1   3  2   
  3   1   4  am  
  4   1   5  1   
  5   4   6  1   
  6   4   7  1   
  7   5   8  1   
  8   5  27  1   
  9   5  28  1   
 10   6  29  1   
 11   6  30  1   
 12   6  31  1   
 13   7  32  1   
 14   7  33  1   
 15   7  34  1   
 16   8   9  1   
 17   8  10  1   
 18   8  35  1   
 19   9  11  1   
 20   9  12  1   
 21   9  36  1   
 22  10  13  1   
 23  10  37  1   
 24  10  38  1   
 25  11  39  1   
 26  12  13  1   
 27  12  40  1   
 28  12  41  1   
 29  13  14  1   
 30  13  42  1   
 31  14  15  1   
 32  14  43  1   
 33  14  44  1   
 34  15  16  ar  
 35  15  17  ar  
 36  16  18  ar  
 37  16  45  1   
 38  17  19  ar  
 39  17  46  1   
 40  18  20  ar  
 41  18  47  1   
 42  19  20  ar  
 43  19  48  1   
 44  20  21  1   
 45  21  22  1   
 46  21  49  1   
 47  21  50  1   
 48  22  23  1   
 49  22  24  1   
 50  23  25  2   
 51  24  26  2   
 52  24  51  1   
 53  25  26  1   
 54  25  52  1   
 55  26  53  1   
@<TRIPOS>SUBSTRUCTURE
  1 ****  14 GROUP 4 **** **** 0

# MOE 2024.06 (io_trps.svl 2023.06)
