@<TRIPOS>MOLECULE
NONAME
42 43 1 0 0 
SMALL
USER_CHARGES


@<TRIPOS>ATOM
  1 S        0.6930    -0.8130     0.5740 S.o2  1 <1>   1.3330 
  2 O        1.2020    -1.0080     1.9080 O.2   1 <1>  -0.6500 
  3 O        1.4310    -1.2840    -0.5740 O.2   1 <1>  -0.6500 
  4 N       -0.7920    -1.5860     0.5750 N.am  1 <1>  -0.9140 
  5 C        0.2460     0.9080     0.3350 C.3   1 <1>  -0.0550 
  6 C       -0.7410    -2.9660     0.1020 C.3   1 <1>   0.2760 
  7 C        1.4510     1.8630     0.3260 C.3   1 <1>  -0.1600 
  8 C       -2.1520    -3.5210    -0.0490 C.3   1 <1>  -0.0800 
  9 C       -0.2140    -3.8830     1.2040 C.3   1 <1>   0.1200 
 10 C        1.0100     3.3160     0.1180 C.3   1 <1>  -0.1600 
 11 C       -2.4930    -4.0060     1.3650 C.3   1 <1>   0.1200 
 12 C       -3.1940    -2.5630    -0.6560 C.3   1 <1>  -0.0160 
 13 O       -1.2910    -4.0360     2.0780 O.3   1 <1>  -0.5600 
 14 C        2.2160     4.2590     0.1100 C.3   1 <1>  -0.2400 
 15 C       -4.5310    -3.2640    -0.8380 C.ar  1 <1>  -0.1440 
 16 C       -5.5670    -3.1110     0.0620 C.ar  1 <1>  -0.1500 
 17 C       -4.7750    -4.0930    -1.9130 C.ar  1 <1>  -0.1500 
 18 C       -6.7600    -3.7820    -0.1480 C.ar  1 <1>   0.1600 
 19 C       -6.0050    -4.7170    -2.0310 C.ar  1 <1>   0.1600 
 20 N       -7.0020    -4.5830    -1.1720 N.ar  1 <1>  -0.6200 
 21 H       -1.0160    -1.6810     1.5690 H     1 <1>   0.4200 
 22 H       -0.2770     1.0020    -0.5970 H     1 <1>   0.0800 
 23 H       -0.4250     1.2060     1.1180 H     1 <1>   0.0800 
 24 H       -0.1850    -3.0530    -0.8170 H     1 <1>   0.0800 
 25 H        1.9790     1.7750     1.2610 H     1 <1>   0.0800 
 26 H        2.1250     1.5730    -0.4640 H     1 <1>   0.0800 
 27 H       -2.0940    -4.3920    -0.6780 H     1 <1>   0.0800 
 28 H        0.6330    -3.4860     1.7350 H     1 <1>   0.0800 
 29 H        0.0320    -4.8530     0.8090 H     1 <1>   0.0800 
 30 H        0.4850     3.4080    -0.8190 H     1 <1>   0.0800 
 31 H        0.3380     3.6100     0.9080 H     1 <1>   0.0800 
 32 H       -2.9190    -4.9940     1.3550 H     1 <1>   0.0800 
 33 H       -3.1560    -3.3280     1.8740 H     1 <1>   0.0800 
 34 H       -2.8440    -2.2120    -1.6110 H     1 <1>   0.0800 
 35 H       -3.3280    -1.7010    -0.0260 H     1 <1>   0.0800 
 36 H        2.8910     4.0000    -0.6870 H     1 <1>   0.0800 
 37 H        2.7450     4.2020     1.0450 H     1 <1>   0.0800 
 38 H        1.8890     5.2740    -0.0360 H     1 <1>   0.0800 
 39 H       -5.4600    -2.4790     0.9240 H     1 <1>   0.1500 
 40 H       -4.0210    -4.2600    -2.6610 H     1 <1>   0.1500 
 41 H       -7.5580    -3.6520     0.5630 H     1 <1>   0.1500 
 42 H       -6.1790    -5.3610    -2.8770 H     1 <1>   0.1500 
@<TRIPOS>BOND
  1   1   2  2   
  2   1   3  2   
  3   1   4  am  
  4   1   5  1   
  5   4   6  1   
  6   4  21  1   
  7   5   7  1   
  8   5  22  1   
  9   5  23  1   
 10   6   8  1   
 11   6   9  1   
 12   6  24  1   
 13   7  10  1   
 14   7  25  1   
 15   7  26  1   
 16   8  11  1   
 17   8  12  1   
 18   8  27  1   
 19   9  13  1   
 20   9  28  1   
 21   9  29  1   
 22  10  14  1   
 23  10  30  1   
 24  10  31  1   
 25  11  13  1   
 26  11  32  1   
 27  11  33  1   
 28  12  15  1   
 29  12  34  1   
 30  12  35  1   
 31  14  36  1   
 32  14  37  1   
 33  14  38  1   
 34  15  16  ar  
 35  15  17  ar  
 36  16  18  ar  
 37  16  39  1   
 38  17  19  ar  
 39  17  40  1   
 40  18  20  ar  
 41  18  41  1   
 42  19  20  ar  
 43  19  42  1   
@<TRIPOS>SUBSTRUCTURE
  1 ****   4 GROUP 4 **** **** 0

# MOE 2024.06 (io_trps.svl 2023.06)
