@<TRIPOS>MOLECULE
NONAME
54 56 1 0 0 
SMALL
USER_CHARGES


@<TRIPOS>ATOM
  1 O       -0.8540    -0.3250     1.6930 O.2   1 <1>  -0.5700 
  2 C       -1.6370    -0.9180     0.9750 C.2   1 <1>   0.7800 
  3 O       -1.2190    -1.9100     0.1830 O.3   1 <1>  -0.4300 
  4 N       -2.9740    -0.6080     0.9410 N.am  1 <1>  -0.6600 
  5 C        0.0970    -2.3990     0.0390 C.3   1 <1>   0.2800 
  6 C       -3.9570    -1.3110     0.0800 C.3   1 <1>   0.1400 
  7 C       -3.5510     0.4610     1.7920 C.3   1 <1>   0.1400 
  8 C        1.0170    -1.2980    -0.5020 C.3   1 <1>  -0.2400 
  9 C       -0.0070    -3.5210    -0.9940 C.3   1 <1>  -0.2400 
 10 C        0.5950    -2.9810     1.3670 C.3   1 <1>  -0.2400 
 11 C       -4.7630    -0.3190    -0.7750 C.3   1 <1>  -0.1600 
 12 C       -4.1540     1.5320     0.8930 C.3   1 <1>  -0.1600 
 13 C       -5.2150     1.0010    -0.1000 C.3   1 <1>   0.1430 
 14 C       -6.6240     1.0470     0.5330 C.ar  1 <1>  -0.1440 
 15 C       -5.3760     2.0610    -1.2140 C.3   1 <1>  -0.1600 
 16 C       -7.3580     0.1380     1.3030 C.ar  1 <1>  -0.1440 
 17 C       -7.2030     2.2700     0.2300 C.ar  1 <1>  -0.1440 
 18 C       -6.3250     3.1230    -0.6610 C.3   1 <1>   0.0630 
 19 C       -8.6160     0.5040     1.7660 C.ar  1 <1>  -0.1500 
 20 C       -6.8910    -1.2590     1.6670 C.3   1 <1>  -0.0970 
 21 C       -8.4530     2.6310     0.6950 C.ar  1 <1>  -0.1500 
 22 C       -7.0540     3.8690    -1.7910 C.3   1 <1>  -0.2660 
 23 C       -9.1610     1.7400     1.4730 C.ar  1 <1>  -0.1500 
 24 C       -7.6010     5.1970    -1.3340 C.2   1 <1>   0.9060 
 25 O       -8.8200     5.3880    -1.3730 O.co2 1 <1>  -0.9000 
 26 O       -6.8000     6.0580    -0.9580 O.co2 1 <1>  -0.9000 
 27 H       -4.5940    -1.8980     0.7070 H     1 <1>   0.0800 
 28 H       -3.4580    -2.0000    -0.5800 H     1 <1>   0.0800 
 29 H       -2.7910     0.9050     2.4120 H     1 <1>   0.0800 
 30 H       -4.3010     0.0510     2.4410 H     1 <1>   0.0800 
 31 H        0.5970    -0.8650    -1.3920 H     1 <1>   0.0800 
 32 H        1.9790    -1.7110    -0.7430 H     1 <1>   0.0800 
 33 H        1.1700    -0.5260     0.2290 H     1 <1>   0.0800 
 34 H       -0.3790    -3.1360    -1.9260 H     1 <1>   0.0800 
 35 H       -0.6690    -4.2920    -0.6420 H     1 <1>   0.0800 
 36 H        0.9590    -3.9590    -1.1700 H     1 <1>   0.0800 
 37 H        0.7480    -2.2070     2.0970 H     1 <1>   0.0800 
 38 H        1.5370    -3.4770     1.2200 H     1 <1>   0.0800 
 39 H       -0.1100    -3.6950     1.7520 H     1 <1>   0.0800 
 40 H       -5.6190    -0.8160    -1.1940 H     1 <1>   0.0800 
 41 H       -4.1210    -0.0670    -1.6010 H     1 <1>   0.0800 
 42 H       -3.3380     1.9800     0.3550 H     1 <1>   0.0800 
 43 H       -4.5850     2.3000     1.5100 H     1 <1>   0.0800 
 44 H       -5.8510     1.6030    -2.0650 H     1 <1>   0.0800 
 45 H       -4.4460     2.4930    -1.5360 H     1 <1>   0.0800 
 46 H       -5.7730     3.8210    -0.0530 H     1 <1>   0.0800 
 47 H       -9.1950    -0.1760     2.3640 H     1 <1>   0.1500 
 48 H       -5.9840    -1.2170     2.2340 H     1 <1>   0.0800 
 49 H       -6.7540    -1.8370     0.7730 H     1 <1>   0.0800 
 50 H       -7.6220    -1.7670     2.2690 H     1 <1>   0.0800 
 51 H       -8.8740     3.5930     0.4510 H     1 <1>   0.1500 
 52 H       -7.8560     3.2720    -2.1810 H     1 <1>   0.0800 
 53 H       -6.3680     4.0840    -2.5850 H     1 <1>   0.0800 
 54 H      -10.1350     2.0120     1.8390 H     1 <1>   0.1500 
@<TRIPOS>BOND
  1   1   2  2   
  2   2   3  1   
  3   2   4  am  
  4   3   5  1   
  5   4   6  1   
  6   4   7  1   
  7   5   8  1   
  8   5   9  1   
  9   5  10  1   
 10   6  11  1   
 11   6  27  1   
 12   6  28  1   
 13   7  12  1   
 14   7  29  1   
 15   7  30  1   
 16   8  31  1   
 17   8  32  1   
 18   8  33  1   
 19   9  34  1   
 20   9  35  1   
 21   9  36  1   
 22  10  37  1   
 23  10  38  1   
 24  10  39  1   
 25  11  13  1   
 26  11  40  1   
 27  11  41  1   
 28  12  13  1   
 29  12  42  1   
 30  12  43  1   
 31  13  14  1   
 32  13  15  1   
 33  14  16  ar  
 34  14  17  ar  
 35  15  18  1   
 36  15  44  1   
 37  15  45  1   
 38  16  19  ar  
 39  16  20  1   
 40  17  18  1   
 41  17  21  ar  
 42  18  22  1   
 43  18  46  1   
 44  19  23  ar  
 45  19  47  1   
 46  20  48  1   
 47  20  49  1   
 48  20  50  1   
 49  21  23  ar  
 50  21  51  1   
 51  22  24  1   
 52  22  52  1   
 53  22  53  1   
 54  23  54  1   
 55  24  25  ar  
 56  24  26  ar  
@<TRIPOS>SUBSTRUCTURE
  1 ****  13 GROUP 4 **** **** 0

# MOE 2024.06 (io_trps.svl 2023.06)
