@<TRIPOS>MOLECULE
NONAME
40 42 1 0 0 
SMALL
USER_CHARGES


@<TRIPOS>ATOM
  1 O        0.6000     0.7460     0.7960 O.3   1 <1>  -0.0190 
  2 N        1.5810    -0.1080     0.8540 N.2   1 <1>  -0.4100 
  3 C        0.9930     1.9150     0.3640 C.2   1 <1>  -0.0400 
  4 C        2.6250     0.5220     0.4510 C.2   1 <1>   0.1080 
  5 C        2.3110     1.8360     0.1160 C.2   1 <1>  -0.1500 
  6 C       -0.0280     3.0320     0.2320 C.3   1 <1>   0.0200 
  7 C        4.0040    -0.0920     0.3540 C.3   1 <1>  -0.0590 
  8 C        0.6130     4.3920    -0.0980 C.3   1 <1>  -0.0800 
  9 C       -0.3740     5.5140    -0.4100 C.3   1 <1>   0.2000 
 10 C        1.4490     4.9660     1.0440 C.3   1 <1>   0.2090 
 11 O       -1.4570     5.4220     0.4760 O.3   1 <1>  -0.5600 
 12 C        0.4350     6.7930    -0.1420 C.3   1 <1>   0.2090 
 13 N        1.5680     6.4170     0.7530 N.pl3 1 <1>  -0.8380 
 14 C       -2.6040     6.1080     0.0840 C.3   1 <1>   0.0400 
 15 C        2.8110     6.8800     0.4000 C.ar  1 <1>   0.4100 
 16 N        3.3690     6.3600    -0.6880 N.ar  1 <1>  -0.6200 
 17 C        3.4190     7.8600     1.1750 C.ar  1 <1>  -0.1500 
 18 C        4.5610     6.8390    -1.0050 C.ar  1 <1>   0.1600 
 19 C        4.6580     8.3440     0.8300 C.ar  1 <1>  -0.1500 
 20 C        5.2560     7.8160    -0.3050 C.ar  1 <1>   0.0730 
 21 C        6.5420     8.2530    -0.7510 C.1   1 <1>   0.4840 
 22 N        7.5670     8.5940    -1.1130 N.1   1 <1>  -0.5570 
 23 H        2.9950     2.5770    -0.2530 H     1 <1>   0.1500 
 24 H       -0.7240     2.7670    -0.5440 H     1 <1>   0.0800 
 25 H       -0.5800     3.1040     1.1530 H     1 <1>   0.0800 
 26 H        4.7200     0.5370     0.8490 H     1 <1>   0.0800 
 27 H        4.2800    -0.2010    -0.6790 H     1 <1>   0.0800 
 28 H        4.0070    -1.0600     0.8210 H     1 <1>   0.0800 
 29 H        1.2580     4.2790    -0.9510 H     1 <1>   0.0800 
 30 H       -0.7360     5.4580    -1.4220 H     1 <1>   0.0800 
 31 H        2.4160     4.4970     1.1060 H     1 <1>   0.0800 
 32 H        0.9350     4.8440     1.9830 H     1 <1>   0.0800 
 33 H       -0.1700     7.5510     0.3230 H     1 <1>   0.0800 
 34 H        0.8230     7.1720    -1.0720 H     1 <1>   0.0800 
 35 H       -3.3530     5.9650     0.8430 H     1 <1>   0.0800 
 36 H       -2.9570     5.7070    -0.8510 H     1 <1>   0.0800 
 37 H       -2.3850     7.1570    -0.0110 H     1 <1>   0.0800 
 38 H        2.8950     8.2220     2.0410 H     1 <1>   0.1500 
 39 H        5.0210     6.4250    -1.8870 H     1 <1>   0.1500 
 40 H        5.1450     9.1040     1.4170 H     1 <1>   0.1500 
@<TRIPOS>BOND
  1   1   2  1   
  2   1   3  1   
  3   2   4  2   
  4   3   5  2   
  5   3   6  1   
  6   4   5  1   
  7   4   7  1   
  8   5  23  1   
  9   6   8  1   
 10   6  24  1   
 11   6  25  1   
 12   7  26  1   
 13   7  27  1   
 14   7  28  1   
 15   8   9  1   
 16   8  10  1   
 17   8  29  1   
 18   9  11  1   
 19   9  12  1   
 20   9  30  1   
 21  10  13  1   
 22  10  31  1   
 23  10  32  1   
 24  11  14  1   
 25  12  13  1   
 26  12  33  1   
 27  12  34  1   
 28  13  15  1   
 29  14  35  1   
 30  14  36  1   
 31  14  37  1   
 32  15  16  ar  
 33  15  17  ar  
 34  16  18  ar  
 35  17  19  ar  
 36  17  38  1   
 37  18  20  ar  
 38  18  39  1   
 39  19  20  ar  
 40  19  40  1   
 41  20  21  1   
 42  21  22  3   
@<TRIPOS>SUBSTRUCTURE
  1 ****  10 GROUP 4 **** **** 0

# MOE 2024.06 (io_trps.svl 2023.06)
