@<TRIPOS>MOLECULE
NONAME
48 52 1 0 0 
SMALL
USER_CHARGES


@<TRIPOS>ATOM
  1 S       -1.5720    -2.5490     2.8530 S.3   1 <1>  -0.1570 
  2 C       -1.6960    -2.9530     1.1290 C.2   1 <1>   0.2420 
  3 C       -0.4700    -1.1990     2.4730 C.2   1 <1>  -0.0490 
  4 N       -2.3380    -3.8680     0.4940 N.2   1 <1>  -0.5650 
  5 N       -0.9510    -2.1060     0.3980 N.pl3 1 <1>   0.3340 
  6 C       -0.2640    -1.1260     1.1470 C.2   1 <1>  -0.1810 
  7 C       -1.9940    -3.6190    -0.8170 C.2   1 <1>   0.1410 
  8 C       -1.1450    -2.5410    -0.8570 C.2   1 <1>  -0.3020 
  9 C       -2.4300    -4.4000    -1.9750 C.2   1 <1>   0.7160 
 10 O       -1.7580    -4.3510    -2.9930 O.2   1 <1>  -0.5700 
 11 N       -3.5650    -5.1930    -1.9920 N.am  1 <1>  -0.6600 
 12 C       -3.6740    -6.3870    -2.8710 C.3   1 <1>   0.1400 
 13 C       -4.7140    -5.0460    -1.0630 C.3   1 <1>   0.1400 
 14 C       -3.7050    -7.6410    -1.9920 C.3   1 <1>  -0.1600 
 15 C       -4.7600    -6.2630    -0.1390 C.3   1 <1>  -0.1600 
 16 C       -4.8210    -7.5860    -0.9310 C.3   1 <1>   0.4240 
 17 O       -6.0070    -7.5480    -1.6970 O.3   1 <1>  -0.5600 
 18 C       -4.7820    -8.8280     0.0040 C.ar  1 <1>  -0.1430 
 19 C       -7.1920    -7.9390    -1.0830 C.3   1 <1>   0.1200 
 20 C       -3.6800    -9.1070     0.8210 C.ar  1 <1>   0.0830 
 21 C       -5.8720    -9.6950     0.0620 C.ar  1 <1>  -0.1430 
 22 C       -7.1020    -9.4270    -0.7790 C.3   1 <1>  -0.0170 
 23 O       -2.6030    -8.2850     0.8110 O.3   1 <1>  -0.3630 
 24 C       -3.6720   -10.2290     1.6440 C.ar  1 <1>  -0.1500 
 25 C       -5.8580   -10.8090     0.8870 C.ar  1 <1>  -0.1500 
 26 C       -1.9710    -7.9320     2.0220 C.3   1 <1>   0.0400 
 27 C       -4.7590   -11.0780     1.6780 C.ar  1 <1>  -0.1500 
 28 H       -0.1080    -0.6210     3.3060 H     1 <1>   0.1500 
 29 H        0.3480    -0.4230     0.6130 H     1 <1>   0.1500 
 30 H       -0.6810    -2.0900    -1.7140 H     1 <1>   0.1500 
 31 H       -2.8390    -6.4410    -3.5480 H     1 <1>   0.0800 
 32 H       -4.5760    -6.3180    -3.4550 H     1 <1>   0.0800 
 33 H       -5.6230    -4.9890    -1.6380 H     1 <1>   0.0800 
 34 H       -4.6340    -4.1400    -0.4900 H     1 <1>   0.0800 
 35 H       -2.7420    -7.7320    -1.5300 H     1 <1>   0.0800 
 36 H       -3.8450    -8.5130    -2.6030 H     1 <1>   0.0800 
 37 H       -5.5970    -6.1890     0.5270 H     1 <1>   0.0800 
 38 H       -3.8790    -6.2340     0.4700 H     1 <1>   0.0800 
 39 H       -7.9990    -7.7400    -1.7660 H     1 <1>   0.0800 
 40 H       -7.3370    -7.3650    -0.1850 H     1 <1>   0.0800 
 41 H       -7.0420    -9.9790    -1.7000 H     1 <1>   0.0800 
 42 H       -7.9890    -9.7330    -0.2540 H     1 <1>   0.0800 
 43 H       -2.8180   -10.4520     2.2530 H     1 <1>   0.1500 
 44 H       -6.7050   -11.4730     0.9170 H     1 <1>   0.1500 
 45 H       -1.3670    -7.0610     1.8380 H     1 <1>   0.0800 
 46 H       -1.3500    -8.7470     2.3450 H     1 <1>   0.0800 
 47 H       -2.7240    -7.7060     2.7570 H     1 <1>   0.0800 
 48 H       -4.7500   -11.9450     2.3140 H     1 <1>   0.1500 
@<TRIPOS>BOND
  1   1   2  1   
  2   1   3  1   
  3   2   4  2   
  4   2   5  1   
  5   3   6  2   
  6   3  28  1   
  7   4   7  1   
  8   5   6  1   
  9   5   8  1   
 10   6  29  1   
 11   7   8  2   
 12   7   9  1   
 13   8  30  1   
 14   9  10  2   
 15   9  11  am  
 16  11  12  1   
 17  11  13  1   
 18  12  14  1   
 19  12  31  1   
 20  12  32  1   
 21  13  15  1   
 22  13  33  1   
 23  13  34  1   
 24  14  16  1   
 25  14  35  1   
 26  14  36  1   
 27  15  16  1   
 28  15  37  1   
 29  15  38  1   
 30  16  17  1   
 31  16  18  1   
 32  17  19  1   
 33  18  20  ar  
 34  18  21  ar  
 35  19  22  1   
 36  19  39  1   
 37  19  40  1   
 38  20  23  1   
 39  20  24  ar  
 40  21  22  1   
 41  21  25  ar  
 42  22  41  1   
 43  22  42  1   
 44  23  26  1   
 45  24  27  ar  
 46  24  43  1   
 47  25  27  ar  
 48  25  44  1   
 49  26  45  1   
 50  26  46  1   
 51  26  47  1   
 52  27  48  1   
@<TRIPOS>SUBSTRUCTURE
  1 ****  15 GROUP 4 **** **** 0

# MOE 2024.06 (io_trps.svl 2023.06)
