@<TRIPOS>MOLECULE
NONAME
24 25 1 0 0 
SMALL
USER_CHARGES


@<TRIPOS>ATOM
  1 F       -0.4570    -0.4790    -0.7280 F     1 <1>  -0.1900 
  2 C       -1.5740    -1.0050    -0.3140 C.ar  1 <1>   0.1900 
  3 C       -2.7690    -0.4660    -0.7590 C.ar  1 <1>  -0.1500 
  4 C       -1.5230    -2.0830     0.5550 C.ar  1 <1>  -0.1500 
  5 C       -3.9420    -1.0410    -0.3060 C.ar  1 <1>  -0.1440 
  6 C       -2.7100    -2.6440     0.9970 C.ar  1 <1>  -0.1500 
  7 C       -3.9270    -2.1190     0.5620 C.ar  1 <1>   0.0860 
  8 C       -5.3640    -0.6370    -0.6450 C.3   1 <1>  -0.0160 
  9 C       -5.2560    -2.5310     0.8820 C.2   1 <1>   0.4230 
 10 C       -6.2580    -1.6300     0.1480 C.3   1 <1>   0.0610 
 11 O       -5.5820    -3.4360     1.6090 O.2   1 <1>  -0.5700 
 12 C       -7.1550    -0.8800     1.1490 C.3   1 <1>  -0.2400 
 13 C       -7.1380    -2.4570    -0.8080 C.3   1 <1>  -0.2400 
 14 H       -2.7700     0.3710    -1.4340 H     1 <1>   0.1500 
 15 H       -0.5720    -2.4700     0.8750 H     1 <1>   0.1500 
 16 H       -2.7120    -3.4830     1.6720 H     1 <1>   0.1500 
 17 H       -5.5230    -0.7160    -1.7060 H     1 <1>   0.0800 
 18 H       -5.5350     0.3820    -0.3440 H     1 <1>   0.0800 
 19 H       -6.5560    -0.3060     1.8340 H     1 <1>   0.0800 
 20 H       -7.7360    -1.5820     1.7210 H     1 <1>   0.0800 
 21 H       -7.8280    -0.2160     0.6360 H     1 <1>   0.0800 
 22 H       -6.5260    -2.9990    -1.5080 H     1 <1>   0.0800 
 23 H       -7.8110    -1.8200    -1.3550 H     1 <1>   0.0800 
 24 H       -7.7180    -3.1710    -0.2500 H     1 <1>   0.0800 
@<TRIPOS>BOND
  1   1   2  1   
  2   2   3  ar  
  3   2   4  ar  
  4   3   5  ar  
  5   3  14  1   
  6   4   6  ar  
  7   4  15  1   
  8   5   7  ar  
  9   5   8  1   
 10   6   7  ar  
 11   6  16  1   
 12   7   9  1   
 13   8  10  1   
 14   8  17  1   
 15   8  18  1   
 16   9  10  1   
 17   9  11  2   
 18  10  12  1   
 19  10  13  1   
 20  12  19  1   
 21  12  20  1   
 22  12  21  1   
 23  13  22  1   
 24  13  23  1   
 25  13  24  1   
@<TRIPOS>SUBSTRUCTURE
  1 ****   7 GROUP 4 **** **** 0

# MOE 2024.06 (io_trps.svl 2023.06)
