@<TRIPOS>MOLECULE
NONAME
50 52 1 0 0 
SMALL
USER_CHARGES


@<TRIPOS>ATOM
  1 O       -0.4470     0.9920     2.1850 O.2   1 <1>  -0.5700 
  2 C       -0.3540     2.1440     1.8480 C.2   1 <1>   0.5690 
  3 N       -1.4110     2.9780     1.9470 N.am  1 <1>  -0.7300 
  4 C        0.9600     2.6690     1.2630 C.3   1 <1>   0.1810 
  5 C       -1.3730     4.4070     1.5490 C.3   1 <1>   0.3640 
  6 O        1.0450     4.0780     1.2600 O.3   1 <1>  -0.5600 
  7 C       -2.6270     4.7200     0.7330 C.ar  1 <1>  -0.1440 
  8 C       -0.0950     4.7450     0.7360 C.3   1 <1>   0.2610 
  9 C       -3.0850     3.8550    -0.2540 C.ar  1 <1>  -0.1500 
 10 C       -3.3230     5.8970     0.9690 C.ar  1 <1>  -0.1500 
 11 C        0.1460     6.2640     0.6630 C.2   1 <1>   0.5690 
 12 C       -4.2170     4.1620    -0.9880 C.ar  1 <1>  -0.1500 
 13 C       -4.4550     6.2050     0.2360 C.ar  1 <1>  -0.1500 
 14 O       -0.3430     6.9740     1.5180 O.2   1 <1>  -0.5700 
 15 N        0.8910     6.8080    -0.3620 N.am  1 <1>  -0.6600 
 16 C       -4.9040     5.3370    -0.7430 C.ar  1 <1>  -0.1500 
 17 C        1.0650     8.2860    -0.4700 C.3   1 <1>   0.1400 
 18 C        1.5600     6.0040    -1.4230 C.3   1 <1>   0.0600 
 19 C        2.1510     8.8160     0.4870 C.3   1 <1>  -0.0800 
 20 C        2.2200    10.3510     0.3890 C.3   1 <1>  -0.1600 
 21 C        3.5390     8.1990     0.2230 C.3   1 <1>  -0.1600 
 22 C        3.2880    10.9320     1.3260 C.3   1 <1>  -0.1600 
 23 C        4.6080     8.7860     1.1540 C.3   1 <1>  -0.1600 
 24 C        4.6630    10.3140     1.0480 C.3   1 <1>  -0.1600 
 25 H       -2.2880     2.6270     2.3340 H     1 <1>   0.3700 
 26 H        1.0640     2.3210     0.2520 H     1 <1>   0.0800 
 27 H        1.7820     2.2950     1.8450 H     1 <1>   0.0800 
 28 H       -1.3820     4.9930     2.4520 H     1 <1>   0.0800 
 29 H       -0.2400     4.3900    -0.2660 H     1 <1>   0.0800 
 30 H       -2.5660     2.9340    -0.4580 H     1 <1>   0.1500 
 31 H       -2.9830     6.5870     1.7240 H     1 <1>   0.1500 
 32 H       -4.5660     3.4850    -1.7490 H     1 <1>   0.1500 
 33 H       -4.9860     7.1210     0.4280 H     1 <1>   0.1500 
 34 H       -5.7850     5.5760    -1.3130 H     1 <1>   0.1500 
 35 H        1.3100     8.5500    -1.4840 H     1 <1>   0.0800 
 36 H        0.1280     8.7600    -0.2300 H     1 <1>   0.0800 
 37 H        2.4010     6.5410    -1.8240 H     1 <1>   0.0800 
 38 H        0.8640     5.8040    -2.2190 H     1 <1>   0.0800 
 39 H        1.9210     5.0740    -1.0200 H     1 <1>   0.0800 
 40 H        1.8530     8.5660     1.4920 H     1 <1>   0.0800 
 41 H        2.4490    10.6380    -0.6230 H     1 <1>   0.0800 
 42 H        1.2630    10.7720     0.6450 H     1 <1>   0.0800 
 43 H        3.4980     7.1350     0.3790 H     1 <1>   0.0800 
 44 H        3.8240     8.3770    -0.7990 H     1 <1>   0.0800 
 45 H        3.3390    11.9990     1.1980 H     1 <1>   0.0800 
 46 H        3.0090    10.7350     2.3480 H     1 <1>   0.0800 
 47 H        4.3820     8.5080     2.1700 H     1 <1>   0.0800 
 48 H        5.5700     8.3720     0.9060 H     1 <1>   0.0800 
 49 H        5.3800    10.6990     1.7530 H     1 <1>   0.0800 
 50 H        4.9870    10.5920     0.0600 H     1 <1>   0.0800 
@<TRIPOS>BOND
  1   1   2  2   
  2   2   3  am  
  3   2   4  1   
  4   3   5  1   
  5   3  25  1   
  6   4   6  1   
  7   4  26  1   
  8   4  27  1   
  9   5   7  1   
 10   5   8  1   
 11   5  28  1   
 12   6   8  1   
 13   7   9  ar  
 14   7  10  ar  
 15   8  11  1   
 16   8  29  1   
 17   9  12  ar  
 18   9  30  1   
 19  10  13  ar  
 20  10  31  1   
 21  11  14  2   
 22  11  15  am  
 23  12  16  ar  
 24  12  32  1   
 25  13  16  ar  
 26  13  33  1   
 27  15  17  1   
 28  15  18  1   
 29  16  34  1   
 30  17  19  1   
 31  17  35  1   
 32  17  36  1   
 33  18  37  1   
 34  18  38  1   
 35  18  39  1   
 36  19  20  1   
 37  19  21  1   
 38  19  40  1   
 39  20  22  1   
 40  20  41  1   
 41  20  42  1   
 42  21  23  1   
 43  21  43  1   
 44  21  44  1   
 45  22  24  1   
 46  22  45  1   
 47  22  46  1   
 48  23  24  1   
 49  23  47  1   
 50  23  48  1   
 51  24  49  1   
 52  24  50  1   
@<TRIPOS>SUBSTRUCTURE
  1 ****  11 GROUP 4 **** **** 0

# MOE 2024.06 (io_trps.svl 2023.06)
