@<TRIPOS>MOLECULE
NONAME
51 53 1 0 0 
SMALL
USER_CHARGES


@<TRIPOS>ATOM
  1 F       -1.6730    -1.0030     2.0090 F     1 <1>  -0.1900 
  2 C       -2.1510    -1.3070     0.8290 C.ar  1 <1>   0.1900 
  3 C       -2.5790    -0.3250    -0.0700 C.ar  1 <1>   0.0830 
  4 C       -2.2160    -2.6560     0.5290 C.ar  1 <1>  -0.1500 
  5 O       -2.5620     1.0240     0.1140 O.3   1 <1>  -0.3630 
  6 C       -3.0790    -0.7530    -1.2910 C.ar  1 <1>  -0.1500 
  7 C       -2.7240    -3.0620    -0.6970 C.ar  1 <1>  -0.1430 
  8 C       -1.9430     1.6430     1.2210 C.3   1 <1>   0.0400 
  9 C       -3.1500    -2.1000    -1.6050 C.ar  1 <1>  -0.1500 
 10 C       -2.8140    -4.5370    -1.0420 C.3   1 <1>   0.4870 
 11 N       -3.9590    -5.1340    -0.3050 N.4   1 <1>  -0.9590 
 12 C       -5.2760    -4.5310    -0.7260 C.3   1 <1>   0.3430 
 13 C       -3.9930    -6.6290    -0.4520 C.3   1 <1>   0.3430 
 14 C       -6.4740    -5.1890    -0.0110 C.3   1 <1>   0.1900 
 15 C       -5.2160    -7.2570     0.2470 C.3   1 <1>   0.1100 
 16 N       -6.4850    -6.6620    -0.2320 N.3   1 <1>  -0.8100 
 17 C       -7.7830    -4.5510    -0.5000 C.3   1 <1>   0.1200 
 18 C       -7.7050    -7.2700     0.3810 C.3   1 <1>   0.1900 
 19 O       -8.8500    -5.1180     0.1860 O.3   1 <1>  -0.5600 
 20 C       -8.9810    -6.4920    -0.0380 C.3   1 <1>   0.1200 
 21 C       -7.8280    -8.7560    -0.0230 C.3   1 <1>  -0.1600 
 22 C       -9.1040    -9.4460     0.4900 C.3   1 <1>  -0.1600 
 23 C       -9.0730   -10.9480     0.1900 C.3   1 <1>  -0.2400 
 24 H       -1.8620    -3.3620     1.2600 H     1 <1>   0.1500 
 25 H       -3.4090    -0.0110    -1.9990 H     1 <1>   0.1500 
 26 H       -1.9980     2.7070     1.0820 H     1 <1>   0.0800 
 27 H       -0.9140     1.3340     1.2680 H     1 <1>   0.0800 
 28 H       -2.4700     1.3680     2.1170 H     1 <1>   0.0800 
 29 H       -3.5370    -2.3820    -2.5700 H     1 <1>   0.1500 
 30 H       -1.8950    -5.0240    -0.7590 H     1 <1>   0.0800 
 31 H       -2.9510    -4.6600    -2.1050 H     1 <1>   0.0800 
 32 H       -3.8350    -4.9110     0.6900 H     1 <1>   0.4500 
 33 H       -5.2780    -3.4750    -0.5110 H     1 <1>   0.0800 
 34 H       -5.4090    -4.6550    -1.7880 H     1 <1>   0.0800 
 35 H       -4.0390    -6.8890    -1.4970 H     1 <1>   0.0800 
 36 H       -3.0940    -7.0600    -0.0430 H     1 <1>   0.0800 
 37 H       -6.3940    -4.9860     1.0430 H     1 <1>   0.0800 
 38 H       -5.1320    -7.1400     1.3150 H     1 <1>   0.0800 
 39 H       -5.1960    -8.3090     0.0270 H     1 <1>   0.0800 
 40 H       -7.9270    -4.7060    -1.5560 H     1 <1>   0.0800 
 41 H       -7.7950    -3.4950    -0.2930 H     1 <1>   0.0800 
 42 H       -7.6300    -7.2120     1.4550 H     1 <1>   0.0800 
 43 H       -9.8270    -6.8220     0.5380 H     1 <1>   0.0800 
 44 H       -9.1950    -6.6510    -1.0810 H     1 <1>   0.0800 
 45 H       -7.7970    -8.8320    -1.0960 H     1 <1>   0.0800 
 46 H       -6.9990    -9.3050     0.3790 H     1 <1>   0.0800 
 47 H       -9.1940    -9.3040     1.5540 H     1 <1>   0.0800 
 48 H       -9.9760    -9.0270     0.0180 H     1 <1>   0.0800 
 49 H       -8.2360   -11.4160     0.6780 H     1 <1>   0.0800 
 50 H       -8.9970   -11.1190    -0.8700 H     1 <1>   0.0800 
 51 H       -9.9760   -11.4120     0.5450 H     1 <1>   0.0800 
@<TRIPOS>BOND
  1   1   2  1   
  2   2   3  ar  
  3   2   4  ar  
  4   3   5  1   
  5   3   6  ar  
  6   4   7  ar  
  7   4  24  1   
  8   5   8  1   
  9   6   9  ar  
 10   6  25  1   
 11   7   9  ar  
 12   7  10  1   
 13   8  26  1   
 14   8  27  1   
 15   8  28  1   
 16   9  29  1   
 17  10  11  1   
 18  10  30  1   
 19  10  31  1   
 20  11  12  1   
 21  11  13  1   
 22  11  32  1   
 23  12  14  1   
 24  12  33  1   
 25  12  34  1   
 26  13  15  1   
 27  13  35  1   
 28  13  36  1   
 29  14  16  1   
 30  14  17  1   
 31  14  37  1   
 32  15  16  1   
 33  15  38  1   
 34  15  39  1   
 35  16  18  1   
 36  17  19  1   
 37  17  40  1   
 38  17  41  1   
 39  18  20  1   
 40  18  21  1   
 41  18  42  1   
 42  19  20  1   
 43  20  43  1   
 44  20  44  1   
 45  21  22  1   
 46  21  45  1   
 47  21  46  1   
 48  22  23  1   
 49  22  47  1   
 50  22  48  1   
 51  23  49  1   
 52  23  50  1   
 53  23  51  1   
@<TRIPOS>SUBSTRUCTURE
  1 ****  12 GROUP 4 **** **** 0

# MOE 2024.06 (io_trps.svl 2023.06)
