@<TRIPOS>MOLECULE
NONAME
46 49 1 0 0 
SMALL
USER_CHARGES


@<TRIPOS>ATOM
  1 O       -0.5500    -2.6960     1.2910 O.3   1 <1>  -0.6800 
  2 C       -0.4800    -2.4160    -0.0650 C.3   1 <1>   0.4240 
  3 C        0.9780    -2.0150    -0.3810 C.ar  1 <1>  -0.1440 
  4 C       -1.4610    -1.2620    -0.3450 C.3   1 <1>  -0.0800 
  5 C       -0.9430    -3.6820    -0.7870 C.3   1 <1>  -0.1600 
  6 C        1.6360    -2.4280    -1.5380 C.ar  1 <1>  -0.1500 
  7 C        1.6720    -1.1910     0.5000 C.ar  1 <1>  -0.1500 
  8 C       -2.9180    -1.6210     0.0500 C.3   1 <1>   0.2890 
  9 C       -1.4060    -0.7140    -1.7910 C.3   1 <1>  -0.1600 
 10 C       -2.3190    -4.1380    -0.3220 C.3   1 <1>   0.2090 
 11 C        2.9380    -2.0360    -1.7990 C.ar  1 <1>  -0.1500 
 12 C        2.9730    -0.7960     0.2430 C.ar  1 <1>  -0.1500 
 13 N       -3.3130    -3.0320    -0.2930 N.pl3 1 <1>  -0.8380 
 14 C       -3.9410    -0.6570    -0.5990 C.3   1 <1>  -0.1600 
 15 C       -2.1910     0.6050    -1.9240 C.3   1 <1>  -0.1600 
 16 C        3.6090    -1.2190    -0.9090 C.ar  1 <1>  -0.1500 
 17 C       -4.5890    -3.4420    -0.0030 C.ar  1 <1>   0.7200 
 18 C       -3.3530     0.7220    -0.9240 C.3   1 <1>  -0.1600 
 19 N       -5.0960    -3.0680     1.1710 N.ar  1 <1>  -0.6200 
 20 N       -5.1850    -4.2050    -0.9150 N.ar  1 <1>  -0.6200 
 21 C       -6.3130    -3.4790     1.4280 C.ar  1 <1>   0.1600 
 22 C       -6.4010    -4.5990    -0.6300 C.ar  1 <1>   0.1600 
 23 C       -7.0230    -4.2580     0.5460 C.ar  1 <1>  -0.1500 
 24 H       -1.4750    -2.9260     1.5010 H     1 <1>   0.4000 
 25 H       -1.1490    -0.4490     0.2860 H     1 <1>   0.0800 
 26 H       -0.9930    -3.5100    -1.8450 H     1 <1>   0.0800 
 27 H       -0.2310    -4.4700    -0.6200 H     1 <1>   0.0800 
 28 H        1.1510    -3.0580    -2.2590 H     1 <1>   0.1500 
 29 H        1.1960    -0.8530     1.4040 H     1 <1>   0.1500 
 30 H       -2.9900    -1.5080     1.1200 H     1 <1>   0.0800 
 31 H       -0.3920    -0.5400    -2.1050 H     1 <1>   0.0800 
 32 H       -1.8370    -1.4410    -2.4590 H     1 <1>   0.0800 
 33 H       -2.2480    -4.5660     0.6640 H     1 <1>   0.0800 
 34 H       -2.6690    -4.9130    -0.9840 H     1 <1>   0.0800 
 35 H        3.4300    -2.3660    -2.6970 H     1 <1>   0.1500 
 36 H        3.4900    -0.1620     0.9420 H     1 <1>   0.1500 
 37 H       -4.3010    -1.0870    -1.5180 H     1 <1>   0.0800 
 38 H       -4.7810    -0.5380     0.0610 H     1 <1>   0.0800 
 39 H       -1.5240     1.4370    -1.7740 H     1 <1>   0.0800 
 40 H       -2.5730     0.6750    -2.9280 H     1 <1>   0.0800 
 41 H        4.6210    -0.9140    -1.1100 H     1 <1>   0.1500 
 42 H       -4.1170     1.3620    -1.3310 H     1 <1>   0.0800 
 43 H       -3.0010     1.1750    -0.0120 H     1 <1>   0.0800 
 44 H       -6.7570    -3.1890     2.3650 H     1 <1>   0.1500 
 45 H       -6.9150    -5.2110    -1.3530 H     1 <1>   0.1500 
 46 H       -8.0200    -4.5870     0.7670 H     1 <1>   0.1500 
@<TRIPOS>BOND
  1   1   2  1   
  2   1  24  1   
  3   2   3  1   
  4   2   4  1   
  5   2   5  1   
  6   3   6  ar  
  7   3   7  ar  
  8   4   8  1   
  9   4   9  1   
 10   4  25  1   
 11   5  10  1   
 12   5  26  1   
 13   5  27  1   
 14   6  11  ar  
 15   6  28  1   
 16   7  12  ar  
 17   7  29  1   
 18   8  13  1   
 19   8  14  1   
 20   8  30  1   
 21   9  15  1   
 22   9  31  1   
 23   9  32  1   
 24  10  13  1   
 25  10  33  1   
 26  10  34  1   
 27  11  16  ar  
 28  11  35  1   
 29  12  16  ar  
 30  12  36  1   
 31  13  17  1   
 32  14  18  1   
 33  14  37  1   
 34  14  38  1   
 35  15  18  1   
 36  15  39  1   
 37  15  40  1   
 38  16  41  1   
 39  17  19  ar  
 40  17  20  ar  
 41  18  42  1   
 42  18  43  1   
 43  19  21  ar  
 44  20  22  ar  
 45  21  23  ar  
 46  21  44  1   
 47  22  23  ar  
 48  22  45  1   
 49  23  46  1   
@<TRIPOS>SUBSTRUCTURE
  1 ****   4 GROUP 4 **** **** 0

# MOE 2024.06 (io_trps.svl 2023.06)
