@<TRIPOS>MOLECULE
NONAME
50 53 1 0 0 
SMALL
USER_CHARGES


@<TRIPOS>ATOM
  1 O        0.0910     0.7450    -0.5600 O.2   1 <1>  -0.5700 
  2 C       -0.5320     1.5410     0.1040 C.2   1 <1>   0.5690 
  3 N       -1.9080     1.5400     0.1030 N.am  1 <1>  -0.6600 
  4 C        0.2300     2.5680     0.9440 C.3   1 <1>   0.0440 
  5 C       -2.7830     2.5080     0.8420 C.3   1 <1>   0.1400 
  6 C       -2.6800     0.5250    -0.6740 C.3   1 <1>   0.1400 
  7 C        1.7550     2.5110     0.8660 C.ar  1 <1>  -0.1440 
  8 C       -3.7180     3.2580    -0.1270 C.3   1 <1>   0.1440 
  9 C       -3.6280     1.2230    -1.6570 C.3   1 <1>  -0.1600 
 10 C        2.4050     2.7720    -0.3310 C.ar  1 <1>  -0.1500 
 11 C        2.5080     2.2150     1.9930 C.ar  1 <1>  -0.1500 
 12 C       -4.5940     4.1940     0.6840 C.ar  1 <1>   0.1660 
 13 C       -4.5400     2.2400    -0.9470 C.3   1 <1>  -0.1600 
 14 C       -2.9360     4.2410    -1.0420 C.3   1 <1>  -0.1600 
 15 C        3.7870     2.7440    -0.4050 C.ar  1 <1>  -0.1500 
 16 C        3.8900     2.1880     1.9230 C.ar  1 <1>  -0.1500 
 17 N       -5.5810     3.8250     1.4670 N.ar  1 <1>  -0.6200 
 18 C       -4.2210     5.4970     0.5260 C.ar  1 <1>  -0.1440 
 19 C       -3.0440     5.6380    -0.4070 C.3   1 <1>  -0.0170 
 20 C        4.5400     2.4520     0.7290 C.ar  1 <1>   0.0820 
 21 C       -6.1850     4.8290     2.0830 C.ar  1 <1>   0.7200 
 22 C       -4.9300     6.4540     1.2110 C.ar  1 <1>   0.1600 
 23 O        5.8960     2.4040     0.7450 O.3   1 <1>  -0.3630 
 24 N       -5.9290     6.1270     1.9990 N.ar  1 <1>  -0.6200 
 25 N       -7.2010     4.4930     2.8780 N.pl3 1 <1>  -0.9000 
 26 C        6.6450     2.5820    -0.4350 C.3   1 <1>   0.0400 
 27 H       -0.0730     2.4420     1.9660 H     1 <1>   0.0800 
 28 H       -0.0740     3.5480     0.6290 H     1 <1>   0.0800 
 29 H       -2.2050     3.2210     1.3990 H     1 <1>   0.0800 
 30 H       -3.3830     1.9590     1.5480 H     1 <1>   0.0800 
 31 H       -3.2470    -0.0800     0.0130 H     1 <1>   0.0800 
 32 H       -2.0180    -0.1280    -1.2180 H     1 <1>   0.0800 
 33 H       -4.2330     0.4800    -2.1470 H     1 <1>   0.0800 
 34 H       -3.0420     1.7120    -2.4150 H     1 <1>   0.0800 
 35 H        1.8330     2.9890    -1.2160 H     1 <1>   0.1500 
 36 H        2.0280     2.0040     2.9320 H     1 <1>   0.1500 
 37 H       -5.1570     2.7520    -1.6650 H     1 <1>   0.0800 
 38 H       -5.1970     1.7080    -0.2810 H     1 <1>   0.0800 
 39 H       -3.4090     4.2820    -2.0080 H     1 <1>   0.0800 
 40 H       -1.9120     3.9480    -1.1880 H     1 <1>   0.0800 
 41 H        4.2550     2.9480    -1.3480 H     1 <1>   0.1500 
 42 H        4.4750     1.9590     2.7950 H     1 <1>   0.1500 
 43 H       -3.2140     6.3980    -1.1500 H     1 <1>   0.0800 
 44 H       -2.1580     5.8700     0.1590 H     1 <1>   0.0800 
 45 H       -4.6750     7.4960     1.1140 H     1 <1>   0.1500 
 46 H       -7.8430     5.2490     3.0990 H     1 <1>   0.4000 
 47 H       -7.6120     3.5820     2.6940 H     1 <1>   0.4000 
 48 H        7.6860     2.4760    -0.1890 H     1 <1>   0.0800 
 49 H        6.4590     3.5690    -0.8200 H     1 <1>   0.0800 
 50 H        6.3570     1.8290    -1.1470 H     1 <1>   0.0800 
@<TRIPOS>BOND
  1   1   2  2   
  2   2   3  am  
  3   2   4  1   
  4   3   5  1   
  5   3   6  1   
  6   4   7  1   
  7   4  27  1   
  8   4  28  1   
  9   5   8  1   
 10   5  29  1   
 11   5  30  1   
 12   6   9  1   
 13   6  31  1   
 14   6  32  1   
 15   7  10  ar  
 16   7  11  ar  
 17   8  12  1   
 18   8  13  1   
 19   8  14  1   
 20   9  13  1   
 21   9  33  1   
 22   9  34  1   
 23  10  15  ar  
 24  10  35  1   
 25  11  16  ar  
 26  11  36  1   
 27  12  17  ar  
 28  12  18  ar  
 29  13  37  1   
 30  13  38  1   
 31  14  19  1   
 32  14  39  1   
 33  14  40  1   
 34  15  20  ar  
 35  15  41  1   
 36  16  20  ar  
 37  16  42  1   
 38  17  21  ar  
 39  18  19  1   
 40  18  22  ar  
 41  19  43  1   
 42  19  44  1   
 43  20  23  1   
 44  21  24  ar  
 45  21  25  1   
 46  22  24  ar  
 47  22  45  1   
 48  23  26  1   
 49  25  46  1   
 50  25  47  1   
 51  26  48  1   
 52  26  49  1   
 53  26  50  1   
@<TRIPOS>SUBSTRUCTURE
  1 ****   4 GROUP 4 **** **** 0

# MOE 2024.06 (io_trps.svl 2023.06)
