@<TRIPOS>MOLECULE
NONAME
48 51 1 0 0 
SMALL
USER_CHARGES


@<TRIPOS>ATOM
  1 S       -0.7380     0.4890     0.2800 S.o2  1 <1>   1.0900 
  2 O        0.6030     0.2140    -0.1800 O.2   1 <1>  -0.6500 
  3 O       -1.0420     1.6260     1.1160 O.2   1 <1>  -0.6500 
  4 C       -1.3690    -1.0010     0.9960 C.3   1 <1>  -0.0550 
  5 C       -1.8260     0.4390    -1.1360 C.3   1 <1>  -0.0550 
  6 C       -1.7180    -1.8720    -0.2090 C.3   1 <1>   0.1760 
  7 C       -2.4400    -0.9700    -1.2310 C.3   1 <1>  -0.1600 
  8 N       -2.5560    -3.0350     0.1770 N.pl3 1 <1>   0.3140 
  9 N       -3.6300    -2.8810     0.9730 N.2   1 <1>  -0.7070 
 10 C       -2.4180    -4.3240    -0.2270 C.2   1 <1>  -0.3320 
 11 C       -4.1600    -4.0610     1.0540 C.2   1 <1>   0.1080 
 12 C       -3.4450    -5.0120     0.3200 C.2   1 <1>   0.0630 
 13 C       -1.3080    -4.8260    -1.1420 C.3   1 <1>  -0.0600 
 14 C       -5.4040    -4.3120     1.8770 C.3   1 <1>  -0.0590 
 15 N       -3.6890    -6.4010     0.1720 N.am  1 <1>  -0.4930 
 16 C       -4.8630    -7.0440    -0.1300 C.2   1 <1>   0.5440 
 17 O       -5.8830    -6.3990    -0.2830 O.2   1 <1>  -0.5700 
 18 C       -4.8880    -8.4870    -0.2590 C.ar  1 <1>   0.0860 
 19 C       -6.0100    -9.2170     0.1370 C.ar  1 <1>  -0.1500 
 20 C       -3.8070    -9.2070    -0.7800 C.ar  1 <1>  -0.1500 
 21 C       -6.0510   -10.5930     0.0330 C.ar  1 <1>   0.0820 
 22 C       -3.8370   -10.5860    -0.8860 C.ar  1 <1>  -0.1500 
 23 O       -7.1740   -11.2410     0.4550 O.3   1 <1>  -0.3630 
 24 C       -4.9570   -11.2960    -0.4790 C.ar  1 <1>   0.1170 
 25 C       -7.4160   -12.5920     0.0440 C.3   1 <1>   0.1810 
 26 N       -5.0170   -12.6840    -0.5630 N.am  1 <1>  -0.5470 
 27 C       -6.1450   -13.3770    -0.2790 C.2   1 <1>   0.5690 
 28 O       -6.1560   -14.5820    -0.3030 O.2   1 <1>  -0.5700 
 29 H       -2.2560    -0.7800     1.5590 H     1 <1>   0.0800 
 30 H       -0.6440    -1.4730     1.6290 H     1 <1>   0.0800 
 31 H       -1.2740     0.6710    -2.0280 H     1 <1>   0.0800 
 32 H       -2.6110     1.1640    -1.0260 H     1 <1>   0.0800 
 33 H       -0.8020    -2.2310    -0.6420 H     1 <1>   0.0800 
 34 H       -2.3460    -1.3680    -2.2260 H     1 <1>   0.0800 
 35 H       -3.4860    -0.9060    -0.9790 H     1 <1>   0.0800 
 36 H       -1.3240    -4.2880    -2.0730 H     1 <1>   0.0800 
 37 H       -1.4390    -5.8700    -1.3580 H     1 <1>   0.0800 
 38 H       -0.3490    -4.6910    -0.6740 H     1 <1>   0.0800 
 39 H       -5.4610    -3.6030     2.6810 H     1 <1>   0.0800 
 40 H       -5.3870    -5.3050     2.2860 H     1 <1>   0.0800 
 41 H       -6.2720    -4.2040     1.2530 H     1 <1>   0.0800 
 42 H       -2.8660    -6.9850     0.2910 H     1 <1>   0.3700 
 43 H       -6.8650    -8.6960     0.5330 H     1 <1>   0.1500 
 44 H       -2.9330    -8.6810    -1.1190 H     1 <1>   0.1500 
 45 H       -2.9910   -11.1140    -1.2890 H     1 <1>   0.1500 
 46 H       -8.0370   -12.5570    -0.8310 H     1 <1>   0.0800 
 47 H       -7.9520   -13.0820     0.8340 H     1 <1>   0.0800 
 48 H       -4.1960   -13.2380    -0.8080 H     1 <1>   0.3700 
@<TRIPOS>BOND
  1   1   2  2   
  2   1   3  2   
  3   1   4  1   
  4   1   5  1   
  5   4   6  1   
  6   4  29  1   
  7   4  30  1   
  8   5   7  1   
  9   5  31  1   
 10   5  32  1   
 11   6   7  1   
 12   6   8  1   
 13   6  33  1   
 14   7  34  1   
 15   7  35  1   
 16   8   9  1   
 17   8  10  1   
 18   9  11  2   
 19  10  12  2   
 20  10  13  1   
 21  11  12  1   
 22  11  14  1   
 23  12  15  1   
 24  13  36  1   
 25  13  37  1   
 26  13  38  1   
 27  14  39  1   
 28  14  40  1   
 29  14  41  1   
 30  15  16  am  
 31  15  42  1   
 32  16  17  2   
 33  16  18  1   
 34  18  19  ar  
 35  18  20  ar  
 36  19  21  ar  
 37  19  43  1   
 38  20  22  ar  
 39  20  44  1   
 40  21  23  1   
 41  21  24  ar  
 42  22  24  ar  
 43  22  45  1   
 44  23  25  1   
 45  24  26  1   
 46  25  27  1   
 47  25  46  1   
 48  25  47  1   
 49  26  27  am  
 50  26  48  1   
 51  27  28  2   
@<TRIPOS>SUBSTRUCTURE
  1 ****  15 GROUP 4 **** **** 0

# MOE 2024.06 (io_trps.svl 2023.06)
