@<TRIPOS>MOLECULE
NONAME
55 58 1 0 0 
SMALL
USER_CHARGES


@<TRIPOS>ATOM
  1 O       -2.7070     0.4420     1.8040 O.2   1 <1>  -0.5700 
  2 C       -2.5820     0.9220     0.7010 C.2   1 <1>   0.5690 
  3 N       -2.4840     0.1350    -0.4180 N.am  1 <1>  -0.6600 
  4 C       -2.5340     2.4360     0.6090 C.3   1 <1>   0.0820 
  5 C       -2.5550    -1.3580    -0.3280 C.3   1 <1>   0.3640 
  6 C       -2.3290     0.6780    -1.8040 C.3   1 <1>   0.1400 
  7 C       -1.1120     2.9150     0.4130 C.2   1 <1>   0.1080 
  8 C       -1.1360    -1.9460    -0.4760 C.ar  1 <1>  -0.1440 
  9 C       -3.6090    -1.8700    -1.3560 C.3   1 <1>   0.2000 
 10 C       -2.4520    -0.4030    -2.8940 C.3   1 <1>   0.1200 
 11 N       -0.6700     3.4080    -0.6970 N.2   1 <1>  -0.7070 
 12 C       -0.1340     2.8770     1.4240 C.ar  1 <1>   0.0000 
 13 C       -0.1420    -1.4870     0.3790 C.ar  1 <1>  -0.1500 
 14 C       -0.7940    -2.9140    -1.4140 C.ar  1 <1>  -0.1500 
 15 O       -3.5150    -1.2860    -2.6440 O.3   1 <1>  -0.5600 
 16 C       -5.0390    -1.6110    -0.8630 C.3   1 <1>   0.1200 
 17 N        0.6260     3.7120    -0.4470 N.pl3 1 <1>   0.3000 
 18 C        0.9900     3.4070     0.8300 C.ar  1 <1>  -0.1520 
 19 C       -0.0810     2.4600     2.7620 C.ar  1 <1>  -0.1500 
 20 C        1.1700    -1.9490     0.3050 C.ar  1 <1>   0.0830 
 21 C        0.4980    -3.4000    -1.4870 C.ar  1 <1>  -0.1500 
 22 O       -5.3420    -2.4440     0.2100 O.3   1 <1>  -0.6800 
 23 C        2.1900     3.5460     1.5380 C.ar  1 <1>  -0.1500 
 24 C        1.0930     2.5970     3.4640 C.ar  1 <1>  -0.1500 
 25 O        2.1400    -1.4360     1.1170 O.3   1 <1>  -0.3620 
 26 C        1.4870    -2.9400    -0.6360 C.ar  1 <1>   0.0830 
 27 C        2.2310     3.1410     2.8510 C.ar  1 <1>  -0.1500 
 28 C        1.9790    -0.1780     1.7380 C.3   1 <1>   0.0400 
 29 O        2.7110    -3.5150    -0.8140 O.3   1 <1>  -0.3630 
 30 C        3.6110    -3.6650     0.2610 C.3   1 <1>   0.0400 
 31 H       -3.1550     2.7820    -0.1930 H     1 <1>   0.0800 
 32 H       -2.9190     2.8550     1.5200 H     1 <1>   0.0800 
 33 H       -2.9000    -1.6440     0.6510 H     1 <1>   0.0800 
 34 H       -3.0830     1.4230    -1.9840 H     1 <1>   0.0800 
 35 H       -1.3670     1.1510    -1.8950 H     1 <1>   0.0800 
 36 H       -3.5050    -2.9310    -1.4860 H     1 <1>   0.0800 
 37 H       -1.5410    -0.9690    -2.9670 H     1 <1>   0.0800 
 38 H       -2.6270     0.0590    -3.8490 H     1 <1>   0.0800 
 39 H       -0.4120    -0.7530     1.1140 H     1 <1>   0.1500 
 40 H       -1.5130    -3.3080    -2.1090 H     1 <1>   0.1500 
 41 H       -5.7500    -1.8080    -1.6470 H     1 <1>   0.0800 
 42 H       -5.1430    -0.5930    -0.5310 H     1 <1>   0.0800 
 43 H        1.2420     4.1350    -1.1510 H     1 <1>   0.2700 
 44 H       -0.9600     2.0380     3.2180 H     1 <1>   0.1500 
 45 H        0.7510    -4.1500    -2.2150 H     1 <1>   0.1500 
 46 H       -5.4900    -3.3620    -0.0890 H     1 <1>   0.4000 
 47 H        3.0570     3.9640     1.0580 H     1 <1>   0.1500 
 48 H        1.1500     2.2880     4.4940 H     1 <1>   0.1500 
 49 H        3.1370     3.2380     3.4240 H     1 <1>   0.1500 
 50 H        2.9230     0.1120     2.1600 H     1 <1>   0.0800 
 51 H        1.2420    -0.2630     2.5170 H     1 <1>   0.0800 
 52 H        1.6730     0.5420     0.9990 H     1 <1>   0.0800 
 53 H        4.3250    -4.4230    -0.0030 H     1 <1>   0.0800 
 54 H        3.0650    -3.9600     1.1390 H     1 <1>   0.0800 
 55 H        4.1170    -2.7300     0.4210 H     1 <1>   0.0800 
@<TRIPOS>BOND
  1   1   2  2   
  2   2   3  am  
  3   2   4  1   
  4   3   5  1   
  5   3   6  1   
  6   4   7  1   
  7   4  31  1   
  8   4  32  1   
  9   5   8  1   
 10   5   9  1   
 11   5  33  1   
 12   6  10  1   
 13   6  34  1   
 14   6  35  1   
 15   7  11  2   
 16   7  12  1   
 17   8  13  ar  
 18   8  14  ar  
 19   9  15  1   
 20   9  16  1   
 21   9  36  1   
 22  10  15  1   
 23  10  37  1   
 24  10  38  1   
 25  11  17  1   
 26  12  18  ar  
 27  12  19  ar  
 28  13  20  ar  
 29  13  39  1   
 30  14  21  ar  
 31  14  40  1   
 32  16  22  1   
 33  16  41  1   
 34  16  42  1   
 35  17  18  1   
 36  17  43  1   
 37  18  23  ar  
 38  19  24  ar  
 39  19  44  1   
 40  20  25  1   
 41  20  26  ar  
 42  21  26  ar  
 43  21  45  1   
 44  22  46  1   
 45  23  27  ar  
 46  23  47  1   
 47  24  27  ar  
 48  24  48  1   
 49  25  28  1   
 50  26  29  1   
 51  27  49  1   
 52  28  50  1   
 53  28  51  1   
 54  28  52  1   
 55  29  30  1   
 56  30  53  1   
 57  30  54  1   
 58  30  55  1   
@<TRIPOS>SUBSTRUCTURE
  1 ****  13 GROUP 4 **** **** 0

# MOE 2024.06 (io_trps.svl 2023.06)
