@<TRIPOS>MOLECULE
NONAME
48 51 1 0 0 
SMALL
USER_CHARGES


@<TRIPOS>ATOM
  1 O       -1.7450     0.7900     2.2570 O.2   1 <1>  -0.5700 
  2 C       -2.0360     1.0340     1.1080 C.2   1 <1>   0.6300 
  3 N       -2.2800     0.0380     0.2010 N.am  1 <1>  -0.6600 
  4 C       -2.1060     2.5080     0.6790 C.3   1 <1>   0.0320 
  5 C       -2.0620    -1.3990     0.5780 C.3   1 <1>   0.3640 
  6 C       -2.6980     0.2960    -1.2130 C.3   1 <1>   0.1400 
  7 C       -0.9120     2.9150    -0.1810 C.ar  1 <1>  -0.0320 
  8 C       -3.4520     3.1700     0.5260 C.3   1 <1>  -0.2000 
  9 C       -2.5730     3.5340     1.6750 C.3   1 <1>  -0.2000 
 10 C       -0.6440    -1.8770     0.2150 C.ar  1 <1>  -0.1440 
 11 C       -3.1530    -2.3300    -0.0440 C.3   1 <1>   0.2000 
 12 C       -2.9450    -1.0010    -1.9960 C.3   1 <1>   0.1200 
 13 C       -1.0690     3.4190    -1.4650 C.ar  1 <1>  -0.1500 
 14 C        0.3680     2.7620     0.3300 C.ar  1 <1>  -0.1500 
 15 C       -0.2390    -3.1240     0.6750 C.ar  1 <1>  -0.1500 
 16 C        0.2620    -1.1260    -0.5290 C.ar  1 <1>  -0.1500 
 17 O       -3.7420    -1.8510    -1.2350 O.3   1 <1>  -0.5600 
 18 C       -4.3010    -2.5740     0.9420 C.3   1 <1>   0.1200 
 19 C        0.0370     3.7610    -2.2250 C.ar  1 <1>  -0.1500 
 20 C        1.4750     3.1020    -0.4270 C.ar  1 <1>  -0.1500 
 21 C        1.0190    -3.6210     0.3810 C.ar  1 <1>  -0.1500 
 22 C        1.5200    -1.6200    -0.8260 C.ar  1 <1>  -0.1500 
 23 O       -3.8810    -3.4160     1.9690 O.3   1 <1>  -0.6800 
 24 C        1.3100     3.6020    -1.7060 C.ar  1 <1>  -0.1500 
 25 C        1.9000    -2.8700    -0.3740 C.ar  1 <1>  -0.1500 
 26 H       -2.1350    -1.4900     1.6490 H     1 <1>   0.0800 
 27 H       -3.6040     0.8750    -1.2120 H     1 <1>   0.0800 
 28 H       -1.9380     0.8630    -1.7180 H     1 <1>   0.0800 
 29 H       -3.6150     3.9180    -0.2290 H     1 <1>   0.1000 
 30 H       -4.3360     2.5900     0.7280 H     1 <1>   0.1000 
 31 H       -2.8370     3.2020     2.6650 H     1 <1>   0.1000 
 32 H       -2.0880     4.4950     1.6800 H     1 <1>   0.1000 
 33 H       -2.7160    -3.2810    -0.2910 H     1 <1>   0.0800 
 34 H       -2.0210    -1.5020    -2.2310 H     1 <1>   0.0800 
 35 H       -3.4650    -0.7900    -2.9130 H     1 <1>   0.0800 
 36 H       -2.0500     3.5470    -1.8830 H     1 <1>   0.1500 
 37 H        0.5030     2.3720     1.3260 H     1 <1>   0.1500 
 38 H       -0.9050    -3.7190     1.2770 H     1 <1>   0.1500 
 39 H        0.0130    -0.1430    -0.8840 H     1 <1>   0.1500 
 40 H       -5.1350    -3.0410     0.4480 H     1 <1>   0.0800 
 41 H       -4.6160    -1.6430     1.3810 H     1 <1>   0.0800 
 42 H       -0.0920     4.1520    -3.2190 H     1 <1>   0.1500 
 43 H        2.4630     2.9770    -0.0190 H     1 <1>   0.1500 
 44 H        1.3130    -4.5900     0.7430 H     1 <1>   0.1500 
 45 H        2.2060    -1.0260    -1.4040 H     1 <1>   0.1500 
 46 H       -3.9000    -4.3500     1.6800 H     1 <1>   0.4000 
 47 H        2.1700     3.8670    -2.2960 H     1 <1>   0.1500 
 48 H        2.8780    -3.2540    -0.6040 H     1 <1>   0.1500 
@<TRIPOS>BOND
  1   1   2  2   
  2   2   3  am  
  3   2   4  1   
  4   3   5  1   
  5   3   6  1   
  6   4   7  1   
  7   4   8  1   
  8   4   9  1   
  9   5  10  1   
 10   5  11  1   
 11   5  26  1   
 12   6  12  1   
 13   6  27  1   
 14   6  28  1   
 15   7  13  ar  
 16   7  14  ar  
 17   8   9  1   
 18   8  29  1   
 19   8  30  1   
 20   9  31  1   
 21   9  32  1   
 22  10  15  ar  
 23  10  16  ar  
 24  11  17  1   
 25  11  18  1   
 26  11  33  1   
 27  12  17  1   
 28  12  34  1   
 29  12  35  1   
 30  13  19  ar  
 31  13  36  1   
 32  14  20  ar  
 33  14  37  1   
 34  15  21  ar  
 35  15  38  1   
 36  16  22  ar  
 37  16  39  1   
 38  18  23  1   
 39  18  40  1   
 40  18  41  1   
 41  19  24  ar  
 42  19  42  1   
 43  20  24  ar  
 44  20  43  1   
 45  21  25  ar  
 46  21  44  1   
 47  22  25  ar  
 48  22  45  1   
 49  23  46  1   
 50  24  47  1   
 51  25  48  1   
@<TRIPOS>SUBSTRUCTURE
  1 ****   3 GROUP 4 **** **** 0

# MOE 2024.06 (io_trps.svl 2023.06)
