@<TRIPOS>MOLECULE
NONAME
38 40 1 0 0 
SMALL
USER_CHARGES


@<TRIPOS>ATOM
  1 O       -0.4290     0.1690     0.1130 O.2   1 <1>  -0.5700 
  2 C       -1.4830     0.7730     0.2050 C.2   1 <1>   0.7160 
  3 N       -2.6480     0.0420     0.3030 N.am  1 <1>  -0.6600 
  4 C       -1.4860     2.2220     0.1950 C.2   1 <1>  -0.0860 
  5 C       -4.0020     0.5650    -0.0100 C.3   1 <1>   0.1400 
  6 C       -2.6590    -1.4460     0.2510 C.3   1 <1>   0.1400 
  7 C       -2.2520     3.1260     0.8920 C.2   1 <1>  -0.3020 
  8 C       -0.6150     3.0120    -0.5810 C.2   1 <1>  -0.1500 
  9 C       -4.9350    -0.6170     0.2410 C.3   1 <1>   0.2000 
 10 C       -4.0870    -1.8280    -0.1510 C.3   1 <1>  -0.0800 
 11 N       -1.9020     4.3920     0.5700 N.pl3 1 <1>   0.0330 
 12 C       -0.8950     4.3170    -0.3370 C.2   1 <1>  -0.3020 
 13 O       -5.2070    -0.6600     1.6010 O.3   1 <1>  -0.6800 
 14 C       -4.5550    -3.1790     0.4200 C.3   1 <1>   0.0210 
 15 C       -3.6460    -4.3030    -0.0400 C.2   1 <1>   0.1080 
 16 N       -3.5240    -4.6430    -1.2850 N.2   1 <1>  -0.7070 
 17 C       -2.8480    -5.0740     0.7970 C.2   1 <1>  -0.1500 
 18 N       -2.6350    -5.6540    -1.2760 N.pl3 1 <1>   0.3000 
 19 C       -2.2090    -5.9320    -0.0250 C.2   1 <1>  -0.3320 
 20 C       -1.2030    -7.0180     0.3110 C.3   1 <1>  -0.0600 
 21 H       -4.2700     1.4060     0.6030 H     1 <1>   0.0800 
 22 H       -4.0370     0.8490    -1.0480 H     1 <1>   0.0800 
 23 H       -1.9440    -1.8170    -0.4650 H     1 <1>   0.0800 
 24 H       -2.4140    -1.8310     1.2260 H     1 <1>   0.0800 
 25 H       -3.0210     2.9130     1.6130 H     1 <1>   0.1500 
 26 H        0.1330     2.6070    -1.2420 H     1 <1>   0.1500 
 27 H       -5.8660    -0.5500    -0.2960 H     1 <1>   0.0800 
 28 H       -4.1030    -1.9020    -1.2250 H     1 <1>   0.0800 
 29 H       -2.3070     5.2560     0.9490 H     1 <1>   0.2700 
 30 H       -0.4280     5.1910    -0.7550 H     1 <1>   0.1500 
 31 H       -4.3610    -0.5700     2.0860 H     1 <1>   0.4000 
 32 H       -5.5540    -3.3860     0.0820 H     1 <1>   0.0800 
 33 H       -4.5660    -3.1550     1.4940 H     1 <1>   0.0800 
 34 H       -2.7740    -4.9840     1.8660 H     1 <1>   0.1500 
 35 H       -2.3400    -6.1300    -2.1360 H     1 <1>   0.2700 
 36 H       -1.0280    -7.0440     1.3710 H     1 <1>   0.0800 
 37 H       -0.2680    -6.8260    -0.1860 H     1 <1>   0.0800 
 38 H       -1.5750    -7.9790     0.0010 H     1 <1>   0.0800 
@<TRIPOS>BOND
  1   1   2  2   
  2   2   3  am  
  3   2   4  1   
  4   3   5  1   
  5   3   6  1   
  6   4   7  2   
  7   4   8  1   
  8   5   9  1   
  9   5  21  1   
 10   5  22  1   
 11   6  10  1   
 12   6  23  1   
 13   6  24  1   
 14   7  11  1   
 15   7  25  1   
 16   8  12  2   
 17   8  26  1   
 18   9  10  1   
 19   9  13  1   
 20   9  27  1   
 21  10  14  1   
 22  10  28  1   
 23  11  12  1   
 24  11  29  1   
 25  12  30  1   
 26  13  31  1   
 27  14  15  1   
 28  14  32  1   
 29  14  33  1   
 30  15  16  2   
 31  15  17  1   
 32  16  18  1   
 33  17  19  2   
 34  17  34  1   
 35  18  19  1   
 36  18  35  1   
 37  19  20  1   
 38  20  36  1   
 39  20  37  1   
 40  20  38  1   
@<TRIPOS>SUBSTRUCTURE
  1 ****   6 GROUP 4 **** **** 0

# MOE 2024.06 (io_trps.svl 2023.06)
