@<TRIPOS>MOLECULE
NONAME
51 54 1 0 0 
SMALL
USER_CHARGES


@<TRIPOS>ATOM
  1 O       -1.1290    -0.0020    -0.0020 O.co2 1 <1>  -0.9000 
  2 C       -2.0140    -0.8490     0.2580 C.2   1 <1>   0.9790 
  3 O       -3.0440    -0.4260     0.8250 O.co2 1 <1>  -0.9000 
  4 C       -1.8010    -2.2730    -0.0840 C.ar  1 <1>   0.1310 
  5 N       -2.8070    -3.1760    -0.0600 N.ar  1 <1>  -0.6200 
  6 C       -0.5090    -2.6730    -0.4390 C.ar  1 <1>  -0.1500 
  7 C       -2.5320    -4.4330    -0.3670 C.ar  1 <1>   0.4100 
  8 C       -0.2190    -3.9820    -0.7610 C.ar  1 <1>  -0.1500 
  9 N       -3.5770    -5.3440    -0.3390 N.pl3 1 <1>  -0.8380 
 10 C       -1.2620    -4.8710    -0.7180 C.ar  1 <1>  -0.1500 
 11 C       -4.0810    -5.7920    -1.6560 C.3   1 <1>   0.2090 
 12 C       -4.6890    -5.0660     0.6080 C.3   1 <1>   0.2090 
 13 C       -4.8130    -7.1200    -1.4660 C.3   1 <1>  -0.1600 
 14 C       -5.4510    -6.3650     0.8600 C.3   1 <1>  -0.1600 
 15 C       -5.9600    -6.9930    -0.4510 C.3   1 <1>   0.4240 
 16 O       -6.8750    -6.1040    -1.0470 O.3   1 <1>  -0.5600 
 17 C       -6.6030    -8.3740    -0.1880 C.ar  1 <1>  -0.1430 
 18 C       -8.1900    -6.1240    -0.5880 C.3   1 <1>   0.1200 
 19 C       -7.9530    -8.5940    -0.4280 C.ar  1 <1>  -0.1430 
 20 C       -5.8390    -9.4260     0.3060 C.ar  1 <1>  -0.1500 
 21 C       -8.8160    -7.4650    -0.9550 C.3   1 <1>  -0.0170 
 22 C       -8.5130    -9.8360    -0.1850 C.ar  1 <1>  -0.1500 
 23 C       -6.3870   -10.6830     0.5500 C.ar  1 <1>   0.0830 
 24 C       -7.7560   -10.8830     0.3080 C.ar  1 <1>   0.0830 
 25 O       -5.6140   -11.7150     1.0010 O.3   1 <1>  -0.3630 
 26 O       -8.4480   -12.0410     0.5120 O.3   1 <1>  -0.3630 
 27 C       -4.2040   -11.6500     1.0100 C.3   1 <1>   0.0400 
 28 C       -8.0690   -12.9610     1.5100 C.3   1 <1>   0.0400 
 29 H        0.2750    -1.9360    -0.4560 H     1 <1>   0.1500 
 30 H        0.7770    -4.2830    -1.0300 H     1 <1>   0.1500 
 31 H       -1.1180    -5.9080    -0.9460 H     1 <1>   0.1500 
 32 H       -3.2630    -5.9160    -2.3430 H     1 <1>   0.0800 
 33 H       -4.7490    -5.0460    -2.0560 H     1 <1>   0.0800 
 34 H       -5.3400    -4.3150     0.1890 H     1 <1>   0.0800 
 35 H       -4.2900    -4.6850     1.5330 H     1 <1>   0.0800 
 36 H       -4.0960    -7.8450    -1.1340 H     1 <1>   0.0800 
 37 H       -5.2100    -7.4580    -2.4060 H     1 <1>   0.0800 
 38 H       -6.2650    -6.1870     1.5330 H     1 <1>   0.0800 
 39 H       -4.7780    -7.0440     1.3480 H     1 <1>   0.0800 
 40 H       -8.7180    -5.3170    -1.0660 H     1 <1>   0.0800 
 41 H       -8.1990    -5.9680     0.4760 H     1 <1>   0.0800 
 42 H       -4.8010    -9.2480     0.5020 H     1 <1>   0.1500 
 43 H       -8.8990    -7.5410    -2.0240 H     1 <1>   0.0800 
 44 H       -9.8030    -7.5230    -0.5330 H     1 <1>   0.0800 
 45 H       -9.5570   -10.0060    -0.3760 H     1 <1>   0.1500 
 46 H       -3.8280   -12.6170     1.2920 H     1 <1>   0.0800 
 47 H       -3.8930   -10.9140     1.7300 H     1 <1>   0.0800 
 48 H       -3.8600   -11.3970     0.0230 H     1 <1>   0.0800 
 49 H       -8.9110   -13.5950     1.7180 H     1 <1>   0.0800 
 50 H       -7.7840   -12.4220     2.3960 H     1 <1>   0.0800 
 51 H       -7.2500   -13.5530     1.1430 H     1 <1>   0.0800 
@<TRIPOS>BOND
  1   1   2  ar  
  2   2   3  ar  
  3   2   4  1   
  4   4   5  ar  
  5   4   6  ar  
  6   5   7  ar  
  7   6   8  ar  
  8   6  29  1   
  9   7   9  1   
 10   7  10  ar  
 11   8  10  ar  
 12   8  30  1   
 13   9  11  1   
 14   9  12  1   
 15  10  31  1   
 16  11  13  1   
 17  11  32  1   
 18  11  33  1   
 19  12  14  1   
 20  12  34  1   
 21  12  35  1   
 22  13  15  1   
 23  13  36  1   
 24  13  37  1   
 25  14  15  1   
 26  14  38  1   
 27  14  39  1   
 28  15  16  1   
 29  15  17  1   
 30  16  18  1   
 31  17  19  ar  
 32  17  20  ar  
 33  18  21  1   
 34  18  40  1   
 35  18  41  1   
 36  19  21  1   
 37  19  22  ar  
 38  20  23  ar  
 39  20  42  1   
 40  21  43  1   
 41  21  44  1   
 42  22  24  ar  
 43  22  45  1   
 44  23  24  ar  
 45  23  25  1   
 46  24  26  1   
 47  25  27  1   
 48  26  28  1   
 49  27  46  1   
 50  27  47  1   
 51  27  48  1   
 52  28  49  1   
 53  28  50  1   
 54  28  51  1   
@<TRIPOS>SUBSTRUCTURE
  1 ****  14 GROUP 4 **** **** 0

# MOE 2024.06 (io_trps.svl 2023.06)
