@<TRIPOS>MOLECULE
NONAME
51 53 1 0 0 
SMALL
USER_CHARGES


@<TRIPOS>ATOM
  1 F        2.2380    -0.8590    -0.2440 F     1 <1>  -0.1900 
  2 C        1.6360    -1.9810     0.0320 C.ar  1 <1>   0.1900 
  3 C        1.6570    -2.9990    -0.9010 C.ar  1 <1>  -0.1500 
  4 C        0.9970    -2.1140     1.2490 C.ar  1 <1>  -0.1500 
  5 C        1.0160    -4.1940    -0.6120 C.ar  1 <1>  -0.1440 
  6 C        0.3590    -3.3090     1.5290 C.ar  1 <1>  -0.1500 
  7 C        0.3500    -4.3630     0.6110 C.ar  1 <1>   0.0860 
  8 C        1.0450    -5.3240    -1.6330 C.3   1 <1>  -0.0960 
  9 C       -0.3550    -5.5870     0.9410 C.2   1 <1>   0.5440 
 10 O        0.2750    -6.5260     1.3920 O.2   1 <1>  -0.5700 
 11 N       -1.7210    -5.7130     0.7590 N.am  1 <1>  -0.6600 
 12 C       -2.5150    -4.6670     0.0460 C.3   1 <1>   0.2200 
 13 C       -2.4180    -6.9490     1.2340 C.3   1 <1>   0.0600 
 14 C       -3.4120    -3.8720     0.9850 C.3   1 <1>  -0.1600 
 15 C       -3.4760    -5.2070    -1.0100 C.3   1 <1>  -0.1600 
 16 C       -4.4540    -3.2210     0.0620 C.3   1 <1>  -0.0800 
 17 C       -4.4820    -4.0650    -1.2240 C.3   1 <1>  -0.0800 
 18 C       -5.8810    -3.2310     0.6260 C.3   1 <1>  -0.1600 
 19 C       -5.9290    -4.5390    -1.4060 C.3   1 <1>  -0.1600 
 20 C       -6.5390    -4.4560    -0.0090 C.3   1 <1>   0.4230 
 21 N       -8.0350    -4.4270    -0.0240 N.4   1 <1>  -0.9590 
 22 C       -8.6500    -3.2360    -0.7000 C.3   1 <1>   0.2630 
 23 C       -8.5790    -4.5640     1.3630 C.3   1 <1>   0.2630 
 24 H        2.1730    -2.8480    -1.8320 H     1 <1>   0.1500 
 25 H        1.0070    -1.3030     1.9540 H     1 <1>   0.1500 
 26 H       -0.1400    -3.4410     2.4730 H     1 <1>   0.1500 
 27 H        1.5980    -5.0420    -2.5110 H     1 <1>   0.0800 
 28 H        0.0440    -5.5850    -1.9290 H     1 <1>   0.0800 
 29 H        1.5130    -6.1930    -1.2030 H     1 <1>   0.0800 
 30 H       -1.8570    -3.9750    -0.4500 H     1 <1>   0.0800 
 31 H       -3.4100    -6.7210     1.5760 H     1 <1>   0.0800 
 32 H       -1.8770    -7.3940     2.0520 H     1 <1>   0.0800 
 33 H       -2.4690    -7.6630     0.4320 H     1 <1>   0.0800 
 34 H       -3.8860    -4.5340     1.6860 H     1 <1>   0.0800 
 35 H       -2.8460    -3.1310     1.5220 H     1 <1>   0.0800 
 36 H       -2.9540    -5.4490    -1.9190 H     1 <1>   0.0800 
 37 H       -3.9870    -6.0800    -0.6500 H     1 <1>   0.0800 
 38 H       -4.1440    -2.2130    -0.1680 H     1 <1>   0.0800 
 39 H       -4.1670    -3.4680    -2.0660 H     1 <1>   0.0800 
 40 H       -6.3630    -2.3250     0.3120 H     1 <1>   0.0800 
 41 H       -5.8850    -3.2810     1.7010 H     1 <1>   0.0800 
 42 H       -5.9790    -5.5350    -1.8090 H     1 <1>   0.0800 
 43 H       -6.4150    -3.8590    -2.0820 H     1 <1>   0.0800 
 44 H       -6.2060    -5.3250     0.5370 H     1 <1>   0.0800 
 45 H       -8.3290    -5.2610    -0.5540 H     1 <1>   0.4500 
 46 H       -8.3970    -2.3300    -0.1740 H     1 <1>   0.0800 
 47 H       -9.7240    -3.3300    -0.7140 H     1 <1>   0.0800 
 48 H       -8.3050    -3.1530    -1.7170 H     1 <1>   0.0800 
 49 H       -8.3030    -3.7090     1.9590 H     1 <1>   0.0800 
 50 H       -8.1890    -5.4520     1.8330 H     1 <1>   0.0800 
 51 H       -9.6550    -4.6330     1.3380 H     1 <1>   0.0800 
@<TRIPOS>BOND
  1   1   2  1   
  2   2   3  ar  
  3   2   4  ar  
  4   3   5  ar  
  5   3  24  1   
  6   4   6  ar  
  7   4  25  1   
  8   5   7  ar  
  9   5   8  1   
 10   6   7  ar  
 11   6  26  1   
 12   7   9  1   
 13   8  27  1   
 14   8  28  1   
 15   8  29  1   
 16   9  10  2   
 17   9  11  am  
 18  11  12  1   
 19  11  13  1   
 20  12  14  1   
 21  12  15  1   
 22  12  30  1   
 23  13  31  1   
 24  13  32  1   
 25  13  33  1   
 26  14  16  1   
 27  14  34  1   
 28  14  35  1   
 29  15  17  1   
 30  15  36  1   
 31  15  37  1   
 32  16  17  1   
 33  16  18  1   
 34  16  38  1   
 35  17  19  1   
 36  17  39  1   
 37  18  20  1   
 38  18  40  1   
 39  18  41  1   
 40  19  20  1   
 41  19  42  1   
 42  19  43  1   
 43  20  21  1   
 44  20  44  1   
 45  21  22  1   
 46  21  23  1   
 47  21  45  1   
 48  22  46  1   
 49  22  47  1   
 50  22  48  1   
 51  23  49  1   
 52  23  50  1   
 53  23  51  1   
@<TRIPOS>SUBSTRUCTURE
  1 ****  12 GROUP 4 **** **** 0

# MOE 2024.06 (io_trps.svl 2023.06)
