@<TRIPOS>MOLECULE
NONAME
59 62 1 0 0 
SMALL
USER_CHARGES


@<TRIPOS>ATOM
  1 O        0.4290    -1.4270    -1.8250 O.3   1 <1>  -0.6800 
  2 C        0.0620    -1.8560    -0.5600 C.3   1 <1>   0.1200 
  3 C        1.2630    -1.8730     0.4330 C.3   1 <1>   0.0000 
  4 C        2.5530    -2.5590    -0.1090 C.3   1 <1>   0.4230 
  5 C        1.6030    -0.4160     0.8560 C.3   1 <1>  -0.1600 
  6 C        0.8090    -2.6590     1.6980 C.3   1 <1>  -0.1600 
  7 N        2.3360    -4.0020    -0.5510 N.4   1 <1>  -0.9590 
  8 C        3.3650    -1.6770    -1.0990 C.3   1 <1>   0.2090 
  9 C        2.3720     0.3920    -0.1990 C.3   1 <1>   0.2090 
 10 C        1.2140    -4.1500     1.6840 C.3   1 <1>  -0.1600 
 11 C        1.3180    -4.7350     0.2730 C.3   1 <1>   0.3430 
 12 C        2.0020    -4.1580    -2.0070 C.3   1 <1>   0.2630 
 13 N        3.6600    -0.3150    -0.5130 N.pl3 1 <1>  -0.8380 
 14 C        4.9060     0.2050    -0.3470 C.ar  1 <1>   0.4610 
 15 N        5.0560     1.5060    -0.0780 N.ar  1 <1>  -0.1790 
 16 C        6.1080    -0.5490    -0.4430 C.ar  1 <1>  -0.1500 
 17 C        6.2670     2.1500     0.1020 C.ar  1 <1>   0.3610 
 18 C        7.3400     0.0090    -0.2810 C.ar  1 <1>  -0.1440 
 19 C        7.4540     1.4050     0.0010 C.ar  1 <1>   0.0000 
 20 C        6.3180     3.5190     0.3780 C.ar  1 <1>  -0.1500 
 21 C        8.5960    -0.8470    -0.3960 C.3   1 <1>  -0.0970 
 22 C        8.6700     2.0830     0.1860 C.ar  1 <1>  -0.1500 
 23 C        7.5230     4.1520     0.5540 C.ar  1 <1>  -0.1500 
 24 C        8.7110     3.4310     0.4590 C.ar  1 <1>  -0.1440 
 25 C       10.0400     4.1460     0.6550 C.3   1 <1>  -0.0170 
 26 C       10.4690     4.8520    -0.6330 C.3   1 <1>  -0.2400 
 27 H       -0.3680    -1.2250    -2.3660 H     1 <1>   0.4000 
 28 H       -0.7080    -1.1940    -0.1990 H     1 <1>   0.0800 
 29 H       -0.3740    -2.8330    -0.6680 H     1 <1>   0.0800 
 30 H        3.1940    -2.6210     0.7550 H     1 <1>   0.0800 
 31 H        2.2080    -0.4210     1.7470 H     1 <1>   0.0800 
 32 H        0.6960     0.1110     1.1030 H     1 <1>   0.0800 
 33 H        1.2310    -2.2280     2.5910 H     1 <1>   0.0800 
 34 H       -0.2600    -2.5810     1.8120 H     1 <1>   0.0800 
 35 H        3.2300    -4.4870    -0.3920 H     1 <1>   0.4500 
 36 H        2.8170    -1.5340    -2.0120 H     1 <1>   0.0800 
 37 H        4.2660    -2.1930    -1.3610 H     1 <1>   0.0800 
 38 H        2.5420     1.3780     0.1930 H     1 <1>   0.0800 
 39 H        1.7880     0.5020    -1.0970 H     1 <1>   0.0800 
 40 H        0.4900    -4.7150     2.2470 H     1 <1>   0.0800 
 41 H        2.1600    -4.2780     2.1810 H     1 <1>   0.0800 
 42 H        0.3510    -4.6640    -0.1970 H     1 <1>   0.0800 
 43 H        1.5770    -5.7810     0.3300 H     1 <1>   0.0800 
 44 H        1.0700    -3.6690    -2.2350 H     1 <1>   0.0800 
 45 H        1.9090    -5.2030    -2.2590 H     1 <1>   0.0800 
 46 H        2.7730    -3.7290    -2.6240 H     1 <1>   0.0800 
 47 H        4.2210     2.0750    -0.0410 H     1 <1>   0.4570 
 48 H        6.0450    -1.5990    -0.6380 H     1 <1>   0.1500 
 49 H        5.4120     4.0930     0.4560 H     1 <1>   0.1500 
 50 H        8.3540    -1.8730    -0.6090 H     1 <1>   0.0800 
 51 H        9.1510    -0.8210     0.5260 H     1 <1>   0.0800 
 52 H        9.2240    -0.4820    -1.1900 H     1 <1>   0.0800 
 53 H        9.5970     1.5420     0.1110 H     1 <1>   0.1500 
 54 H        7.5630     5.2090     0.7660 H     1 <1>   0.1500 
 55 H        9.9500     4.8670     1.4500 H     1 <1>   0.0800 
 56 H       10.7990     3.4400     0.9440 H     1 <1>   0.0800 
 57 H        9.7360     5.5840    -0.9230 H     1 <1>   0.0800 
 58 H       10.5770     4.1380    -1.4300 H     1 <1>   0.0800 
 59 H       11.4110     5.3490    -0.4860 H     1 <1>   0.0800 
@<TRIPOS>BOND
  1   1   2  1   
  2   1  27  1   
  3   2   3  1   
  4   2  28  1   
  5   2  29  1   
  6   3   4  1   
  7   3   5  1   
  8   3   6  1   
  9   4   7  1   
 10   4   8  1   
 11   4  30  1   
 12   5   9  1   
 13   5  31  1   
 14   5  32  1   
 15   6  10  1   
 16   6  33  1   
 17   6  34  1   
 18   7  11  1   
 19   7  12  1   
 20   7  35  1   
 21   8  13  1   
 22   8  36  1   
 23   8  37  1   
 24   9  13  1   
 25   9  38  1   
 26   9  39  1   
 27  10  11  1   
 28  10  40  1   
 29  10  41  1   
 30  11  42  1   
 31  11  43  1   
 32  12  44  1   
 33  12  45  1   
 34  12  46  1   
 35  13  14  1   
 36  14  15  ar  
 37  14  16  ar  
 38  15  17  ar  
 39  15  47  1   
 40  16  18  ar  
 41  16  48  1   
 42  17  19  ar  
 43  17  20  ar  
 44  18  19  ar  
 45  18  21  1   
 46  19  22  ar  
 47  20  23  ar  
 48  20  49  1   
 49  21  50  1   
 50  21  51  1   
 51  21  52  1   
 52  22  24  ar  
 53  22  53  1   
 54  23  24  ar  
 55  23  54  1   
 56  24  25  1   
 57  25  26  1   
 58  25  55  1   
 59  25  56  1   
 60  26  57  1   
 61  26  58  1   
 62  26  59  1   
@<TRIPOS>SUBSTRUCTURE
  1 ****  14 GROUP 4 **** **** 0

# MOE 2024.06 (io_trps.svl 2023.06)
