@<TRIPOS>MOLECULE
NONAME
47 48 1 0 0 
SMALL
USER_CHARGES


@<TRIPOS>ATOM
  1 O        0.3780     1.2380    -0.0270 O.3   1 <1>  -0.3630 
  2 C        1.6430     1.6360     0.2730 C.ar  1 <1>   0.0830 
  3 C       -0.6060     1.0720     0.9700 C.3   1 <1>   0.0400 
  4 C        2.5420     1.7770    -0.7790 C.ar  1 <1>  -0.1440 
  5 C        2.0640     1.9020     1.5730 C.ar  1 <1>  -0.1500 
  6 C        3.8420     2.1820    -0.5220 C.ar  1 <1>  -0.1500 
  7 C        2.1070     1.4900    -2.2090 C.3   1 <1>  -0.0960 
  8 C        3.3630     2.3060     1.8180 C.ar  1 <1>  -0.1500 
  9 C        4.2660     2.4510     0.7740 C.ar  1 <1>  -0.1440 
 10 C        5.6910     2.9040     1.0570 C.3   1 <1>   0.4330 
 11 N        5.9200     4.1470     0.3130 N.pl3 1 <1>  -0.8690 
 12 C        6.7110     1.8600     0.6130 C.3   1 <1>  -0.2400 
 13 C        6.7810     5.1560     0.4330 C.ar  1 <1>   0.7710 
 14 N        6.5970     6.1720    -0.3780 N.ar  1 <1>  -0.6200 
 15 N        7.7740     5.1140     1.3360 N.ar  1 <1>  -0.1790 
 16 C        7.4360     7.1890    -0.3030 C.ar  1 <1>   0.4100 
 17 C        8.6330     6.1510     1.4720 C.ar  1 <1>   0.2110 
 18 N        7.2360     8.1960    -1.1910 N.pl3 1 <1>  -0.8380 
 19 C        8.4810     7.2250     0.6570 C.ar  1 <1>  -0.1430 
 20 C        8.2860     8.6530    -2.1430 C.3   1 <1>   0.1290 
 21 C        5.8610     8.6500    -1.5510 C.3   1 <1>   0.1290 
 22 C        9.3930     8.4420     0.8130 C.3   1 <1>  -0.0970 
 23 H       -1.5160     0.7600     0.4900 H     1 <1>   0.0800 
 24 H       -0.7600     2.0120     1.4690 H     1 <1>   0.0800 
 25 H       -0.2790     0.3150     1.6600 H     1 <1>   0.0800 
 26 H        1.3930     1.8000     2.4040 H     1 <1>   0.1500 
 27 H        4.5260     2.2860    -1.3450 H     1 <1>   0.1500 
 28 H        1.3050     2.1510    -2.4840 H     1 <1>   0.0800 
 29 H        1.7570     0.4760    -2.2850 H     1 <1>   0.0800 
 30 H        2.9170     1.6250    -2.9020 H     1 <1>   0.0800 
 31 H        3.6590     2.5070     2.8330 H     1 <1>   0.1500 
 32 H        5.7980     3.0880     2.1140 H     1 <1>   0.0800 
 33 H        5.1860     4.3000    -0.3890 H     1 <1>   0.4000 
 34 H        6.6580     1.7030    -0.4490 H     1 <1>   0.0800 
 35 H        6.4940     0.9240     1.0970 H     1 <1>   0.0800 
 36 H        7.7090     2.1500     0.8770 H     1 <1>   0.0800 
 37 H        7.8350     4.2750     1.9000 H     1 <1>   0.4570 
 38 H        9.4030     6.0950     2.2250 H     1 <1>   0.1500 
 39 H        9.1660     8.0390    -2.0580 H     1 <1>   0.0800 
 40 H        8.5450     9.6770    -1.9370 H     1 <1>   0.0800 
 41 H        7.9230     8.5800    -3.1540 H     1 <1>   0.0800 
 42 H        5.1600     8.3650    -0.7850 H     1 <1>   0.0800 
 43 H        5.5590     8.2000    -2.4810 H     1 <1>   0.0800 
 44 H        5.8420     9.7210    -1.6510 H     1 <1>   0.0800 
 45 H        8.8100     9.3460     0.7780 H     1 <1>   0.0800 
 46 H       10.1210     8.4710     0.0220 H     1 <1>   0.0800 
 47 H        9.9180     8.4210     1.7510 H     1 <1>   0.0800 
@<TRIPOS>BOND
  1   1   2  1   
  2   1   3  1   
  3   2   4  ar  
  4   2   5  ar  
  5   3  23  1   
  6   3  24  1   
  7   3  25  1   
  8   4   6  ar  
  9   4   7  1   
 10   5   8  ar  
 11   5  26  1   
 12   6   9  ar  
 13   6  27  1   
 14   7  28  1   
 15   7  29  1   
 16   7  30  1   
 17   8   9  ar  
 18   8  31  1   
 19   9  10  1   
 20  10  11  1   
 21  10  12  1   
 22  10  32  1   
 23  11  13  1   
 24  11  33  1   
 25  12  34  1   
 26  12  35  1   
 27  12  36  1   
 28  13  14  ar  
 29  13  15  ar  
 30  14  16  ar  
 31  15  17  ar  
 32  15  37  1   
 33  16  18  1   
 34  16  19  ar  
 35  17  19  ar  
 36  17  38  1   
 37  18  20  1   
 38  18  21  1   
 39  19  22  1   
 40  20  39  1   
 41  20  40  1   
 42  20  41  1   
 43  21  42  1   
 44  21  43  1   
 45  21  44  1   
 46  22  45  1   
 47  22  46  1   
 48  22  47  1   
@<TRIPOS>SUBSTRUCTURE
  1 ****  11 GROUP 4 **** **** 0

# MOE 2024.06 (io_trps.svl 2023.06)
