@<TRIPOS>MOLECULE
NONAME
51 54 1 0 0 
SMALL
USER_CHARGES


@<TRIPOS>ATOM
  1 O       -0.4490     0.8310     0.2830 O.3   1 <1>  -0.0190 
  2 N       -1.6340     0.2850     0.3570 N.2   1 <1>  -0.4100 
  3 C       -0.6620     1.9500    -0.3630 C.2   1 <1>   0.2980 
  4 C       -2.4490     1.0780    -0.2260 C.2   1 <1>   0.5990 
  5 N       -1.8640     2.1710    -0.7000 N.2   1 <1>  -0.5650 
  6 C        0.5150     2.8640    -0.6430 C.3   1 <1>   0.0200 
  7 N       -3.8220     0.8670    -0.3750 N.pl3 1 <1>  -0.8210 
  8 C        1.4930     2.2360    -1.6470 C.3   1 <1>  -0.1600 
  9 C       -4.7390     2.0140    -0.6840 C.3   1 <1>   0.2090 
 10 C       -4.4740    -0.2680     0.3330 C.3   1 <1>   0.2090 
 11 C        2.6740     3.1670    -1.9440 C.3   1 <1>  -0.2400 
 12 C       -5.4490     2.5410     0.5820 C.3   1 <1>   0.1440 
 13 C       -5.1530     0.2310     1.6140 C.3   1 <1>  -0.1600 
 14 C       -6.4300     3.6170     0.1560 C.ar  1 <1>   0.1670 
 15 C       -6.1390     1.3760     1.3250 C.3   1 <1>  -0.1600 
 16 C       -4.4850     3.3290     1.5100 C.3   1 <1>  -0.1600 
 17 N       -7.5740     3.4080    -0.4470 N.ar  1 <1>  -0.6200 
 18 C       -5.9700     4.8620     0.4620 C.ar  1 <1>  -0.1440 
 19 C       -4.6220     4.8140     1.1350 C.3   1 <1>  -0.0170 
 20 C       -8.2760     4.5070    -0.7370 C.ar  1 <1>   0.7200 
 21 C       -6.7580     5.9330     0.1250 C.ar  1 <1>   0.1600 
 22 N       -7.9140     5.7670    -0.4740 N.ar  1 <1>  -0.6200 
 23 N       -9.4900     4.3220    -1.3700 N.pl3 1 <1>  -0.8380 
 24 C      -10.1460     2.9880    -1.4500 C.3   1 <1>   0.1290 
 25 C      -10.2290     5.4480    -2.0050 C.3   1 <1>   0.1290 
 26 H        1.0200     3.0710     0.2830 H     1 <1>   0.0800 
 27 H        0.1440     3.7940    -1.0370 H     1 <1>   0.0800 
 28 H        0.9690     2.0210    -2.5640 H     1 <1>   0.0800 
 29 H        1.8650     1.3050    -1.2530 H     1 <1>   0.0800 
 30 H       -5.4840     1.6710    -1.3810 H     1 <1>   0.0800 
 31 H       -4.2060     2.8160    -1.1620 H     1 <1>   0.0800 
 32 H       -3.7560    -1.0340     0.5710 H     1 <1>   0.0800 
 33 H       -5.2100    -0.7030    -0.3220 H     1 <1>   0.0800 
 34 H        2.3280     4.0950    -2.3650 H     1 <1>   0.0800 
 35 H        3.3390     2.7010    -2.6500 H     1 <1>   0.0800 
 36 H        3.2260     3.3770    -1.0440 H     1 <1>   0.0800 
 37 H       -4.3930     0.5570     2.3030 H     1 <1>   0.0800 
 38 H       -5.6780    -0.5880     2.0730 H     1 <1>   0.0800 
 39 H       -6.9370     0.9960     0.7090 H     1 <1>   0.0800 
 40 H       -6.5810     1.7290     2.2400 H     1 <1>   0.0800 
 41 H       -3.4670     2.9940     1.4390 H     1 <1>   0.0800 
 42 H       -4.8020     3.2150     2.5320 H     1 <1>   0.0800 
 43 H       -3.8560     5.0980     0.4340 H     1 <1>   0.0800 
 44 H       -4.5820     5.4480     2.0040 H     1 <1>   0.0800 
 45 H       -6.4380     6.9360     0.3470 H     1 <1>   0.1500 
 46 H       -9.8720     2.3810    -0.6040 H     1 <1>   0.0800 
 47 H       -9.8360     2.4900    -2.3520 H     1 <1>   0.0800 
 48 H      -11.2160     3.1000    -1.4540 H     1 <1>   0.0800 
 49 H       -9.5430     6.2020    -2.3510 H     1 <1>   0.0800 
 50 H      -10.8990     5.8870    -1.2880 H     1 <1>   0.0800 
 51 H      -10.7930     5.0920    -2.8490 H     1 <1>   0.0800 
@<TRIPOS>BOND
  1   1   2  1   
  2   1   3  1   
  3   2   4  2   
  4   3   5  2   
  5   3   6  1   
  6   4   5  1   
  7   4   7  1   
  8   6   8  1   
  9   6  26  1   
 10   6  27  1   
 11   7   9  1   
 12   7  10  1   
 13   8  11  1   
 14   8  28  1   
 15   8  29  1   
 16   9  12  1   
 17   9  30  1   
 18   9  31  1   
 19  10  13  1   
 20  10  32  1   
 21  10  33  1   
 22  11  34  1   
 23  11  35  1   
 24  11  36  1   
 25  12  14  1   
 26  12  15  1   
 27  12  16  1   
 28  13  15  1   
 29  13  37  1   
 30  13  38  1   
 31  14  17  ar  
 32  14  18  ar  
 33  15  39  1   
 34  15  40  1   
 35  16  19  1   
 36  16  41  1   
 37  16  42  1   
 38  17  20  ar  
 39  18  19  1   
 40  18  21  ar  
 41  19  43  1   
 42  19  44  1   
 43  20  22  ar  
 44  20  23  1   
 45  21  22  ar  
 46  21  45  1   
 47  23  24  1   
 48  23  25  1   
 49  24  46  1   
 50  24  47  1   
 51  24  48  1   
 52  25  49  1   
 53  25  50  1   
 54  25  51  1   
@<TRIPOS>SUBSTRUCTURE
  1 ****   9 GROUP 4 **** **** 0

# MOE 2024.06 (io_trps.svl 2023.06)
