@<TRIPOS>MOLECULE
NONAME
41 43 1 0 0 
SMALL
USER_CHARGES


@<TRIPOS>ATOM
  1 F       -0.0170    -0.3430    -0.3560 F     1 <1>  -0.3400 
  2 C        1.2410    -0.7500    -0.2390 C.3   1 <1>   1.3000 
  3 F        1.5320    -0.8400     1.0530 F     1 <1>  -0.3400 
  4 F        1.3240    -1.9660    -0.7590 F     1 <1>  -0.3400 
  5 O        2.1290     0.1240    -0.9070 O.3   1 <1>  -0.3630 
  6 C        2.1770     1.4050    -0.4860 C.ar  1 <1>   0.0830 
  7 C        1.3350     2.3500    -1.0490 C.ar  1 <1>  -0.1500 
  8 C        3.0830     1.7740     0.4950 C.ar  1 <1>  -0.1500 
  9 C        1.3930     3.6650    -0.6240 C.ar  1 <1>  -0.1500 
 10 C        3.1410     3.0900     0.9190 C.ar  1 <1>  -0.1500 
 11 C        2.2990     4.0430     0.3590 C.ar  1 <1>  -0.1430 
 12 C        2.3790     5.4930     0.8030 C.3   1 <1>   0.4870 
 13 N        3.6940     6.0430     0.3830 N.4   1 <1>  -0.9590 
 14 C        4.0260     7.3490     1.0600 C.3   1 <1>   0.3430 
 15 C        3.9000     5.9860    -1.1050 C.3   1 <1>   0.3430 
 16 C        5.4990     7.8210     0.8960 C.3   1 <1>   0.2200 
 17 C        5.3630     6.1450    -1.5410 C.3   1 <1>  -0.0190 
 18 N        5.7270     8.3390    -0.4730 N.am  1 <1>  -0.7300 
 19 C        6.5440     6.7300     1.2400 C.3   1 <1>   0.1200 
 20 C        5.6850     7.6130    -1.6040 C.2   1 <1>   0.5690 
 21 C        6.4210     5.3640    -0.7280 C.3   1 <1>   0.1200 
 22 O        6.2510     5.4820     0.6600 O.3   1 <1>  -0.5600 
 23 O        5.8710     8.1350    -2.6670 O.2   1 <1>  -0.5700 
 24 H        0.6370     2.0550    -1.8140 H     1 <1>   0.1500 
 25 H        3.7370     1.0340     0.9230 H     1 <1>   0.1500 
 26 H        0.7250     4.3830    -1.0700 H     1 <1>   0.1500 
 27 H        3.8480     3.3520     1.6880 H     1 <1>   0.1500 
 28 H        2.2800     5.5380     1.8750 H     1 <1>   0.0800 
 29 H        1.5780     6.0610     0.3600 H     1 <1>   0.0800 
 30 H        4.4160     5.3830     0.7360 H     1 <1>   0.4500 
 31 H        3.3730     8.1250     0.6950 H     1 <1>   0.0800 
 32 H        3.8400     7.2400     2.1160 H     1 <1>   0.0800 
 33 H        3.5640     5.0260    -1.4640 H     1 <1>   0.0800 
 34 H        3.3000     6.7400    -1.5890 H     1 <1>   0.0800 
 35 H        5.6570     8.6460     1.5700 H     1 <1>   0.0800 
 36 H        5.4270     5.7880    -2.5530 H     1 <1>   0.0800 
 37 H        6.0050     9.3210    -0.5810 H     1 <1>   0.3700 
 38 H        6.5560     6.5760     2.3060 H     1 <1>   0.0800 
 39 H        7.5330     7.0340     0.9410 H     1 <1>   0.0800 
 40 H        7.4180     5.6870    -0.9850 H     1 <1>   0.0800 
 41 H        6.3450     4.3150    -0.9600 H     1 <1>   0.0800 
@<TRIPOS>BOND
  1   1   2  1   
  2   2   3  1   
  3   2   4  1   
  4   2   5  1   
  5   5   6  1   
  6   6   7  ar  
  7   6   8  ar  
  8   7   9  ar  
  9   7  24  1   
 10   8  10  ar  
 11   8  25  1   
 12   9  11  ar  
 13   9  26  1   
 14  10  11  ar  
 15  10  27  1   
 16  11  12  1   
 17  12  13  1   
 18  12  28  1   
 19  12  29  1   
 20  13  14  1   
 21  13  15  1   
 22  13  30  1   
 23  14  16  1   
 24  14  31  1   
 25  14  32  1   
 26  15  17  1   
 27  15  33  1   
 28  15  34  1   
 29  16  18  1   
 30  16  19  1   
 31  16  35  1   
 32  17  20  1   
 33  17  21  1   
 34  17  36  1   
 35  18  20  am  
 36  18  37  1   
 37  19  22  1   
 38  19  38  1   
 39  19  39  1   
 40  20  23  2   
 41  21  22  1   
 42  21  40  1   
 43  21  41  1   
@<TRIPOS>SUBSTRUCTURE
  1 ****  11 GROUP 4 **** **** 0

# MOE 2024.06 (io_trps.svl 2023.06)
