@<TRIPOS>MOLECULE
NONAME
47 49 1 0 0 
SMALL
USER_CHARGES


@<TRIPOS>ATOM
  1 O        1.4280    -0.4520    -2.6740 O.2   1 <1>  -0.5700 
  2 C        1.8550    -0.9660    -1.6660 C.2   1 <1>   0.5690 
  3 N        2.5480    -0.2470    -0.7050 N.am  1 <1>  -0.4770 
  4 C        1.6130    -2.4800    -1.5030 C.3   1 <1>   0.1710 
  5 C        2.5730     1.1460    -0.5300 C.ar  1 <1>   0.1170 
  6 C        3.3520    -0.8650     0.3870 C.3   1 <1>   0.2200 
  7 N        0.3000    -2.8740    -0.9070 N.3   1 <1>  -0.8100 
  8 C        3.1530     1.4930     0.6720 C.ar  1 <1>  -0.1430 
  9 C        2.1080     2.1530    -1.3680 C.ar  1 <1>  -0.1500 
 10 C        3.5740     0.2570     1.4200 C.3   1 <1>  -0.0170 
 11 C        4.6860    -1.3570    -0.1870 C.3   1 <1>  -0.2400 
 12 C        0.1160    -4.3340    -0.9270 C.3   1 <1>   0.1100 
 13 C        0.0760    -2.2930     0.4260 C.3   1 <1>   0.0300 
 14 C        3.2880     2.8110     1.0640 C.ar  1 <1>  -0.1500 
 15 C        2.2350     3.4790    -0.9890 C.ar  1 <1>  -0.1500 
 16 C       -1.3720    -4.6850    -0.9800 C.3   1 <1>   0.0960 
 17 C        2.8240     3.8090     0.2230 C.ar  1 <1>  -0.1500 
 18 N       -1.5320    -6.1520    -0.9970 N.pl3 1 <1>   0.0480 
 19 C       -1.6730    -7.0060     0.0470 C.2   1 <1>   0.0060 
 20 C       -1.5320    -6.9410    -2.0870 C.2   1 <1>  -0.3020 
 21 N       -1.7570    -8.2470    -0.3060 N.2   1 <1>  -0.5650 
 22 C       -1.7270    -6.5640     1.4950 C.3   1 <1>  -0.0600 
 23 C       -1.6710    -8.2090    -1.6470 C.2   1 <1>   0.0770 
 24 H        2.4060    -2.9260    -0.9360 H     1 <1>   0.0800 
 25 H        1.6670    -2.8970    -2.4930 H     1 <1>   0.0800 
 26 H        2.8150    -1.6760     0.8450 H     1 <1>   0.0800 
 27 H        1.6510     1.9110    -2.3100 H     1 <1>   0.1500 
 28 H        4.5970     0.3210     1.7450 H     1 <1>   0.0800 
 29 H        2.9360     0.1110     2.2730 H     1 <1>   0.0800 
 30 H        5.2240    -0.5360    -0.6280 H     1 <1>   0.0800 
 31 H        4.5310    -2.1110    -0.9360 H     1 <1>   0.0800 
 32 H        5.2900    -1.7790     0.5950 H     1 <1>   0.0800 
 33 H        0.5790    -4.7770    -0.0610 H     1 <1>   0.0800 
 34 H        0.5800    -4.7420    -1.8090 H     1 <1>   0.0800 
 35 H        0.1590    -1.2190     0.3820 H     1 <1>   0.0800 
 36 H        0.7920    -2.6760     1.1320 H     1 <1>   0.0800 
 37 H       -0.9150    -2.5260     0.7740 H     1 <1>   0.0800 
 38 H        3.7450     3.0600     2.0060 H     1 <1>   0.1500 
 39 H        1.8740     4.2560    -1.6400 H     1 <1>   0.1500 
 40 H       -1.8090    -4.2780    -1.8730 H     1 <1>   0.0800 
 41 H       -1.8890    -4.2900    -0.1270 H     1 <1>   0.0800 
 42 H        2.9190     4.8420     0.5100 H     1 <1>   0.1500 
 43 H       -1.4370    -6.5690    -3.0900 H     1 <1>   0.1500 
 44 H       -0.8280    -6.0380     1.7570 H     1 <1>   0.0800 
 45 H       -1.8190    -7.4260     2.1330 H     1 <1>   0.0800 
 46 H       -2.5770    -5.9290     1.6550 H     1 <1>   0.0800 
 47 H       -1.7140    -9.1120    -2.2330 H     1 <1>   0.1500 
@<TRIPOS>BOND
  1   1   2  2   
  2   2   3  am  
  3   2   4  1   
  4   3   5  1   
  5   3   6  1   
  6   4   7  1   
  7   4  24  1   
  8   4  25  1   
  9   5   8  ar  
 10   5   9  ar  
 11   6  10  1   
 12   6  11  1   
 13   6  26  1   
 14   7  12  1   
 15   7  13  1   
 16   8  10  1   
 17   8  14  ar  
 18   9  15  ar  
 19   9  27  1   
 20  10  28  1   
 21  10  29  1   
 22  11  30  1   
 23  11  31  1   
 24  11  32  1   
 25  12  16  1   
 26  12  33  1   
 27  12  34  1   
 28  13  35  1   
 29  13  36  1   
 30  13  37  1   
 31  14  17  ar  
 32  14  38  1   
 33  15  17  ar  
 34  15  39  1   
 35  16  18  1   
 36  16  40  1   
 37  16  41  1   
 38  17  42  1   
 39  18  19  1   
 40  18  20  1   
 41  19  21  2   
 42  19  22  1   
 43  20  23  2   
 44  20  43  1   
 45  21  23  1   
 46  22  44  1   
 47  22  45  1   
 48  22  46  1   
 49  23  47  1   
@<TRIPOS>SUBSTRUCTURE
  1 ****   7 GROUP 4 **** **** 0

# MOE 2024.06 (io_trps.svl 2023.06)
