@<TRIPOS>MOLECULE
NONAME
32 33 1 0 0 
SMALL
USER_CHARGES


@<TRIPOS>ATOM
  1 F       -0.1540    -0.1720     0.2280 F     1 <1>  -0.3400 
  2 C       -1.2300    -0.8510    -0.1430 C.3   1 <1>   1.3000 
  3 F       -2.2980    -0.1570     0.2350 F     1 <1>  -0.3400 
  4 F       -1.2300    -0.9210    -1.4690 F     1 <1>  -0.3400 
  5 O       -1.2190    -2.1370     0.4410 O.3   1 <1>  -0.3630 
  6 C       -2.2550    -2.9540     0.1570 C.ar  1 <1>   0.0830 
  7 C       -3.3790    -2.9510     0.9650 C.ar  1 <1>  -0.1500 
  8 C       -2.1880    -3.8020    -0.9330 C.ar  1 <1>  -0.1500 
  9 C       -4.4400    -3.7890     0.6710 C.ar  1 <1>  -0.1500 
 10 C       -3.2520    -4.6380    -1.2220 C.ar  1 <1>  -0.1500 
 11 C       -4.3890    -4.6510    -0.4200 C.ar  1 <1>  -0.1080 
 12 C       -5.5810    -5.5580    -0.7610 C.3   1 <1>   0.1080 
 13 C       -6.2590    -6.2450     0.4720 C.3   1 <1>   0.0000 
 14 C       -5.1970    -7.0040    -1.2220 C.3   1 <1>   0.0000 
 15 C       -6.5320    -4.7900    -1.7020 C.3   1 <1>   0.3430 
 16 C       -5.2750    -7.4240     0.2680 C.3   1 <1>   0.0000 
 17 N       -7.7450    -5.5590    -2.1180 N.4   1 <1>  -0.8530 
 18 H       -3.4220    -2.2960     1.8180 H     1 <1>   0.1500 
 19 H       -1.3070    -3.8080    -1.5530 H     1 <1>   0.1500 
 20 H       -5.3000    -3.7470     1.3150 H     1 <1>   0.1500 
 21 H       -3.1660    -5.2730    -2.0860 H     1 <1>   0.1500 
 22 H       -7.2770    -6.5480     0.2990 H     1 <1>   0.0000 
 23 H       -6.1360    -5.7600     1.4220 H     1 <1>   0.0000 
 24 H       -4.2160    -7.1330    -1.6380 H     1 <1>   0.0000 
 25 H       -5.9550    -7.4930    -1.8080 H     1 <1>   0.0000 
 26 H       -5.9740    -4.5010    -2.5790 H     1 <1>   0.0800 
 27 H       -6.8370    -3.8840    -1.2030 H     1 <1>   0.0800 
 28 H       -5.7170    -8.3920     0.4250 H     1 <1>   0.0000 
 29 H       -4.3440    -7.2850     0.7900 H     1 <1>   0.0000 
 30 H       -7.4810    -6.4190    -2.6150 H     1 <1>   0.4500 
 31 H       -8.3410    -5.0020    -2.7420 H     1 <1>   0.4500 
 32 H       -8.3060    -5.8290    -1.3010 H     1 <1>   0.4500 
@<TRIPOS>BOND
  1   1   2  1   
  2   2   3  1   
  3   2   4  1   
  4   2   5  1   
  5   5   6  1   
  6   6   7  ar  
  7   6   8  ar  
  8   7   9  ar  
  9   7  18  1   
 10   8  10  ar  
 11   8  19  1   
 12   9  11  ar  
 13   9  20  1   
 14  10  11  ar  
 15  10  21  1   
 16  11  12  1   
 17  12  13  1   
 18  12  14  1   
 19  12  15  1   
 20  13  16  1   
 21  13  22  1   
 22  13  23  1   
 23  14  16  1   
 24  14  24  1   
 25  14  25  1   
 26  15  17  1   
 27  15  26  1   
 28  15  27  1   
 29  16  28  1   
 30  16  29  1   
 31  17  30  1   
 32  17  31  1   
 33  17  32  1   
@<TRIPOS>SUBSTRUCTURE
  1 ****  11 GROUP 4 **** **** 0

# MOE 2024.06 (io_trps.svl 2023.06)
