@<TRIPOS>MOLECULE
NONAME
31 33 1 0 0 
SMALL
USER_CHARGES


@<TRIPOS>ATOM
  1 F        2.1440     0.4640     2.2830 F     1 <1>  -0.1900 
  2 C        2.2850     0.8230     1.0370 C.ar  1 <1>   0.1900 
  3 C        2.3420    -0.1530     0.0470 C.ar  1 <1>   0.0860 
  4 C        2.3740     2.1800     0.7740 C.ar  1 <1>  -0.1500 
  5 C        2.5040     0.3280    -1.2490 C.ar  1 <1>   0.1900 
  6 C        2.2370    -1.5570     0.3400 C.2   1 <1>   0.5440 
  7 C        2.5310     2.6110    -0.5340 C.ar  1 <1>  -0.1500 
  8 F        2.5690    -0.5160    -2.2410 F     1 <1>  -0.1900 
  9 C        2.5980     1.6750    -1.5540 C.ar  1 <1>  -0.1500 
 10 O        3.2530    -2.2220     0.4440 O.2   1 <1>  -0.5700 
 11 N        1.0140    -2.1480     0.5090 N.am  1 <1>  -0.6600 
 12 C       -0.3010    -1.4750     0.3080 C.3   1 <1>   0.2350 
 13 C        0.8080    -3.6140     0.6740 C.3   1 <1>   0.2350 
 14 C       -1.2420    -2.5650    -0.1690 C.3   1 <1>  -0.2420 
 15 C       -0.5610    -3.8920     0.0730 C.3   1 <1>  -0.2420 
 16 C       -2.6970    -2.1020    -0.0410 C.2   1 <1>   0.9470 
 17 C       -0.8690    -3.4490    -1.3340 C.3   1 <1>  -0.2000 
 18 C       -1.1190    -5.2270     0.5750 C.2   1 <1>   0.9470 
 19 O       -3.4330    -2.1110    -1.0370 O.co2 1 <1>  -0.9000 
 20 O       -3.0570    -1.5550     1.0100 O.co2 1 <1>  -0.9000 
 21 O       -1.3660    -6.1290    -0.2370 O.co2 1 <1>  -0.9000 
 22 O       -1.1690    -5.4370     1.7950 O.co2 1 <1>  -0.9000 
 23 H        2.3200     2.8860     1.5850 H     1 <1>   0.1500 
 24 H        2.6000     3.6630    -0.7550 H     1 <1>   0.1500 
 25 H        2.7200     1.9850    -2.5780 H     1 <1>   0.1500 
 26 H       -0.6420    -1.0780     1.2490 H     1 <1>   0.0800 
 27 H       -0.2440    -0.6890    -0.4230 H     1 <1>   0.0800 
 28 H        1.5720    -4.1770     0.1670 H     1 <1>   0.0800 
 29 H        0.8120    -3.8580     1.7230 H     1 <1>   0.0800 
 30 H       -0.0670    -3.1590    -1.9860 H     1 <1>   0.1000 
 31 H       -1.6630    -3.9590    -1.8550 H     1 <1>   0.1000 
@<TRIPOS>BOND
  1   1   2  1   
  2   2   3  ar  
  3   2   4  ar  
  4   3   5  ar  
  5   3   6  1   
  6   4   7  ar  
  7   4  23  1   
  8   5   8  1   
  9   5   9  ar  
 10   6  10  2   
 11   6  11  am  
 12   7   9  ar  
 13   7  24  1   
 14   9  25  1   
 15  11  12  1   
 16  11  13  1   
 17  12  14  1   
 18  12  26  1   
 19  12  27  1   
 20  13  15  1   
 21  13  28  1   
 22  13  29  1   
 23  14  15  1   
 24  14  16  1   
 25  14  17  1   
 26  15  17  1   
 27  15  18  1   
 28  16  19  ar  
 29  16  20  ar  
 30  17  30  1   
 31  17  31  1   
 32  18  21  ar  
 33  18  22  ar  
@<TRIPOS>SUBSTRUCTURE
  1 ****  12 GROUP 4 **** **** 0

# MOE 2024.06 (io_trps.svl 2023.06)
