@<TRIPOS>MOLECULE
NONAME
46 48 1 0 0 
SMALL
USER_CHARGES


@<TRIPOS>ATOM
  1 S        0.7740     0.7840    -0.6540 S.3   1 <1>  -0.0800 
  2 C        1.1610    -0.8390    -0.1490 C.2   1 <1>  -0.1400 
  3 C        1.3970     1.3740     0.8700 C.2   1 <1>   0.2280 
  4 C        1.7050    -0.7880     1.0780 C.2   1 <1>   0.0460 
  5 C        0.8480    -1.9700    -1.1090 C.3   1 <1>   0.2900 
  6 N        1.8310     0.4670     1.6480 N.2   1 <1>  -0.5650 
  7 C        2.1960    -1.9540     1.9080 C.3   1 <1>  -0.0590 
  8 N       -0.3390    -2.7300    -0.6590 N.3   1 <1>  -0.8100 
  9 C       -1.5560    -1.8830    -0.5520 C.3   1 <1>   0.1100 
 10 C       -0.5950    -3.8970    -1.5330 C.3   1 <1>   0.1100 
 11 C       -2.7720    -2.6620     0.0140 C.3   1 <1>   0.4230 
 12 C       -1.8780    -4.6710    -1.1410 C.3   1 <1>   0.3430 
 13 N       -2.4820    -4.1410     0.1310 N.4   1 <1>  -0.9590 
 14 C       -4.0490    -2.4110    -0.8190 C.3   1 <1>   0.1200 
 15 C       -3.6950    -4.8670     0.6320 C.3   1 <1>   0.4230 
 16 O       -5.1260    -3.1430    -0.3060 O.3   1 <1>  -0.5600 
 17 C       -4.9340    -4.5300    -0.2330 C.3   1 <1>   0.1200 
 18 C       -3.4200    -6.3770     0.7270 C.3   1 <1>  -0.1600 
 19 C       -4.4830    -7.1160     1.5560 C.3   1 <1>  -0.1600 
 20 C       -4.1290    -8.5980     1.6970 C.3   1 <1>  -0.2400 
 21 H        1.3680     2.4370     1.0350 H     1 <1>   0.1500 
 22 H        1.6980    -2.6310    -1.1410 H     1 <1>   0.0800 
 23 H        0.6920    -1.5770    -2.0990 H     1 <1>   0.0800 
 24 H        2.0340    -2.8830     1.3950 H     1 <1>   0.0800 
 25 H        1.6700    -1.9750     2.8450 H     1 <1>   0.0800 
 26 H        3.2460    -1.8390     2.1040 H     1 <1>   0.0800 
 27 H       -1.3710    -1.0540     0.1090 H     1 <1>   0.0800 
 28 H       -1.7940    -1.4720    -1.5190 H     1 <1>   0.0800 
 29 H       -0.6810    -3.5780    -2.5590 H     1 <1>   0.0800 
 30 H        0.2440    -4.5690    -1.4750 H     1 <1>   0.0800 
 31 H       -2.9650    -2.2730     1.0000 H     1 <1>   0.0800 
 32 H       -1.6280    -5.7130    -1.0270 H     1 <1>   0.0800 
 33 H       -2.5930    -4.5940    -1.9430 H     1 <1>   0.0800 
 34 H       -1.7250    -4.1930     0.8270 H     1 <1>   0.4500 
 35 H       -3.9060    -2.6860    -1.8500 H     1 <1>   0.0800 
 36 H       -4.3180    -1.3700    -0.7780 H     1 <1>   0.0800 
 37 H       -3.9060    -4.5170     1.6300 H     1 <1>   0.0800 
 38 H       -5.8220    -4.9490     0.2080 H     1 <1>   0.0800 
 39 H       -4.8350    -4.9200    -1.2300 H     1 <1>   0.0800 
 40 H       -3.3900    -6.8130    -0.2560 H     1 <1>   0.0800 
 41 H       -2.4660    -6.5280     1.2010 H     1 <1>   0.0800 
 42 H       -4.5520    -6.6810     2.5400 H     1 <1>   0.0800 
 43 H       -5.4500    -7.0390     1.0890 H     1 <1>   0.0800 
 44 H       -3.1820    -8.7210     2.1940 H     1 <1>   0.0800 
 45 H       -4.0780    -9.0730     0.7320 H     1 <1>   0.0800 
 46 H       -4.8820    -9.1010     2.2800 H     1 <1>   0.0800 
@<TRIPOS>BOND
  1   1   2  1   
  2   1   3  1   
  3   2   4  2   
  4   2   5  1   
  5   3   6  2   
  6   3  21  1   
  7   4   6  1   
  8   4   7  1   
  9   5   8  1   
 10   5  22  1   
 11   5  23  1   
 12   7  24  1   
 13   7  25  1   
 14   7  26  1   
 15   8   9  1   
 16   8  10  1   
 17   9  11  1   
 18   9  27  1   
 19   9  28  1   
 20  10  12  1   
 21  10  29  1   
 22  10  30  1   
 23  11  13  1   
 24  11  14  1   
 25  11  31  1   
 26  12  13  1   
 27  12  32  1   
 28  12  33  1   
 29  13  15  1   
 30  13  34  1   
 31  14  16  1   
 32  14  35  1   
 33  14  36  1   
 34  15  17  1   
 35  15  18  1   
 36  15  37  1   
 37  16  17  1   
 38  17  38  1   
 39  17  39  1   
 40  18  19  1   
 41  18  40  1   
 42  18  41  1   
 43  19  20  1   
 44  19  42  1   
 45  19  43  1   
 46  20  44  1   
 47  20  45  1   
 48  20  46  1   
@<TRIPOS>SUBSTRUCTURE
  1 ****   9 GROUP 4 **** **** 0

# MOE 2024.06 (io_trps.svl 2023.06)
