@<TRIPOS>MOLECULE
NONAME
49 51 1 0 0 
SMALL
USER_CHARGES


@<TRIPOS>ATOM
  1 O       -0.5330     0.3200    -0.7770 O.co2 1 <1>  -0.9000 
  2 C       -1.3870     0.4080     0.1140 C.2   1 <1>   0.9060 
  3 O       -1.1710     0.9810     1.1870 O.co2 1 <1>  -0.9000 
  4 C       -2.7670    -0.1640    -0.1410 C.3   1 <1>  -0.1220 
  5 C       -2.8650    -1.6780     0.0460 C.ar  1 <1>  -0.1440 
  6 C       -3.7960    -2.2260     0.9130 C.ar  1 <1>  -0.1500 
  7 C       -2.0130    -2.5160    -0.6520 C.ar  1 <1>  -0.1500 
  8 C       -3.8820    -3.5980     1.0700 C.ar  1 <1>  -0.1500 
  9 C       -2.0920    -3.8880    -0.4970 C.ar  1 <1>  -0.1500 
 10 C       -3.0360    -4.4360     0.3580 C.ar  1 <1>  -0.1440 
 11 C       -3.1590    -5.9370     0.5130 C.3   1 <1>   0.4870 
 12 N       -3.6710    -6.5140    -0.7630 N.4   1 <1>  -0.9590 
 13 C       -5.0110    -5.9360    -1.1140 C.3   1 <1>   0.3430 
 14 C       -3.8650    -7.9910    -0.6270 C.3   1 <1>   0.3430 
 15 C       -6.0360    -6.9290    -0.5640 C.3   1 <1>   0.2000 
 16 C       -5.3560    -8.2640    -0.8500 C.3   1 <1>  -0.0800 
 17 O       -6.1260    -6.7610     0.8240 O.3   1 <1>  -0.5600 
 18 C       -5.8820    -9.4690    -0.0450 C.3   1 <1>   0.0200 
 19 C       -7.1300    -5.8880     1.2470 C.3   1 <1>   0.0400 
 20 C       -4.9810   -10.6710    -0.2480 C.2   1 <1>  -0.0400 
 21 O       -4.5990   -11.0020    -1.4530 O.3   1 <1>  -0.0190 
 22 C       -4.4230   -11.5350     0.6130 C.2   1 <1>  -0.1500 
 23 N       -3.8010   -12.0270    -1.4420 N.2   1 <1>  -0.4100 
 24 C       -3.6850   -12.3790    -0.2120 C.2   1 <1>   0.1080 
 25 C       -2.8560   -13.5520     0.2630 C.3   1 <1>  -0.0590 
 26 H       -3.4490     0.3400     0.5150 H     1 <1>   0.0800 
 27 H       -3.0330     0.0850    -1.1500 H     1 <1>   0.0800 
 28 H       -4.4480    -1.5760     1.4700 H     1 <1>   0.1500 
 29 H       -1.2760    -2.0840    -1.3110 H     1 <1>   0.1500 
 30 H       -4.6100    -3.9970     1.7540 H     1 <1>   0.1500 
 31 H       -1.4030    -4.5030    -1.0480 H     1 <1>   0.1500 
 32 H       -3.8380    -6.1620     1.3190 H     1 <1>   0.0800 
 33 H       -2.1930    -6.3520     0.7510 H     1 <1>   0.0800 
 34 H       -2.9940    -6.2780    -1.4990 H     1 <1>   0.4500 
 35 H       -5.1590    -4.9480    -0.7090 H     1 <1>   0.0800 
 36 H       -5.1090    -5.8900    -2.1850 H     1 <1>   0.0800 
 37 H       -3.2720    -8.5360    -1.3440 H     1 <1>   0.0800 
 38 H       -3.5900    -8.3110     0.3650 H     1 <1>   0.0800 
 39 H       -7.0100    -6.8470    -1.0180 H     1 <1>   0.0800 
 40 H       -5.4840    -8.4860    -1.8960 H     1 <1>   0.0800 
 41 H       -6.8780    -9.7140    -0.3700 H     1 <1>   0.0800 
 42 H       -5.9220    -9.2460     1.0070 H     1 <1>   0.0800 
 43 H       -7.0970    -5.8330     2.3220 H     1 <1>   0.0800 
 44 H       -8.0890    -6.2700     0.9400 H     1 <1>   0.0800 
 45 H       -6.9620    -4.9090     0.8310 H     1 <1>   0.0800 
 46 H       -4.4990   -11.5970     1.6840 H     1 <1>   0.1500 
 47 H       -2.1320   -13.2240     0.9850 H     1 <1>   0.0800 
 48 H       -2.3400   -13.9980    -0.5690 H     1 <1>   0.0800 
 49 H       -3.4940   -14.2910     0.7110 H     1 <1>   0.0800 
@<TRIPOS>BOND
  1   1   2  ar  
  2   2   3  ar  
  3   2   4  1   
  4   4   5  1   
  5   4  26  1   
  6   4  27  1   
  7   5   6  ar  
  8   5   7  ar  
  9   6   8  ar  
 10   6  28  1   
 11   7   9  ar  
 12   7  29  1   
 13   8  10  ar  
 14   8  30  1   
 15   9  10  ar  
 16   9  31  1   
 17  10  11  1   
 18  11  12  1   
 19  11  32  1   
 20  11  33  1   
 21  12  13  1   
 22  12  14  1   
 23  12  34  1   
 24  13  15  1   
 25  13  35  1   
 26  13  36  1   
 27  14  16  1   
 28  14  37  1   
 29  14  38  1   
 30  15  16  1   
 31  15  17  1   
 32  15  39  1   
 33  16  18  1   
 34  16  40  1   
 35  17  19  1   
 36  18  20  1   
 37  18  41  1   
 38  18  42  1   
 39  19  43  1   
 40  19  44  1   
 41  19  45  1   
 42  20  21  1   
 43  20  22  2   
 44  21  23  1   
 45  22  24  1   
 46  22  46  1   
 47  23  24  2   
 48  24  25  1   
 49  25  47  1   
 50  25  48  1   
 51  25  49  1   
@<TRIPOS>SUBSTRUCTURE
  1 ****  12 GROUP 4 **** **** 0

# MOE 2024.06 (io_trps.svl 2023.06)
