@<TRIPOS>MOLECULE
NONAME
46 49 1 0 0 
SMALL
USER_CHARGES


@<TRIPOS>ATOM
  1 O       -0.3670     0.2930    -0.2580 O.2   1 <1>  -0.5700 
  2 C       -1.4110     0.9270    -0.2530 C.2   1 <1>   0.7150 
  3 N       -2.5820     0.1910    -0.2930 N.am  1 <1>  -0.6600 
  4 C       -1.3700     2.3810    -0.2020 C.2   1 <1>   0.1020 
  5 C       -3.9670     0.7340    -0.2960 C.3   1 <1>   0.1400 
  6 C       -2.6070    -1.2910    -0.2420 C.3   1 <1>   0.1400 
  7 N       -2.3670     3.2070    -0.4090 N.2   1 <1>  -0.3380 
  8 N       -0.2560     3.0960     0.0650 N.pl3 1 <1>   0.0480 
  9 C       -4.8780    -0.4930    -0.3570 C.3   1 <1>   0.2000 
 10 C       -4.0340    -1.6530     0.1660 C.3   1 <1>  -0.0800 
 11 N       -1.9150     4.4470    -0.2870 N.2   1 <1>  -0.3380 
 12 C       -0.6620     4.3600    -0.0110 C.2   1 <1>   0.0070 
 13 C        1.1400     2.6620     0.3310 C.3   1 <1>   0.0960 
 14 O       -6.0090    -0.3350     0.4270 O.3   1 <1>  -0.6800 
 15 C       -4.4960    -3.0220    -0.3540 C.3   1 <1>   0.0210 
 16 C        0.2650     5.5420     0.2160 C.3   1 <1>   0.0200 
 17 C        2.0030     3.8230     0.8580 C.3   1 <1>  -0.1600 
 18 C       -3.5400    -4.1210     0.0710 C.2   1 <1>   0.1080 
 19 C        1.7380     5.1250     0.0850 C.3   1 <1>  -0.1600 
 20 N       -3.2480    -4.3610     1.3110 N.2   1 <1>  -0.7070 
 21 C       -2.8690    -4.9720    -0.8010 C.2   1 <1>  -0.1500 
 22 N       -2.3760    -5.3860     1.2640 N.pl3 1 <1>   0.3000 
 23 C       -2.1290    -5.7720    -0.0050 C.2   1 <1>  -0.3320 
 24 C       -1.1870    -6.8990    -0.3850 C.3   1 <1>  -0.0600 
 25 H       -4.1330     1.2960     0.6070 H     1 <1>   0.0800 
 26 H       -4.1230     1.3610    -1.1560 H     1 <1>   0.0800 
 27 H       -2.3740    -1.6780    -1.2200 H     1 <1>   0.0800 
 28 H       -1.8920    -1.6710     0.4700 H     1 <1>   0.0800 
 29 H       -5.1900    -0.6600    -1.3740 H     1 <1>   0.0800 
 30 H       -4.0590    -1.6610     1.2420 H     1 <1>   0.0800 
 31 H        1.1320     1.8600     1.0480 H     1 <1>   0.0800 
 32 H        1.5510     2.2900    -0.5900 H     1 <1>   0.0800 
 33 H       -5.7570    -0.2470     1.3660 H     1 <1>   0.4000 
 34 H       -4.5630    -3.0070    -1.4270 H     1 <1>   0.0800 
 35 H       -5.4720    -3.2430     0.0390 H     1 <1>   0.0800 
 36 H        0.0350     6.3200    -0.4910 H     1 <1>   0.0800 
 37 H        0.0840     5.9260     1.2040 H     1 <1>   0.0800 
 38 H        1.7870     3.9750     1.9020 H     1 <1>   0.0800 
 39 H        3.0420     3.5540     0.7800 H     1 <1>   0.0800 
 40 H        1.9720     4.9750    -0.9560 H     1 <1>   0.0800 
 41 H        2.3700     5.9130     0.4570 H     1 <1>   0.0800 
 42 H       -2.9430    -4.9710    -1.8740 H     1 <1>   0.1500 
 43 H       -1.9700    -5.7970     2.1130 H     1 <1>   0.2700 
 44 H       -1.1590    -7.0140    -1.4540 H     1 <1>   0.0800 
 45 H       -1.5190    -7.8250     0.0500 H     1 <1>   0.0800 
 46 H       -0.1910    -6.6850    -0.0380 H     1 <1>   0.0800 
@<TRIPOS>BOND
  1   1   2  2   
  2   2   3  am  
  3   2   4  1   
  4   3   5  1   
  5   3   6  1   
  6   4   7  2   
  7   4   8  1   
  8   5   9  1   
  9   5  25  1   
 10   5  26  1   
 11   6  10  1   
 12   6  27  1   
 13   6  28  1   
 14   7  11  1   
 15   8  12  1   
 16   8  13  1   
 17   9  10  1   
 18   9  14  1   
 19   9  29  1   
 20  10  15  1   
 21  10  30  1   
 22  11  12  2   
 23  12  16  1   
 24  13  17  1   
 25  13  31  1   
 26  13  32  1   
 27  14  33  1   
 28  15  18  1   
 29  15  34  1   
 30  15  35  1   
 31  16  19  1   
 32  16  36  1   
 33  16  37  1   
 34  17  19  1   
 35  17  38  1   
 36  17  39  1   
 37  18  20  2   
 38  18  21  1   
 39  19  40  1   
 40  19  41  1   
 41  20  22  1   
 42  21  23  2   
 43  21  42  1   
 44  22  23  1   
 45  22  43  1   
 46  23  24  1   
 47  24  44  1   
 48  24  45  1   
 49  24  46  1   
@<TRIPOS>SUBSTRUCTURE
  1 ****   3 GROUP 4 **** **** 0

# MOE 2024.06 (io_trps.svl 2023.06)
