@<TRIPOS>MOLECULE
NONAME
34 35 1 0 0 
SMALL
USER_CHARGES


@<TRIPOS>ATOM
  1 CL      -0.8420    -0.5770     0.8240 Cl    1 <1>  -0.1770 
  2 C       -2.1790     0.4800     0.4380 C.ar  1 <1>   0.1770 
  3 C       -3.3490    -0.0580    -0.0820 C.ar  1 <1>  -0.1440 
  4 C       -2.0390     1.8380     0.6740 C.ar  1 <1>  -0.1500 
  5 C       -4.4090     0.7920    -0.3690 C.ar  1 <1>  -0.1500 
  6 C       -3.4770    -1.5470    -0.3420 C.3   1 <1>   0.4870 
  7 C       -3.0950     2.6890     0.3870 C.ar  1 <1>  -0.1500 
  8 C       -4.2590     2.1470    -0.1290 C.ar  1 <1>   0.1900 
  9 N       -3.5540    -2.2910     0.9540 N.4   1 <1>  -0.9590 
 10 F       -5.2540     2.9480    -0.3970 F     1 <1>  -0.1900 
 11 C       -3.5420    -3.7760     0.6890 C.3   1 <1>   0.3430 
 12 C       -4.7450    -1.8290     1.7560 C.3   1 <1>   0.3430 
 13 C       -4.8760    -4.3230     0.1260 C.3   1 <1>   0.2000 
 14 C       -5.6770    -2.9870     2.1380 C.3   1 <1>  -0.1600 
 15 O       -4.9120    -4.0540    -1.2310 O.3   1 <1>  -0.6800 
 16 C       -6.1140    -3.7420     0.8630 C.3   1 <1>  -0.1860 
 17 C       -6.9740    -2.7950     0.0400 C.2   1 <1>   0.9060 
 18 O       -8.1750    -2.7390     0.2760 O.co2 1 <1>  -0.9000 
 19 O       -6.4160    -2.0380    -0.7670 O.co2 1 <1>  -0.9000 
 20 H       -1.1180     2.2240     1.0750 H     1 <1>   0.1500 
 21 H       -5.3400     0.4180    -0.7720 H     1 <1>   0.1500 
 22 H       -2.6210    -1.8830    -0.9020 H     1 <1>   0.0800 
 23 H       -4.3460    -1.7330    -0.9430 H     1 <1>   0.0800 
 24 H       -3.0230     3.7490     0.5560 H     1 <1>   0.1500 
 25 H       -2.7020    -2.0380     1.4680 H     1 <1>   0.4500 
 26 H       -2.7450    -4.0340     0.0110 H     1 <1>   0.0800 
 27 H       -3.3530    -4.2830     1.6200 H     1 <1>   0.0800 
 28 H       -4.4140    -1.3230     2.6470 H     1 <1>   0.0800 
 29 H       -5.3180    -1.1230     1.1740 H     1 <1>   0.0800 
 30 H       -4.8710    -5.3950     0.2210 H     1 <1>   0.0800 
 31 H       -5.2010    -3.6450     2.8430 H     1 <1>   0.0800 
 32 H       -6.5510    -2.5800     2.6210 H     1 <1>   0.0800 
 33 H       -5.5260    -3.2650    -1.3620 H     1 <1>   0.4000 
 34 H       -6.7490    -4.5590     1.1530 H     1 <1>   0.0800 
@<TRIPOS>BOND
  1   1   2  1   
  2   2   3  ar  
  3   2   4  ar  
  4   3   5  ar  
  5   3   6  1   
  6   4   7  ar  
  7   4  20  1   
  8   5   8  ar  
  9   5  21  1   
 10   6   9  1   
 11   6  22  1   
 12   6  23  1   
 13   7   8  ar  
 14   7  24  1   
 15   8  10  1   
 16   9  11  1   
 17   9  12  1   
 18   9  25  1   
 19  11  13  1   
 20  11  26  1   
 21  11  27  1   
 22  12  14  1   
 23  12  28  1   
 24  12  29  1   
 25  13  15  1   
 26  13  16  1   
 27  13  30  1   
 28  14  16  1   
 29  14  31  1   
 30  14  32  1   
 31  15  33  1   
 32  16  17  1   
 33  16  34  1   
 34  17  18  ar  
 35  17  19  ar  
@<TRIPOS>SUBSTRUCTURE
  1 ****   6 GROUP 4 **** **** 0

# MOE 2024.06 (io_trps.svl 2023.06)
