@<TRIPOS>MOLECULE
NONAME
48 50 1 0 0 
SMALL
USER_CHARGES


@<TRIPOS>ATOM
  1 S        1.3530     0.6740     0.6690 S.o2  1 <1>   1.3330 
  2 O        0.7470     1.5550     1.6410 O.2   1 <1>  -0.6500 
  3 O        0.5430    -0.3160    -0.0050 O.2   1 <1>  -0.6500 
  4 N        2.6180    -0.1430     1.4580 N.am  1 <1>  -0.8490 
  5 C        2.1900     1.6530    -0.5790 C.3   1 <1>  -0.0550 
  6 C        2.1580    -1.3780     2.1000 C.3   1 <1>   0.1160 
  7 C        3.3210     0.6930     2.4360 C.3   1 <1>   0.1160 
  8 C        2.8150     0.8280    -1.7270 C.3   1 <1>  -0.0800 
  9 C        3.4020     1.6510    -2.8660 C.3   1 <1>   0.2200 
 10 C        3.9920    -0.0670    -1.3210 C.3   1 <1>   0.1200 
 11 N        4.1820     2.7900    -2.3350 N.am  1 <1>  -0.7300 
 12 C        4.3620     0.6380    -3.4740 C.3   1 <1>   0.1200 
 13 O        4.8960    -0.0560    -2.3890 O.3   1 <1>  -0.5600 
 14 C        3.7090     4.0460    -2.1490 C.2   1 <1>   0.6300 
 15 O        2.6020     4.3650    -2.5110 O.2   1 <1>  -0.5700 
 16 C        4.5900     5.0390    -1.3950 C.3   1 <1>   0.0320 
 17 C        4.7480     4.6490     0.0710 C.ar  1 <1>  -0.0320 
 18 C        4.5520     6.5010    -1.7480 C.3   1 <1>  -0.2000 
 19 C        5.7470     5.6800    -2.1120 C.3   1 <1>  -0.2000 
 20 C        5.7340     3.7700     0.4980 C.ar  1 <1>   0.1900 
 21 C        3.8790     5.1550     1.0250 C.ar  1 <1>  -0.1500 
 22 F        6.5490     3.2390    -0.3770 F     1 <1>  -0.1900 
 23 C        5.8880     3.4090     1.8230 C.ar  1 <1>  -0.1500 
 24 C        4.0120     4.8010     2.3600 C.ar  1 <1>  -0.1500 
 25 C        5.0170     3.9350     2.7620 C.ar  1 <1>  -0.1500 
 26 H        1.4740     2.3270    -1.0090 H     1 <1>   0.0800 
 27 H        2.9420     2.2500    -0.1060 H     1 <1>   0.0800 
 28 H        2.9820    -1.8790     2.5790 H     1 <1>   0.0800 
 29 H        1.7430    -2.0450     1.3630 H     1 <1>   0.0800 
 30 H        1.3990    -1.1580     2.8330 H     1 <1>   0.0800 
 31 H        4.1680     0.1610     2.8350 H     1 <1>   0.0800 
 32 H        2.6630     0.9640     3.2450 H     1 <1>   0.0800 
 33 H        3.6770     1.5930     1.9660 H     1 <1>   0.0800 
 34 H        2.0520     0.1920    -2.1410 H     1 <1>   0.0800 
 35 H        2.6580     1.9920    -3.5670 H     1 <1>   0.0800 
 36 H        3.6800    -1.0800    -1.1330 H     1 <1>   0.0800 
 37 H        4.5080     0.3200    -0.4590 H     1 <1>   0.0800 
 38 H        5.1070     2.5400    -1.9710 H     1 <1>   0.3700 
 39 H        5.1530     1.0980    -4.0390 H     1 <1>   0.0800 
 40 H        3.8320    -0.0680    -4.0890 H     1 <1>   0.0800 
 41 H        3.8790     6.8190    -2.5260 H     1 <1>   0.1000 
 42 H        4.6510     7.2310    -0.9640 H     1 <1>   0.1000 
 43 H        6.6660     5.8410    -1.5760 H     1 <1>   0.1000 
 44 H        5.9090     5.4400    -3.1480 H     1 <1>   0.1000 
 45 H        3.0910     5.8280     0.7280 H     1 <1>   0.1500 
 46 H        6.6740     2.7330     2.1100 H     1 <1>   0.1500 
 47 H        3.3290     5.2050     3.0880 H     1 <1>   0.1500 
 48 H        5.1180     3.6740     3.8020 H     1 <1>   0.1500 
@<TRIPOS>BOND
  1   1   2  2   
  2   1   3  2   
  3   1   4  am  
  4   1   5  1   
  5   4   6  1   
  6   4   7  1   
  7   5   8  1   
  8   5  26  1   
  9   5  27  1   
 10   6  28  1   
 11   6  29  1   
 12   6  30  1   
 13   7  31  1   
 14   7  32  1   
 15   7  33  1   
 16   8   9  1   
 17   8  10  1   
 18   8  34  1   
 19   9  11  1   
 20   9  12  1   
 21   9  35  1   
 22  10  13  1   
 23  10  36  1   
 24  10  37  1   
 25  11  14  am  
 26  11  38  1   
 27  12  13  1   
 28  12  39  1   
 29  12  40  1   
 30  14  15  2   
 31  14  16  1   
 32  16  17  1   
 33  16  18  1   
 34  16  19  1   
 35  17  20  ar  
 36  17  21  ar  
 37  18  19  1   
 38  18  41  1   
 39  18  42  1   
 40  19  43  1   
 41  19  44  1   
 42  20  22  1   
 43  20  23  ar  
 44  21  24  ar  
 45  21  45  1   
 46  23  25  ar  
 47  23  46  1   
 48  24  25  ar  
 49  24  47  1   
 50  25  48  1   
@<TRIPOS>SUBSTRUCTURE
  1 ****   5 GROUP 4 **** **** 0

# MOE 2024.06 (io_trps.svl 2023.06)
