@<TRIPOS>MOLECULE
NONAME
60 62 1 0 0 
SMALL
USER_CHARGES


@<TRIPOS>ATOM
  1 O       -0.1620    -2.0120    -0.6070 O.2   1 <1>  -0.5700 
  2 C       -1.3690    -2.0290    -0.6050 C.2   1 <1>   0.6900 
  3 N       -2.1380    -1.3220     0.2480 N.am  1 <1>  -0.4900 
  4 N       -2.1300    -2.7830    -1.4210 N.am  1 <1>  -0.7300 
  5 C       -3.4460    -1.6070     0.0690 C.2   1 <1>   0.5690 
  6 C       -3.5590    -2.6510    -1.0500 C.3   1 <1>   0.2810 
  7 O       -4.3580    -1.1070     0.6790 O.2   1 <1>  -0.5700 
  8 C       -4.1010    -4.0210    -0.6170 C.3   1 <1>  -0.1600 
  9 C       -5.5580    -3.9560    -0.1100 C.3   1 <1>  -0.0990 
 10 C       -6.1570    -5.3140     0.2370 C.2   1 <1>   0.5690 
 11 O       -5.6750    -6.3000    -0.2700 O.2   1 <1>  -0.5700 
 12 N       -7.2290    -5.4130     1.0890 N.am  1 <1>  -0.6600 
 13 C       -7.6680    -6.7620     1.5440 C.3   1 <1>   0.1400 
 14 C       -8.0420    -4.2560     1.5700 C.3   1 <1>   0.1400 
 15 C       -8.6140    -7.4010     0.5140 C.3   1 <1>   0.1400 
 16 C       -9.5540    -4.4990     1.4570 C.3   1 <1>  -0.1600 
 17 N       -9.9710    -6.7550     0.4910 N.am  1 <1>  -0.6600 
 18 C       -9.9760    -5.2850     0.2100 C.3   1 <1>   0.1400 
 19 C      -11.1570    -7.4220     0.6810 C.2   1 <1>   0.5690 
 20 O      -12.2190    -6.8430     0.7490 O.2   1 <1>  -0.5700 
 21 C      -11.2250    -8.9570     0.7950 C.3   1 <1>   0.4040 
 22 N      -12.5730    -9.5170     0.4030 N.4   1 <1>  -0.9590 
 23 C      -12.8000   -10.8690     0.9780 C.3   1 <1>   0.3430 
 24 C      -12.7860    -9.4030    -1.0680 C.3   1 <1>   0.3430 
 25 C      -14.2510   -11.3300     0.8230 C.3   1 <1>  -0.1600 
 26 C      -14.2740    -9.2130    -1.3600 C.3   1 <1>  -0.1600 
 27 C      -14.6200   -11.6960    -0.6210 C.3   1 <1>  -0.1600 
 28 C      -15.0910   -10.5100    -1.4750 C.3   1 <1>  -0.1600 
 29 H       -1.7600    -0.6780     0.9340 H     1 <1>   0.3700 
 30 H       -1.7470    -3.5630    -1.9580 H     1 <1>   0.3700 
 31 H       -4.1200    -2.2480    -1.8750 H     1 <1>   0.0800 
 32 H       -4.0560    -4.6860    -1.4630 H     1 <1>   0.0800 
 33 H       -3.4810    -4.4270     0.1640 H     1 <1>   0.0800 
 34 H       -6.1800    -3.5010    -0.8590 H     1 <1>   0.0800 
 35 H       -5.5850    -3.3460     0.7730 H     1 <1>   0.0800 
 36 H       -6.8000    -7.3900     1.6520 H     1 <1>   0.0800 
 37 H       -8.1430    -6.7010     2.5080 H     1 <1>   0.0800 
 38 H       -7.7840    -4.0430     2.5940 H     1 <1>   0.0800 
 39 H       -7.8090    -3.3830     0.9880 H     1 <1>   0.0800 
 40 H       -8.6960    -8.4440     0.7540 H     1 <1>   0.0800 
 41 H       -8.1650    -7.3300    -0.4630 H     1 <1>   0.0800 
 42 H      -10.0290    -3.5350     1.4260 H     1 <1>   0.0800 
 43 H       -9.9210    -4.9900     2.3410 H     1 <1>   0.0800 
 44 H       -9.3220    -5.0650    -0.6170 H     1 <1>   0.0800 
 45 H      -10.9660    -4.9720    -0.0770 H     1 <1>   0.0800 
 46 H      -11.0160    -9.2100     1.8200 H     1 <1>   0.0800 
 47 H      -10.4600    -9.3910     0.1760 H     1 <1>   0.0800 
 48 H      -13.2510    -8.8580     0.8250 H     1 <1>   0.4500 
 49 H      -12.1460   -11.5840     0.5050 H     1 <1>   0.0800 
 50 H      -12.5640   -10.8490     2.0300 H     1 <1>   0.0800 
 51 H      -12.2670    -8.5310    -1.4340 H     1 <1>   0.0800 
 52 H      -12.4030   -10.2680    -1.5850 H     1 <1>   0.0800 
 53 H      -14.3600   -12.2200     1.4180 H     1 <1>   0.0800 
 54 H      -14.9330   -10.6010     1.2270 H     1 <1>   0.0800 
 55 H      -14.7070    -8.5680    -0.6150 H     1 <1>   0.0800 
 56 H      -14.3630    -8.6920    -2.2980 H     1 <1>   0.0800 
 57 H      -13.7860   -12.1840    -1.0990 H     1 <1>   0.0800 
 58 H      -15.4220   -12.4160    -0.5980 H     1 <1>   0.0800 
 59 H      -16.1150   -10.2850    -1.2230 H     1 <1>   0.0800 
 60 H      -15.0940   -10.8290    -2.5040 H     1 <1>   0.0800 
@<TRIPOS>BOND
  1   1   2  2   
  2   2   3  am  
  3   2   4  am  
  4   3   5  am  
  5   3  29  1   
  6   4   6  1   
  7   4  30  1   
  8   5   6  1   
  9   5   7  2   
 10   6   8  1   
 11   6  31  1   
 12   8   9  1   
 13   8  32  1   
 14   8  33  1   
 15   9  10  1   
 16   9  34  1   
 17   9  35  1   
 18  10  11  2   
 19  10  12  am  
 20  12  13  1   
 21  12  14  1   
 22  13  15  1   
 23  13  36  1   
 24  13  37  1   
 25  14  16  1   
 26  14  38  1   
 27  14  39  1   
 28  15  17  1   
 29  15  40  1   
 30  15  41  1   
 31  16  18  1   
 32  16  42  1   
 33  16  43  1   
 34  17  18  1   
 35  17  19  am  
 36  18  44  1   
 37  18  45  1   
 38  19  20  2   
 39  19  21  1   
 40  21  22  1   
 41  21  46  1   
 42  21  47  1   
 43  22  23  1   
 44  22  24  1   
 45  22  48  1   
 46  23  25  1   
 47  23  49  1   
 48  23  50  1   
 49  24  26  1   
 50  24  51  1   
 51  24  52  1   
 52  25  27  1   
 53  25  53  1   
 54  25  54  1   
 55  26  28  1   
 56  26  55  1   
 57  26  56  1   
 58  27  28  1   
 59  27  57  1   
 60  27  58  1   
 61  28  59  1   
 62  28  60  1   
@<TRIPOS>SUBSTRUCTURE
  1 ****  15 GROUP 4 **** **** 0

# MOE 2024.06 (io_trps.svl 2023.06)
