@<TRIPOS>MOLECULE
NONAME
62 65 1 0 0 
SMALL
USER_CHARGES


@<TRIPOS>ATOM
  1 O        1.9290    -0.9790     2.0750 O.2   1 <1>  -0.5700 
  2 C        1.4670    -1.4440     1.0600 C.2   1 <1>   0.5690 
  3 N        1.4130    -0.7560    -0.1070 N.am  1 <1>  -0.7300 
  4 C        0.8980    -2.8640     1.0820 C.3   1 <1>   0.1710 
  5 C        1.8360     0.6380    -0.3210 C.3   1 <1>   0.2200 
  6 N       -0.2460    -3.0890     0.1420 N.3   1 <1>  -0.8100 
  7 C        0.5760     1.4900    -0.5740 C.3   1 <1>  -0.1600 
  8 C        2.8340     0.6550    -1.4870 C.3   1 <1>  -0.1600 
  9 C       -1.4500    -2.3280     0.5270 C.3   1 <1>   0.1100 
 10 C       -0.6740    -4.4900     0.1630 C.3   1 <1>   0.1100 
 11 C        0.4480     2.6750     0.3940 C.3   1 <1>  -0.1600 
 12 C        3.8320     1.8250    -1.4530 C.3   1 <1>  -0.1600 
 13 C       -2.2880    -3.2310     1.4410 C.3   1 <1>   0.2000 
 14 C       -1.6460    -4.6150     1.3390 C.3   1 <1>  -0.0800 
 15 C        1.2100     3.9380    -0.0380 C.3   1 <1>  -0.1600 
 16 C        3.2040     3.2260    -1.5220 C.3   1 <1>  -0.1600 
 17 O       -2.2200    -2.7900     2.7530 O.3   1 <1>  -0.6800 
 18 C       -2.6720    -5.7500     1.1910 C.3   1 <1>  -0.0170 
 19 C        2.7330     3.7760    -0.1600 C.3   1 <1>  -0.1600 
 20 C       -1.9670    -7.1020     1.0990 C.ar  1 <1>  -0.1440 
 21 C       -1.6610    -7.7490    -0.1240 C.ar  1 <1>   0.0000 
 22 C       -1.5860    -7.7230     2.2530 C.ar  1 <1>  -0.1500 
 23 C       -0.9510    -8.9740    -0.0550 C.ar  1 <1>   0.3100 
 24 C       -2.0100    -7.2640    -1.4070 C.ar  1 <1>  -0.1500 
 25 C       -0.9020    -8.9420     2.2080 C.ar  1 <1>   0.1600 
 26 N       -0.5820    -9.5550     1.1140 N.ar  1 <1>  -0.6200 
 27 C       -0.6080    -9.6320    -1.2470 C.ar  1 <1>  -0.1500 
 28 C       -1.6630    -7.9320    -2.5500 C.ar  1 <1>  -0.1500 
 29 C       -0.9490    -9.1300    -2.4720 C.ar  1 <1>  -0.1500 
 30 H        0.9320    -1.2170    -0.8840 H     1 <1>   0.3700 
 31 H        0.6030    -3.0910     2.0900 H     1 <1>   0.0800 
 32 H        1.7000    -3.5290     0.8190 H     1 <1>   0.0800 
 33 H        2.3400     0.9710     0.5720 H     1 <1>   0.0800 
 34 H        0.5460     1.8500    -1.5860 H     1 <1>   0.0800 
 35 H       -0.2980     0.8760    -0.4380 H     1 <1>   0.0800 
 36 H        3.4200    -0.2480    -1.4460 H     1 <1>   0.0800 
 37 H        2.3080     0.6530    -2.4240 H     1 <1>   0.0800 
 38 H       -1.2140    -1.3840     0.9890 H     1 <1>   0.0800 
 39 H       -2.0160    -2.1320    -0.3670 H     1 <1>   0.0800 
 40 H       -1.1850    -4.6940    -0.7610 H     1 <1>   0.0800 
 41 H        0.1590    -5.1680     0.2500 H     1 <1>   0.0800 
 42 H       -0.5940     2.9370     0.4630 H     1 <1>   0.0800 
 43 H        0.7580     2.3770     1.3820 H     1 <1>   0.0800 
 44 H        4.4530     1.7450    -0.5770 H     1 <1>   0.0800 
 45 H        4.4830     1.7130    -2.3030 H     1 <1>   0.0800 
 46 H       -3.3210    -3.2250     1.1400 H     1 <1>   0.0800 
 47 H       -1.0580    -4.8080     2.2190 H     1 <1>   0.0800 
 48 H        0.8040     4.3120    -0.9620 H     1 <1>   0.0800 
 49 H        1.0200     4.6910     0.7080 H     1 <1>   0.0800 
 50 H        3.9670     3.8930    -1.8860 H     1 <1>   0.0800 
 51 H        2.4140     3.2450    -2.2510 H     1 <1>   0.0800 
 52 H       -1.2900    -2.6160     2.9980 H     1 <1>   0.4000 
 53 H       -3.3140    -5.5800     0.3480 H     1 <1>   0.0800 
 54 H       -3.3050    -5.7480     2.0620 H     1 <1>   0.0800 
 55 H        3.1120     3.1870     0.6580 H     1 <1>   0.0800 
 56 H        3.1630     4.7570    -0.0490 H     1 <1>   0.0800 
 57 H       -1.7920    -7.2930     3.2160 H     1 <1>   0.1500 
 58 H       -2.5630    -6.3510    -1.5000 H     1 <1>   0.1500 
 59 H       -0.6220    -9.3970     3.1430 H     1 <1>   0.1500 
 60 H       -0.0630   -10.5540    -1.1610 H     1 <1>   0.1500 
 61 H       -1.9330    -7.5490    -3.5190 H     1 <1>   0.1500 
 62 H       -0.6800    -9.6460    -3.3770 H     1 <1>   0.1500 
@<TRIPOS>BOND
  1   1   2  2   
  2   2   3  am  
  3   2   4  1   
  4   3   5  1   
  5   3  30  1   
  6   4   6  1   
  7   4  31  1   
  8   4  32  1   
  9   5   7  1   
 10   5   8  1   
 11   5  33  1   
 12   6   9  1   
 13   6  10  1   
 14   7  11  1   
 15   7  34  1   
 16   7  35  1   
 17   8  12  1   
 18   8  36  1   
 19   8  37  1   
 20   9  13  1   
 21   9  38  1   
 22   9  39  1   
 23  10  14  1   
 24  10  40  1   
 25  10  41  1   
 26  11  15  1   
 27  11  42  1   
 28  11  43  1   
 29  12  16  1   
 30  12  44  1   
 31  12  45  1   
 32  13  14  1   
 33  13  17  1   
 34  13  46  1   
 35  14  18  1   
 36  14  47  1   
 37  15  19  1   
 38  15  48  1   
 39  15  49  1   
 40  16  19  1   
 41  16  50  1   
 42  16  51  1   
 43  17  52  1   
 44  18  20  1   
 45  18  53  1   
 46  18  54  1   
 47  19  55  1   
 48  19  56  1   
 49  20  21  ar  
 50  20  22  ar  
 51  21  23  ar  
 52  21  24  ar  
 53  22  25  ar  
 54  22  57  1   
 55  23  26  ar  
 56  23  27  ar  
 57  24  28  ar  
 58  24  58  1   
 59  25  26  ar  
 60  25  59  1   
 61  27  29  ar  
 62  27  60  1   
 63  28  29  ar  
 64  28  61  1   
 65  29  62  1   
@<TRIPOS>SUBSTRUCTURE
  1 ****   6 GROUP 4 **** **** 0

# MOE 2024.06 (io_trps.svl 2023.06)
