@<TRIPOS>MOLECULE
NONAME
27 28 1 0 0 
SMALL
USER_CHARGES


@<TRIPOS>ATOM
  1 O        0.7980     0.8140    -1.1860 O.co2 1 <1>  -0.9000 
  2 C        0.2120     1.6630    -0.5030 C.2   1 <1>   0.9470 
  3 O       -1.0190     1.7010    -0.4050 O.co2 1 <1>  -0.9000 
  4 C        1.0220     2.7070     0.2500 C.3   1 <1>  -0.2470 
  5 C        1.9500     3.6120    -0.5110 C.3   1 <1>  -0.0680 
  6 C        2.5060     2.6130     0.4590 C.3   1 <1>  -0.2000 
  7 C        1.9970     5.1050    -0.2050 C.ar  1 <1>  -0.0320 
  8 C        3.1960     5.8060    -0.1280 C.ar  1 <1>  -0.1440 
  9 C        0.8000     5.7780    -0.0150 C.ar  1 <1>  -0.1500 
 10 C        3.1750     7.1630     0.1560 C.ar  1 <1>  -0.1500 
 11 C        4.5340     5.1140    -0.3510 C.3   1 <1>  -0.0970 
 12 C        0.7790     7.1330     0.2680 C.ar  1 <1>  -0.1430 
 13 C        1.9750     7.8240     0.3530 C.ar  1 <1>  -0.1500 
 14 C       -0.5440     7.8460     0.4760 C.3   1 <1>  -0.0970 
 15 H        0.4470     3.1230     1.0530 H     1 <1>   0.1000 
 16 H        2.0640     3.4010    -1.5610 H     1 <1>   0.1000 
 17 H        2.9060     2.9550     1.3960 H     1 <1>   0.1000 
 18 H        3.0090     1.7410     0.0780 H     1 <1>   0.1000 
 19 H       -0.1230     5.2290    -0.0920 H     1 <1>   0.1500 
 20 H        4.0950     7.7150     0.2240 H     1 <1>   0.1500 
 21 H        5.3200     5.8330    -0.4890 H     1 <1>   0.0800 
 22 H        4.4870     4.4920    -1.2270 H     1 <1>   0.0800 
 23 H        4.7720     4.5010     0.4980 H     1 <1>   0.0800 
 24 H        1.9780     8.8760     0.5710 H     1 <1>   0.1500 
 25 H       -0.4240     8.6760     1.1490 H     1 <1>   0.0800 
 26 H       -1.2690     7.1710     0.8940 H     1 <1>   0.0800 
 27 H       -0.9120     8.2090    -0.4670 H     1 <1>   0.0800 
@<TRIPOS>BOND
  1   1   2  ar  
  2   2   3  ar  
  3   2   4  1   
  4   4   5  1   
  5   4   6  1   
  6   4  15  1   
  7   5   6  1   
  8   5   7  1   
  9   5  16  1   
 10   6  17  1   
 11   6  18  1   
 12   7   8  ar  
 13   7   9  ar  
 14   8  10  ar  
 15   8  11  1   
 16   9  12  ar  
 17   9  19  1   
 18  10  13  ar  
 19  10  20  1   
 20  11  21  1   
 21  11  22  1   
 22  11  23  1   
 23  12  13  ar  
 24  12  14  1   
 25  13  24  1   
 26  14  25  1   
 27  14  26  1   
 28  14  27  1   
@<TRIPOS>SUBSTRUCTURE
  1 ****   7 GROUP 4 **** **** 0

# MOE 2024.06 (io_trps.svl 2023.06)
