@<TRIPOS>MOLECULE
NONAME
42 43 1 0 0 
SMALL
USER_CHARGES


@<TRIPOS>ATOM
  1 CL      -0.0720    -2.3680    -2.8680 Cl    1 <1>  -0.1770 
  2 C       -0.2200    -3.3990    -1.4680 C.ar  1 <1>   0.1770 
  3 C       -1.4040    -3.4070    -0.7560 C.ar  1 <1>  -0.1500 
  4 C        0.8480    -4.1900    -1.0950 C.ar  1 <1>  -0.1500 
  5 C       -1.5450    -4.2190     0.3620 C.ar  1 <1>  -0.0090 
  6 C        0.7240    -5.0030     0.0170 C.ar  1 <1>  -0.1500 
  7 S       -3.1050    -4.2540     1.2900 S.o2  1 <1>   1.4470 
  8 C       -0.4620    -5.0110     0.7340 C.ar  1 <1>  -0.1500 
  9 O       -3.0040    -5.1680     2.4060 O.2   1 <1>  -0.6500 
 10 O       -3.5010    -2.8890     1.5620 O.2   1 <1>  -0.6500 
 11 N       -4.2420    -4.8560     0.1850 N.am  1 <1>  -0.8490 
 12 C       -3.8880    -6.0250    -0.6500 C.3   1 <1>   0.1960 
 13 C       -5.6310    -4.8590     0.6730 C.3   1 <1>   0.1960 
 14 C       -4.1090    -7.4250    -0.0070 C.3   1 <1>  -0.1060 
 15 C       -6.2460    -6.2640     0.7570 C.3   1 <1>  -0.1600 
 16 C       -4.5850    -8.3320    -1.1630 C.2   1 <1>   0.9060 
 17 C       -5.1700    -7.2790     1.1220 C.3   1 <1>   0.2000 
 18 C       -2.8150    -8.0180     0.6310 C.3   1 <1>  -0.1600 
 19 O       -5.4230    -9.2240    -0.9630 O.co2 1 <1>  -0.9000 
 20 O       -4.1200    -8.1530    -2.2960 O.co2 1 <1>  -0.9000 
 21 O       -5.7790    -8.4780     1.4260 O.3   1 <1>  -0.6800 
 22 C       -1.6370    -8.2750    -0.3280 C.3   1 <1>  -0.1600 
 23 C       -0.4350    -8.8530     0.4250 C.3   1 <1>  -0.2400 
 24 H       -2.2210    -2.7820    -1.0730 H     1 <1>   0.1500 
 25 H        1.7580    -4.1680    -1.6680 H     1 <1>   0.1500 
 26 H        1.5440    -5.6300     0.3230 H     1 <1>   0.1500 
 27 H       -0.5520    -5.6500     1.5970 H     1 <1>   0.1500 
 28 H       -4.5250    -5.9520    -1.5170 H     1 <1>   0.0800 
 29 H       -2.8900    -5.9350    -1.0330 H     1 <1>   0.0800 
 30 H       -5.6680    -4.4080     1.6510 H     1 <1>   0.0800 
 31 H       -6.2310    -4.2510     0.0180 H     1 <1>   0.0800 
 32 H       -6.6840    -6.5260    -0.1900 H     1 <1>   0.0800 
 33 H       -7.0220    -6.2640     1.5000 H     1 <1>   0.0800 
 34 H       -4.6960    -6.9500     2.0300 H     1 <1>   0.0800 
 35 H       -2.4790    -7.3830     1.4260 H     1 <1>   0.0800 
 36 H       -3.0800    -8.9610     1.0800 H     1 <1>   0.0800 
 37 H       -5.8200    -8.9890     0.5550 H     1 <1>   0.4000 
 38 H       -1.9360    -8.9750    -1.0910 H     1 <1>   0.0800 
 39 H       -1.3350    -7.3690    -0.8200 H     1 <1>   0.0800 
 40 H       -0.7030    -9.7880     0.8860 H     1 <1>   0.0800 
 41 H       -0.1030    -8.1720     1.1870 H     1 <1>   0.0800 
 42 H        0.3750    -9.0290    -0.2610 H     1 <1>   0.0800 
@<TRIPOS>BOND
  1   1   2  1   
  2   2   3  ar  
  3   2   4  ar  
  4   3   5  ar  
  5   3  24  1   
  6   4   6  ar  
  7   4  25  1   
  8   5   7  1   
  9   5   8  ar  
 10   6   8  ar  
 11   6  26  1   
 12   7   9  2   
 13   7  10  2   
 14   7  11  am  
 15   8  27  1   
 16  11  12  1   
 17  11  13  1   
 18  12  14  1   
 19  12  28  1   
 20  12  29  1   
 21  13  15  1   
 22  13  30  1   
 23  13  31  1   
 24  14  16  1   
 25  14  17  1   
 26  14  18  1   
 27  15  17  1   
 28  15  32  1   
 29  15  33  1   
 30  16  19  ar  
 31  16  20  ar  
 32  17  21  1   
 33  17  34  1   
 34  18  22  1   
 35  18  35  1   
 36  18  36  1   
 37  21  37  1   
 38  22  23  1   
 39  22  38  1   
 40  22  39  1   
 41  23  40  1   
 42  23  41  1   
 43  23  42  1   
@<TRIPOS>SUBSTRUCTURE
  1 ****  12 GROUP 4 **** **** 0

# MOE 2024.06 (io_trps.svl 2023.06)
