@<TRIPOS>MOLECULE
NONAME
48 50 1 0 0 
SMALL
USER_CHARGES


@<TRIPOS>ATOM
  1 O       -1.0320     0.3740     1.7320 O.2   1 <1>  -0.5700 
  2 C       -1.9130     0.9360     1.1220 C.2   1 <1>   0.5690 
  3 N       -3.2240     0.5150     1.2260 N.am  1 <1>  -0.6600 
  4 C       -1.4650     2.1310     0.2670 C.3   1 <1>  -0.0190 
  5 C       -4.4070     1.1180     0.5460 C.3   1 <1>   0.1400 
  6 C       -3.5760    -0.6390     2.1050 C.3   1 <1>   0.1400 
  7 C       -1.9770     3.4860     0.8040 C.3   1 <1>  -0.1600 
  8 C       -1.6890     1.9310    -1.2540 C.3   1 <1>  -0.1600 
  9 C       -5.1220     0.0540    -0.2900 C.3   1 <1>  -0.1600 
 10 C       -4.2790    -1.7220     1.2850 C.3   1 <1>  -0.1600 
 11 C       -1.3910     4.6890     0.0370 C.3   1 <1>   0.2000 
 12 C       -1.9050     3.2510    -2.0170 C.3   1 <1>  -0.1600 
 13 C       -5.5160    -1.1650     0.5630 C.3   1 <1>   0.1010 
 14 O       -2.3500     5.7190     0.0600 O.3   1 <1>  -0.5600 
 15 C       -1.0270     4.3610    -1.4370 C.3   1 <1>   0.2000 
 16 C       -6.2020    -2.2580    -0.2550 C.2   1 <1>   0.3350 
 17 C       -2.3590     6.4910     1.2210 C.3   1 <1>   0.0400 
 18 O       -1.2030     5.4900    -2.2110 O.3   1 <1>  -0.6800 
 19 N       -6.1480    -2.3960    -1.5210 N.2   1 <1>  -0.4100 
 20 N       -6.9390    -3.1850     0.3440 N.2   1 <1>  -0.5650 
 21 O       -6.8590    -3.4390    -1.8240 O.3   1 <1>  -0.0190 
 22 C       -7.3020    -3.8630    -0.6680 C.2   1 <1>   0.2980 
 23 C       -8.1850    -5.0890    -0.6320 C.3   1 <1>  -0.0600 
 24 H       -0.3950     2.1770     0.3890 H     1 <1>   0.0800 
 25 H       -5.0770     1.5080     1.2930 H     1 <1>   0.0800 
 26 H       -4.1260     1.9280    -0.0980 H     1 <1>   0.0800 
 27 H       -2.6970    -1.0590     2.5650 H     1 <1>   0.0800 
 28 H       -4.2230    -0.2940     2.8930 H     1 <1>   0.0800 
 29 H       -1.7110     3.5690     1.8420 H     1 <1>   0.0800 
 30 H       -3.0470     3.5240     0.7360 H     1 <1>   0.0800 
 31 H       -0.8210     1.4350    -1.6540 H     1 <1>   0.0800 
 32 H       -2.5210     1.2790    -1.4470 H     1 <1>   0.0800 
 33 H       -6.0030     0.4810    -0.7330 H     1 <1>   0.0800 
 34 H       -4.4710    -0.2560    -1.0890 H     1 <1>   0.0800 
 35 H       -3.5860    -2.1230     0.5670 H     1 <1>   0.0800 
 36 H       -4.5750    -2.5240     1.9390 H     1 <1>   0.0800 
 37 H       -0.4940     5.0360     0.5230 H     1 <1>   0.0800 
 38 H       -2.9370     3.5450    -1.9370 H     1 <1>   0.0800 
 39 H       -1.6720     3.1050    -3.0580 H     1 <1>   0.0800 
 40 H       -6.2220    -0.8370     1.3060 H     1 <1>   0.0800 
 41 H        0.0070     4.0700    -1.5090 H     1 <1>   0.0800 
 42 H       -3.1260     7.2390     1.1190 H     1 <1>   0.0800 
 43 H       -1.4020     6.9700     1.3370 H     1 <1>   0.0800 
 44 H       -2.5770     5.8660     2.0690 H     1 <1>   0.0800 
 45 H       -1.8910     6.0220    -1.7490 H     1 <1>   0.4000 
 46 H       -8.4650    -5.3100     0.3810 H     1 <1>   0.0800 
 47 H       -7.6540    -5.9290    -1.0400 H     1 <1>   0.0800 
 48 H       -9.0710    -4.9140    -1.2120 H     1 <1>   0.0800 
@<TRIPOS>BOND
  1   1   2  2   
  2   2   3  am  
  3   2   4  1   
  4   3   5  1   
  5   3   6  1   
  6   4   7  1   
  7   4   8  1   
  8   4  24  1   
  9   5   9  1   
 10   5  25  1   
 11   5  26  1   
 12   6  10  1   
 13   6  27  1   
 14   6  28  1   
 15   7  11  1   
 16   7  29  1   
 17   7  30  1   
 18   8  12  1   
 19   8  31  1   
 20   8  32  1   
 21   9  13  1   
 22   9  33  1   
 23   9  34  1   
 24  10  13  1   
 25  10  35  1   
 26  10  36  1   
 27  11  14  1   
 28  11  15  1   
 29  11  37  1   
 30  12  15  1   
 31  12  38  1   
 32  12  39  1   
 33  13  16  1   
 34  13  40  1   
 35  14  17  1   
 36  15  18  1   
 37  15  41  1   
 38  16  19  2   
 39  16  20  1   
 40  17  42  1   
 41  17  43  1   
 42  17  44  1   
 43  18  45  1   
 44  19  21  1   
 45  20  22  2   
 46  21  22  1   
 47  22  23  1   
 48  23  46  1   
 49  23  47  1   
 50  23  48  1   
@<TRIPOS>SUBSTRUCTURE
  1 ****   5 GROUP 4 **** **** 0

# MOE 2024.06 (io_trps.svl 2023.06)
