@<TRIPOS>MOLECULE
NONAME
54 56 1 0 0 
SMALL
USER_CHARGES


@<TRIPOS>ATOM
  1 O        0.1950     0.3290    -0.3840 O.3   1 <1>  -0.5600 
  2 C        1.4630    -0.2670    -0.4270 C.3   1 <1>   0.3440 
  3 C        0.1940     1.6930    -0.7190 C.3   1 <1>   0.2000 
  4 C        1.3410    -1.7490    -0.0810 C.ar  1 <1>  -0.1440 
  5 C        2.4080     0.4470     0.5590 C.3   1 <1>   0.1100 
  6 C       -1.2780     2.2030    -0.7880 C.3   1 <1>   0.0000 
  7 C        1.1030     2.4640     0.2720 C.3   1 <1>   0.1100 
  8 C        2.1700    -2.6720    -0.7040 C.ar  1 <1>  -0.1500 
  9 C        0.4230    -2.1960     0.8600 C.ar  1 <1>  -0.1500 
 10 N        2.4700     1.9030     0.3120 N.3   1 <1>  -0.8100 
 11 C       -2.0470     1.4040    -1.8570 C.3   1 <1>  -0.2400 
 12 C       -2.0140     2.0410     0.5560 C.3   1 <1>  -0.2400 
 13 C       -1.3270     3.6880    -1.1940 C.3   1 <1>  -0.2400 
 14 C        2.0850    -4.0180    -0.3900 C.ar  1 <1>  -0.1500 
 15 C        0.3370    -3.5410     1.1750 C.ar  1 <1>  -0.1500 
 16 C        3.3450     2.5740     1.3000 C.3   1 <1>   0.2530 
 17 C        1.1690    -4.4530     0.5500 C.ar  1 <1>  -0.1500 
 18 C        3.5010     4.0780     1.0650 C.ar  1 <1>   0.1670 
 19 N        4.3920     4.4900     0.1850 N.ar  1 <1>  -0.6200 
 20 C        2.7330     4.9770     1.7710 C.ar  1 <1>  -0.1500 
 21 C        4.4870     5.7990     0.0190 C.ar  1 <1>   0.4770 
 22 C        2.9190     6.3140     1.5190 C.ar  1 <1>   0.1600 
 23 N        3.7960     6.7430     0.6400 N.ar  1 <1>  -0.6200 
 24 C        5.5090     6.2730    -1.0020 C.3   1 <1>  -0.0170 
 25 C        6.8970     6.4800    -0.3790 C.3   1 <1>  -0.2400 
 26 H        1.8420    -0.1630    -1.4290 H     1 <1>   0.0800 
 27 H        0.6240     1.7850    -1.7020 H     1 <1>   0.0800 
 28 H        3.3930     0.0250     0.4590 H     1 <1>   0.0800 
 29 H        2.0630     0.2560     1.5610 H     1 <1>   0.0800 
 30 H        0.6680     2.4320     1.2550 H     1 <1>   0.0800 
 31 H        1.1600     3.4900    -0.0430 H     1 <1>   0.0800 
 32 H        2.8860    -2.3480    -1.4380 H     1 <1>   0.1500 
 33 H       -0.2310    -1.4930     1.3460 H     1 <1>   0.1500 
 34 H       -3.0580     1.7580    -1.9480 H     1 <1>   0.0800 
 35 H       -2.0810     0.3600    -1.5960 H     1 <1>   0.0800 
 36 H       -1.5660     1.4940    -2.8150 H     1 <1>   0.0800 
 37 H       -3.0430     2.3390     0.4600 H     1 <1>   0.0800 
 38 H       -1.5630     2.6420     1.3230 H     1 <1>   0.0800 
 39 H       -1.9910     1.0130     0.8720 H     1 <1>   0.0800 
 40 H       -2.3450     4.0040    -1.3400 H     1 <1>   0.0800 
 41 H       -0.7910     3.8450    -2.1130 H     1 <1>   0.0800 
 42 H       -0.8960     4.3150    -0.4350 H     1 <1>   0.0800 
 43 H        2.7300    -4.7260    -0.8790 H     1 <1>   0.1500 
 44 H       -0.3800    -3.8770     1.9040 H     1 <1>   0.1500 
 45 H        2.9560     2.4100     2.2900 H     1 <1>   0.0800 
 46 H        4.3240     2.1310     1.2550 H     1 <1>   0.0800 
 47 H        1.1010    -5.4990     0.7940 H     1 <1>   0.1500 
 48 H        2.0100     4.6490     2.4920 H     1 <1>   0.1500 
 49 H        2.3380     7.0500     2.0490 H     1 <1>   0.1500 
 50 H        5.5740     5.5450    -1.7910 H     1 <1>   0.0800 
 51 H        5.1680     7.1960    -1.4350 H     1 <1>   0.0800 
 52 H        7.2520     5.5560     0.0420 H     1 <1>   0.0800 
 53 H        6.8430     7.2180     0.4020 H     1 <1>   0.0800 
 54 H        7.5940     6.8130    -1.1270 H     1 <1>   0.0800 
@<TRIPOS>BOND
  1   1   2  1   
  2   1   3  1   
  3   2   4  1   
  4   2   5  1   
  5   2  26  1   
  6   3   6  1   
  7   3   7  1   
  8   3  27  1   
  9   4   8  ar  
 10   4   9  ar  
 11   5  10  1   
 12   5  28  1   
 13   5  29  1   
 14   6  11  1   
 15   6  12  1   
 16   6  13  1   
 17   7  10  1   
 18   7  30  1   
 19   7  31  1   
 20   8  14  ar  
 21   8  32  1   
 22   9  15  ar  
 23   9  33  1   
 24  10  16  1   
 25  11  34  1   
 26  11  35  1   
 27  11  36  1   
 28  12  37  1   
 29  12  38  1   
 30  12  39  1   
 31  13  40  1   
 32  13  41  1   
 33  13  42  1   
 34  14  17  ar  
 35  14  43  1   
 36  15  17  ar  
 37  15  44  1   
 38  16  18  1   
 39  16  45  1   
 40  16  46  1   
 41  17  47  1   
 42  18  19  ar  
 43  18  20  ar  
 44  19  21  ar  
 45  20  22  ar  
 46  20  48  1   
 47  21  23  ar  
 48  21  24  1   
 49  22  23  ar  
 50  22  49  1   
 51  24  25  1   
 52  24  50  1   
 53  24  51  1   
 54  25  52  1   
 55  25  53  1   
 56  25  54  1   
@<TRIPOS>SUBSTRUCTURE
  1 ****  10 GROUP 4 **** **** 0

# MOE 2024.06 (io_trps.svl 2023.06)
