@<TRIPOS>MOLECULE
NONAME
46 49 1 0 0 
SMALL
USER_CHARGES


@<TRIPOS>ATOM
  1 O       -0.2710     0.1000     0.5910 O.2   1 <1>  -0.5700 
  2 C       -1.3090     0.7340     0.5710 C.2   1 <1>   0.5440 
  3 N       -2.4940     0.0510     0.4110 N.am  1 <1>  -0.6600 
  4 C       -1.2750     2.1780     0.6910 C.ar  1 <1>   0.0860 
  5 C       -3.7660     0.6630    -0.0470 C.3   1 <1>   0.1400 
  6 C       -2.5420    -1.4250     0.2670 C.3   1 <1>   0.1400 
  7 C       -0.4210     2.9390    -0.1080 C.ar  1 <1>  -0.1500 
  8 C       -2.0840     2.8580     1.6040 C.ar  1 <1>  -0.1500 
  9 C       -4.5780    -0.4990    -0.6190 C.3   1 <1>   0.2000 
 10 C       -4.0190    -1.7550     0.0450 C.3   1 <1>  -0.0800 
 11 C       -0.3850     4.3200    -0.0270 C.ar  1 <1>  -0.1440 
 12 C       -2.0600     4.2370     1.6940 C.ar  1 <1>  -0.1500 
 13 O       -5.9280    -0.3730    -0.3320 O.3   1 <1>  -0.6800 
 14 C       -4.2650    -3.0250    -0.7870 C.3   1 <1>  -0.0170 
 15 C       -1.2190     4.9730     0.8770 C.ar  1 <1>   0.0830 
 16 C        0.5620     5.1130    -0.9120 C.3   1 <1>  -0.0170 
 17 C       -3.7560    -4.2700    -0.0790 C.ar  1 <1>   0.1670 
 18 O       -1.2310     6.3190     1.0000 O.3   1 <1>  -0.3630 
 19 C        0.7700     6.5180    -0.3410 C.3   1 <1>  -0.1600 
 20 N       -2.4700    -4.5470    -0.2200 N.ar  1 <1>  -0.6200 
 21 C       -4.6320    -5.0500     0.6740 C.ar  1 <1>   0.1600 
 22 C       -0.5810     7.1290     0.0400 C.3   1 <1>   0.1200 
 23 C       -2.1210    -5.6400     0.4370 C.ar  1 <1>   0.1600 
 24 N       -4.2860    -6.1430     1.3340 N.ar  1 <1>  -0.6200 
 25 C       -2.9990    -6.4120     1.1890 C.ar  1 <1>   0.1600 
 26 H       -4.2710     1.1040     0.7940 H     1 <1>   0.0800 
 27 H       -3.5790     1.4070    -0.8020 H     1 <1>   0.0800 
 28 H       -1.9480    -1.7140    -0.5850 H     1 <1>   0.0800 
 29 H       -2.1510    -1.9090     1.1460 H     1 <1>   0.0800 
 30 H        0.2220     2.4230    -0.7990 H     1 <1>   0.1500 
 31 H       -2.7300     2.2930     2.2510 H     1 <1>   0.1500 
 32 H       -4.4580    -0.5350    -1.6890 H     1 <1>   0.0800 
 33 H       -4.4650    -1.8730     1.0170 H     1 <1>   0.0800 
 34 H       -2.6870     4.7540     2.3980 H     1 <1>   0.1500 
 35 H       -6.0680    -0.3270     0.6340 H     1 <1>   0.4000 
 36 H       -3.7760    -2.9410    -1.7420 H     1 <1>   0.0800 
 37 H       -5.3200    -3.1260    -0.9740 H     1 <1>   0.0800 
 38 H        1.5090     4.6090    -0.9890 H     1 <1>   0.0800 
 39 H        0.1340     5.1830    -1.8970 H     1 <1>   0.0800 
 40 H        1.2620     7.1390    -1.0670 H     1 <1>   0.0800 
 41 H        1.3900     6.4690     0.5370 H     1 <1>   0.0800 
 42 H       -5.6650    -4.7560     0.7370 H     1 <1>   0.1500 
 43 H       -1.2260     7.1990    -0.8190 H     1 <1>   0.0800 
 44 H       -0.4550     8.1060     0.4700 H     1 <1>   0.0800 
 45 H       -1.0900    -5.9400     0.3790 H     1 <1>   0.1500 
 46 H       -2.6200    -7.2850     1.6890 H     1 <1>   0.1500 
@<TRIPOS>BOND
  1   1   2  2   
  2   2   3  am  
  3   2   4  1   
  4   3   5  1   
  5   3   6  1   
  6   4   7  ar  
  7   4   8  ar  
  8   5   9  1   
  9   5  26  1   
 10   5  27  1   
 11   6  10  1   
 12   6  28  1   
 13   6  29  1   
 14   7  11  ar  
 15   7  30  1   
 16   8  12  ar  
 17   8  31  1   
 18   9  10  1   
 19   9  13  1   
 20   9  32  1   
 21  10  14  1   
 22  10  33  1   
 23  11  15  ar  
 24  11  16  1   
 25  12  15  ar  
 26  12  34  1   
 27  13  35  1   
 28  14  17  1   
 29  14  36  1   
 30  14  37  1   
 31  15  18  1   
 32  16  19  1   
 33  16  38  1   
 34  16  39  1   
 35  17  20  ar  
 36  17  21  ar  
 37  18  22  1   
 38  19  22  1   
 39  19  40  1   
 40  19  41  1   
 41  20  23  ar  
 42  21  24  ar  
 43  21  42  1   
 44  22  43  1   
 45  22  44  1   
 46  23  25  ar  
 47  23  45  1   
 48  24  25  ar  
 49  25  46  1   
@<TRIPOS>SUBSTRUCTURE
  1 ****   3 GROUP 4 **** **** 0

# MOE 2024.06 (io_trps.svl 2023.06)
