@<TRIPOS>MOLECULE
NONAME
53 55 1 0 0 
SMALL
USER_CHARGES


@<TRIPOS>ATOM
  1 O        0.4230    -0.5850     0.9030 O.2   1 <1>  -0.5700 
  2 C       -0.2500     0.3200     0.4550 C.2   1 <1>   0.5690 
  3 N       -1.4540     0.0200    -0.1470 N.am  1 <1>  -0.6600 
  4 C        0.2670     1.7840     0.6380 C.3   1 <1>   0.3410 
  5 C       -2.4030     0.9580    -0.8050 C.3   1 <1>   0.1400 
  6 C       -1.9880    -1.3630    -0.1920 C.3   1 <1>   0.1400 
  7 O        0.0000     2.5290    -0.5560 O.3   1 <1>  -0.3630 
  8 C        1.7900     1.8260     0.8770 C.3   1 <1>  -0.2400 
  9 C       -0.4470     2.4300     1.8410 C.3   1 <1>  -0.2400 
 10 C       -3.5580     0.0870    -1.3020 C.3   1 <1>   0.2000 
 11 C       -3.4770    -1.2050    -0.4940 C.3   1 <1>  -0.0800 
 12 C        0.1510     3.8710    -0.6260 C.ar  1 <1>   0.0820 
 13 O       -4.7840     0.7000    -1.0950 O.3   1 <1>  -0.6800 
 14 C       -4.0900    -2.4130    -1.2170 C.3   1 <1>   0.0210 
 15 C       -0.9190     4.7020    -0.3310 C.ar  1 <1>  -0.1500 
 16 C        1.3570     4.4130    -1.0420 C.ar  1 <1>  -0.1500 
 17 C       -3.9000    -3.6810    -0.4100 C.2   1 <1>   0.1080 
 18 C       -0.7790     6.0780    -0.4140 C.ar  1 <1>  -0.1430 
 19 C        1.5010     5.7860    -1.1280 C.ar  1 <1>  -0.1500 
 20 N       -4.4190    -3.8490     0.7670 N.2   1 <1>  -0.7070 
 21 C       -3.1540    -4.7820    -0.8170 C.2   1 <1>  -0.1500 
 22 C        0.4360     6.6150    -0.8110 C.ar  1 <1>  -0.1500 
 23 C       -1.9430     6.9940    -0.0840 C.3   1 <1>  -0.0970 
 24 N       -4.0150    -5.0760     1.1450 N.pl3 1 <1>   0.3000 
 25 C       -3.2470    -5.6610     0.2020 C.2   1 <1>  -0.3320 
 26 C       -2.6370    -7.0450     0.3370 C.3   1 <1>  -0.0600 
 27 H       -2.7490     1.6850    -0.0930 H     1 <1>   0.0800 
 28 H       -1.9310     1.4470    -1.6380 H     1 <1>   0.0800 
 29 H       -1.4870    -1.9040    -0.9770 H     1 <1>   0.0800 
 30 H       -1.8310    -1.8720     0.7460 H     1 <1>   0.0800 
 31 H        2.0430     1.2370     1.7400 H     1 <1>   0.0800 
 32 H        2.1300     2.8290     1.0560 H     1 <1>   0.0800 
 33 H        2.3050     1.4120     0.0290 H     1 <1>   0.0800 
 34 H       -0.2810     1.8280     2.7170 H     1 <1>   0.0800 
 35 H       -1.5060     2.4810     1.6720 H     1 <1>   0.0800 
 36 H       -0.0650     3.4140     2.0400 H     1 <1>   0.0800 
 37 H       -3.4430    -0.0960    -2.3570 H     1 <1>   0.0800 
 38 H       -3.9740    -1.0740     0.4510 H     1 <1>   0.0800 
 39 H       -4.9910     0.7210    -0.1410 H     1 <1>   0.4000 
 40 H       -3.6390    -2.5350    -2.1850 H     1 <1>   0.0800 
 41 H       -5.1440    -2.2490    -1.3570 H     1 <1>   0.0800 
 42 H       -1.8570     4.2670    -0.0410 H     1 <1>   0.1500 
 43 H        2.1730     3.7630    -1.2990 H     1 <1>   0.1500 
 44 H        2.4370     6.2110    -1.4440 H     1 <1>   0.1500 
 45 H       -2.6270    -4.8840    -1.7490 H     1 <1>   0.1500 
 46 H        0.5570     7.6820    -0.8810 H     1 <1>   0.1500 
 47 H       -1.5950     7.8600     0.4500 H     1 <1>   0.0800 
 48 H       -2.6660     6.4860     0.5280 H     1 <1>   0.0800 
 49 H       -2.4220     7.3140    -0.9920 H     1 <1>   0.0800 
 50 H       -4.2800    -5.4840     2.0490 H     1 <1>   0.2700 
 51 H       -2.0680    -7.2850    -0.5430 H     1 <1>   0.0800 
 52 H       -3.4110    -7.7820     0.4570 H     1 <1>   0.0800 
 53 H       -1.9820    -7.0810     1.1890 H     1 <1>   0.0800 
@<TRIPOS>BOND
  1   1   2  2   
  2   2   3  am  
  3   2   4  1   
  4   3   5  1   
  5   3   6  1   
  6   4   7  1   
  7   4   8  1   
  8   4   9  1   
  9   5  10  1   
 10   5  27  1   
 11   5  28  1   
 12   6  11  1   
 13   6  29  1   
 14   6  30  1   
 15   7  12  1   
 16   8  31  1   
 17   8  32  1   
 18   8  33  1   
 19   9  34  1   
 20   9  35  1   
 21   9  36  1   
 22  10  11  1   
 23  10  13  1   
 24  10  37  1   
 25  11  14  1   
 26  11  38  1   
 27  12  15  ar  
 28  12  16  ar  
 29  13  39  1   
 30  14  17  1   
 31  14  40  1   
 32  14  41  1   
 33  15  18  ar  
 34  15  42  1   
 35  16  19  ar  
 36  16  43  1   
 37  17  20  2   
 38  17  21  1   
 39  18  22  ar  
 40  18  23  1   
 41  19  22  ar  
 42  19  44  1   
 43  20  24  1   
 44  21  25  2   
 45  21  45  1   
 46  22  46  1   
 47  23  47  1   
 48  23  48  1   
 49  23  49  1   
 50  24  25  1   
 51  24  50  1   
 52  25  26  1   
 53  26  51  1   
 54  26  52  1   
 55  26  53  1   
@<TRIPOS>SUBSTRUCTURE
  1 ****   3 GROUP 4 **** **** 0

# MOE 2024.06 (io_trps.svl 2023.06)
