@<TRIPOS>MOLECULE
NONAME
51 53 1 0 0 
SMALL
USER_CHARGES


@<TRIPOS>ATOM
  1 O       -1.0910     0.7840    -0.5080 O.2   1 <1>  -0.5700 
  2 C       -1.7650     1.2470     0.3920 C.2   1 <1>   0.5440 
  3 N       -2.5310     0.3970     1.1330 N.am  1 <1>  -0.7300 
  4 C       -1.7480     2.6770     0.6540 C.ar  1 <1>   0.0860 
  5 C       -2.5580    -1.0780     0.9990 C.3   1 <1>   0.2200 
  6 C       -1.3160     3.5660    -0.3320 C.ar  1 <1>  -0.1500 
  7 C       -2.1390     3.2260     1.8770 C.ar  1 <1>  -0.1500 
  8 C       -3.9070    -1.5050     0.4430 C.3   1 <1>  -0.0800 
  9 C       -2.5880    -1.7040     2.3870 C.3   1 <1>   0.1200 
 10 C       -1.2560     4.9330    -0.1170 C.ar  1 <1>  -0.1430 
 11 C       -2.1010     4.5900     2.0990 C.ar  1 <1>  -0.1500 
 12 C       -4.7790    -1.5800     1.7040 C.3   1 <1>   0.1200 
 13 C       -3.8110    -2.8590    -0.2850 C.3   1 <1>  -0.0160 
 14 O       -3.9160    -1.6230     2.8040 O.3   1 <1>  -0.5600 
 15 C       -1.6600     5.4450     1.1060 C.ar  1 <1>  -0.1500 
 16 C       -0.7420     5.8510    -1.2110 C.3   1 <1>   0.4860 
 17 C       -5.1590    -3.2950    -0.8400 C.ar  1 <1>  -0.1430 
 18 N        0.7160     5.5960    -1.3950 N.4   1 <1>  -0.9590 
 19 C       -5.8980    -4.3080    -0.2630 C.ar  1 <1>  -0.1500 
 20 C       -5.7120    -2.6970    -1.9540 C.ar  1 <1>  -0.1500 
 21 C        1.5010     5.9810    -0.1800 C.3   1 <1>   0.2630 
 22 C        1.2420     6.2700    -2.6200 C.3   1 <1>   0.2630 
 23 C       -7.1210    -4.6600    -0.8100 C.ar  1 <1>   0.1600 
 24 C       -6.9430    -3.1250    -2.4220 C.ar  1 <1>   0.1600 
 25 N       -7.6630    -4.0910    -1.8750 N.ar  1 <1>  -0.6200 
 26 H       -3.1580     0.7510     1.8580 H     1 <1>   0.3700 
 27 H       -1.7230    -1.4230     0.4130 H     1 <1>   0.0800 
 28 H       -1.0220     3.1520    -1.2820 H     1 <1>   0.1500 
 29 H       -2.4720     2.5810     2.6710 H     1 <1>   0.1500 
 30 H       -4.2900    -0.7720    -0.2460 H     1 <1>   0.0800 
 31 H       -1.9540    -1.1910     3.0890 H     1 <1>   0.0800 
 32 H       -2.3180    -2.7440     2.3440 H     1 <1>   0.0800 
 33 H       -2.4140     4.9870     3.0510 H     1 <1>   0.1500 
 34 H       -5.4110    -2.4500     1.7270 H     1 <1>   0.0800 
 35 H       -5.3880    -0.6980     1.8020 H     1 <1>   0.0800 
 36 H       -3.4360    -3.6160     0.3830 H     1 <1>   0.0800 
 37 H       -3.1150    -2.7760    -1.1020 H     1 <1>   0.0800 
 38 H       -1.6390     6.5050     1.3020 H     1 <1>   0.1500 
 39 H       -0.9120     6.8810    -0.9440 H     1 <1>   0.0800 
 40 H       -1.2740     5.6420    -2.1260 H     1 <1>   0.0800 
 41 H        0.8120     4.5740    -1.5090 H     1 <1>   0.4500 
 42 H       -5.5380    -4.8280     0.6060 H     1 <1>   0.1500 
 43 H       -5.1970    -1.9040    -2.4640 H     1 <1>   0.1500 
 44 H        1.4090     7.0370     0.0100 H     1 <1>   0.0800 
 45 H        2.5440     5.7440    -0.3180 H     1 <1>   0.0800 
 46 H        1.1430     5.4420     0.6830 H     1 <1>   0.0800 
 47 H        1.1480     7.3400    -2.5310 H     1 <1>   0.0800 
 48 H        0.6960     5.9450    -3.4910 H     1 <1>   0.0800 
 49 H        2.2840     6.0270    -2.7600 H     1 <1>   0.0800 
 50 H       -7.6840    -5.4520    -0.3460 H     1 <1>   0.1500 
 51 H       -7.3590    -2.6470    -3.2920 H     1 <1>   0.1500 
@<TRIPOS>BOND
  1   1   2  2   
  2   2   3  am  
  3   2   4  1   
  4   3   5  1   
  5   3  26  1   
  6   4   6  ar  
  7   4   7  ar  
  8   5   8  1   
  9   5   9  1   
 10   5  27  1   
 11   6  10  ar  
 12   6  28  1   
 13   7  11  ar  
 14   7  29  1   
 15   8  12  1   
 16   8  13  1   
 17   8  30  1   
 18   9  14  1   
 19   9  31  1   
 20   9  32  1   
 21  10  15  ar  
 22  10  16  1   
 23  11  15  ar  
 24  11  33  1   
 25  12  14  1   
 26  12  34  1   
 27  12  35  1   
 28  13  17  1   
 29  13  36  1   
 30  13  37  1   
 31  15  38  1   
 32  16  18  1   
 33  16  39  1   
 34  16  40  1   
 35  17  19  ar  
 36  17  20  ar  
 37  18  21  1   
 38  18  22  1   
 39  18  41  1   
 40  19  23  ar  
 41  19  42  1   
 42  20  24  ar  
 43  20  43  1   
 44  21  44  1   
 45  21  45  1   
 46  21  46  1   
 47  22  47  1   
 48  22  48  1   
 49  22  49  1   
 50  23  25  ar  
 51  23  50  1   
 52  24  25  ar  
 53  24  51  1   
@<TRIPOS>SUBSTRUCTURE
  1 ****   3 GROUP 4 **** **** 0

# MOE 2024.06 (io_trps.svl 2023.06)
