@<TRIPOS>MOLECULE
NONAME
57 60 1 0 0 
SMALL
USER_CHARGES


@<TRIPOS>ATOM
  1 O       -0.4690     0.6640     0.3360 O.2   1 <1>  -0.5700 
  2 C       -1.5790     1.1190     0.4720 C.2   1 <1>   0.5690 
  3 N       -2.6930     0.3820     0.1790 N.am  1 <1>  -0.6600 
  4 C       -1.7410     2.5440     0.9910 C.3   1 <1>  -0.0990 
  5 C       -4.1050     0.7920     0.3810 C.3   1 <1>   0.1400 
  6 C       -2.6200    -1.0130    -0.3180 C.3   1 <1>   0.1400 
  7 C       -0.4250     3.3440     1.0540 C.3   1 <1>  -0.1600 
  8 C       -4.9380    -0.4310    -0.0120 C.3   1 <1>   0.2000 
  9 C       -3.9810    -1.6220     0.0230 C.3   1 <1>  -0.0800 
 10 C       -0.6470     4.7750     1.5660 C.3   1 <1>   0.0200 
 11 O       -5.9820    -0.6360     0.8760 O.3   1 <1>  -0.6800 
 12 C       -4.4180    -2.7570    -0.9190 C.3   1 <1>  -0.0170 
 13 C        0.6450     5.5700     1.5830 C.2   1 <1>   0.2980 
 14 C       -3.4640    -3.9380    -0.8590 C.ar  1 <1>   0.1660 
 15 O        1.5810     5.2390     2.4320 O.3   1 <1>  -0.0190 
 16 N        0.9120     6.5580     0.8340 N.2   1 <1>  -0.5650 
 17 N       -2.3920    -3.8670    -1.6320 N.ar  1 <1>  -0.6200 
 18 C       -3.7460    -5.0060    -0.0190 C.ar  1 <1>  -0.1500 
 19 N        2.5300     6.0900     2.2030 N.2   1 <1>  -0.4100 
 20 C        2.1410     6.8710     1.2570 C.2   1 <1>   0.4620 
 21 C       -1.5660    -4.8980    -1.5640 C.ar  1 <1>   0.1600 
 22 C       -2.8770    -6.0750     0.0400 C.ar  1 <1>  -0.1500 
 23 C        2.9120     7.9670     0.6920 C.ar  1 <1>   0.0540 
 24 C       -1.7570    -6.0080    -0.7590 C.ar  1 <1>  -0.1500 
 25 C        2.4110     8.7620    -0.3390 C.ar  1 <1>  -0.1500 
 26 C        4.1910     8.2700     1.1630 C.ar  1 <1>  -0.1500 
 27 C        3.1400     9.8070    -0.8800 C.ar  1 <1>   0.0820 
 28 C        4.9320     9.3110     0.6330 C.ar  1 <1>  -0.1500 
 29 O        2.5500    10.5110    -1.8790 O.3   1 <1>  -0.3630 
 30 C        4.4120    10.0830    -0.3890 C.ar  1 <1>  -0.1500 
 31 C        3.2040    11.5950    -2.4990 C.3   1 <1>   0.0400 
 32 H       -2.4280     3.0600     0.3470 H     1 <1>   0.0800 
 33 H       -2.1700     2.4890     1.9750 H     1 <1>   0.0800 
 34 H       -4.2610     1.0490     1.4140 H     1 <1>   0.0800 
 35 H       -4.3440     1.6260    -0.2540 H     1 <1>   0.0800 
 36 H       -2.4600    -0.9990    -1.3830 H     1 <1>   0.0800 
 37 H       -1.8150    -1.5550     0.1500 H     1 <1>   0.0800 
 38 H        0.2710     2.8370     1.7010 H     1 <1>   0.0800 
 39 H        0.0130     3.3840     0.0700 H     1 <1>   0.0800 
 40 H       -5.3520    -0.2870    -0.9960 H     1 <1>   0.0800 
 41 H       -3.9120    -2.0010     1.0270 H     1 <1>   0.0800 
 42 H       -1.0510     4.7540     2.5610 H     1 <1>   0.0800 
 43 H       -1.3500     5.2820     0.9280 H     1 <1>   0.0800 
 44 H       -5.6360    -0.8510     1.7640 H     1 <1>   0.4000 
 45 H       -4.4650    -2.3990    -1.9330 H     1 <1>   0.0800 
 46 H       -5.4060    -3.0820    -0.6470 H     1 <1>   0.0800 
 47 H       -4.6350    -5.0040     0.5840 H     1 <1>   0.1500 
 48 H       -0.6870    -4.8560    -2.1850 H     1 <1>   0.1500 
 49 H       -3.0640    -6.9200     0.6800 H     1 <1>   0.1500 
 50 H       -1.0370    -6.8060    -0.7610 H     1 <1>   0.1500 
 51 H        1.4310     8.5680    -0.7350 H     1 <1>   0.1500 
 52 H        4.6130     7.6790     1.9580 H     1 <1>   0.1500 
 53 H        5.9160     9.5190     1.0170 H     1 <1>   0.1500 
 54 H        5.0040    10.8860    -0.7850 H     1 <1>   0.1500 
 55 H        2.5490    11.9930    -3.2530 H     1 <1>   0.0800 
 56 H        4.1120    11.2410    -2.9540 H     1 <1>   0.0800 
 57 H        3.4100    12.3480    -1.7590 H     1 <1>   0.0800 
@<TRIPOS>BOND
  1   1   2  2   
  2   2   3  am  
  3   2   4  1   
  4   3   5  1   
  5   3   6  1   
  6   4   7  1   
  7   4  32  1   
  8   4  33  1   
  9   5   8  1   
 10   5  34  1   
 11   5  35  1   
 12   6   9  1   
 13   6  36  1   
 14   6  37  1   
 15   7  10  1   
 16   7  38  1   
 17   7  39  1   
 18   8   9  1   
 19   8  11  1   
 20   8  40  1   
 21   9  12  1   
 22   9  41  1   
 23  10  13  1   
 24  10  42  1   
 25  10  43  1   
 26  11  44  1   
 27  12  14  1   
 28  12  45  1   
 29  12  46  1   
 30  13  15  1   
 31  13  16  2   
 32  14  17  ar  
 33  14  18  ar  
 34  15  19  1   
 35  16  20  1   
 36  17  21  ar  
 37  18  22  ar  
 38  18  47  1   
 39  19  20  2   
 40  20  23  1   
 41  21  24  ar  
 42  21  48  1   
 43  22  24  ar  
 44  22  49  1   
 45  23  25  ar  
 46  23  26  ar  
 47  24  50  1   
 48  25  27  ar  
 49  25  51  1   
 50  26  28  ar  
 51  26  52  1   
 52  27  29  1   
 53  27  30  ar  
 54  28  30  ar  
 55  28  53  1   
 56  29  31  1   
 57  30  54  1   
 58  31  55  1   
 59  31  56  1   
 60  31  57  1   
@<TRIPOS>SUBSTRUCTURE
  1 ****   7 GROUP 4 **** **** 0

# MOE 2024.06 (io_trps.svl 2023.06)
