@<TRIPOS>MOLECULE
NONAME
49 51 1 0 0 
SMALL
USER_CHARGES


@<TRIPOS>ATOM
  1 F        0.0460    -0.9690     1.4750 F     1 <1>  -0.1900 
  2 C       -0.6220    -2.0290     1.0940 C.ar  1 <1>   0.1900 
  3 C       -0.0900    -2.9570     0.1920 C.ar  1 <1>   0.0820 
  4 C       -1.8830    -2.1870     1.6330 C.ar  1 <1>  -0.1500 
  5 O        1.1370    -2.9110    -0.4050 O.3   1 <1>  -0.3630 
  6 C       -0.8760    -4.0470    -0.1450 C.ar  1 <1>  -0.1500 
  7 C       -2.6380    -3.2890     1.2760 C.ar  1 <1>  -0.1500 
  8 C        2.0400    -1.8440    -0.2240 C.3   1 <1>   0.0400 
  9 C       -2.1580    -4.2440     0.3780 C.ar  1 <1>   0.0530 
 10 C       -2.9380    -5.3980    -0.0060 C.2   1 <1>   0.0870 
 11 O       -2.3320    -6.4840    -0.4240 O.3   1 <1>  -0.0190 
 12 C       -4.2710    -5.6560    -0.0530 C.2   1 <1>  -0.2330 
 13 N       -3.1630    -7.4400    -0.7440 N.2   1 <1>  -0.4100 
 14 C       -4.3440    -6.9660    -0.5300 C.2   1 <1>   0.3720 
 15 C       -5.3770    -4.8190     0.2830 C.2   1 <1>   1.0330 
 16 N       -5.5240    -7.6950    -0.7620 N.pl3 1 <1>  -0.8210 
 17 O       -6.0100    -4.2200    -0.6060 O.co2 1 <1>  -0.9000 
 18 O       -5.6900    -4.6230     1.4700 O.co2 1 <1>  -0.9000 
 19 C       -5.4360    -9.1670    -0.9300 C.3   1 <1>   0.2090 
 20 C       -6.5470    -7.0100    -1.6040 C.3   1 <1>   0.1290 
 21 C       -6.5780    -9.8180    -0.1490 C.3   1 <1>  -0.1600 
 22 C       -6.5490   -11.3490    -0.2740 C.3   1 <1>  -0.1600 
 23 C       -7.6380   -12.0190     0.5680 C.3   1 <1>   0.2000 
 24 O       -7.5430   -13.3900     0.4030 O.3   1 <1>  -0.5600 
 25 C       -9.0660   -11.6910     0.1550 C.3   1 <1>  -0.1600 
 26 C       -8.7500   -14.0020     0.7280 C.3   1 <1>   0.1200 
 27 C       -9.8330   -12.9360     0.5690 C.3   1 <1>  -0.1600 
 28 H       -2.2730    -1.4620     2.3240 H     1 <1>   0.1500 
 29 H       -0.4800    -4.7650    -0.8400 H     1 <1>   0.1500 
 30 H       -3.6170    -3.4070     1.7080 H     1 <1>   0.1500 
 31 H        2.9100    -2.0360    -0.8260 H     1 <1>   0.0800 
 32 H        2.3190    -1.7930     0.8130 H     1 <1>   0.0800 
 33 H        1.5700    -0.9300    -0.5430 H     1 <1>   0.0800 
 34 H       -4.5000    -9.5310    -0.5440 H     1 <1>   0.0800 
 35 H       -5.4940    -9.4180    -1.9750 H     1 <1>   0.0800 
 36 H       -6.0830    -6.2470    -2.2070 H     1 <1>   0.0800 
 37 H       -7.2760    -6.5400    -0.9660 H     1 <1>   0.0800 
 38 H       -7.0450    -7.7070    -2.2520 H     1 <1>   0.0800 
 39 H       -7.5150    -9.4410    -0.5160 H     1 <1>   0.0800 
 40 H       -6.4810    -9.5380     0.8860 H     1 <1>   0.0800 
 41 H       -5.5930   -11.7110     0.0630 H     1 <1>   0.0800 
 42 H       -6.6740   -11.6300    -1.3050 H     1 <1>   0.0800 
 43 H       -7.4920   -11.8080     1.6150 H     1 <1>   0.0800 
 44 H       -9.1160   -11.5640    -0.9120 H     1 <1>   0.0800 
 45 H       -9.4270   -10.8010     0.6390 H     1 <1>   0.0800 
 46 H       -8.6880   -14.3510     1.7450 H     1 <1>   0.0800 
 47 H       -8.8990   -14.8340     0.0610 H     1 <1>   0.0800 
 48 H      -10.5570   -13.2230    -0.1720 H     1 <1>   0.0800 
 49 H      -10.3320   -12.7880     1.5110 H     1 <1>   0.0800 
@<TRIPOS>BOND
  1   1   2  1   
  2   2   3  ar  
  3   2   4  ar  
  4   3   5  1   
  5   3   6  ar  
  6   4   7  ar  
  7   4  28  1   
  8   5   8  1   
  9   6   9  ar  
 10   6  29  1   
 11   7   9  ar  
 12   7  30  1   
 13   8  31  1   
 14   8  32  1   
 15   8  33  1   
 16   9  10  1   
 17  10  11  1   
 18  10  12  2   
 19  11  13  1   
 20  12  14  1   
 21  12  15  1   
 22  13  14  2   
 23  14  16  1   
 24  15  17  ar  
 25  15  18  ar  
 26  16  19  1   
 27  16  20  1   
 28  19  21  1   
 29  19  34  1   
 30  19  35  1   
 31  20  36  1   
 32  20  37  1   
 33  20  38  1   
 34  21  22  1   
 35  21  39  1   
 36  21  40  1   
 37  22  23  1   
 38  22  41  1   
 39  22  42  1   
 40  23  24  1   
 41  23  25  1   
 42  23  43  1   
 43  24  26  1   
 44  25  27  1   
 45  25  44  1   
 46  25  45  1   
 47  26  27  1   
 48  26  46  1   
 49  26  47  1   
 50  27  48  1   
 51  27  49  1   
@<TRIPOS>SUBSTRUCTURE
  1 ****  14 GROUP 4 **** **** 0

# MOE 2024.06 (io_trps.svl 2023.06)
