@<TRIPOS>MOLECULE
NONAME
37 38 1 0 0 
SMALL
USER_CHARGES


@<TRIPOS>ATOM
  1 O       -0.4630     0.7200     0.2890 O.2   1 <1>  -0.5700 
  2 C       -1.6070     1.0890     0.3210 C.2   1 <1>   0.4230 
  3 C       -2.7080     0.2050     0.0550 C.ar  1 <1>   0.0860 
  4 C       -1.8450     2.5300     0.7280 C.3   1 <1>  -0.1790 
  5 C       -3.8360     0.4970    -0.7110 C.ar  1 <1>   0.1660 
  6 C       -2.6880    -1.0710     0.5940 C.ar  1 <1>   0.1600 
  7 N       -4.8260    -0.3480    -0.8520 N.ar  1 <1>  -0.6200 
  8 C       -4.0010     1.8050    -1.4690 C.3   1 <1>  -0.0960 
  9 N       -3.6600    -1.9360     0.4600 N.ar  1 <1>  -0.6200 
 10 C       -4.6990    -1.5230    -0.2550 C.ar  1 <1>   0.7200 
 11 N       -5.7450    -2.3500    -0.4230 N.pl3 1 <1>  -0.8690 
 12 C       -5.8890    -3.7260     0.0640 C.3   1 <1>   0.2890 
 13 C       -5.9230    -4.6710    -1.1420 C.3   1 <1>  -0.1600 
 14 C       -7.1790    -3.8210     0.8850 C.3   1 <1>  -0.1600 
 15 C       -6.1960    -6.1210    -0.7100 C.3   1 <1>  -0.1600 
 16 C       -7.4570    -5.2680     1.3260 C.3   1 <1>  -0.1600 
 17 C       -7.4820    -6.2100     0.1180 C.3   1 <1>   0.2000 
 18 O       -7.6120    -7.5000     0.5780 O.3   1 <1>  -0.6800 
 19 H       -2.8490     2.6680     1.0840 H     1 <1>   0.0800 
 20 H       -1.6600     3.1810    -0.1050 H     1 <1>   0.0800 
 21 H       -1.1650     2.7900     1.5200 H     1 <1>   0.0800 
 22 H       -1.8250    -1.3730     1.1650 H     1 <1>   0.1500 
 23 H       -3.0570     2.1570    -1.8410 H     1 <1>   0.0800 
 24 H       -4.4410     2.5480    -0.8300 H     1 <1>   0.0800 
 25 H       -4.6510     1.6600    -2.3140 H     1 <1>   0.0800 
 26 H       -6.4930    -1.9830    -1.0040 H     1 <1>   0.4000 
 27 H       -5.0550    -3.9890     0.6930 H     1 <1>   0.0800 
 28 H       -4.9770    -4.6220    -1.6530 H     1 <1>   0.0800 
 29 H       -6.6940    -4.3550    -1.8230 H     1 <1>   0.0800 
 30 H       -8.0070    -3.4690     0.2950 H     1 <1>   0.0800 
 31 H       -7.0900    -3.1930     1.7540 H     1 <1>   0.0800 
 32 H       -5.3630    -6.4720    -0.1260 H     1 <1>   0.0800 
 33 H       -6.2900    -6.7420    -1.5840 H     1 <1>   0.0800 
 34 H       -8.4060    -5.3110     1.8320 H     1 <1>   0.0800 
 35 H       -6.6870    -5.5760     2.0120 H     1 <1>   0.0800 
 36 H       -8.3380    -5.9960    -0.5020 H     1 <1>   0.0800 
 37 H       -6.8520    -7.7300     1.1430 H     1 <1>   0.4000 
@<TRIPOS>BOND
  1   1   2  2   
  2   2   3  1   
  3   2   4  1   
  4   3   5  ar  
  5   3   6  ar  
  6   4  19  1   
  7   4  20  1   
  8   4  21  1   
  9   5   7  ar  
 10   5   8  1   
 11   6   9  ar  
 12   6  22  1   
 13   7  10  ar  
 14   8  23  1   
 15   8  24  1   
 16   8  25  1   
 17   9  10  ar  
 18  10  11  1   
 19  11  12  1   
 20  11  26  1   
 21  12  13  1   
 22  12  14  1   
 23  12  27  1   
 24  13  15  1   
 25  13  28  1   
 26  13  29  1   
 27  14  16  1   
 28  14  30  1   
 29  14  31  1   
 30  15  17  1   
 31  15  32  1   
 32  15  33  1   
 33  16  17  1   
 34  16  34  1   
 35  16  35  1   
 36  17  18  1   
 37  17  36  1   
 38  18  37  1   
@<TRIPOS>SUBSTRUCTURE
  1 ****  10 GROUP 4 **** **** 0

# MOE 2024.06 (io_trps.svl 2023.06)
