@<TRIPOS>MOLECULE
NONAME
55 57 1 0 0 
SMALL
USER_CHARGES


@<TRIPOS>ATOM
  1 O       -2.2370     1.9650    -1.5000 O.2   1 <1>  -0.5700 
  2 C       -2.3560     2.4000    -0.3690 C.2   1 <1>   0.5440 
  3 N       -3.3670     1.9030     0.4350 N.am  1 <1>  -0.6600 
  4 C       -1.4240     3.4070     0.1090 C.ar  1 <1>   0.0860 
  5 C       -4.5180     1.1650    -0.1750 C.3   1 <1>   0.2200 
  6 C       -3.0700     1.6130     1.8720 C.3   1 <1>   0.0600 
  7 C       -0.0780     3.3720    -0.2560 C.ar  1 <1>  -0.1500 
  8 C       -1.8310     4.4480     0.9450 C.ar  1 <1>  -0.1500 
  9 C       -5.2140     1.9820    -1.2640 C.3   1 <1>  -0.1600 
 10 C       -5.6620     0.8900     0.8040 C.3   1 <1>  -0.1600 
 11 C        0.8310     4.3130     0.1970 C.ar  1 <1>  -0.1430 
 12 C       -0.9380     5.3960     1.4080 C.ar  1 <1>  -0.1500 
 13 C       -6.6090     1.3620    -1.4080 C.3   1 <1>  -0.0800 
 14 C       -6.9040     0.6680    -0.0710 C.3   1 <1>  -0.0800 
 15 C        0.4040     5.3350     1.0400 C.ar  1 <1>   0.0820 
 16 C        2.2880     4.2230    -0.2320 C.3   1 <1>  -0.0970 
 17 C       -7.7180     2.3980    -1.6230 C.3   1 <1>  -0.1600 
 18 C       -8.1760     1.3200     0.4870 C.3   1 <1>  -0.1600 
 19 O        1.3250     6.2340     1.4640 O.3   1 <1>  -0.3620 
 20 C       -8.2500     2.6720    -0.2180 C.3   1 <1>   0.4230 
 21 C        0.9870     7.3240     2.2910 C.3   1 <1>   0.0400 
 22 N       -9.6140     3.2840    -0.1730 N.4   1 <1>  -0.9590 
 23 C      -10.6870     2.5120    -0.8830 C.3   1 <1>   0.2630 
 24 C       -9.5720     4.6900    -0.6830 C.3   1 <1>   0.2630 
 25 H       -4.1660     0.2370    -0.5940 H     1 <1>   0.0800 
 26 H       -3.7340     2.1740     2.5060 H     1 <1>   0.0800 
 27 H       -2.0560     1.8770     2.1170 H     1 <1>   0.0800 
 28 H       -3.1930     0.5620     2.0680 H     1 <1>   0.0800 
 29 H        0.2460     2.5830    -0.9120 H     1 <1>   0.1500 
 30 H       -2.8650     4.5100     1.2310 H     1 <1>   0.1500 
 31 H       -5.2780     3.0070    -0.9440 H     1 <1>   0.0800 
 32 H       -4.6790     1.9330    -2.1960 H     1 <1>   0.0800 
 33 H       -5.4600     0.0270     1.4130 H     1 <1>   0.0800 
 34 H       -5.8040     1.7530     1.4310 H     1 <1>   0.0800 
 35 H       -1.3010     6.1740     2.0500 H     1 <1>   0.1500 
 36 H       -6.5970     0.6390    -2.2080 H     1 <1>   0.0800 
 37 H       -7.0500    -0.3890    -0.2260 H     1 <1>   0.0800 
 38 H        2.4530     3.3840    -0.8830 H     1 <1>   0.0800 
 39 H        2.9160     4.1160     0.6340 H     1 <1>   0.0800 
 40 H        2.5690     5.1210    -0.7520 H     1 <1>   0.0800 
 41 H       -8.4700     1.9490    -2.2450 H     1 <1>   0.0800 
 42 H       -7.3440     3.2870    -2.0990 H     1 <1>   0.0800 
 43 H       -8.1400     1.4240     1.5570 H     1 <1>   0.0800 
 44 H       -9.0090     0.6970     0.2190 H     1 <1>   0.0800 
 45 H       -7.5490     3.3280     0.2740 H     1 <1>   0.0800 
 46 H        1.8810     7.8920     2.4770 H     1 <1>   0.0800 
 47 H        0.5930     6.9490     3.2190 H     1 <1>   0.0800 
 48 H        0.2640     7.9370     1.7830 H     1 <1>   0.0800 
 49 H       -9.8730     3.3230     0.8240 H     1 <1>   0.4500 
 50 H      -10.4780     2.4580    -1.9390 H     1 <1>   0.0800 
 51 H      -11.6420     2.9930    -0.7490 H     1 <1>   0.0800 
 52 H      -10.7560     1.5100    -0.4930 H     1 <1>   0.0800 
 53 H       -9.3060     4.7010    -1.7270 H     1 <1>   0.0800 
 54 H       -8.8430     5.2660    -0.1360 H     1 <1>   0.0800 
 55 H      -10.5360     5.1590    -0.5680 H     1 <1>   0.0800 
@<TRIPOS>BOND
  1   1   2  2   
  2   2   3  am  
  3   2   4  1   
  4   3   5  1   
  5   3   6  1   
  6   4   7  ar  
  7   4   8  ar  
  8   5   9  1   
  9   5  10  1   
 10   5  25  1   
 11   6  26  1   
 12   6  27  1   
 13   6  28  1   
 14   7  11  ar  
 15   7  29  1   
 16   8  12  ar  
 17   8  30  1   
 18   9  13  1   
 19   9  31  1   
 20   9  32  1   
 21  10  14  1   
 22  10  33  1   
 23  10  34  1   
 24  11  15  ar  
 25  11  16  1   
 26  12  15  ar  
 27  12  35  1   
 28  13  14  1   
 29  13  17  1   
 30  13  36  1   
 31  14  18  1   
 32  14  37  1   
 33  15  19  1   
 34  16  38  1   
 35  16  39  1   
 36  16  40  1   
 37  17  20  1   
 38  17  41  1   
 39  17  42  1   
 40  18  20  1   
 41  18  43  1   
 42  18  44  1   
 43  19  21  1   
 44  20  22  1   
 45  20  45  1   
 46  21  46  1   
 47  21  47  1   
 48  21  48  1   
 49  22  23  1   
 50  22  24  1   
 51  22  49  1   
 52  23  50  1   
 53  23  51  1   
 54  23  52  1   
 55  24  53  1   
 56  24  54  1   
 57  24  55  1   
@<TRIPOS>SUBSTRUCTURE
  1 ****   3 GROUP 4 **** **** 0

# MOE 2024.06 (io_trps.svl 2023.06)
