@<TRIPOS>MOLECULE
NONAME
56 59 1 0 0 
SMALL
USER_CHARGES


@<TRIPOS>ATOM
  1 S       -0.4350    -0.0250     0.0350 S.3   1 <1>  -0.0800 
  2 C       -0.8110     1.6280    -0.4400 C.2   1 <1>  -0.0130 
  3 C       -1.7770    -0.7060    -0.8810 C.2   1 <1>  -0.0450 
  4 C        0.0440     2.6810     0.0460 C.ar  1 <1>   0.0530 
  5 C       -1.9070     1.6110    -1.2420 C.2   1 <1>  -0.1810 
  6 C       -1.9830    -2.1320    -0.8630 C.2   1 <1>   0.7150 
  7 C       -2.4330     0.3150    -1.4910 C.2   1 <1>  -0.1500 
  8 C        0.5520     3.6500    -0.8170 C.ar  1 <1>  -0.1500 
  9 C        0.3940     2.7680     1.3920 C.ar  1 <1>  -0.1500 
 10 C       -2.5820     2.8280    -1.8500 C.3   1 <1>  -0.0590 
 11 O       -1.0980    -2.9050    -0.5330 O.2   1 <1>  -0.5700 
 12 N       -3.2010    -2.6910    -1.1910 N.am  1 <1>  -0.6600 
 13 C        1.3660     4.6690    -0.3570 C.ar  1 <1>  -0.1500 
 14 C        1.2090     3.7830     1.8600 C.ar  1 <1>  -0.1500 
 15 C       -3.2570    -4.1280    -1.5680 C.3   1 <1>   0.1400 
 16 C       -4.4480    -2.1940    -0.5500 C.3   1 <1>   0.1400 
 17 C        1.6960     4.7380     0.9850 C.ar  1 <1>  -0.1500 
 18 C       -3.4660    -4.9720    -0.2890 C.3   1 <1>   0.4230 
 19 C       -4.6940    -3.0150     0.7250 C.3   1 <1>  -0.1600 
 20 N       -3.3300    -6.4730    -0.5080 N.4   1 <1>  -0.9590 
 21 C       -4.7550    -4.5530     0.4820 C.3   1 <1>   0.0000 
 22 C       -3.9200    -7.3060     0.5900 C.3   1 <1>   0.3430 
 23 C       -3.7900    -6.9800    -1.8420 C.3   1 <1>   0.2630 
 24 C       -4.7840    -5.2750     1.8610 C.3   1 <1>  -0.1600 
 25 C       -6.0180    -4.9180    -0.3490 C.3   1 <1>   0.1200 
 26 C       -3.9170    -6.5480     1.9170 C.3   1 <1>  -0.1600 
 27 O       -7.1680    -4.3790     0.2020 O.3   1 <1>  -0.6800 
 28 H       -3.2900     0.1840    -2.1270 H     1 <1>   0.1500 
 29 H        0.3080     3.5950    -1.8620 H     1 <1>   0.1500 
 30 H        0.0190     2.0300     2.0790 H     1 <1>   0.1500 
 31 H       -3.6360     2.8070    -1.6380 H     1 <1>   0.0800 
 32 H       -2.4410     2.8330    -2.9150 H     1 <1>   0.0800 
 33 H       -2.1760     3.7360    -1.4420 H     1 <1>   0.0800 
 34 H        1.7460     5.4070    -1.0420 H     1 <1>   0.1500 
 35 H        1.4650     3.8300     2.9040 H     1 <1>   0.1500 
 36 H       -4.0530    -4.2700    -2.2750 H     1 <1>   0.0800 
 37 H       -2.3300    -4.4050    -2.0400 H     1 <1>   0.0800 
 38 H       -4.3540    -1.1530    -0.2900 H     1 <1>   0.0800 
 39 H       -5.2760    -2.2910    -1.2320 H     1 <1>   0.0800 
 40 H        2.3290     5.5290     1.3470 H     1 <1>   0.1500 
 41 H       -2.6500    -4.6920     0.3580 H     1 <1>   0.0800 
 42 H       -3.8940    -2.7860     1.4090 H     1 <1>   0.0800 
 43 H       -5.5990    -2.6670     1.1910 H     1 <1>   0.0800 
 44 H       -2.3110    -6.6350    -0.4640 H     1 <1>   0.4500 
 45 H       -4.9390    -7.5620     0.3460 H     1 <1>   0.0800 
 46 H       -3.3640    -8.2240     0.6930 H     1 <1>   0.0800 
 47 H       -4.8440    -6.8000    -1.9720 H     1 <1>   0.0800 
 48 H       -3.6120    -8.0410    -1.9190 H     1 <1>   0.0800 
 49 H       -3.2530    -6.4910    -2.6390 H     1 <1>   0.0800 
 50 H       -4.4360    -4.6190     2.6410 H     1 <1>   0.0800 
 51 H       -5.7960    -5.5320     2.1220 H     1 <1>   0.0800 
 52 H       -6.1600    -5.9820    -0.4070 H     1 <1>   0.0800 
 53 H       -5.9570    -4.5300    -1.3500 H     1 <1>   0.0800 
 54 H       -4.2880    -7.1930     2.6950 H     1 <1>   0.0800 
 55 H       -2.9030    -6.2950     2.1760 H     1 <1>   0.0800 
 56 H       -7.3510    -4.7280     1.0970 H     1 <1>   0.4000 
@<TRIPOS>BOND
  1   1   2  1   
  2   1   3  1   
  3   2   4  1   
  4   2   5  2   
  5   3   6  1   
  6   3   7  2   
  7   4   8  ar  
  8   4   9  ar  
  9   5   7  1   
 10   5  10  1   
 11   6  11  2   
 12   6  12  am  
 13   7  28  1   
 14   8  13  ar  
 15   8  29  1   
 16   9  14  ar  
 17   9  30  1   
 18  10  31  1   
 19  10  32  1   
 20  10  33  1   
 21  12  15  1   
 22  12  16  1   
 23  13  17  ar  
 24  13  34  1   
 25  14  17  ar  
 26  14  35  1   
 27  15  18  1   
 28  15  36  1   
 29  15  37  1   
 30  16  19  1   
 31  16  38  1   
 32  16  39  1   
 33  17  40  1   
 34  18  20  1   
 35  18  21  1   
 36  18  41  1   
 37  19  21  1   
 38  19  42  1   
 39  19  43  1   
 40  20  22  1   
 41  20  23  1   
 42  20  44  1   
 43  21  24  1   
 44  21  25  1   
 45  22  26  1   
 46  22  45  1   
 47  22  46  1   
 48  23  47  1   
 49  23  48  1   
 50  23  49  1   
 51  24  26  1   
 52  24  50  1   
 53  24  51  1   
 54  25  27  1   
 55  25  52  1   
 56  25  53  1   
 57  26  54  1   
 58  26  55  1   
 59  27  56  1   
@<TRIPOS>SUBSTRUCTURE
  1 ****   6 GROUP 4 **** **** 0

# MOE 2024.06 (io_trps.svl 2023.06)
