@<TRIPOS>MOLECULE
NONAME
51 54 1 0 0 
SMALL
USER_CHARGES


@<TRIPOS>ATOM
  1 O       -0.8420     0.2430    -2.3250 O.2   1 <1>  -0.5700 
  2 C       -1.3100     0.8130    -1.3660 C.2   1 <1>   0.5690 
  3 N       -2.0810     0.1440    -0.4510 N.am  1 <1>  -0.6600 
  4 C       -1.0290     2.3050    -1.2220 C.3   1 <1>   0.0820 
  5 C       -2.6790     0.7090     0.7850 C.3   1 <1>   0.1400 
  6 C       -2.2730    -1.3250    -0.4950 C.3   1 <1>   0.1400 
  7 C       -0.2770     2.6540     0.0590 C.2   1 <1>  -0.1810 
  8 C       -3.3610    -0.4740     1.4700 C.3   1 <1>   0.2000 
  9 C       -2.6480    -1.7130     0.9370 C.3   1 <1>  -0.0800 
 10 C       -0.6580     3.5800     1.0290 C.2   1 <1>   0.1080 
 11 C        0.8830     2.1330     0.5190 C.2   1 <1>  -0.3320 
 12 O       -3.2370    -0.4070     2.8490 O.3   1 <1>  -0.6800 
 13 C       -3.5030    -2.9870     1.0330 C.3   1 <1>  -0.0170 
 14 N        0.1750     3.6230     2.0180 N.2   1 <1>  -0.7070 
 15 C       -1.8870     4.4620     0.9910 C.3   1 <1>  -0.0590 
 16 N        1.1320     2.7350     1.6990 N.pl3 1 <1>   0.3000 
 17 C        1.7990     1.0820    -0.0880 C.3   1 <1>  -0.0600 
 18 C       -2.7480    -4.1930     0.5020 C.ar  1 <1>   0.1670 
 19 N       -2.8160    -4.4270    -0.7720 N.ar  1 <1>  -0.6200 
 20 C       -2.0090    -4.9810     1.3990 C.ar  1 <1>  -0.1500 
 21 C       -2.1260    -5.4900    -1.2580 C.ar  1 <1>   0.3100 
 22 C       -1.3110    -6.0560     0.9400 C.ar  1 <1>  -0.1500 
 23 C       -1.3550    -6.3390    -0.4350 C.ar  1 <1>   0.0000 
 24 C       -2.1730    -5.7570    -2.6360 C.ar  1 <1>  -0.1500 
 25 C       -0.6660    -7.4200    -1.0200 C.ar  1 <1>  -0.1500 
 26 C       -1.4960    -6.8130    -3.1860 C.ar  1 <1>  -0.1500 
 27 C       -0.7340    -7.6540    -2.3670 C.ar  1 <1>  -0.1500 
 28 H       -0.4410     2.6280    -2.0610 H     1 <1>   0.0800 
 29 H       -1.9650     2.8260    -1.2640 H     1 <1>   0.0800 
 30 H       -1.9000     1.1050     1.4120 H     1 <1>   0.0800 
 31 H       -3.3940     1.4750     0.5430 H     1 <1>   0.0800 
 32 H       -3.0710    -1.5560    -1.1800 H     1 <1>   0.0800 
 33 H       -1.3760    -1.8270    -0.8190 H     1 <1>   0.0800 
 34 H       -4.4080    -0.4890     1.2220 H     1 <1>   0.0800 
 35 H       -1.7290    -1.8580     1.4770 H     1 <1>   0.0800 
 36 H       -2.2980    -0.3070     3.1000 H     1 <1>   0.4000 
 37 H       -4.4100    -2.8640     0.4680 H     1 <1>   0.0800 
 38 H       -3.7800    -3.1570     2.0580 H     1 <1>   0.0800 
 39 H       -1.9220     5.0020     0.0640 H     1 <1>   0.0800 
 40 H       -1.8500     5.1700     1.8000 H     1 <1>   0.0800 
 41 H       -2.7720     3.8640     1.0950 H     1 <1>   0.0800 
 42 H        1.9430     2.5660     2.3050 H     1 <1>   0.2700 
 43 H        1.4930     0.8400    -1.0890 H     1 <1>   0.0800 
 44 H        1.7730     0.1830     0.5020 H     1 <1>   0.0800 
 45 H        2.8100     1.4470    -0.1270 H     1 <1>   0.0800 
 46 H       -2.0030    -4.7240     2.4430 H     1 <1>   0.1500 
 47 H       -0.7350    -6.6840     1.5960 H     1 <1>   0.1500 
 48 H       -2.7620    -5.0990    -3.2470 H     1 <1>   0.1500 
 49 H       -0.0820    -8.0620    -0.3860 H     1 <1>   0.1500 
 50 H       -1.5400    -7.0060    -4.2440 H     1 <1>   0.1500 
 51 H       -0.2070    -8.4800    -2.8130 H     1 <1>   0.1500 
@<TRIPOS>BOND
  1   1   2  2   
  2   2   3  am  
  3   2   4  1   
  4   3   5  1   
  5   3   6  1   
  6   4   7  1   
  7   4  28  1   
  8   4  29  1   
  9   5   8  1   
 10   5  30  1   
 11   5  31  1   
 12   6   9  1   
 13   6  32  1   
 14   6  33  1   
 15   7  10  1   
 16   7  11  2   
 17   8   9  1   
 18   8  12  1   
 19   8  34  1   
 20   9  13  1   
 21   9  35  1   
 22  10  14  2   
 23  10  15  1   
 24  11  16  1   
 25  11  17  1   
 26  12  36  1   
 27  13  18  1   
 28  13  37  1   
 29  13  38  1   
 30  14  16  1   
 31  15  39  1   
 32  15  40  1   
 33  15  41  1   
 34  16  42  1   
 35  17  43  1   
 36  17  44  1   
 37  17  45  1   
 38  18  19  ar  
 39  18  20  ar  
 40  19  21  ar  
 41  20  22  ar  
 42  20  46  1   
 43  21  23  ar  
 44  21  24  ar  
 45  22  23  ar  
 46  22  47  1   
 47  23  25  ar  
 48  24  26  ar  
 49  24  48  1   
 50  25  27  ar  
 51  25  49  1   
 52  26  27  ar  
 53  26  50  1   
 54  27  51  1   
@<TRIPOS>SUBSTRUCTURE
  1 ****   6 GROUP 4 **** **** 0

# MOE 2024.06 (io_trps.svl 2023.06)
