@<TRIPOS>MOLECULE
NONAME
51 53 1 0 0 
SMALL
USER_CHARGES


@<TRIPOS>ATOM
  1 O        0.2460    -0.0700    -1.4870 O.3   1 <1>  -0.5600 
  2 C        1.5190    -0.6460    -1.3080 C.3   1 <1>   0.2000 
  3 C        0.2360     1.3070    -1.7220 C.3   1 <1>   0.1200 
  4 C        2.3000     0.0590    -0.1660 C.3   1 <1>   0.5660 
  5 C        1.3370    -2.1400    -0.9910 C.3   1 <1>   0.1200 
  6 C        0.8650     2.0520    -0.5320 C.3   1 <1>   0.3430 
  7 N        2.2510     1.5540    -0.2440 N.4   1 <1>  -0.9590 
  8 C        3.7650    -0.3590    -0.1610 C.ar  1 <1>  -0.1430 
  9 O        0.8970    -2.3030     0.3210 O.3   1 <1>  -0.6800 
 10 C        2.8300     2.1740     0.9760 C.3   1 <1>   0.4870 
 11 C        4.6250    -0.0230    -1.2010 C.ar  1 <1>  -0.1500 
 12 C        4.2540    -1.0860     0.9150 C.ar  1 <1>  -0.1500 
 13 C        3.0970     3.6310     0.6650 C.ar  1 <1>  -0.1430 
 14 C        5.9550    -0.4000    -1.1550 C.ar  1 <1>  -0.1500 
 15 C        5.5840    -1.4620     0.9590 C.ar  1 <1>  -0.1500 
 16 C        2.1750     4.6030     1.0170 C.ar  1 <1>  -0.1500 
 17 C        4.2620     4.0090     0.0170 C.ar  1 <1>  -0.1500 
 18 C        6.4350    -1.1170    -0.0750 C.ar  1 <1>  -0.1500 
 19 C        2.3820     5.9380     0.7150 C.ar  1 <1>   0.0820 
 20 C        4.4870     5.3390    -0.2910 C.ar  1 <1>  -0.1500 
 21 O        1.3700     6.7570     1.1220 O.3   1 <1>  -0.3630 
 22 C        3.5550     6.3210     0.0410 C.ar  1 <1>   0.0820 
 23 C        1.5390     8.1460     1.3010 C.3   1 <1>   0.0400 
 24 O        3.7610     7.6280    -0.2900 O.3   1 <1>  -0.3630 
 25 C        4.9550     8.0840    -0.8910 C.3   1 <1>   0.0400 
 26 H        2.0470    -0.5520    -2.2400 H     1 <1>   0.0800 
 27 H        0.7630     1.5120    -2.6380 H     1 <1>   0.0800 
 28 H       -0.7910     1.6090    -1.8440 H     1 <1>   0.0800 
 29 H        1.8520    -0.2520     0.7640 H     1 <1>   0.0800 
 30 H        2.2720    -2.6650    -1.0930 H     1 <1>   0.0800 
 31 H        0.6130    -2.5750    -1.6600 H     1 <1>   0.0800 
 32 H        0.2360     1.9050     0.3300 H     1 <1>   0.0800 
 33 H        0.8910     3.1080    -0.7480 H     1 <1>   0.0800 
 34 H        2.8620     1.8320    -1.0160 H     1 <1>   0.4500 
 35 H        0.5510    -3.2110     0.4560 H     1 <1>   0.4000 
 36 H        2.1500     2.0840     1.8070 H     1 <1>   0.0800 
 37 H        3.7600     1.6950     1.2390 H     1 <1>   0.0800 
 38 H        4.2820     0.5270    -2.0610 H     1 <1>   0.1500 
 39 H        3.6060    -1.3740     1.7280 H     1 <1>   0.1500 
 40 H        6.6230    -0.1410    -1.9600 H     1 <1>   0.1500 
 41 H        5.9610    -2.0270     1.7950 H     1 <1>   0.1500 
 42 H        1.2700     4.3450     1.5400 H     1 <1>   0.1500 
 43 H        5.0070     3.2780    -0.2520 H     1 <1>   0.1500 
 44 H        7.4710    -1.4120    -0.0400 H     1 <1>   0.1500 
 45 H        5.4010     5.5890    -0.7960 H     1 <1>   0.1500 
 46 H        0.6930     8.5200     1.8480 H     1 <1>   0.0800 
 47 H        1.5850     8.6190     0.3360 H     1 <1>   0.0800 
 48 H        2.4430     8.3220     1.8570 H     1 <1>   0.0800 
 49 H        4.8810     9.1500    -1.0110 H     1 <1>   0.0800 
 50 H        5.0640     7.6170    -1.8530 H     1 <1>   0.0800 
 51 H        5.7840     7.8480    -0.2470 H     1 <1>   0.0800 
@<TRIPOS>BOND
  1   1   2  1   
  2   1   3  1   
  3   2   4  1   
  4   2   5  1   
  5   2  26  1   
  6   3   6  1   
  7   3  27  1   
  8   3  28  1   
  9   4   7  1   
 10   4   8  1   
 11   4  29  1   
 12   5   9  1   
 13   5  30  1   
 14   5  31  1   
 15   6   7  1   
 16   6  32  1   
 17   6  33  1   
 18   7  10  1   
 19   7  34  1   
 20   8  11  ar  
 21   8  12  ar  
 22   9  35  1   
 23  10  13  1   
 24  10  36  1   
 25  10  37  1   
 26  11  14  ar  
 27  11  38  1   
 28  12  15  ar  
 29  12  39  1   
 30  13  16  ar  
 31  13  17  ar  
 32  14  18  ar  
 33  14  40  1   
 34  15  18  ar  
 35  15  41  1   
 36  16  19  ar  
 37  16  42  1   
 38  17  20  ar  
 39  17  43  1   
 40  18  44  1   
 41  19  21  1   
 42  19  22  ar  
 43  20  22  ar  
 44  20  45  1   
 45  21  23  1   
 46  22  24  1   
 47  23  46  1   
 48  23  47  1   
 49  23  48  1   
 50  24  25  1   
 51  25  49  1   
 52  25  50  1   
 53  25  51  1   
@<TRIPOS>SUBSTRUCTURE
  1 ****   7 GROUP 4 **** **** 0

# MOE 2024.06 (io_trps.svl 2023.06)
