@<TRIPOS>MOLECULE
NONAME
47 49 1 0 0 
SMALL
USER_CHARGES


@<TRIPOS>ATOM
  1 O       -2.1470     2.3960    -1.6050 O.2   1 <1>  -0.5700 
  2 C       -2.0800     1.4720    -0.8120 C.2   1 <1>   0.7160 
  3 N       -2.9740     0.4290    -0.9500 N.am  1 <1>  -0.6600 
  4 C       -1.0770     1.5110     0.2320 C.2   1 <1>  -0.0860 
  5 C       -2.7180    -0.9210    -0.3320 C.3   1 <1>   0.3640 
  6 C       -4.2500     0.6440    -1.6960 C.3   1 <1>   0.1400 
  7 C       -1.1620     1.1960     1.5670 C.2   1 <1>  -0.3020 
  8 C        0.2610     1.9090     0.0390 C.2   1 <1>  -0.1500 
  9 C       -1.3120    -1.3920    -0.7190 C.ar  1 <1>  -0.1430 
 10 C       -3.7360    -2.0460    -0.7080 C.3   1 <1>   0.2000 
 11 C       -4.8340    -0.6580    -2.2410 C.3   1 <1>   0.1200 
 12 N        0.0380     1.3620     2.1690 N.pl3 1 <1>   0.0330 
 13 C        0.9090     1.8030     1.2260 C.2   1 <1>  -0.3020 
 14 C       -0.4290    -1.8230     0.2610 C.ar  1 <1>  -0.1500 
 15 C       -0.8950    -1.3890    -2.0450 C.ar  1 <1>  -0.1500 
 16 O       -4.9590    -1.5660    -1.1970 O.3   1 <1>  -0.5600 
 17 C       -4.0840    -2.9530     0.4840 C.3   1 <1>   0.1200 
 18 C        0.8490    -2.2450    -0.0650 C.ar  1 <1>   0.0830 
 19 C        0.3850    -1.7960    -2.3810 C.ar  1 <1>  -0.1500 
 20 O       -2.9440    -3.4820     1.0800 O.3   1 <1>  -0.6800 
 21 O        1.6390    -2.6790     0.9480 O.3   1 <1>  -0.3630 
 22 C        1.2680    -2.2070    -1.3990 C.ar  1 <1>   0.0830 
 23 C        2.0160    -4.0380     0.9140 C.3   1 <1>   0.0400 
 24 O        2.5210    -2.5480    -1.7850 O.3   1 <1>  -0.3630 
 25 C        3.5510    -1.6840    -1.3570 C.3   1 <1>   0.0400 
 26 H       -2.7580    -0.7990     0.7350 H     1 <1>   0.0800 
 27 H       -4.9670     1.0990    -1.0350 H     1 <1>   0.0800 
 28 H       -4.0890     1.3180    -2.5200 H     1 <1>   0.0800 
 29 H       -2.0310     0.8630     2.1070 H     1 <1>   0.1500 
 30 H        0.6580     2.2320    -0.9080 H     1 <1>   0.1500 
 31 H       -3.3170    -2.6590    -1.4860 H     1 <1>   0.0800 
 32 H       -4.2080    -1.0760    -3.0100 H     1 <1>   0.0800 
 33 H       -5.8150    -0.4820    -2.6450 H     1 <1>   0.0800 
 34 H        0.2580     1.1900     3.1570 H     1 <1>   0.2700 
 35 H        1.9390     2.0170     1.4480 H     1 <1>   0.1500 
 36 H       -0.7240    -1.8380     1.2950 H     1 <1>   0.1500 
 37 H       -1.5610    -1.0540    -2.8210 H     1 <1>   0.1500 
 38 H       -4.7030    -3.7720     0.1610 H     1 <1>   0.0800 
 39 H       -4.6080    -2.3860     1.2350 H     1 <1>   0.0800 
 40 H        0.7090    -1.7830    -3.4060 H     1 <1>   0.1500 
 41 H       -2.4430    -4.0410     0.4520 H     1 <1>   0.4000 
 42 H        2.5340    -4.2650     1.8270 H     1 <1>   0.0800 
 43 H        2.6650    -4.2070     0.0740 H     1 <1>   0.0800 
 44 H        1.1300    -4.6420     0.8310 H     1 <1>   0.0800 
 45 H        4.4720    -2.0080    -1.8070 H     1 <1>   0.0800 
 46 H        3.6300    -1.7280    -0.2860 H     1 <1>   0.0800 
 47 H        3.3170    -0.6830    -1.6720 H     1 <1>   0.0800 
@<TRIPOS>BOND
  1   1   2  2   
  2   2   3  am  
  3   2   4  1   
  4   3   5  1   
  5   3   6  1   
  6   4   7  2   
  7   4   8  1   
  8   5   9  1   
  9   5  10  1   
 10   5  26  1   
 11   6  11  1   
 12   6  27  1   
 13   6  28  1   
 14   7  12  1   
 15   7  29  1   
 16   8  13  2   
 17   8  30  1   
 18   9  14  ar  
 19   9  15  ar  
 20  10  16  1   
 21  10  17  1   
 22  10  31  1   
 23  11  16  1   
 24  11  32  1   
 25  11  33  1   
 26  12  13  1   
 27  12  34  1   
 28  13  35  1   
 29  14  18  ar  
 30  14  36  1   
 31  15  19  ar  
 32  15  37  1   
 33  17  20  1   
 34  17  38  1   
 35  17  39  1   
 36  18  21  1   
 37  18  22  ar  
 38  19  22  ar  
 39  19  40  1   
 40  20  41  1   
 41  21  23  1   
 42  22  24  1   
 43  23  42  1   
 44  23  43  1   
 45  23  44  1   
 46  24  25  1   
 47  25  45  1   
 48  25  46  1   
 49  25  47  1   
@<TRIPOS>SUBSTRUCTURE
  1 ****   9 GROUP 4 **** **** 0

# MOE 2024.06 (io_trps.svl 2023.06)
