@<TRIPOS>MOLECULE
NONAME
60 62 1 0 0 
SMALL
USER_CHARGES


@<TRIPOS>ATOM
  1 O        1.3370    -0.3530    -1.7580 O.2   1 <1>  -0.5700 
  2 C        1.7350    -0.6370    -0.6480 C.2   1 <1>   0.7150 
  3 N        2.3640     0.3350     0.1010 N.am  1 <1>  -0.6600 
  4 C        1.6250    -1.9750    -0.1600 C.2   1 <1>  -0.2370 
  5 C        3.1190     0.0430     1.3560 C.3   1 <1>   0.1400 
  6 C        2.4040     1.7480    -0.3560 C.3   1 <1>   0.1400 
  7 N        0.5830    -2.4600     0.5720 N.pl3 1 <1>   0.3140 
  8 C        2.4980    -3.0120    -0.2920 C.2   1 <1>  -0.1500 
  9 C        4.6360    -0.0920     1.1020 C.3   1 <1>   0.3430 
 10 C        3.5830     1.9680    -1.3110 C.3   1 <1>  -0.1600 
 11 N        0.8000    -3.7340     0.9430 N.2   1 <1>  -0.7070 
 12 C       -0.7070    -1.8020     0.9520 C.3   1 <1>   0.1760 
 13 C        1.9360    -4.0600     0.4090 C.2   1 <1>   0.1390 
 14 N        5.2350     1.0520     0.3220 N.4   1 <1>  -0.9590 
 15 C        4.7750     1.0310    -1.1030 C.3   1 <1>   0.3430 
 16 C       -1.5380    -1.4160    -0.2790 C.3   1 <1>  -0.2400 
 17 C       -0.4970    -0.6010     1.8850 C.3   1 <1>  -0.2400 
 18 C        6.7210     1.0190     0.4160 C.3   1 <1>   0.3430 
 19 C        7.3040     2.3790     0.0290 C.3   1 <1>  -0.1600 
 20 C        8.8270     2.4250     0.2340 C.3   1 <1>   0.1000 
 21 C        9.3580     3.8320     0.0130 C.2   1 <1>  -0.0400 
 22 C        9.5610     1.4500    -0.6970 C.3   1 <1>  -0.2400 
 23 O       10.5690     4.1020     0.4600 O.3   1 <1>  -0.2800 
 24 C        8.8240     4.9270    -0.5750 C.2   1 <1>  -0.1500 
 25 C       10.8360     5.3590     0.1730 C.2   1 <1>  -0.0400 
 26 C        9.7960     5.9290    -0.4680 C.2   1 <1>  -0.1500 
 27 C       12.1780     5.9240     0.5810 C.3   1 <1>  -0.0600 
 28 H        2.7610    -0.8670     1.8060 H     1 <1>   0.0800 
 29 H        2.9430     0.8290     2.0710 H     1 <1>   0.0800 
 30 H        2.4900     2.4000     0.4970 H     1 <1>   0.0800 
 31 H        1.4810     1.9980    -0.8570 H     1 <1>   0.0800 
 32 H        3.4280    -3.0420    -0.8290 H     1 <1>   0.1500 
 33 H        4.8120    -1.0160     0.5750 H     1 <1>   0.0800 
 34 H        5.1260    -0.1700     2.0580 H     1 <1>   0.0800 
 35 H        3.9020     2.9930    -1.2610 H     1 <1>   0.0800 
 36 H        3.2230     1.8100    -2.3130 H     1 <1>   0.0800 
 37 H       -1.2690    -2.5400     1.4990 H     1 <1>   0.0800 
 38 H        2.3720    -5.0410     0.5120 H     1 <1>   0.1500 
 39 H        4.9090     1.9320     0.7400 H     1 <1>   0.4500 
 40 H        5.5720     1.3360    -1.7610 H     1 <1>   0.0800 
 41 H        4.4890     0.0280    -1.3790 H     1 <1>   0.0800 
 42 H       -1.0820    -0.6130    -0.8270 H     1 <1>   0.0800 
 43 H       -2.5180    -1.0960     0.0280 H     1 <1>   0.0800 
 44 H       -1.6510    -2.2670    -0.9280 H     1 <1>   0.0800 
 45 H       -0.0480     0.2240     1.3650 H     1 <1>   0.0800 
 46 H        0.1170    -0.8850     2.7210 H     1 <1>   0.0800 
 47 H       -1.4480    -0.2730     2.2650 H     1 <1>   0.0800 
 48 H        7.1160     0.2480    -0.2250 H     1 <1>   0.0800 
 49 H        7.0150     0.7970     1.4300 H     1 <1>   0.0800 
 50 H        6.8630     3.1400     0.6490 H     1 <1>   0.0800 
 51 H        7.0900     2.6040    -1.0000 H     1 <1>   0.0800 
 52 H        9.0490     2.1630     1.2550 H     1 <1>   0.0800 
 53 H        9.3540     1.6830    -1.7270 H     1 <1>   0.0800 
 54 H        9.2900     0.4290    -0.5020 H     1 <1>   0.0800 
 55 H       10.6230     1.5420    -0.5460 H     1 <1>   0.0800 
 56 H        7.8660     5.0590    -1.0420 H     1 <1>   0.1500 
 57 H        9.7010     6.9360    -0.8340 H     1 <1>   0.1500 
 58 H       12.9650     5.3630     0.1120 H     1 <1>   0.0800 
 59 H       12.2900     5.8570     1.6480 H     1 <1>   0.0800 
 60 H       12.2550     6.9540     0.2840 H     1 <1>   0.0800 
@<TRIPOS>BOND
  1   1   2  2   
  2   2   3  am  
  3   2   4  1   
  4   3   5  1   
  5   3   6  1   
  6   4   7  1   
  7   4   8  2   
  8   5   9  1   
  9   5  28  1   
 10   5  29  1   
 11   6  10  1   
 12   6  30  1   
 13   6  31  1   
 14   7  11  1   
 15   7  12  1   
 16   8  13  1   
 17   8  32  1   
 18   9  14  1   
 19   9  33  1   
 20   9  34  1   
 21  10  15  1   
 22  10  35  1   
 23  10  36  1   
 24  11  13  2   
 25  12  16  1   
 26  12  17  1   
 27  12  37  1   
 28  13  38  1   
 29  14  15  1   
 30  14  18  1   
 31  14  39  1   
 32  15  40  1   
 33  15  41  1   
 34  16  42  1   
 35  16  43  1   
 36  16  44  1   
 37  17  45  1   
 38  17  46  1   
 39  17  47  1   
 40  18  19  1   
 41  18  48  1   
 42  18  49  1   
 43  19  20  1   
 44  19  50  1   
 45  19  51  1   
 46  20  21  1   
 47  20  22  1   
 48  20  52  1   
 49  21  23  1   
 50  21  24  2   
 51  22  53  1   
 52  22  54  1   
 53  22  55  1   
 54  23  25  1   
 55  24  26  1   
 56  24  56  1   
 57  25  26  2   
 58  25  27  1   
 59  26  57  1   
 60  27  58  1   
 61  27  59  1   
 62  27  60  1   
@<TRIPOS>SUBSTRUCTURE
  1 ****  14 GROUP 4 **** **** 0

# MOE 2024.06 (io_trps.svl 2023.06)
