@<TRIPOS>MOLECULE
NONAME
54 57 1 0 0 
SMALL
USER_CHARGES


@<TRIPOS>ATOM
  1 S        0.1450     0.1130     2.3080 S.o2  1 <1>   1.4470 
  2 O       -0.5090    -0.8250     3.1950 O.2   1 <1>  -0.6500 
  3 O        0.5100     1.4220     2.8090 O.2   1 <1>  -0.6500 
  4 N       -0.8960     0.3700     0.9960 N.am  1 <1>  -0.8490 
  5 C        1.5810    -0.6920     1.5450 C.ar  1 <1>  -0.0090 
  6 C       -2.2580     0.6920     1.4520 C.3   1 <1>   0.1960 
  7 C       -0.3950     1.4040     0.0870 C.3   1 <1>   0.1960 
  8 C        2.8600    -0.2290     1.7290 C.ar  1 <1>  -0.1500 
  9 C        1.4030    -1.8270     0.7350 C.ar  1 <1>  -0.1500 
 10 C       -3.2680     0.7790     0.2810 C.3   1 <1>   0.0000 
 11 C       -1.2930     1.5030    -1.1490 C.3   1 <1>  -0.1600 
 12 C        3.9800    -0.8430     1.1350 C.ar  1 <1>   0.0000 
 13 C        2.4670    -2.4490     0.1420 C.ar  1 <1>  -0.1500 
 14 C       -4.6570     1.1390     0.8470 C.3   1 <1>   0.2000 
 15 C       -2.7480     1.7990    -0.7570 C.3   1 <1>  -0.1600 
 16 C       -3.5020    -0.6130    -0.3340 C.3   1 <1>  -0.1600 
 17 C        3.7820    -1.9780     0.3220 C.ar  1 <1>   0.0000 
 18 C        5.2930    -0.3650     1.3210 C.ar  1 <1>  -0.1500 
 19 O       -5.4750     1.6170    -0.1830 O.3   1 <1>  -0.5600 
 20 C       -5.2370    -0.1880     1.3520 C.3   1 <1>  -0.1600 
 21 C       -4.5440    -1.3010     0.5530 C.3   1 <1>  -0.1600 
 22 C        4.8990    -2.5940    -0.2770 C.ar  1 <1>  -0.1500 
 23 C        6.3590    -0.9810     0.7290 C.ar  1 <1>  -0.1500 
 24 C       -6.5310     2.4280     0.2270 C.3   1 <1>   0.0400 
 25 C        6.1700    -2.1080    -0.0810 C.ar  1 <1>   0.0820 
 26 O        7.2910    -2.6440    -0.6210 O.3   1 <1>  -0.3620 
 27 C        7.2350    -3.7850    -1.4480 C.3   1 <1>   0.0400 
 28 H       -2.5890    -0.0670     2.1410 H     1 <1>   0.0800 
 29 H       -2.2390     1.6290     1.9840 H     1 <1>   0.0800 
 30 H       -0.3660     2.3570     0.5910 H     1 <1>   0.0800 
 31 H        0.6050     1.1600    -0.2290 H     1 <1>   0.0800 
 32 H        3.0290     0.6350     2.3480 H     1 <1>   0.1500 
 33 H        0.4010    -2.1960     0.5900 H     1 <1>   0.1500 
 34 H       -0.9290     2.2840    -1.7920 H     1 <1>   0.0800 
 35 H       -1.2400     0.5780    -1.6950 H     1 <1>   0.0800 
 36 H        2.3130    -3.3170    -0.4750 H     1 <1>   0.1500 
 37 H       -4.5910     1.8870     1.6200 H     1 <1>   0.0800 
 38 H       -3.3670     1.7880    -1.6380 H     1 <1>   0.0800 
 39 H       -2.8040     2.7880    -0.3360 H     1 <1>   0.0800 
 40 H       -3.9190    -0.4980    -1.3200 H     1 <1>   0.0800 
 41 H       -2.5970    -1.1910    -0.4120 H     1 <1>   0.0800 
 42 H        5.4430     0.5000     1.9420 H     1 <1>   0.1500 
 43 H       -4.9980    -0.3050     2.3930 H     1 <1>   0.0800 
 44 H       -6.3060    -0.2310     1.2400 H     1 <1>   0.0800 
 45 H       -4.0630    -1.9910     1.2260 H     1 <1>   0.0800 
 46 H       -5.2520    -1.8410    -0.0520 H     1 <1>   0.0800 
 47 H        4.7190    -3.4550    -0.8890 H     1 <1>   0.1500 
 48 H        7.3620    -0.6190     0.8680 H     1 <1>   0.1500 
 49 H       -7.0970     2.7030    -0.6460 H     1 <1>   0.0800 
 50 H       -6.1360     3.3130     0.6950 H     1 <1>   0.0800 
 51 H       -7.1600     1.8860     0.9100 H     1 <1>   0.0800 
 52 H        8.2380    -4.0250    -1.7530 H     1 <1>   0.0800 
 53 H        6.6350    -3.5610    -2.3120 H     1 <1>   0.0800 
 54 H        6.8180    -4.6030    -0.8880 H     1 <1>   0.0800 
@<TRIPOS>BOND
  1   1   2  2   
  2   1   3  2   
  3   1   4  am  
  4   1   5  1   
  5   4   6  1   
  6   4   7  1   
  7   5   8  ar  
  8   5   9  ar  
  9   6  10  1   
 10   6  28  1   
 11   6  29  1   
 12   7  11  1   
 13   7  30  1   
 14   7  31  1   
 15   8  12  ar  
 16   8  32  1   
 17   9  13  ar  
 18   9  33  1   
 19  10  14  1   
 20  10  15  1   
 21  10  16  1   
 22  11  15  1   
 23  11  34  1   
 24  11  35  1   
 25  12  17  ar  
 26  12  18  ar  
 27  13  17  ar  
 28  13  36  1   
 29  14  19  1   
 30  14  20  1   
 31  14  37  1   
 32  15  38  1   
 33  15  39  1   
 34  16  21  1   
 35  16  40  1   
 36  16  41  1   
 37  17  22  ar  
 38  18  23  ar  
 39  18  42  1   
 40  19  24  1   
 41  20  21  1   
 42  20  43  1   
 43  20  44  1   
 44  21  45  1   
 45  21  46  1   
 46  22  25  ar  
 47  22  47  1   
 48  23  25  ar  
 49  23  48  1   
 50  24  49  1   
 51  24  50  1   
 52  24  51  1   
 53  25  26  1   
 54  26  27  1   
 55  27  52  1   
 56  27  53  1   
 57  27  54  1   
@<TRIPOS>SUBSTRUCTURE
  1 ****   5 GROUP 4 **** **** 0

# MOE 2024.06 (io_trps.svl 2023.06)
