@<TRIPOS>MOLECULE
NONAME
51 52 1 0 0 
SMALL
USER_CHARGES


@<TRIPOS>ATOM
  1 S        0.0670    -0.0460     0.8740 S.o2  1 <1>   1.3330 
  2 O       -1.2330    -0.6710     0.8200 O.2   1 <1>  -0.6500 
  3 O        0.8260    -0.0070     2.1040 O.2   1 <1>  -0.6500 
  4 N        1.0470    -0.7240    -0.3370 N.am  1 <1>  -0.8490 
  5 C       -0.0860     1.6590     0.3280 C.3   1 <1>  -0.0550 
  6 C        0.2790    -1.2100    -1.4910 C.3   1 <1>   0.1160 
  7 C        1.8740    -1.8210     0.1810 C.3   1 <1>   0.1160 
  8 C        1.2640     2.4050     0.3250 C.3   1 <1>  -0.1600 
  9 C        1.1100     3.8780    -0.0490 C.3   1 <1>   0.3430 
 10 N        2.4110     4.5880     0.1680 N.4   1 <1>  -0.9590 
 11 C        2.1610     6.0770     0.2530 C.3   1 <1>   0.3430 
 12 C        3.3780     4.2510    -0.9210 C.3   1 <1>   0.3430 
 13 C        3.3510     6.9480     0.7530 C.3   1 <1>   0.3430 
 14 C        4.8240     4.2310    -0.4170 C.3   1 <1>  -0.1600 
 15 N        4.6960     6.6730     0.1140 N.4   1 <1>  -0.9590 
 16 C        5.2790     5.3620     0.5090 C.3   1 <1>   0.3430 
 17 C        5.6490     7.7810     0.4370 C.3   1 <1>   0.5230 
 18 C        5.1290     9.0380    -0.2230 C.2   1 <1>  -0.1400 
 19 S        4.8500     8.9670    -1.9590 S.3   1 <1>  -0.0800 
 20 C        4.8110    10.2560     0.2560 C.2   1 <1>  -0.1500 
 21 C        4.2970    10.6310    -1.9820 C.2   1 <1>  -0.1100 
 22 C        4.3370    11.1610    -0.7470 C.2   1 <1>  -0.1500 
 23 H       -0.7670     2.1600     0.9900 H     1 <1>   0.0800 
 24 H       -0.5160     1.6740    -0.6550 H     1 <1>   0.0800 
 25 H       -0.3280    -0.4200    -1.8980 H     1 <1>   0.0800 
 26 H       -0.3680    -2.0220    -1.1990 H     1 <1>   0.0800 
 27 H        0.9460    -1.5580    -2.2620 H     1 <1>   0.0800 
 28 H        2.5240    -1.4610     0.9610 H     1 <1>   0.0800 
 29 H        2.4870    -2.2320    -0.6030 H     1 <1>   0.0800 
 30 H        1.2510    -2.6010     0.5870 H     1 <1>   0.0800 
 31 H        1.9220     1.9040    -0.3640 H     1 <1>   0.0800 
 32 H        1.6860     2.3300     1.3130 H     1 <1>   0.0800 
 33 H        0.3500     4.3120     0.5820 H     1 <1>   0.0800 
 34 H        0.7890     3.9720    -1.0760 H     1 <1>   0.0800 
 35 H        2.7680     4.2290     1.0660 H     1 <1>   0.4500 
 36 H        1.3290     6.2560     0.9160 H     1 <1>   0.0800 
 37 H        1.8630     6.4400    -0.7180 H     1 <1>   0.0800 
 38 H        3.2800     4.9640    -1.7240 H     1 <1>   0.0800 
 39 H        3.1530     3.2790    -1.3310 H     1 <1>   0.0800 
 40 H        3.4370     6.8250     1.8200 H     1 <1>   0.0800 
 41 H        3.0820     7.9790     0.5840 H     1 <1>   0.0800 
 42 H        5.4690     4.2210    -1.2780 H     1 <1>   0.0800 
 43 H        4.9980     3.2960     0.0870 H     1 <1>   0.0800 
 44 H        4.6190     6.7370    -0.9130 H     1 <1>   0.4500 
 45 H        6.3570     5.4110     0.4750 H     1 <1>   0.0800 
 46 H        5.0000     5.1360     1.5260 H     1 <1>   0.0800 
 47 H        6.6290     7.5600     0.0430 H     1 <1>   0.0800 
 48 H        5.7280     7.9250     1.5020 H     1 <1>   0.0800 
 49 H        4.8880    10.5860     1.2800 H     1 <1>   0.1500 
 50 H        4.0000    11.0480    -2.9310 H     1 <1>   0.1500 
 51 H        4.0540    12.1700    -0.4950 H     1 <1>   0.1500 
@<TRIPOS>BOND
  1   1   2  2   
  2   1   3  2   
  3   1   4  am  
  4   1   5  1   
  5   4   6  1   
  6   4   7  1   
  7   5   8  1   
  8   5  23  1   
  9   5  24  1   
 10   6  25  1   
 11   6  26  1   
 12   6  27  1   
 13   7  28  1   
 14   7  29  1   
 15   7  30  1   
 16   8   9  1   
 17   8  31  1   
 18   8  32  1   
 19   9  10  1   
 20   9  33  1   
 21   9  34  1   
 22  10  11  1   
 23  10  12  1   
 24  10  35  1   
 25  11  13  1   
 26  11  36  1   
 27  11  37  1   
 28  12  14  1   
 29  12  38  1   
 30  12  39  1   
 31  13  15  1   
 32  13  40  1   
 33  13  41  1   
 34  14  16  1   
 35  14  42  1   
 36  14  43  1   
 37  15  16  1   
 38  15  17  1   
 39  15  44  1   
 40  16  45  1   
 41  16  46  1   
 42  17  18  1   
 43  17  47  1   
 44  17  48  1   
 45  18  19  1   
 46  18  20  2   
 47  19  21  1   
 48  20  22  1   
 49  20  49  1   
 50  21  22  2   
 51  21  50  1   
 52  22  51  1   
@<TRIPOS>SUBSTRUCTURE
  1 ****  10 GROUP 4 **** **** 0

# MOE 2024.06 (io_trps.svl 2023.06)
