@<TRIPOS>MOLECULE
NONAME
31 31 1 0 0 
SMALL
USER_CHARGES


@<TRIPOS>ATOM
  1 O       -1.7660    -0.6330     1.4900 O.2   1 <1>  -0.5700 
  2 C       -2.2070    -0.5860     0.3730 C.2   1 <1>   0.6590 
  3 O       -2.1180     0.4690    -0.4230 O.3   1 <1>  -0.4300 
  4 C       -2.9290    -1.7760    -0.2170 C.3   1 <1>  -0.0190 
  5 C       -1.4940     1.7060    -0.1490 C.3   1 <1>   0.2800 
  6 C       -2.9090    -2.9350     0.7750 C.3   1 <1>   0.4230 
  7 C       -2.1550    -2.3290    -1.4230 C.3   1 <1>   0.1200 
  8 C       -2.1890     2.3930     1.0310 C.3   1 <1>  -0.2400 
  9 C       -1.6830     2.5450    -1.4130 C.3   1 <1>  -0.2400 
 10 C        0.0020     1.4900     0.1040 C.3   1 <1>  -0.2400 
 11 N       -4.0500    -3.8530     0.5080 N.4   1 <1>  -0.8530 
 12 C       -1.6320    -3.6460     0.3440 C.3   1 <1>   0.1200 
 13 O       -1.7250    -3.6030    -1.0420 O.3   1 <1>  -0.5600 
 14 H       -3.9220    -1.4660    -0.4840 H     1 <1>   0.0800 
 15 H       -2.8860    -2.6160     1.8060 H     1 <1>   0.0800 
 16 H       -1.2860    -1.7360    -1.6620 H     1 <1>   0.0800 
 17 H       -2.7730    -2.4250    -2.3000 H     1 <1>   0.0800 
 18 H       -1.7910     3.3830     1.1610 H     1 <1>   0.0800 
 19 H       -2.0240     1.8570     1.9470 H     1 <1>   0.0800 
 20 H       -3.2460     2.4760     0.8510 H     1 <1>   0.0800 
 21 H       -1.2320     3.5130    -1.2880 H     1 <1>   0.0800 
 22 H       -2.7290     2.6860    -1.6180 H     1 <1>   0.0800 
 23 H       -1.2200     2.0650    -2.2560 H     1 <1>   0.0800 
 24 H        0.4960     2.4410     0.1930 H     1 <1>   0.0800 
 25 H        0.4500     0.9530    -0.7120 H     1 <1>   0.0800 
 26 H        0.1690     0.9540     1.0200 H     1 <1>   0.0800 
 27 H       -3.9110    -4.2420    -0.4370 H     1 <1>   0.4500 
 28 H       -4.9570    -3.3800     0.5560 H     1 <1>   0.4500 
 29 H       -4.0510    -4.6400     1.1660 H     1 <1>   0.4500 
 30 H       -1.5660    -4.6670     0.6770 H     1 <1>   0.0800 
 31 H       -0.7510    -3.1030     0.6480 H     1 <1>   0.0800 
@<TRIPOS>BOND
  1   1   2  2   
  2   2   3  1   
  3   2   4  1   
  4   3   5  1   
  5   4   6  1   
  6   4   7  1   
  7   4  14  1   
  8   5   8  1   
  9   5   9  1   
 10   5  10  1   
 11   6  11  1   
 12   6  12  1   
 13   6  15  1   
 14   7  13  1   
 15   7  16  1   
 16   7  17  1   
 17   8  18  1   
 18   8  19  1   
 19   8  20  1   
 20   9  21  1   
 21   9  22  1   
 22   9  23  1   
 23  10  24  1   
 24  10  25  1   
 25  10  26  1   
 26  11  27  1   
 27  11  28  1   
 28  11  29  1   
 29  12  13  1   
 30  12  30  1   
 31  12  31  1   
@<TRIPOS>SUBSTRUCTURE
  1 ****   2 GROUP 4 **** **** 0

# MOE 2024.06 (io_trps.svl 2023.06)
