@<TRIPOS>MOLECULE
NONAME
46 48 1 0 0 
SMALL
USER_CHARGES


@<TRIPOS>ATOM
  1 O       -0.3020     0.8050     0.3280 O.2   1 <1>  -0.5700 
  2 C       -0.3690     1.9990     0.1560 C.2   1 <1>   0.5690 
  3 N       -1.2410     2.7950     0.8470 N.am  1 <1>  -0.6600 
  4 C        0.5460     2.6280    -0.8940 C.3   1 <1>   0.1810 
  5 C       -1.3370     4.2680     0.5760 C.3   1 <1>   0.3640 
  6 C       -2.1120     2.2680     1.9380 C.3   1 <1>   0.0600 
  7 O        0.7860     3.9930    -0.6510 O.3   1 <1>  -0.5600 
  8 C       -2.7940     4.6860     0.3160 C.ar  1 <1>  -0.1430 
  9 C       -0.3920     4.7800    -0.5440 C.3   1 <1>   0.2610 
 10 C       -3.6420     4.0850    -0.6220 C.ar  1 <1>  -0.1430 
 11 C       -3.2830     5.7410     1.0770 C.ar  1 <1>  -0.1500 
 12 C       -0.0160     6.2410    -0.2680 C.2   1 <1>   0.5690 
 13 C       -4.9420     4.5500    -0.7630 C.ar  1 <1>  -0.1500 
 14 C       -3.2300     2.9180    -1.5130 C.3   1 <1>  -0.0960 
 15 C       -4.5790     6.1960     0.9270 C.ar  1 <1>  -0.1500 
 16 O       -0.8310     7.1180    -0.4280 O.2   1 <1>  -0.5700 
 17 N        1.2440     6.5350     0.1540 N.am  1 <1>  -0.7300 
 18 C       -5.4120     5.5980     0.0040 C.ar  1 <1>  -0.1500 
 19 C        1.7340     7.8870     0.5150 C.3   1 <1>   0.1400 
 20 C        1.9020     8.7450    -0.7400 C.3   1 <1>   0.0960 
 21 N        2.3390    10.0950    -0.3560 N.pl3 1 <1>   0.3140 
 22 N        3.5750    10.3580     0.0800 N.2   1 <1>  -0.4180 
 23 C        1.6170    11.2160    -0.3500 C.2   1 <1>  -0.3020 
 24 N        3.6500    11.6140     0.3570 N.2   1 <1>  -0.2270 
 25 C        2.4580    12.1590     0.0990 C.2   1 <1>   0.0770 
 26 H        0.1080     2.5230    -1.8700 H     1 <1>   0.0800 
 27 H        1.4950     2.1230    -0.8840 H     1 <1>   0.0800 
 28 H       -1.0170     4.7520     1.4830 H     1 <1>   0.0800 
 29 H       -1.9590     2.8370     2.8370 H     1 <1>   0.0800 
 30 H       -1.8830     1.2360     2.1420 H     1 <1>   0.0800 
 31 H       -3.1460     2.3380     1.6490 H     1 <1>   0.0800 
 32 H       -0.8950     4.7490    -1.4920 H     1 <1>   0.0800 
 33 H       -2.6540     6.2320     1.7980 H     1 <1>   0.1500 
 34 H       -5.6070     4.0960    -1.4760 H     1 <1>   0.1500 
 35 H       -3.9520     2.7560    -2.2930 H     1 <1>   0.0800 
 36 H       -3.1660     2.0150    -0.9320 H     1 <1>   0.0800 
 37 H       -2.2850     3.1020    -1.9830 H     1 <1>   0.0800 
 38 H       -4.9370     7.0170     1.5240 H     1 <1>   0.1500 
 39 H        1.9160     5.7580     0.1940 H     1 <1>   0.3700 
 40 H       -6.4220     5.9480    -0.1190 H     1 <1>   0.1500 
 41 H        1.0190     8.3520     1.1730 H     1 <1>   0.0800 
 42 H        2.6760     7.8000     1.0310 H     1 <1>   0.0800 
 43 H        0.9690     8.8230    -1.2670 H     1 <1>   0.0800 
 44 H        2.6460     8.3180    -1.3850 H     1 <1>   0.0800 
 45 H        0.5880    11.2730    -0.6520 H     1 <1>   0.1500 
 46 H        2.2730    13.2080     0.2550 H     1 <1>   0.1500 
@<TRIPOS>BOND
  1   1   2  2   
  2   2   3  am  
  3   2   4  1   
  4   3   5  1   
  5   3   6  1   
  6   4   7  1   
  7   4  26  1   
  8   4  27  1   
  9   5   8  1   
 10   5   9  1   
 11   5  28  1   
 12   6  29  1   
 13   6  30  1   
 14   6  31  1   
 15   7   9  1   
 16   8  10  ar  
 17   8  11  ar  
 18   9  12  1   
 19   9  32  1   
 20  10  13  ar  
 21  10  14  1   
 22  11  15  ar  
 23  11  33  1   
 24  12  16  2   
 25  12  17  am  
 26  13  18  ar  
 27  13  34  1   
 28  14  35  1   
 29  14  36  1   
 30  14  37  1   
 31  15  18  ar  
 32  15  38  1   
 33  17  19  1   
 34  17  39  1   
 35  18  40  1   
 36  19  20  1   
 37  19  41  1   
 38  19  42  1   
 39  20  21  1   
 40  20  43  1   
 41  20  44  1   
 42  21  22  1   
 43  21  23  1   
 44  22  24  2   
 45  23  25  2   
 46  23  45  1   
 47  24  25  1   
 48  25  46  1   
@<TRIPOS>SUBSTRUCTURE
  1 ****  12 GROUP 4 **** **** 0

# MOE 2024.06 (io_trps.svl 2023.06)
