@<TRIPOS>MOLECULE
NONAME
51 53 1 0 0 
SMALL
USER_CHARGES


@<TRIPOS>ATOM
  1 S       -0.4000     0.3560    -0.5370 S.o2  1 <1>   1.3330 
  2 O       -0.3130     1.1010    -1.7730 O.2   1 <1>  -0.6500 
  3 O       -1.2910    -0.7770    -0.4420 O.2   1 <1>  -0.6500 
  4 N        1.1600    -0.2040    -0.1560 N.am  1 <1>  -0.8490 
  5 C       -0.7640     1.4970     0.8040 C.3   1 <1>  -0.0550 
  6 C        1.1630    -1.2930     0.8290 C.3   1 <1>   0.1160 
  7 C        1.8980    -0.6270    -1.3520 C.3   1 <1>   0.1160 
  8 C       -0.0660     2.8750     0.7640 C.3   1 <1>  -0.0800 
  9 C       -0.6720     3.8560    -0.2440 C.3   1 <1>   0.2000 
 10 C        1.4310     2.8930     0.4550 C.3   1 <1>   0.2090 
 11 O       -1.7500     4.4980     0.3520 O.3   1 <1>  -0.6800 
 12 C        0.4500     4.8440    -0.5890 C.3   1 <1>   0.2090 
 13 N        1.6800     4.2840     0.0320 N.pl3 1 <1>  -0.7880 
 14 C        2.8190     5.0070     0.2410 C.2   1 <1>   0.4860 
 15 N        2.7490     6.3170     0.0460 N.2   1 <1>  -0.6210 
 16 C        4.0160     4.3830     0.6470 C.2   1 <1>  -0.1360 
 17 C        3.8350     7.0630     0.2610 C.2   1 <1>   0.2710 
 18 C        5.1180     5.1370     0.8660 C.2   1 <1>  -0.0380 
 19 N        4.9890     6.4630     0.6700 N.pl3 1 <1>  -0.6000 
 20 C        3.7880     8.4790     0.0630 C.2   1 <1>   0.0140 
 21 C        6.4650     4.6040     1.3050 C.3   1 <1>  -0.1020 
 22 C        4.8980     9.3440     0.3000 C.2   1 <1>   0.5410 
 23 C        2.6030     9.1000    -0.3880 C.2   1 <1>  -0.1500 
 24 O        6.0160     8.9450     0.6990 O.2   1 <1>  -0.5700 
 25 C        4.7630    10.7320     0.0830 C.2   1 <1>  -0.1360 
 26 C        2.4980    10.4540    -0.5940 C.2   1 <1>  -0.1500 
 27 C        3.5930    11.2840    -0.3550 C.2   1 <1>  -0.1500 
 28 H       -1.8220     1.6730     0.8200 H     1 <1>   0.0800 
 29 H       -0.5170     1.0190     1.7310 H     1 <1>   0.0800 
 30 H        2.1740    -1.5480     1.0960 H     1 <1>   0.0800 
 31 H        0.6780    -2.1680     0.4250 H     1 <1>   0.0800 
 32 H        0.6420    -0.9930     1.7210 H     1 <1>   0.0800 
 33 H        2.8820    -0.9710    -1.0840 H     1 <1>   0.0800 
 34 H        2.0060     0.2010    -2.0330 H     1 <1>   0.0800 
 35 H        1.3710    -1.4210    -1.8560 H     1 <1>   0.0800 
 36 H       -0.1630     3.3100     1.7440 H     1 <1>   0.0800 
 37 H       -1.0210     3.3700    -1.1380 H     1 <1>   0.0800 
 38 H        1.6840     2.2510    -0.3700 H     1 <1>   0.0800 
 39 H        2.0090     2.6260     1.3220 H     1 <1>   0.0800 
 40 H       -1.4340     5.0680     1.0810 H     1 <1>   0.4000 
 41 H        0.2430     5.8240    -0.1950 H     1 <1>   0.0800 
 42 H        0.5840     4.9020    -1.6550 H     1 <1>   0.0800 
 43 H        4.0420     3.3220     0.7690 H     1 <1>   0.1500 
 44 H        5.7880     7.0990     0.8240 H     1 <1>   0.4000 
 45 H        6.7440     5.0470     2.2440 H     1 <1>   0.0800 
 46 H        7.2100     4.8470     0.5690 H     1 <1>   0.0800 
 47 H        6.4290     3.5370     1.4230 H     1 <1>   0.0800 
 48 H        1.7410     8.4870    -0.5830 H     1 <1>   0.1500 
 49 H        5.6270    11.3390     0.2770 H     1 <1>   0.1500 
 50 H        1.5730    10.8860    -0.9390 H     1 <1>   0.1500 
 51 H        3.5010    12.3450    -0.5180 H     1 <1>   0.1500 
@<TRIPOS>BOND
  1   1   2  2   
  2   1   3  2   
  3   1   4  am  
  4   1   5  1   
  5   4   6  1   
  6   4   7  1   
  7   5   8  1   
  8   5  28  1   
  9   5  29  1   
 10   6  30  1   
 11   6  31  1   
 12   6  32  1   
 13   7  33  1   
 14   7  34  1   
 15   7  35  1   
 16   8   9  1   
 17   8  10  1   
 18   8  36  1   
 19   9  11  1   
 20   9  12  1   
 21   9  37  1   
 22  10  13  1   
 23  10  38  1   
 24  10  39  1   
 25  11  40  1   
 26  12  13  1   
 27  12  41  1   
 28  12  42  1   
 29  13  14  1   
 30  14  15  2   
 31  14  16  1   
 32  15  17  1   
 33  16  18  2   
 34  16  43  1   
 35  17  19  1   
 36  17  20  2   
 37  18  19  1   
 38  18  21  1   
 39  19  44  1   
 40  20  22  1   
 41  20  23  1   
 42  21  45  1   
 43  21  46  1   
 44  21  47  1   
 45  22  24  2   
 46  22  25  1   
 47  23  26  2   
 48  23  48  1   
 49  25  27  2   
 50  25  49  1   
 51  26  27  1   
 52  26  50  1   
 53  27  51  1   
@<TRIPOS>SUBSTRUCTURE
  1 ****  14 GROUP 4 **** **** 0

# MOE 2024.06 (io_trps.svl 2023.06)
