@<TRIPOS>MOLECULE
NONAME
38 40 1 0 0 
SMALL
USER_CHARGES


@<TRIPOS>ATOM
  1 O        1.5920     1.6870     1.2680 O.3   1 <1>  -0.0190 
  2 N        2.4590     0.7270     1.3940 N.2   1 <1>  -0.4100 
  3 C        1.0630     1.7120     0.0730 C.2   1 <1>  -0.0400 
  4 C        2.4650     0.1010     0.2720 C.2   1 <1>   0.1080 
  5 C        1.5860     0.6960    -0.6290 C.2   1 <1>  -0.1500 
  6 C        0.0680     2.7980    -0.2980 C.3   1 <1>   0.0200 
  7 C        3.3160    -1.1150    -0.0210 C.3   1 <1>  -0.0590 
  8 C        0.5650     4.1790     0.1640 C.3   1 <1>  -0.0800 
  9 C       -0.1690     5.3510    -0.4810 C.3   1 <1>   0.2000 
 10 C        2.0340     4.4510    -0.1510 C.3   1 <1>   0.2090 
 11 O       -1.3470     5.6040     0.2030 O.3   1 <1>  -0.6800 
 12 C        0.8080     6.5320    -0.4090 C.3   1 <1>   0.2090 
 13 N        2.1550     5.9330    -0.1370 N.pl3 1 <1>  -0.8380 
 14 C        3.2360     6.6930     0.1610 C.ar  1 <1>   0.7710 
 15 N        3.1110     8.0130     0.1510 N.ar  1 <1>  -0.6200 
 16 N        4.4020     6.0860     0.4580 N.ar  1 <1>  -0.1790 
 17 C        4.1720     8.7260     0.4430 C.ar  1 <1>   0.4100 
 18 C        5.5140     6.7990     0.7660 C.ar  1 <1>   0.2110 
 19 N        4.0110    10.0490     0.4230 N.pl3 1 <1>  -0.9000 
 20 C        5.4110     8.1500     0.7620 C.ar  1 <1>  -0.1500 
 21 H        1.4010     0.3840    -1.6410 H     1 <1>   0.1500 
 22 H       -0.0760     2.7870    -1.3640 H     1 <1>   0.0800 
 23 H       -0.8800     2.5880     0.1670 H     1 <1>   0.0800 
 24 H        2.6860    -1.9440    -0.2900 H     1 <1>   0.0800 
 25 H        3.8860    -1.3840     0.8500 H     1 <1>   0.0800 
 26 H        3.9910    -0.9070    -0.8300 H     1 <1>   0.0800 
 27 H        0.4630     4.2410     1.2340 H     1 <1>   0.0800 
 28 H       -0.4160     5.1480    -1.5090 H     1 <1>   0.0800 
 29 H        2.2770     4.0800    -1.1340 H     1 <1>   0.0800 
 30 H        2.6680     3.9830     0.5840 H     1 <1>   0.0800 
 31 H       -1.1790     5.7770     1.1500 H     1 <1>   0.4000 
 32 H        0.5380     7.2040     0.3890 H     1 <1>   0.0800 
 33 H        0.8200     7.0680    -1.3430 H     1 <1>   0.0800 
 34 H        4.3900     5.0720     0.4390 H     1 <1>   0.4570 
 35 H        6.4300     6.2790     1.0000 H     1 <1>   0.1500 
 36 H        3.1000    10.4500     0.1840 H     1 <1>   0.4000 
 37 H        4.7380    10.7410     0.6240 H     1 <1>   0.4000 
 38 H        6.2410     8.7930     0.9940 H     1 <1>   0.1500 
@<TRIPOS>BOND
  1   1   2  1   
  2   1   3  1   
  3   2   4  2   
  4   3   5  2   
  5   3   6  1   
  6   4   5  1   
  7   4   7  1   
  8   5  21  1   
  9   6   8  1   
 10   6  22  1   
 11   6  23  1   
 12   7  24  1   
 13   7  25  1   
 14   7  26  1   
 15   8   9  1   
 16   8  10  1   
 17   8  27  1   
 18   9  11  1   
 19   9  12  1   
 20   9  28  1   
 21  10  13  1   
 22  10  29  1   
 23  10  30  1   
 24  11  31  1   
 25  12  13  1   
 26  12  32  1   
 27  12  33  1   
 28  13  14  1   
 29  14  15  ar  
 30  14  16  ar  
 31  15  17  ar  
 32  16  18  ar  
 33  16  34  1   
 34  17  19  1   
 35  17  20  ar  
 36  18  20  ar  
 37  18  35  1   
 38  19  36  1   
 39  19  37  1   
 40  20  38  1   
@<TRIPOS>SUBSTRUCTURE
  1 ****  10 GROUP 4 **** **** 0

# MOE 2024.06 (io_trps.svl 2023.06)
