@<TRIPOS>MOLECULE
NONAME
49 51 1 0 0 
SMALL
USER_CHARGES


@<TRIPOS>ATOM
  1 O       -1.9490     0.9150    -0.7020 O.3   1 <1>  -0.5600 
  2 C       -1.6700     1.1600    -2.0550 C.3   1 <1>   0.2000 
  3 C       -1.2740    -0.1530    -0.0910 C.3   1 <1>   0.2640 
  4 C       -0.2290     1.6920    -2.2320 C.3   1 <1>   0.3430 
  5 C       -2.6510     2.2510    -2.5130 C.3   1 <1>  -0.1600 
  6 C       -0.2960     0.3870     0.9510 C.ar  1 <1>   0.1660 
  7 N        0.0520     2.8420    -1.3020 N.4   1 <1>  -0.9590 
  8 C       -2.1480     3.6770    -2.1860 C.3   1 <1>  -0.1600 
  9 N        0.9210     0.7340     0.5370 N.ar  1 <1>  -0.6200 
 10 C       -0.7180     0.4850     2.2690 C.ar  1 <1>  -0.1500 
 11 C       -1.1500     3.7010    -1.0180 C.3   1 <1>   0.3430 
 12 C        1.2620     3.5930    -1.7130 C.3   1 <1>   0.3430 
 13 C        1.7520     1.1440     1.4860 C.ar  1 <1>   0.1600 
 14 C        0.1500     0.9410     3.2360 C.ar  1 <1>  -0.1500 
 15 C        1.8160     4.3900    -0.5320 C.3   1 <1>  -0.1600 
 16 C        1.4220     1.2710     2.8230 C.ar  1 <1>  -0.1500 
 17 C        3.1460     5.0660    -0.8890 C.3   1 <1>  -0.0170 
 18 C        3.7010     5.7810     0.3310 C.ar  1 <1>  -0.1440 
 19 C        3.2990     7.0730     0.6420 C.ar  1 <1>   0.1600 
 20 C        4.6140     5.1560     1.1580 C.ar  1 <1>  -0.1500 
 21 N        3.7140     7.7680     1.6870 N.ar  1 <1>  -0.6200 
 22 C        5.0610     5.8680     2.2500 C.ar  1 <1>  -0.1500 
 23 C        4.5860     7.1500     2.4660 C.ar  1 <1>   0.1600 
 24 H       -1.8330     0.2520    -2.6120 H     1 <1>   0.0800 
 25 H       -0.7580    -0.7470    -0.8250 H     1 <1>   0.0800 
 26 H       -2.0150    -0.7700     0.3860 H     1 <1>   0.0800 
 27 H       -0.1120     2.0140    -3.2530 H     1 <1>   0.0800 
 28 H        0.4740     0.8960    -2.0510 H     1 <1>   0.0800 
 29 H       -3.6090     2.0760    -2.0520 H     1 <1>   0.0800 
 30 H       -2.7940     2.1760    -3.5770 H     1 <1>   0.0800 
 31 H        0.2730     2.3570    -0.4060 H     1 <1>   0.4500 
 32 H       -2.9900     4.3000    -1.9410 H     1 <1>   0.0800 
 33 H       -1.6750     4.1080    -3.0510 H     1 <1>   0.0800 
 34 H       -1.7200     0.2040     2.5430 H     1 <1>   0.1500 
 35 H       -0.8520     4.7140    -0.8080 H     1 <1>   0.0800 
 36 H       -1.6520     3.3160    -0.1440 H     1 <1>   0.0800 
 37 H        1.0280     4.2530    -2.5320 H     1 <1>   0.0800 
 38 H        2.0170     2.8970    -2.0430 H     1 <1>   0.0800 
 39 H        2.7570     1.3940     1.1880 H     1 <1>   0.1500 
 40 H       -0.1480     1.0280     4.2680 H     1 <1>   0.1500 
 41 H        1.9810     3.7310     0.3010 H     1 <1>   0.0800 
 42 H        1.1170     5.1500    -0.2310 H     1 <1>   0.0800 
 43 H        2.1510     1.6190     3.5330 H     1 <1>   0.1500 
 44 H        3.0030     5.7760    -1.6860 H     1 <1>   0.0800 
 45 H        3.8580     4.3320    -1.2260 H     1 <1>   0.0800 
 46 H        2.5930     7.5670    -0.0030 H     1 <1>   0.1500 
 47 H        4.9690     4.1580     0.9670 H     1 <1>   0.1500 
 48 H        5.7740     5.4380     2.9300 H     1 <1>   0.1500 
 49 H        4.9430     7.6960     3.3230 H     1 <1>   0.1500 
@<TRIPOS>BOND
  1   1   2  1   
  2   1   3  1   
  3   2   4  1   
  4   2   5  1   
  5   2  24  1   
  6   3   6  1   
  7   3  25  1   
  8   3  26  1   
  9   4   7  1   
 10   4  27  1   
 11   4  28  1   
 12   5   8  1   
 13   5  29  1   
 14   5  30  1   
 15   6   9  ar  
 16   6  10  ar  
 17   7  11  1   
 18   7  12  1   
 19   7  31  1   
 20   8  11  1   
 21   8  32  1   
 22   8  33  1   
 23   9  13  ar  
 24  10  14  ar  
 25  10  34  1   
 26  11  35  1   
 27  11  36  1   
 28  12  15  1   
 29  12  37  1   
 30  12  38  1   
 31  13  16  ar  
 32  13  39  1   
 33  14  16  ar  
 34  14  40  1   
 35  15  17  1   
 36  15  41  1   
 37  15  42  1   
 38  16  43  1   
 39  17  18  1   
 40  17  44  1   
 41  17  45  1   
 42  18  19  ar  
 43  18  20  ar  
 44  19  21  ar  
 45  19  46  1   
 46  20  22  ar  
 47  20  47  1   
 48  21  23  ar  
 49  22  23  ar  
 50  22  48  1   
 51  23  49  1   
@<TRIPOS>SUBSTRUCTURE
  1 ****  15 GROUP 4 **** **** 0

# MOE 2024.06 (io_trps.svl 2023.06)
