@<TRIPOS>MOLECULE
NONAME
46 49 1 0 0 
SMALL
USER_CHARGES


@<TRIPOS>ATOM
  1 S       -0.3420     0.0560     2.1530 S.3   1 <1>  -0.0800 
  2 C        0.4540     1.4520     1.4830 C.2   1 <1>   0.1240 
  3 C        0.5530    -1.0330     1.0770 C.2   1 <1>  -0.0450 
  4 N        0.2360     2.7300     1.8670 N.pl3 1 <1>  -0.5340 
  5 C        1.3370     1.1210     0.5100 C.2   1 <1>  -0.0860 
  6 C        1.3980    -0.2980     0.2980 C.2   1 <1>  -0.1810 
  7 C        0.2710    -2.4410     1.1800 C.2   1 <1>   0.7150 
  8 C        0.9370     3.7210     1.2440 C.2   1 <1>   0.4400 
  9 C        2.0240     2.2220    -0.1040 C.2   1 <1>   0.8670 
 10 C        2.3740    -0.8960    -0.7060 C.3   1 <1>  -0.0590 
 11 O        0.3760    -3.0030     2.2550 O.2   1 <1>  -0.5700 
 12 N       -0.1310    -3.1590     0.0760 N.am  1 <1>  -0.6600 
 13 N        1.7890     3.5160     0.3070 N.2   1 <1>  -0.6610 
 14 O        2.8230     2.0530    -1.0120 O.2   1 <1>  -0.5700 
 15 C       -0.0770    -4.6590     0.1150 C.3   1 <1>   0.3640 
 16 C       -0.8710    -2.4830    -1.0330 C.3   1 <1>   0.1400 
 17 C        1.3570    -5.0960    -0.1920 C.ar  1 <1>  -0.1440 
 18 C       -1.0760    -5.3970    -0.8280 C.3   1 <1>   0.2000 
 19 C       -1.4590    -3.4510    -2.0660 C.3   1 <1>   0.1200 
 20 C        1.9830    -4.7610    -1.3860 C.ar  1 <1>  -0.1500 
 21 C        2.0570    -5.8450     0.7440 C.ar  1 <1>  -0.1500 
 22 O       -2.0210    -4.5450    -1.4200 O.3   1 <1>  -0.5600 
 23 C       -1.8590    -6.4960    -0.0950 C.3   1 <1>   0.1200 
 24 C        3.2800    -5.1710    -1.6420 C.ar  1 <1>  -0.1500 
 25 C        3.3540    -6.2550     0.4900 C.ar  1 <1>  -0.1500 
 26 O       -0.9940    -7.4310     0.4680 O.3   1 <1>  -0.6800 
 27 C        3.9660    -5.9190    -0.7030 C.ar  1 <1>  -0.1500 
 28 H       -0.4300     2.9440     2.6130 H     1 <1>   0.4000 
 29 H        0.7460     4.7280     1.5760 H     1 <1>   0.0600 
 30 H        3.3760    -0.5820    -0.4740 H     1 <1>   0.0800 
 31 H        2.1340    -0.5660    -1.7010 H     1 <1>   0.0800 
 32 H        2.3490    -1.9710    -0.6810 H     1 <1>   0.0800 
 33 H       -0.3080    -4.9730     1.1190 H     1 <1>   0.0800 
 34 H       -1.6800    -1.9140    -0.6070 H     1 <1>   0.0800 
 35 H       -0.2190    -1.7920    -1.5360 H     1 <1>   0.0800 
 36 H       -0.5330    -5.8600    -1.6330 H     1 <1>   0.0800 
 37 H       -0.7080    -3.7960    -2.7540 H     1 <1>   0.0800 
 38 H       -2.2370    -2.9630    -2.6270 H     1 <1>   0.0800 
 39 H        1.4660    -4.1740    -2.1220 H     1 <1>   0.1500 
 40 H        1.5920    -6.1100     1.6790 H     1 <1>   0.1500 
 41 H       -2.5120    -7.0110    -0.7770 H     1 <1>   0.0800 
 42 H       -2.4400    -6.0660     0.7030 H     1 <1>   0.0800 
 43 H        3.7570    -4.9060    -2.5700 H     1 <1>   0.1500 
 44 H        3.8860    -6.8340     1.2260 H     1 <1>   0.1500 
 45 H       -0.4880    -7.9070    -0.2210 H     1 <1>   0.4000 
 46 H        4.9750    -6.2370    -0.8990 H     1 <1>   0.1500 
@<TRIPOS>BOND
  1   1   2  1   
  2   1   3  1   
  3   2   4  1   
  4   2   5  2   
  5   3   6  2   
  6   3   7  1   
  7   4   8  1   
  8   4  28  1   
  9   5   6  1   
 10   5   9  1   
 11   6  10  1   
 12   7  11  2   
 13   7  12  am  
 14   8  13  2   
 15   8  29  1   
 16   9  13  1   
 17   9  14  2   
 18  10  30  1   
 19  10  31  1   
 20  10  32  1   
 21  12  15  1   
 22  12  16  1   
 23  15  17  1   
 24  15  18  1   
 25  15  33  1   
 26  16  19  1   
 27  16  34  1   
 28  16  35  1   
 29  17  20  ar  
 30  17  21  ar  
 31  18  22  1   
 32  18  23  1   
 33  18  36  1   
 34  19  22  1   
 35  19  37  1   
 36  19  38  1   
 37  20  24  ar  
 38  20  39  1   
 39  21  25  ar  
 40  21  40  1   
 41  23  26  1   
 42  23  41  1   
 43  23  42  1   
 44  24  27  ar  
 45  24  43  1   
 46  25  27  ar  
 47  25  44  1   
 48  26  45  1   
 49  27  46  1   
@<TRIPOS>SUBSTRUCTURE
  1 ****   7 GROUP 4 **** **** 0

# MOE 2024.06 (io_trps.svl 2023.06)
