@<TRIPOS>MOLECULE
NONAME
47 50 1 0 0 
SMALL
USER_CHARGES


@<TRIPOS>ATOM
  1 S       -1.1720     0.7740    -2.3230 S.3   1 <1>  -0.0800 
  2 C       -1.2830     1.6000    -0.7760 C.2   1 <1>  -0.1400 
  3 C       -2.8020     0.1400    -2.1380 C.2   1 <1>  -0.1100 
  4 C       -2.4800     1.3910    -0.2130 C.2   1 <1>  -0.1810 
  5 C       -0.1420     2.4290    -0.1980 C.3   1 <1>   0.4600 
  6 C       -3.3510     0.5540    -0.9800 C.2   1 <1>  -0.1500 
  7 C       -2.7970     2.0260     1.1220 C.3   1 <1>   0.0210 
  8 O       -0.4910     2.8230     1.1160 O.3   1 <1>  -0.5600 
  9 C        0.1280     3.6850    -1.0400 C.3   1 <1>  -0.1600 
 10 C        1.1340     1.5900    -0.0690 C.3   1 <1>  -0.1600 
 11 C       -1.8260     3.1980     1.3640 C.3   1 <1>   0.1200 
 12 C        1.3060     4.4890    -0.4880 C.3   1 <1>   0.1400 
 13 C        2.3040     2.4180     0.4650 C.3   1 <1>   0.1400 
 14 N        2.5050     3.6070    -0.4110 N.am  1 <1>  -0.6600 
 15 C        3.7070     3.8380    -1.0420 C.2   1 <1>   0.5690 
 16 O        4.6490     3.0920    -0.9000 O.2   1 <1>  -0.5700 
 17 C        3.9230     5.0410    -1.9620 C.3   1 <1>   0.2010 
 18 N        4.2630     6.2940    -1.2120 N.am  1 <1>  -0.4690 
 19 C        3.4700     7.4230    -1.3310 C.2   1 <1>   0.6900 
 20 C        5.3960     6.3130    -0.4050 C.2   1 <1>  -0.0410 
 21 O        2.4660     7.4440    -2.0120 O.2   1 <1>  -0.5700 
 22 N        3.8330     8.5430    -0.6550 N.am  1 <1>  -0.4900 
 23 C        5.7430     7.4360     0.2660 C.2   1 <1>  -0.1240 
 24 C        4.9340     8.6120     0.1390 C.2   1 <1>   0.6160 
 25 C        6.9750     7.4880     1.1600 C.3   1 <1>  -0.1020 
 26 O        5.1720     9.6650     0.6960 O.2   1 <1>  -0.5700 
 27 H       -3.1800    -0.4850    -2.9260 H     1 <1>   0.1500 
 28 H       -4.3380     0.3050    -0.6300 H     1 <1>   0.1500 
 29 H       -2.6940     1.2980     1.9050 H     1 <1>   0.0800 
 30 H       -3.8070     2.3940     1.1270 H     1 <1>   0.0800 
 31 H       -0.7520     4.2990    -1.0810 H     1 <1>   0.0800 
 32 H        0.3560     3.3910    -2.0480 H     1 <1>   0.0800 
 33 H        1.4090     1.1940    -1.0290 H     1 <1>   0.0800 
 34 H        0.9450     0.7580     0.5840 H     1 <1>   0.0800 
 35 H       -1.8890     3.5250     2.3870 H     1 <1>   0.0800 
 36 H       -2.0720     4.0260     0.7230 H     1 <1>   0.0800 
 37 H        1.0720     4.8490     0.5000 H     1 <1>   0.0800 
 38 H        1.4790     5.3410    -1.1150 H     1 <1>   0.0800 
 39 H        3.1910     1.8080     0.4960 H     1 <1>   0.0800 
 40 H        2.0940     2.7500     1.4680 H     1 <1>   0.0800 
 41 H        3.0540     5.1800    -2.5760 H     1 <1>   0.0800 
 42 H        4.7400     4.8120    -2.6220 H     1 <1>   0.0800 
 43 H        5.9720     5.4010    -0.3430 H     1 <1>   0.1500 
 44 H        3.2590     9.3720    -0.7520 H     1 <1>   0.3700 
 45 H        7.6520     8.2470     0.8080 H     1 <1>   0.0800 
 46 H        7.4890     6.5430     1.1680 H     1 <1>   0.0800 
 47 H        6.6850     7.7310     2.1680 H     1 <1>   0.0800 
@<TRIPOS>BOND
  1   1   2  1   
  2   1   3  1   
  3   2   4  2   
  4   2   5  1   
  5   3   6  2   
  6   3  27  1   
  7   4   6  1   
  8   4   7  1   
  9   5   8  1   
 10   5   9  1   
 11   5  10  1   
 12   6  28  1   
 13   7  11  1   
 14   7  29  1   
 15   7  30  1   
 16   8  11  1   
 17   9  12  1   
 18   9  31  1   
 19   9  32  1   
 20  10  13  1   
 21  10  33  1   
 22  10  34  1   
 23  11  35  1   
 24  11  36  1   
 25  12  14  1   
 26  12  37  1   
 27  12  38  1   
 28  13  14  1   
 29  13  39  1   
 30  13  40  1   
 31  14  15  am  
 32  15  16  2   
 33  15  17  1   
 34  17  18  1   
 35  17  41  1   
 36  17  42  1   
 37  18  19  am  
 38  18  20  1   
 39  19  21  2   
 40  19  22  am  
 41  20  23  2   
 42  20  43  1   
 43  22  24  am  
 44  22  44  1   
 45  23  24  1   
 46  23  25  1   
 47  24  26  2   
 48  25  45  1   
 49  25  46  1   
 50  25  47  1   
@<TRIPOS>SUBSTRUCTURE
  1 ****  12 GROUP 4 **** **** 0

# MOE 2024.06 (io_trps.svl 2023.06)
