@<TRIPOS>MOLECULE
NONAME
53 57 1 0 0 
SMALL
USER_CHARGES


@<TRIPOS>ATOM
  1 CL      -2.3030     1.1970    -0.9930 Cl    1 <1>  -0.1770 
  2 C       -3.4170     0.2000    -0.0880 C.ar  1 <1>   0.1770 
  3 C       -3.8120    -1.0120    -0.6000 C.ar  1 <1>  -0.1500 
  4 C       -3.8790     0.6710     1.1450 C.ar  1 <1>  -0.1500 
  5 C       -4.7060    -1.7920     0.1400 C.ar  1 <1>   0.0000 
  6 C       -4.7580    -0.0910     1.8800 C.ar  1 <1>  -0.1500 
  7 C       -5.1680    -1.3260     1.3680 C.ar  1 <1>  -0.1520 
  8 C       -5.3150    -3.0490    -0.0680 C.2   1 <1>  -0.1810 
  9 N       -6.0200    -2.2610     1.8910 N.pl3 1 <1>   0.0330 
 10 C       -6.1160    -3.2990     0.9990 C.2   1 <1>  -0.3320 
 11 C       -5.0420    -3.8900    -1.3030 C.3   1 <1>  -0.0590 
 12 C       -7.0130    -4.4870     1.2410 C.3   1 <1>   0.5230 
 13 N       -8.1090    -4.3300     0.2680 N.4   1 <1>  -0.9590 
 14 C       -9.0070    -3.1800     0.6270 C.3   1 <1>   0.3430 
 15 C       -8.8790    -5.5850     0.0530 C.3   1 <1>   0.3430 
 16 C      -10.0340    -2.8950    -0.4780 C.3   1 <1>   0.1440 
 17 C       -9.8900    -5.3780    -1.0800 C.3   1 <1>  -0.1600 
 18 C      -10.9690    -1.8180     0.0160 C.ar  1 <1>   0.1670 
 19 C      -10.8210    -4.1780    -0.8200 C.3   1 <1>  -0.1600 
 20 C       -9.4020    -2.2400    -1.7370 C.3   1 <1>  -0.1600 
 21 N      -11.5400    -1.8170     1.1980 N.ar  1 <1>  -0.6200 
 22 C      -11.1400    -0.8310    -0.9050 C.ar  1 <1>  -0.1430 
 23 C      -10.3430    -1.0940    -2.1580 C.3   1 <1>  -0.0170 
 24 C      -12.3250    -0.7680     1.4150 C.ar  1 <1>   0.4770 
 25 C      -11.9680     0.2110    -0.5710 C.ar  1 <1>   0.1600 
 26 N      -12.5700     0.2490     0.6000 N.ar  1 <1>  -0.6200 
 27 C      -13.0230    -0.7150     2.7530 C.3   1 <1>  -0.0970 
 28 H       -3.4420    -1.3550    -1.5470 H     1 <1>   0.1500 
 29 H       -3.5360     1.6260     1.4980 H     1 <1>   0.1500 
 30 H       -5.1230     0.2540     2.8320 H     1 <1>   0.1500 
 31 H       -6.4620    -2.1680     2.8130 H     1 <1>   0.2700 
 32 H       -3.9830    -4.0640    -1.3900 H     1 <1>   0.0800 
 33 H       -5.3730    -3.3700    -2.1840 H     1 <1>   0.0800 
 34 H       -5.5350    -4.8420    -1.2490 H     1 <1>   0.0800 
 35 H       -7.3860    -4.5050     2.2520 H     1 <1>   0.0800 
 36 H       -6.4660    -5.3960     1.0460 H     1 <1>   0.0800 
 37 H       -7.6340    -4.0680    -0.6040 H     1 <1>   0.4500 
 38 H       -8.4250    -2.2880     0.7920 H     1 <1>   0.0800 
 39 H       -9.5380    -3.4040     1.5370 H     1 <1>   0.0800 
 40 H       -9.4050    -5.8500     0.9570 H     1 <1>   0.0800 
 41 H       -8.2120    -6.3930    -0.2030 H     1 <1>   0.0800 
 42 H      -10.4870    -6.2680    -1.1790 H     1 <1>   0.0800 
 43 H       -9.3630    -5.2480    -2.0080 H     1 <1>   0.0800 
 44 H      -11.4550    -4.0070    -1.6740 H     1 <1>   0.0800 
 45 H      -11.4680    -4.4170     0.0090 H     1 <1>   0.0800 
 46 H       -9.2540    -2.9330    -2.5450 H     1 <1>   0.0800 
 47 H       -8.4490    -1.8060    -1.4800 H     1 <1>   0.0800 
 48 H      -11.0060    -1.4100    -2.9460 H     1 <1>   0.0800 
 49 H       -9.7950    -0.2220    -2.4730 H     1 <1>   0.0800 
 50 H      -12.1420     1.0200    -1.2610 H     1 <1>   0.1500 
 51 H      -12.9540    -1.6610     3.2550 H     1 <1>   0.0800 
 52 H      -14.0600    -0.4730     2.6080 H     1 <1>   0.0800 
 53 H      -12.5690     0.0440     3.3610 H     1 <1>   0.0800 
@<TRIPOS>BOND
  1   1   2  1   
  2   2   3  ar  
  3   2   4  ar  
  4   3   5  ar  
  5   3  28  1   
  6   4   6  ar  
  7   4  29  1   
  8   5   7  ar  
  9   5   8  1   
 10   6   7  ar  
 11   6  30  1   
 12   7   9  1   
 13   8  10  2   
 14   8  11  1   
 15   9  10  1   
 16   9  31  1   
 17  10  12  1   
 18  11  32  1   
 19  11  33  1   
 20  11  34  1   
 21  12  13  1   
 22  12  35  1   
 23  12  36  1   
 24  13  14  1   
 25  13  15  1   
 26  13  37  1   
 27  14  16  1   
 28  14  38  1   
 29  14  39  1   
 30  15  17  1   
 31  15  40  1   
 32  15  41  1   
 33  16  18  1   
 34  16  19  1   
 35  16  20  1   
 36  17  19  1   
 37  17  42  1   
 38  17  43  1   
 39  18  21  ar  
 40  18  22  ar  
 41  19  44  1   
 42  19  45  1   
 43  20  23  1   
 44  20  46  1   
 45  20  47  1   
 46  21  24  ar  
 47  22  23  1   
 48  22  25  ar  
 49  23  48  1   
 50  23  49  1   
 51  24  26  ar  
 52  24  27  1   
 53  25  26  ar  
 54  25  50  1   
 55  27  51  1   
 56  27  52  1   
 57  27  53  1   
@<TRIPOS>SUBSTRUCTURE
  1 ****  14 GROUP 4 **** **** 0

# MOE 2024.06 (io_trps.svl 2023.06)
