@<TRIPOS>MOLECULE
NONAME
41 41 1 0 0 
SMALL
USER_CHARGES


@<TRIPOS>ATOM
  1 CL       0.5650     1.3440    -0.4850 Cl    1 <1>  -0.1770 
  2 C       -1.1590     1.5030    -0.2380 C.ar  1 <1>   0.1770 
  3 C       -1.6590     2.4950     0.5910 C.ar  1 <1>  -0.1440 
  4 C       -1.9960     0.6190    -0.8890 C.ar  1 <1>  -0.1500 
  5 C       -3.0310     2.5840     0.7570 C.ar  1 <1>  -0.1500 
  6 C       -0.7280     3.4650     1.3040 C.3   1 <1>  -0.0960 
  7 C       -3.3730     0.7010    -0.7280 C.ar  1 <1>  -0.0090 
  8 C       -3.8860     1.6950     0.1050 C.ar  1 <1>   0.0830 
  9 S       -4.4760    -0.4430    -1.5910 S.o2  1 <1>   1.4470 
 10 O       -5.2360     1.7510     0.2490 O.3   1 <1>  -0.3630 
 11 O       -5.3610     0.2680    -2.4840 O.2   1 <1>  -0.6500 
 12 O       -3.7320    -1.5780    -2.0890 O.2   1 <1>  -0.6500 
 13 N       -5.4740    -1.0320    -0.3790 N.am  1 <1>  -0.9140 
 14 C       -5.8820     2.7660     0.9830 C.3   1 <1>   0.1200 
 15 C       -6.4330    -2.0080    -0.8780 C.3   1 <1>   0.1960 
 16 C       -7.3840     2.5190     0.8920 C.3   1 <1>  -0.2400 
 17 C       -7.3410    -2.4860     0.2600 C.3   1 <1>   0.1960 
 18 N       -8.3100    -3.4650    -0.2270 N.am  1 <1>  -0.9140 
 19 S       -9.3180    -4.0240     0.9860 S.o2  1 <1>   1.3330 
 20 O       -9.6370    -2.9150     1.8520 O.2   1 <1>  -0.6500 
 21 O       -8.6450    -5.1960     1.4840 O.2   1 <1>  -0.6500 
 22 C      -10.7780    -4.5030     0.0890 C.3   1 <1>  -0.1350 
 23 H       -1.5690    -0.1370    -1.5250 H     1 <1>   0.1500 
 24 H       -3.4210     3.3490     1.4000 H     1 <1>   0.1500 
 25 H       -0.0550     2.9240     1.9460 H     1 <1>   0.0800 
 26 H       -1.2800     4.1660     1.9030 H     1 <1>   0.0800 
 27 H       -0.1490     4.0160     0.5830 H     1 <1>   0.0800 
 28 H       -5.9920    -0.1950    -0.1000 H     1 <1>   0.4200 
 29 H       -5.6240     3.7180     0.5490 H     1 <1>   0.0800 
 30 H       -5.5500     2.7170     2.0060 H     1 <1>   0.0800 
 31 H       -5.9000    -2.8510    -1.2860 H     1 <1>   0.0800 
 32 H       -7.0360    -1.5660    -1.6550 H     1 <1>   0.0800 
 33 H       -7.7020     2.5430    -0.1360 H     1 <1>   0.0800 
 34 H       -7.9110     3.2860     1.4290 H     1 <1>   0.0800 
 35 H       -7.6330     1.5670     1.3260 H     1 <1>   0.0800 
 36 H       -7.8650    -1.6340     0.6630 H     1 <1>   0.0800 
 37 H       -6.7410    -2.9250     1.0400 H     1 <1>   0.0800 
 38 H       -7.7810    -4.2980    -0.4860 H     1 <1>   0.4200 
 39 H      -11.2020    -3.6510    -0.4050 H     1 <1>   0.0800 
 40 H      -11.5070    -4.9070     0.7640 H     1 <1>   0.0800 
 41 H      -10.5380    -5.2470    -0.6440 H     1 <1>   0.0800 
@<TRIPOS>BOND
  1   1   2  1   
  2   2   3  ar  
  3   2   4  ar  
  4   3   5  ar  
  5   3   6  1   
  6   4   7  ar  
  7   4  23  1   
  8   5   8  ar  
  9   5  24  1   
 10   6  25  1   
 11   6  26  1   
 12   6  27  1   
 13   7   8  ar  
 14   7   9  1   
 15   8  10  1   
 16   9  11  2   
 17   9  12  2   
 18   9  13  am  
 19  10  14  1   
 20  13  15  1   
 21  13  28  1   
 22  14  16  1   
 23  14  29  1   
 24  14  30  1   
 25  15  17  1   
 26  15  31  1   
 27  15  32  1   
 28  16  33  1   
 29  16  34  1   
 30  16  35  1   
 31  17  18  1   
 32  17  36  1   
 33  17  37  1   
 34  18  19  am  
 35  18  38  1   
 36  19  20  2   
 37  19  21  2   
 38  19  22  1   
 39  22  39  1   
 40  22  40  1   
 41  22  41  1   
@<TRIPOS>SUBSTRUCTURE
  1 ****  13 GROUP 4 **** **** 0

# MOE 2024.06 (io_trps.svl 2023.06)
