@<TRIPOS>MOLECULE
NONAME
28 28 1 0 0 
SMALL
USER_CHARGES


@<TRIPOS>ATOM
  1 F       -3.1010    -2.0790    -1.2250 F     1 <1>  -0.1900 
  2 C       -2.4510    -2.9690    -0.5190 C.ar  1 <1>   0.1900 
  3 C       -3.0950    -3.7800     0.4210 C.ar  1 <1>   0.0830 
  4 C       -1.0910    -3.0520    -0.7520 C.ar  1 <1>  -0.1500 
  5 O       -4.4200    -3.7870     0.7350 O.3   1 <1>  -0.3630 
  6 C       -2.3140    -4.6850     1.1210 C.ar  1 <1>  -0.1500 
  7 C       -0.3220    -3.9650    -0.0370 C.ar  1 <1>  -0.1430 
  8 C       -5.3770    -2.9970     0.0630 C.3   1 <1>   0.0400 
  9 C       -0.9500    -4.7790     0.8980 C.ar  1 <1>  -0.1500 
 10 C        1.1800    -4.0900    -0.2350 C.3   1 <1>   0.5670 
 11 N        1.7780    -2.8520     0.2860 N.4   1 <1>  -0.9060 
 12 C        1.5620    -4.2800    -1.7000 C.3   1 <1>  -0.2400 
 13 C        3.2550    -2.9130     0.4960 C.3   1 <1>   0.2630 
 14 H       -0.6660    -2.4000    -1.4940 H     1 <1>   0.1500 
 15 H       -2.7910    -5.3220     1.8470 H     1 <1>   0.1500 
 16 H       -6.3450    -3.2260     0.4700 H     1 <1>   0.0800 
 17 H       -5.3580    -3.2370    -0.9860 H     1 <1>   0.0800 
 18 H       -5.1520    -1.9580     0.2250 H     1 <1>   0.0800 
 19 H       -0.3910    -5.5030     1.4690 H     1 <1>   0.1500 
 20 H        1.5340    -4.9340     0.3360 H     1 <1>   0.0800 
 21 H        1.2960    -2.6460     1.1710 H     1 <1>   0.4500 
 22 H        1.5290    -2.0910    -0.3540 H     1 <1>   0.4500 
 23 H        1.3060    -3.4220    -2.2950 H     1 <1>   0.0800 
 24 H        1.0300    -5.1280    -2.0950 H     1 <1>   0.0800 
 25 H        2.6130    -4.4830    -1.8000 H     1 <1>   0.0800 
 26 H        3.5060    -3.7070     1.1820 H     1 <1>   0.0800 
 27 H        3.6120    -1.9810     0.9060 H     1 <1>   0.0800 
 28 H        3.7630    -3.0910    -0.4390 H     1 <1>   0.0800 
@<TRIPOS>BOND
  1   1   2  1   
  2   2   3  ar  
  3   2   4  ar  
  4   3   5  1   
  5   3   6  ar  
  6   4   7  ar  
  7   4  14  1   
  8   5   8  1   
  9   6   9  ar  
 10   6  15  1   
 11   7   9  ar  
 12   7  10  1   
 13   8  16  1   
 14   8  17  1   
 15   8  18  1   
 16   9  19  1   
 17  10  11  1   
 18  10  12  1   
 19  10  20  1   
 20  11  13  1   
 21  11  21  1   
 22  11  22  1   
 23  12  23  1   
 24  12  24  1   
 25  12  25  1   
 26  13  26  1   
 27  13  27  1   
 28  13  28  1   
@<TRIPOS>SUBSTRUCTURE
  1 ****   4 GROUP 4 **** **** 0

# MOE 2024.06 (io_trps.svl 2023.06)
