@<TRIPOS>MOLECULE
NONAME
53 56 1 0 0 
SMALL
USER_CHARGES


@<TRIPOS>ATOM
  1 S        2.6060    -1.0240     1.8720 S.3   1 <1>  -0.3320 
  2 C        1.1460    -1.7890     1.1390 C.ar  1 <1>   0.1020 
  3 C        3.0640     0.4330     0.8320 C.3   1 <1>   0.1500 
  4 C        0.7810    -3.0270     1.6330 C.ar  1 <1>  -0.1500 
  5 C        0.4060    -1.1860     0.1340 C.ar  1 <1>  -0.1500 
  6 C        3.6880    -0.0750    -0.4720 C.3   1 <1>  -0.1600 
  7 C        4.0580     1.2770     1.6310 C.3   1 <1>  -0.1600 
  8 C       -0.3280    -3.6740     1.1160 C.ar  1 <1>  -0.1500 
  9 C       -0.7020    -1.8390    -0.3800 C.ar  1 <1>  -0.1500 
 10 C        4.2120     1.0950    -1.3030 C.3   1 <1>   0.2090 
 11 C        4.5830     2.4340     0.7810 C.3   1 <1>   0.2090 
 12 C       -1.0720    -3.0840     0.1050 C.ar  1 <1>  -0.1430 
 13 N        5.1570     1.8980    -0.4840 N.pl3 1 <1>  -0.8380 
 14 C       -2.2890    -3.7950    -0.4600 C.3   1 <1>  -0.0970 
 15 C        6.1150     2.6400    -1.1550 C.ar  1 <1>   0.4100 
 16 N        5.9990     3.9550    -1.0890 N.ar  1 <1>  -0.6200 
 17 C        7.1410     2.0070    -1.8720 C.ar  1 <1>   0.1600 
 18 C        6.9410     4.6240    -1.7770 C.ar  1 <1>   0.3960 
 19 N        8.0760     2.6270    -2.5620 N.ar  1 <1>  -0.6200 
 20 C        6.9640     6.0900    -1.8140 C.2   1 <1>   0.5440 
 21 C        7.9350     3.9430    -2.4900 C.ar  1 <1>   0.1600 
 22 O        7.4420     6.6430    -2.7910 O.2   1 <1>  -0.5700 
 23 N        6.5000     6.9070    -0.7970 N.am  1 <1>  -0.6600 
 24 C        6.6340     8.3810    -0.8320 C.3   1 <1>   0.1400 
 25 C        5.9740     6.4610     0.5140 C.3   1 <1>   0.1400 
 26 C        6.5350     8.8120     0.6250 C.3   1 <1>  -0.1600 
 27 C        5.6680     7.7430     1.2820 C.3   1 <1>  -0.1600 
 28 H        2.1700     1.0000     0.6500 H     1 <1>   0.0800 
 29 H        1.3610    -3.4800     2.4170 H     1 <1>   0.1500 
 30 H        0.6660    -0.2220    -0.2540 H     1 <1>   0.1500 
 31 H        2.9620    -0.6230    -1.0430 H     1 <1>   0.0800 
 32 H        4.5060    -0.7370    -0.2490 H     1 <1>   0.0800 
 33 H        4.8900     0.6690     1.9390 H     1 <1>   0.0800 
 34 H        3.5800     1.6650     2.5110 H     1 <1>   0.0800 
 35 H       -0.6080    -4.6380     1.5040 H     1 <1>   0.1500 
 36 H       -1.2790    -1.3730    -1.1590 H     1 <1>   0.1500 
 37 H        3.3950     1.7230    -1.6160 H     1 <1>   0.0800 
 38 H        4.7070     0.7220    -2.1840 H     1 <1>   0.0800 
 39 H        5.3420     2.9690     1.3260 H     1 <1>   0.0800 
 40 H        3.7860     3.1190     0.5470 H     1 <1>   0.0800 
 41 H       -2.1590    -4.8610    -0.4070 H     1 <1>   0.0800 
 42 H       -2.4400    -3.5230    -1.4890 H     1 <1>   0.0800 
 43 H       -3.1630    -3.5230     0.1040 H     1 <1>   0.0800 
 44 H        7.1640     0.9340    -1.8520 H     1 <1>   0.1500 
 45 H        8.6570     4.5300    -3.0310 H     1 <1>   0.1500 
 46 H        5.8210     8.7900    -1.4070 H     1 <1>   0.0800 
 47 H        7.5720     8.6770    -1.2700 H     1 <1>   0.0800 
 48 H        6.7270     5.8820     1.0220 H     1 <1>   0.0800 
 49 H        5.0820     5.8700     0.3880 H     1 <1>   0.0800 
 50 H        6.1170     9.7990     0.7220 H     1 <1>   0.0800 
 51 H        7.5200     8.8030     1.0590 H     1 <1>   0.0800 
 52 H        5.8720     7.6370     2.3330 H     1 <1>   0.0800 
 53 H        4.6280     7.9860     1.1510 H     1 <1>   0.0800 
@<TRIPOS>BOND
  1   1   2  1   
  2   1   3  1   
  3   2   4  ar  
  4   2   5  ar  
  5   3   6  1   
  6   3   7  1   
  7   3  28  1   
  8   4   8  ar  
  9   4  29  1   
 10   5   9  ar  
 11   5  30  1   
 12   6  10  1   
 13   6  31  1   
 14   6  32  1   
 15   7  11  1   
 16   7  33  1   
 17   7  34  1   
 18   8  12  ar  
 19   8  35  1   
 20   9  12  ar  
 21   9  36  1   
 22  10  13  1   
 23  10  37  1   
 24  10  38  1   
 25  11  13  1   
 26  11  39  1   
 27  11  40  1   
 28  12  14  1   
 29  13  15  1   
 30  14  41  1   
 31  14  42  1   
 32  14  43  1   
 33  15  16  ar  
 34  15  17  ar  
 35  16  18  ar  
 36  17  19  ar  
 37  17  44  1   
 38  18  20  1   
 39  18  21  ar  
 40  19  21  ar  
 41  20  22  2   
 42  20  23  am  
 43  21  45  1   
 44  23  24  1   
 45  23  25  1   
 46  24  26  1   
 47  24  46  1   
 48  24  47  1   
 49  25  27  1   
 50  25  48  1   
 51  25  49  1   
 52  26  27  1   
 53  26  50  1   
 54  26  51  1   
 55  27  52  1   
 56  27  53  1   
@<TRIPOS>SUBSTRUCTURE
  1 ****  13 GROUP 4 **** **** 0

# MOE 2024.06 (io_trps.svl 2023.06)
