@<TRIPOS>MOLECULE
NONAME
46 47 1 0 0 
SMALL
USER_CHARGES


@<TRIPOS>ATOM
  1 S        1.0460    -0.5520    -0.8190 S.o2  1 <1>   1.3330 
  2 O        2.2870    -1.0000    -0.2260 O.2   1 <1>  -0.6500 
  3 O        0.7180    -0.9500    -2.1690 O.2   1 <1>  -0.6500 
  4 N       -0.2280    -1.0880     0.1710 N.am  1 <1>  -0.8490 
  5 C        0.9430     1.2420    -0.6960 C.3   1 <1>  -0.0550 
  6 C       -1.5310    -1.0900    -0.5030 C.3   1 <1>   0.1160 
  7 C        0.0340    -2.4130     0.7420 C.3   1 <1>   0.1160 
  8 C        1.5520     1.9130     0.5560 C.3   1 <1>  -0.0800 
  9 C        3.0780     1.8030     0.6220 C.3   1 <1>   0.2200 
 10 C        1.0870     1.3960     1.9230 C.3   1 <1>   0.1200 
 11 N        3.6660     3.1610     0.5760 N.am  1 <1>  -0.7300 
 12 C        3.3220     1.1580     1.9840 C.3   1 <1>   0.1200 
 13 O        2.2050     1.4910     2.7440 O.3   1 <1>  -0.5600 
 14 C        3.9240     3.8540    -0.5730 C.2   1 <1>   0.5440 
 15 O        3.6350     3.3290    -1.6310 O.2   1 <1>  -0.5700 
 16 C        4.5180     5.1780    -0.5290 C.ar  1 <1>   0.0860 
 17 C        5.3030     5.6420    -1.5850 C.ar  1 <1>  -0.1500 
 18 C        4.3330     6.0390     0.5570 C.ar  1 <1>  -0.1500 
 19 C        5.8810     6.8950    -1.5460 C.ar  1 <1>   0.0820 
 20 C        4.9090     7.2980     0.6010 C.ar  1 <1>  -0.1500 
 21 O        6.6370     7.3110    -2.5760 O.3   1 <1>  -0.5330 
 22 C        5.6960     7.7410    -0.4560 C.ar  1 <1>   0.0820 
 23 O        6.3000     8.9600    -0.4940 O.3   1 <1>  -0.3620 
 24 C        6.1540     9.8860     0.5610 C.3   1 <1>   0.0400 
 25 H        1.4430     1.6600    -1.5490 H     1 <1>   0.0800 
 26 H       -0.0850     1.5330    -0.7720 H     1 <1>   0.0800 
 27 H       -2.3090    -1.3440     0.1970 H     1 <1>   0.0800 
 28 H       -1.5380    -1.8060    -1.3090 H     1 <1>   0.0800 
 29 H       -1.7440    -0.1160    -0.9080 H     1 <1>   0.0800 
 30 H       -0.7860    -2.7200     1.3680 H     1 <1>   0.0800 
 31 H        0.9250    -2.3860     1.3470 H     1 <1>   0.0800 
 32 H        0.1720    -3.1380    -0.0430 H     1 <1>   0.0800 
 33 H        1.2790     2.9520     0.5090 H     1 <1>   0.0800 
 34 H        3.5000     1.2010    -0.1670 H     1 <1>   0.0800 
 35 H        0.7960     0.3630     1.9070 H     1 <1>   0.0800 
 36 H        0.2940     1.9910     2.3410 H     1 <1>   0.0800 
 37 H        3.8420     3.5800     1.4890 H     1 <1>   0.3700 
 38 H        4.2130     1.5140     2.4680 H     1 <1>   0.0800 
 39 H        3.3540     0.0860     1.8960 H     1 <1>   0.0800 
 40 H        5.4630     5.0160    -2.4450 H     1 <1>   0.1500 
 41 H        3.7200     5.7230     1.3820 H     1 <1>   0.1500 
 42 H        4.7340     7.9170     1.4610 H     1 <1>   0.1500 
 43 H        6.9630     8.2150    -2.3950 H     1 <1>   0.4500 
 44 H        6.7110    10.7710     0.3100 H     1 <1>   0.0800 
 45 H        6.5450     9.4530     1.4640 H     1 <1>   0.0800 
 46 H        5.1120    10.1300     0.6690 H     1 <1>   0.0800 
@<TRIPOS>BOND
  1   1   2  2   
  2   1   3  2   
  3   1   4  am  
  4   1   5  1   
  5   4   6  1   
  6   4   7  1   
  7   5   8  1   
  8   5  25  1   
  9   5  26  1   
 10   6  27  1   
 11   6  28  1   
 12   6  29  1   
 13   7  30  1   
 14   7  31  1   
 15   7  32  1   
 16   8   9  1   
 17   8  10  1   
 18   8  33  1   
 19   9  11  1   
 20   9  12  1   
 21   9  34  1   
 22  10  13  1   
 23  10  35  1   
 24  10  36  1   
 25  11  14  am  
 26  11  37  1   
 27  12  13  1   
 28  12  38  1   
 29  12  39  1   
 30  14  15  2   
 31  14  16  1   
 32  16  17  ar  
 33  16  18  ar  
 34  17  19  ar  
 35  17  40  1   
 36  18  20  ar  
 37  18  41  1   
 38  19  21  1   
 39  19  22  ar  
 40  20  22  ar  
 41  20  42  1   
 42  21  43  1   
 43  22  23  1   
 44  23  24  1   
 45  24  44  1   
 46  24  45  1   
 47  24  46  1   
@<TRIPOS>SUBSTRUCTURE
  1 ****  11 GROUP 4 **** **** 0

# MOE 2024.06 (io_trps.svl 2023.06)
