@<TRIPOS>MOLECULE
NONAME
52 54 1 0 0 
SMALL
USER_CHARGES


@<TRIPOS>ATOM
  1 O        3.5630    -1.6050    -1.0690 O.2   1 <1>  -0.5700 
  2 C        2.5360    -1.7360    -0.4410 C.2   1 <1>   0.5690 
  3 N        1.6270    -0.7200    -0.3300 N.am  1 <1>  -0.4940 
  4 C        2.2050    -3.0800     0.2580 C.3   1 <1>   0.2050 
  5 C        1.6690     0.5890    -0.8140 C.2   1 <1>   0.2040 
  6 C        0.6760    -3.1790     0.4650 C.ar  1 <1>  -0.1440 
  7 C        2.9950    -3.2030     1.5740 C.3   1 <1>  -0.1600 
  8 C        2.7420    -4.2940    -0.5300 C.3   1 <1>  -0.1600 
  9 O        0.5650     1.1030    -1.2990 O.3   1 <1>  -0.0190 
 10 C        2.6280     1.5370    -0.8940 C.2   1 <1>  -0.1810 
 11 C       -0.1400    -3.5800    -0.5890 C.ar  1 <1>  -0.1500 
 12 C        0.0700    -2.8330     1.6700 C.ar  1 <1>  -0.1500 
 13 C        4.3880    -3.7010     1.1890 C.3   1 <1>  -0.1600 
 14 C        4.1970    -4.5110    -0.0940 C.3   1 <1>  -0.1600 
 15 N        0.7350     2.3270    -1.7210 N.2   1 <1>  -0.4100 
 16 C        1.9670     2.6100    -1.4960 C.2   1 <1>   0.1080 
 17 C        4.0800     1.5090    -0.4340 C.3   1 <1>   0.0210 
 18 C       -1.5150    -3.6510    -0.4490 C.ar  1 <1>   0.0830 
 19 C       -1.3050    -2.8840     1.8150 C.ar  1 <1>  -0.1500 
 20 C        2.5730     3.9500    -1.8550 C.3   1 <1>  -0.0590 
 21 C        4.2870     2.4010     0.7920 C.3   1 <1>  -0.2400 
 22 O       -2.2270    -4.0910    -1.5150 O.3   1 <1>  -0.3630 
 23 C       -2.1080    -3.2740     0.7590 C.ar  1 <1>   0.0830 
 24 C       -2.9080    -5.3150    -1.3510 C.3   1 <1>   0.0400 
 25 O       -3.4490    -3.2590     0.9530 O.3   1 <1>  -0.3630 
 26 C       -4.1810    -2.3250     0.1890 C.3   1 <1>   0.0400 
 27 H        0.7060    -1.0160     0.0000 H     1 <1>   0.3700 
 28 H        2.5360    -3.9490     2.1990 H     1 <1>   0.0800 
 29 H        3.0420    -2.2720     2.1110 H     1 <1>   0.0800 
 30 H        2.6710    -4.1460    -1.5940 H     1 <1>   0.0800 
 31 H        2.1750    -5.1700    -0.2650 H     1 <1>   0.0800 
 32 H        0.2780    -3.8450    -1.5440 H     1 <1>   0.1500 
 33 H        0.6520    -2.5110     2.5160 H     1 <1>   0.1500 
 34 H        4.8280    -4.2920     1.9740 H     1 <1>   0.0800 
 35 H        5.0290    -2.8590     0.9850 H     1 <1>   0.0800 
 36 H        4.8710    -4.1510    -0.8540 H     1 <1>   0.0800 
 37 H        4.3890    -5.5570     0.0740 H     1 <1>   0.0800 
 38 H        4.7200     1.8260    -1.2380 H     1 <1>   0.0800 
 39 H        4.3660     0.5090    -0.1710 H     1 <1>   0.0800 
 40 H       -1.7660    -2.6130     2.7480 H     1 <1>   0.1500 
 41 H        3.5880     3.8270    -2.1830 H     1 <1>   0.0800 
 42 H        2.5490     4.5990    -1.0000 H     1 <1>   0.0800 
 43 H        2.0080     4.4030    -2.6490 H     1 <1>   0.0800 
 44 H        4.0700     3.4270     0.5610 H     1 <1>   0.0800 
 45 H        5.3070     2.3330     1.1260 H     1 <1>   0.0800 
 46 H        3.6410     2.0820     1.5910 H     1 <1>   0.0800 
 47 H       -3.3330    -5.5930    -2.2990 H     1 <1>   0.0800 
 48 H       -3.6890    -5.1950    -0.6220 H     1 <1>   0.0800 
 49 H       -2.2060    -6.0630    -1.0280 H     1 <1>   0.0800 
 50 H       -5.2040    -2.3500     0.5180 H     1 <1>   0.0800 
 51 H       -4.1250    -2.5910    -0.8510 H     1 <1>   0.0800 
 52 H       -3.7660    -1.3450     0.3470 H     1 <1>   0.0800 
@<TRIPOS>BOND
  1   1   2  2   
  2   2   3  am  
  3   2   4  1   
  4   3   5  1   
  5   3  27  1   
  6   4   6  1   
  7   4   7  1   
  8   4   8  1   
  9   5   9  1   
 10   5  10  2   
 11   6  11  ar  
 12   6  12  ar  
 13   7  13  1   
 14   7  28  1   
 15   7  29  1   
 16   8  14  1   
 17   8  30  1   
 18   8  31  1   
 19   9  15  1   
 20  10  16  1   
 21  10  17  1   
 22  11  18  ar  
 23  11  32  1   
 24  12  19  ar  
 25  12  33  1   
 26  13  14  1   
 27  13  34  1   
 28  13  35  1   
 29  14  36  1   
 30  14  37  1   
 31  15  16  2   
 32  16  20  1   
 33  17  21  1   
 34  17  38  1   
 35  17  39  1   
 36  18  22  1   
 37  18  23  ar  
 38  19  23  ar  
 39  19  40  1   
 40  20  41  1   
 41  20  42  1   
 42  20  43  1   
 43  21  44  1   
 44  21  45  1   
 45  21  46  1   
 46  22  24  1   
 47  23  25  1   
 48  24  47  1   
 49  24  48  1   
 50  24  49  1   
 51  25  26  1   
 52  26  50  1   
 53  26  51  1   
 54  26  52  1   
@<TRIPOS>SUBSTRUCTURE
  1 ****   3 GROUP 4 **** **** 0

# MOE 2024.06 (io_trps.svl 2023.06)
