@<TRIPOS>MOLECULE
NONAME
58 62 1 0 0 
SMALL
USER_CHARGES


@<TRIPOS>ATOM
  1 O        0.3020    -0.1010     1.1310 O.2   1 <1>  -0.5700 
  2 C       -0.5660     0.1530     0.3180 C.2   1 <1>   0.7160 
  3 N       -1.1580    -0.8790    -0.3380 N.am  1 <1>  -0.7300 
  4 C       -0.9870     1.4970     0.0570 C.2   1 <1>  -0.0860 
  5 C       -0.9740    -2.3120    -0.0770 C.3   1 <1>   0.2200 
  6 C       -2.1950     1.8740    -0.5490 C.2   1 <1>   0.3720 
  7 C       -0.3860     2.6920     0.3150 C.2   1 <1>   0.0870 
  8 C       -1.0420    -3.0660    -1.4060 C.3   1 <1>  -0.1600 
  9 C       -2.0640    -2.7790     0.8880 C.3   1 <1>  -0.1600 
 10 N       -2.2930     3.1530    -0.6370 N.2   1 <1>  -0.4100 
 11 N       -3.2010     0.9960    -0.9880 N.pl3 1 <1>  -0.8210 
 12 O       -1.1980     3.6260    -0.1100 O.3   1 <1>  -0.0190 
 13 C        0.8730     3.0740     0.9070 C.ar  1 <1>   0.0530 
 14 C       -0.9930    -4.5780    -1.1840 C.3   1 <1>   0.2090 
 15 C       -1.9850    -4.2900     1.0950 C.3   1 <1>   0.2090 
 16 C       -3.9570     1.4230    -2.2140 C.3   1 <1>   0.2090 
 17 C       -4.1300     0.5390     0.0960 C.3   1 <1>   0.2090 
 18 C        0.9580     4.2050     1.7200 C.ar  1 <1>  -0.1500 
 19 C        2.0480     2.3570     0.6830 C.ar  1 <1>  -0.1500 
 20 N       -2.0700    -4.9580    -0.2300 N.pl3 1 <1>  -0.8380 
 21 C       -5.1670     2.3210    -1.8840 C.3   1 <1>   0.1200 
 22 C       -5.3050     1.5140     0.3010 C.3   1 <1>   0.1200 
 23 C        2.1550     4.5990     2.2880 C.ar  1 <1>  -0.1500 
 24 C        3.2490     2.7440     1.2490 C.ar  1 <1>  -0.1500 
 25 C       -3.1250    -5.7720    -0.5890 C.ar  1 <1>   0.7200 
 26 O       -5.9770     1.7330    -0.9050 O.3   1 <1>  -0.5600 
 27 C        3.3050     3.8670     2.0540 C.ar  1 <1>  -0.1500 
 28 N       -2.9340    -6.5940    -1.6210 N.ar  1 <1>  -0.6200 
 29 N       -4.2470    -5.6650     0.1230 N.ar  1 <1>  -0.6200 
 30 C       -3.9420    -7.3640    -1.9490 C.ar  1 <1>   0.1600 
 31 C       -5.2380    -6.4460    -0.2280 C.ar  1 <1>   0.1600 
 32 C       -5.1360    -7.3300    -1.2740 C.ar  1 <1>  -0.1500 
 33 H       -1.9760    -0.6200    -0.9050 H     1 <1>   0.3700 
 34 H       -0.0070    -2.4750     0.3730 H     1 <1>   0.0800 
 35 H       -0.2160    -2.7750    -2.0290 H     1 <1>   0.0800 
 36 H       -1.9580    -2.8310    -1.9180 H     1 <1>   0.0800 
 37 H       -3.0370    -2.5430     0.4970 H     1 <1>   0.0800 
 38 H       -1.9410    -2.2880     1.8360 H     1 <1>   0.0800 
 39 H       -0.0410    -4.8640    -0.7700 H     1 <1>   0.0800 
 40 H       -1.1070    -5.0780    -2.1300 H     1 <1>   0.0800 
 41 H       -2.7730    -4.6140     1.7530 H     1 <1>   0.0800 
 42 H       -1.0480    -4.5490     1.5580 H     1 <1>   0.0800 
 43 H       -4.3070     0.5470    -2.7310 H     1 <1>   0.0800 
 44 H       -3.2970     1.9510    -2.8800 H     1 <1>   0.0800 
 45 H       -3.5900     0.4390     1.0220 H     1 <1>   0.0800 
 46 H       -4.5220    -0.4300    -0.1600 H     1 <1>   0.0800 
 47 H        0.0700     4.7830     1.9090 H     1 <1>   0.1500 
 48 H        2.0240     1.4830     0.0580 H     1 <1>   0.1500 
 49 H       -5.7690     2.4680    -2.7630 H     1 <1>   0.0800 
 50 H       -4.8400     3.2830    -1.5290 H     1 <1>   0.0800 
 51 H       -4.9510     2.4580     0.6780 H     1 <1>   0.0800 
 52 H       -6.0100     1.1020     1.0000 H     1 <1>   0.0800 
 53 H        2.1940     5.4750     2.9120 H     1 <1>   0.1500 
 54 H        4.1400     2.1700     1.0650 H     1 <1>   0.1500 
 55 H        4.2390     4.1700     2.4960 H     1 <1>   0.1500 
 56 H       -3.8110    -8.0400    -2.7770 H     1 <1>   0.1500 
 57 H       -6.1550    -6.3800     0.3320 H     1 <1>   0.1500 
 58 H       -5.9550    -7.9660    -1.5520 H     1 <1>   0.1500 
@<TRIPOS>BOND
  1   1   2  2   
  2   2   3  am  
  3   2   4  1   
  4   3   5  1   
  5   3  33  1   
  6   4   6  1   
  7   4   7  2   
  8   5   8  1   
  9   5   9  1   
 10   5  34  1   
 11   6  10  2   
 12   6  11  1   
 13   7  12  1   
 14   7  13  1   
 15   8  14  1   
 16   8  35  1   
 17   8  36  1   
 18   9  15  1   
 19   9  37  1   
 20   9  38  1   
 21  10  12  1   
 22  11  16  1   
 23  11  17  1   
 24  13  18  ar  
 25  13  19  ar  
 26  14  20  1   
 27  14  39  1   
 28  14  40  1   
 29  15  20  1   
 30  15  41  1   
 31  15  42  1   
 32  16  21  1   
 33  16  43  1   
 34  16  44  1   
 35  17  22  1   
 36  17  45  1   
 37  17  46  1   
 38  18  23  ar  
 39  18  47  1   
 40  19  24  ar  
 41  19  48  1   
 42  20  25  1   
 43  21  26  1   
 44  21  49  1   
 45  21  50  1   
 46  22  26  1   
 47  22  51  1   
 48  22  52  1   
 49  23  27  ar  
 50  23  53  1   
 51  24  27  ar  
 52  24  54  1   
 53  25  28  ar  
 54  25  29  ar  
 55  27  55  1   
 56  28  30  ar  
 57  29  31  ar  
 58  30  32  ar  
 59  30  56  1   
 60  31  32  ar  
 61  31  57  1   
 62  32  58  1   
@<TRIPOS>SUBSTRUCTURE
  1 ****   3 GROUP 4 **** **** 0

# MOE 2024.06 (io_trps.svl 2023.06)
