@<TRIPOS>MOLECULE
NONAME
37 38 1 0 0 
SMALL
USER_CHARGES


@<TRIPOS>ATOM
  1 CL      -1.7260    -1.8440     2.6790 Cl    1 <1>  -0.1770 
  2 C       -1.2060    -2.7460     1.2710 C.ar  1 <1>   0.1770 
  3 C        0.1450    -2.9750     1.0290 C.ar  1 <1>   0.0830 
  4 C       -2.1720    -3.2280     0.4080 C.ar  1 <1>  -0.1500 
  5 O        1.1190    -2.5150     1.8450 O.3   1 <1>  -0.3630 
  6 C        0.5110    -3.7160    -0.0810 C.ar  1 <1>  -0.1500 
  7 C       -1.8150    -3.9590    -0.7210 C.ar  1 <1>  -0.0090 
  8 C        1.4260    -1.1420     1.7570 C.3   1 <1>   0.0400 
  9 C       -0.4610    -4.1960    -0.9450 C.ar  1 <1>  -0.1500 
 10 S       -3.0730    -4.5560    -1.8850 S.o2  1 <1>   1.4470 
 11 O       -2.5710    -5.7020    -2.6140 O.2   1 <1>  -0.6500 
 12 O       -3.5660    -3.4220    -2.6370 O.2   1 <1>  -0.6500 
 13 N       -4.3260    -5.0880    -0.8800 N.am  1 <1>  -0.8490 
 14 C       -3.9680    -6.2630    -0.0510 C.3   1 <1>   0.1960 
 15 C       -5.6090    -5.2230    -1.5610 C.3   1 <1>   0.1960 
 16 C       -5.1810    -7.0820     0.4000 C.3   1 <1>  -0.1860 
 17 C       -6.7480    -5.3290    -0.5330 C.3   1 <1>  -0.1600 
 18 C       -4.8000    -7.9250     1.5880 C.2   1 <1>   0.9060 
 19 C       -6.4040    -6.2080     0.6800 C.3   1 <1>   0.2000 
 20 O       -4.6130    -9.1300     1.4140 O.co2 1 <1>  -0.9000 
 21 O       -4.6740    -7.3790     2.6910 O.co2 1 <1>  -0.9000 
 22 O       -6.1300    -5.3910     1.7600 O.3   1 <1>  -0.6800 
 23 H       -3.2110    -3.0380     0.6180 H     1 <1>   0.1500 
 24 H        1.5520    -3.9130    -0.2650 H     1 <1>   0.1500 
 25 H        2.2450    -0.9380     2.4230 H     1 <1>   0.0800 
 26 H        0.5670    -0.5650     2.0490 H     1 <1>   0.0800 
 27 H        1.7060    -0.9110     0.7450 H     1 <1>   0.0800 
 28 H       -0.1650    -4.7670    -1.8090 H     1 <1>   0.1500 
 29 H       -3.3050    -6.9240    -0.5860 H     1 <1>   0.0800 
 30 H       -3.4420    -5.9090     0.8210 H     1 <1>   0.0800 
 31 H       -5.7940    -4.3680    -2.1890 H     1 <1>   0.0800 
 32 H       -5.5860    -6.1000    -2.1880 H     1 <1>   0.0800 
 33 H       -5.4340    -7.7660    -0.3870 H     1 <1>   0.0800 
 34 H       -7.6000    -5.7510    -1.0320 H     1 <1>   0.0800 
 35 H       -7.0250    -4.3440    -0.2030 H     1 <1>   0.0800 
 36 H       -7.2430    -6.8230     0.9570 H     1 <1>   0.0800 
 37 H       -5.5900    -5.9480     2.3950 H     1 <1>   0.4000 
@<TRIPOS>BOND
  1   1   2  1   
  2   2   3  ar  
  3   2   4  ar  
  4   3   5  1   
  5   3   6  ar  
  6   4   7  ar  
  7   4  23  1   
  8   5   8  1   
  9   6   9  ar  
 10   6  24  1   
 11   7   9  ar  
 12   7  10  1   
 13   8  25  1   
 14   8  26  1   
 15   8  27  1   
 16   9  28  1   
 17  10  11  2   
 18  10  12  2   
 19  10  13  am  
 20  13  14  1   
 21  13  15  1   
 22  14  16  1   
 23  14  29  1   
 24  14  30  1   
 25  15  17  1   
 26  15  31  1   
 27  15  32  1   
 28  16  18  1   
 29  16  19  1   
 30  16  33  1   
 31  17  19  1   
 32  17  34  1   
 33  17  35  1   
 34  18  20  ar  
 35  18  21  ar  
 36  19  22  1   
 37  19  36  1   
 38  22  37  1   
@<TRIPOS>SUBSTRUCTURE
  1 ****   7 GROUP 4 **** **** 0

# MOE 2024.06 (io_trps.svl 2023.06)
