@<TRIPOS>MOLECULE
NONAME
56 61 1 0 0 
SMALL
USER_CHARGES


@<TRIPOS>ATOM
  1 O        0.2700     0.6310    -0.5520 O.2   1 <1>  -0.5700 
  2 C       -0.5150     1.4460    -1.0000 C.2   1 <1>   0.7150 
  3 N       -1.8660     1.2600    -0.7940 N.am  1 <1>  -0.6600 
  4 C       -0.0240     2.5830    -1.7250 C.2   1 <1>  -0.2370 
  5 C       -2.9020     2.3080    -1.0600 C.3   1 <1>   0.1400 
  6 C       -2.4060     0.0350    -0.1370 C.3   1 <1>   0.1400 
  7 N        0.8890     3.4640    -1.2070 N.pl3 1 <1>   0.2940 
  8 C       -0.3430     3.0030    -2.9920 C.2   1 <1>  -0.1500 
  9 C       -3.6030     2.7330     0.2430 C.3   1 <1>   0.1440 
 10 C       -3.1060     0.4120     1.1750 C.3   1 <1>  -0.1600 
 11 C        1.1050     4.4270    -2.1380 C.2   1 <1>  -0.3020 
 12 C        1.4910     3.4450     0.1500 C.3   1 <1>  -0.0910 
 13 C        0.3680     4.1690    -3.2510 C.2   1 <1>  -0.1500 
 14 C       -4.6650     3.7600    -0.1030 C.ar  1 <1>   0.1660 
 15 C       -4.1820     1.4920     0.9570 C.3   1 <1>  -0.1600 
 16 C       -2.6500     3.5430     1.1630 C.3   1 <1>  -0.1600 
 17 C        2.8950     3.9330     0.3660 C.3   1 <1>  -0.2000 
 18 C        2.5900     2.4720     0.4540 C.3   1 <1>  -0.2000 
 19 N       -5.8160     3.5020    -0.6770 N.ar  1 <1>  -0.6200 
 20 C       -4.2740     5.0180     0.2390 C.ar  1 <1>  -0.1440 
 21 C       -2.9000     5.0310     0.8620 C.3   1 <1>  -0.0170 
 22 C       -6.6080     4.5600    -0.9000 C.ar  1 <1>   0.6200 
 23 C       -5.1370     6.0480    -0.0260 C.ar  1 <1>   0.1600 
 24 N       -6.3030     5.8290    -0.5910 N.ar  1 <1>  -0.6200 
 25 C       -7.8990     4.3100    -1.5290 C.ar  1 <1>   0.0000 
 26 C       -8.1060     3.2150    -2.3730 C.ar  1 <1>  -0.1500 
 27 C       -8.9940     5.1550    -1.3170 C.ar  1 <1>  -0.1500 
 28 C       -9.3300     2.9750    -2.9710 C.ar  1 <1>  -0.1500 
 29 C      -10.2210     4.9220    -1.9120 C.ar  1 <1>  -0.1500 
 30 C      -10.3920     3.8300    -2.7420 C.ar  1 <1>  -0.1500 
 31 H       -3.6330     1.9050    -1.7400 H     1 <1>   0.0800 
 32 H       -2.4720     3.1760    -1.5230 H     1 <1>   0.0800 
 33 H       -1.6200    -0.6740     0.0630 H     1 <1>   0.0800 
 34 H       -3.1090    -0.4340    -0.8040 H     1 <1>   0.0800 
 35 H       -1.0220     2.5250    -3.6790 H     1 <1>   0.1500 
 36 H       -2.3660     0.7590     1.8740 H     1 <1>   0.0800 
 37 H       -3.5610    -0.4680     1.5950 H     1 <1>   0.0800 
 38 H        1.7760     5.2480    -1.9640 H     1 <1>   0.1500 
 39 H        0.7590     3.6340     0.9140 H     1 <1>   0.1000 
 40 H        0.3260     4.7410    -4.1630 H     1 <1>   0.1500 
 41 H       -4.9680     1.0770     0.3500 H     1 <1>   0.0800 
 42 H       -4.6200     1.7750     1.8980 H     1 <1>   0.0800 
 43 H       -1.6180     3.2760     1.0300 H     1 <1>   0.0800 
 44 H       -2.9120     3.3650     2.1920 H     1 <1>   0.0800 
 45 H        3.1370     4.4500     1.2790 H     1 <1>   0.1000 
 46 H        3.4840     4.2710    -0.4690 H     1 <1>   0.1000 
 47 H        2.9130     1.8120    -0.3330 H     1 <1>   0.1000 
 48 H        2.6010     1.9950     1.4190 H     1 <1>   0.1000 
 49 H       -2.1820     5.4000     0.1510 H     1 <1>   0.0800 
 50 H       -2.8720     5.6270     1.7580 H     1 <1>   0.0800 
 51 H       -4.8720     7.0610     0.2260 H     1 <1>   0.1500 
 52 H       -7.2920     2.5380    -2.5660 H     1 <1>   0.1500 
 53 H       -8.8810     6.0100    -0.6740 H     1 <1>   0.1500 
 54 H       -9.4560     2.1230    -3.6160 H     1 <1>   0.1500 
 55 H      -11.0430     5.5920    -1.7280 H     1 <1>   0.1500 
 56 H      -11.3450     3.6460    -3.2050 H     1 <1>   0.1500 
@<TRIPOS>BOND
  1   1   2  2   
  2   2   3  am  
  3   2   4  1   
  4   3   5  1   
  5   3   6  1   
  6   4   7  1   
  7   4   8  2   
  8   5   9  1   
  9   5  31  1   
 10   5  32  1   
 11   6  10  1   
 12   6  33  1   
 13   6  34  1   
 14   7  11  1   
 15   7  12  1   
 16   8  13  1   
 17   8  35  1   
 18   9  14  1   
 19   9  15  1   
 20   9  16  1   
 21  10  15  1   
 22  10  36  1   
 23  10  37  1   
 24  11  13  2   
 25  11  38  1   
 26  12  17  1   
 27  12  18  1   
 28  12  39  1   
 29  13  40  1   
 30  14  19  ar  
 31  14  20  ar  
 32  15  41  1   
 33  15  42  1   
 34  16  21  1   
 35  16  43  1   
 36  16  44  1   
 37  17  18  1   
 38  17  45  1   
 39  17  46  1   
 40  18  47  1   
 41  18  48  1   
 42  19  22  ar  
 43  20  21  1   
 44  20  23  ar  
 45  21  49  1   
 46  21  50  1   
 47  22  24  ar  
 48  22  25  1   
 49  23  24  ar  
 50  23  51  1   
 51  25  26  ar  
 52  25  27  ar  
 53  26  28  ar  
 54  26  52  1   
 55  27  29  ar  
 56  27  53  1   
 57  28  30  ar  
 58  28  54  1   
 59  29  30  ar  
 60  29  55  1   
 61  30  56  1   
@<TRIPOS>SUBSTRUCTURE
  1 ****   5 GROUP 4 **** **** 0

# MOE 2024.06 (io_trps.svl 2023.06)
