@<TRIPOS>MOLECULE
NONAME
43 44 1 0 0 
SMALL
USER_CHARGES


@<TRIPOS>ATOM
  1 O       -0.6770    -0.1450    -1.2520 O.2   1 <1>  -0.5700 
  2 C       -1.6590     0.3880    -0.7680 C.2   1 <1>   0.5440 
  3 N       -1.4990     1.5780    -0.0810 N.am  1 <1>  -0.6600 
  4 C       -2.9460    -0.2480    -0.9180 C.ar  1 <1>   0.0860 
  5 C       -0.2270     2.3490    -0.1580 C.3   1 <1>   0.0600 
  6 C       -2.4640     2.0800     0.9350 C.3   1 <1>   0.0600 
  7 C       -3.0830    -1.6170    -0.7060 C.ar  1 <1>   0.1600 
  8 C       -4.0960     0.4470    -1.2820 C.ar  1 <1>  -0.1500 
  9 N       -4.2070    -2.3070    -0.7890 N.ar  1 <1>  -0.6200 
 10 C       -5.2720    -0.2560    -1.3800 C.ar  1 <1>  -0.1500 
 11 C       -5.2940    -1.6240    -1.1230 C.ar  1 <1>   0.4100 
 12 N       -6.4760    -2.3110    -1.2080 N.pl3 1 <1>  -0.8690 
 13 C       -6.6100    -3.7860    -1.0660 C.3   1 <1>   0.2090 
 14 C       -6.8730    -4.1470     0.3920 C.3   1 <1>  -0.0170 
 15 C       -7.1460    -5.6300     0.5080 C.ar  1 <1>   0.4770 
 16 N       -8.3470    -6.0300     0.1160 N.ar  1 <1>  -0.6200 
 17 N       -6.1640    -6.3780     0.9820 N.ar  1 <1>  -0.6200 
 18 C       -8.5800    -7.3170     0.2160 C.ar  1 <1>   0.1670 
 19 C       -6.4160    -7.6630     1.0740 C.ar  1 <1>   0.1670 
 20 C       -7.6290    -8.1870     0.6970 C.ar  1 <1>  -0.1500 
 21 C       -9.9450    -7.8030    -0.2220 C.3   1 <1>  -0.0970 
 22 C       -5.3080    -8.5410     1.6140 C.3   1 <1>  -0.0970 
 23 H        0.3360     2.0640    -1.0300 H     1 <1>   0.0800 
 24 H        0.3680     2.1530     0.7170 H     1 <1>   0.0800 
 25 H       -0.4390     3.4020    -0.2170 H     1 <1>   0.0800 
 26 H       -3.1900     1.3250     1.1830 H     1 <1>   0.0800 
 27 H       -2.9720     2.9490     0.5540 H     1 <1>   0.0800 
 28 H       -1.9380     2.3480     1.8350 H     1 <1>   0.0800 
 29 H       -2.1950    -2.1690    -0.4470 H     1 <1>   0.1500 
 30 H       -4.0520     1.5030    -1.4820 H     1 <1>   0.1500 
 31 H       -6.1840     0.2370    -1.6550 H     1 <1>   0.1500 
 32 H       -7.3200    -1.8120    -1.4910 H     1 <1>   0.4000 
 33 H       -5.7120    -4.2760    -1.4030 H     1 <1>   0.0800 
 34 H       -7.4260    -4.1260    -1.6800 H     1 <1>   0.0800 
 35 H       -7.7250    -3.6060     0.7550 H     1 <1>   0.0800 
 36 H       -6.0150    -3.8860     0.9840 H     1 <1>   0.0800 
 37 H       -7.8280    -9.2380     0.7760 H     1 <1>   0.1500 
 38 H      -10.7030    -7.3160     0.3630 H     1 <1>   0.0800 
 39 H      -10.0360    -8.8660    -0.0960 H     1 <1>   0.0800 
 40 H      -10.0960    -7.5600    -1.2570 H     1 <1>   0.0800 
 41 H       -5.0470    -8.2190     2.6050 H     1 <1>   0.0800 
 42 H       -4.4420    -8.4520     0.9830 H     1 <1>   0.0800 
 43 H       -5.6110    -9.5700     1.6490 H     1 <1>   0.0800 
@<TRIPOS>BOND
  1   1   2  2   
  2   2   3  am  
  3   2   4  1   
  4   3   5  1   
  5   3   6  1   
  6   4   7  ar  
  7   4   8  ar  
  8   5  23  1   
  9   5  24  1   
 10   5  25  1   
 11   6  26  1   
 12   6  27  1   
 13   6  28  1   
 14   7   9  ar  
 15   7  29  1   
 16   8  10  ar  
 17   8  30  1   
 18   9  11  ar  
 19  10  11  ar  
 20  10  31  1   
 21  11  12  1   
 22  12  13  1   
 23  12  32  1   
 24  13  14  1   
 25  13  33  1   
 26  13  34  1   
 27  14  15  1   
 28  14  35  1   
 29  14  36  1   
 30  15  16  ar  
 31  15  17  ar  
 32  16  18  ar  
 33  17  19  ar  
 34  18  20  ar  
 35  18  21  1   
 36  19  20  ar  
 37  19  22  1   
 38  20  37  1   
 39  21  38  1   
 40  21  39  1   
 41  21  40  1   
 42  22  41  1   
 43  22  42  1   
 44  22  43  1   
@<TRIPOS>SUBSTRUCTURE
  1 ****   9 GROUP 4 **** **** 0

# MOE 2024.06 (io_trps.svl 2023.06)
