@<TRIPOS>MOLECULE
NONAME
46 48 1 0 0 
SMALL
USER_CHARGES


@<TRIPOS>ATOM
  1 O       -0.3570    -0.1520     0.0180 O.co2 1 <1>  -0.9000 
  2 C       -1.2330    -0.5810     0.7750 C.2   1 <1>   0.9060 
  3 O       -0.9930    -0.9690     1.9280 O.co2 1 <1>  -0.9000 
  4 C       -2.6880    -0.6380     0.2820 C.3   1 <1>   0.0040 
  5 N       -3.2750    -1.9640    -0.1310 N.3   1 <1>  -0.8100 
  6 C       -2.9490    -3.0630     0.8450 C.3   1 <1>   0.1900 
  7 C       -2.9420    -2.3030    -1.5260 C.3   1 <1>   0.1100 
  8 C       -1.6130    -3.8320     0.6180 C.3   1 <1>   0.1200 
  9 C       -4.1430    -4.0430     0.9310 C.3   1 <1>   0.3430 
 10 C       -3.3760    -3.7450    -1.9010 C.3   1 <1>  -0.0800 
 11 O       -1.3630    -4.3210    -0.6790 O.3   1 <1>  -0.5600 
 12 N       -5.1730    -3.6850    -0.0980 N.4   1 <1>  -0.9590 
 13 C       -2.3990    -4.8460    -1.4340 C.3   1 <1>   0.1200 
 14 C       -4.8150    -4.1080    -1.4870 C.3   1 <1>   0.3430 
 15 C       -6.5530    -4.0940     0.2940 C.3   1 <1>   0.5240 
 16 C       -6.6350    -5.5850     0.6370 C.2   1 <1>   0.1080 
 17 N       -6.1130    -6.5380    -0.0830 N.2   1 <1>  -0.7070 
 18 C       -7.2740    -6.0840     1.7670 C.2   1 <1>  -0.1500 
 19 N       -6.4130    -7.6790     0.5710 N.pl3 1 <1>   0.3140 
 20 C       -7.1110    -7.4210     1.6930 C.2   1 <1>  -0.3020 
 21 C       -6.0030    -9.0090     0.0740 C.3   1 <1>   0.0960 
 22 C       -4.6320    -9.4090     0.6340 C.3   1 <1>  -0.2400 
 23 H       -2.7710     0.0580    -0.5320 H     1 <1>   0.0800 
 24 H       -3.2790    -0.2490     1.0890 H     1 <1>   0.0800 
 25 H       -2.8700    -2.6240     1.8250 H     1 <1>   0.0800 
 26 H       -3.4430    -1.6010    -2.1700 H     1 <1>   0.0800 
 27 H       -1.8820    -2.1760    -1.6880 H     1 <1>   0.0800 
 28 H       -1.5610    -4.6680     1.2920 H     1 <1>   0.0800 
 29 H       -0.7860    -3.1880     0.8620 H     1 <1>   0.0800 
 30 H       -4.5670    -3.9610     1.9160 H     1 <1>   0.0800 
 31 H       -3.8160    -5.0610     0.8020 H     1 <1>   0.0800 
 32 H       -3.3570    -3.7950    -2.9740 H     1 <1>   0.0800 
 33 H       -5.0570    -2.6520    -0.1230 H     1 <1>   0.4500 
 34 H       -1.9420    -5.3030    -2.2950 H     1 <1>   0.0800 
 35 H       -2.8790    -5.6260    -0.8680 H     1 <1>   0.0800 
 36 H       -4.9490    -5.1720    -1.5910 H     1 <1>   0.0800 
 37 H       -5.4920    -3.6280    -2.1730 H     1 <1>   0.0800 
 38 H       -6.8620    -3.5260     1.1550 H     1 <1>   0.0800 
 39 H       -7.2360    -3.8830    -0.5100 H     1 <1>   0.0800 
 40 H       -7.7860    -5.5220     2.5300 H     1 <1>   0.1500 
 41 H       -7.4490    -8.1910     2.3630 H     1 <1>   0.1500 
 42 H       -6.7470    -9.7280     0.3650 H     1 <1>   0.0800 
 43 H       -5.9660    -8.9720    -0.9990 H     1 <1>   0.0800 
 44 H       -4.6650    -9.4610     1.7080 H     1 <1>   0.0800 
 45 H       -3.8850    -8.6960     0.3330 H     1 <1>   0.0800 
 46 H       -4.3520   -10.3760     0.2550 H     1 <1>   0.0800 
@<TRIPOS>BOND
  1   1   2  ar  
  2   2   3  ar  
  3   2   4  1   
  4   4   5  1   
  5   4  23  1   
  6   4  24  1   
  7   5   6  1   
  8   5   7  1   
  9   6   8  1   
 10   6   9  1   
 11   6  25  1   
 12   7  10  1   
 13   7  26  1   
 14   7  27  1   
 15   8  11  1   
 16   8  28  1   
 17   8  29  1   
 18   9  12  1   
 19   9  30  1   
 20   9  31  1   
 21  10  13  1   
 22  10  14  1   
 23  10  32  1   
 24  11  13  1   
 25  12  14  1   
 26  12  15  1   
 27  12  33  1   
 28  13  34  1   
 29  13  35  1   
 30  14  36  1   
 31  14  37  1   
 32  15  16  1   
 33  15  38  1   
 34  15  39  1   
 35  16  17  2   
 36  16  18  1   
 37  17  19  1   
 38  18  20  2   
 39  18  40  1   
 40  19  20  1   
 41  19  21  1   
 42  20  41  1   
 43  21  22  1   
 44  21  42  1   
 45  21  43  1   
 46  22  44  1   
 47  22  45  1   
 48  22  46  1   
@<TRIPOS>SUBSTRUCTURE
  1 ****   9 GROUP 4 **** **** 0

# MOE 2024.06 (io_trps.svl 2023.06)
