@<TRIPOS>MOLECULE
NONAME
51 53 1 0 0 
SMALL
USER_CHARGES


@<TRIPOS>ATOM
  1 O       -0.9180    -0.0110     0.0440 O.3   1 <1>  -0.3630 
  2 C       -0.5220     1.2700    -0.1900 C.ar  1 <1>   0.0820 
  3 C       -2.0930    -0.5410    -0.5150 C.3   1 <1>   0.1200 
  4 C        0.7290     1.6700     0.2840 C.ar  1 <1>  -0.1440 
  5 C       -1.3210     2.1730    -0.8870 C.ar  1 <1>  -0.1500 
  6 C       -2.1470    -2.0230    -0.1390 C.3   1 <1>   0.3430 
  7 C        1.1760     2.9660     0.0330 C.ar  1 <1>  -0.1440 
  8 C        1.6110     0.6950     1.0660 C.3   1 <1>  -0.0970 
  9 C       -0.8750     3.4580    -1.1220 C.ar  1 <1>  -0.1500 
 10 N       -3.2680    -2.7540    -0.8210 N.4   1 <1>  -0.9590 
 11 C        0.3680     3.8490    -0.6660 C.ar  1 <1>  -0.1500 
 12 C        2.5400     3.4570     0.5010 C.3   1 <1>  -0.0970 
 13 C       -4.6090    -2.3460    -0.2740 C.3   1 <1>   0.3430 
 14 C       -3.1340    -4.2250    -0.5600 C.3   1 <1>   0.3430 
 15 C       -5.0190    -3.4430     0.7130 C.3   1 <1>   0.2000 
 16 C       -4.4550    -4.6980     0.0520 C.3   1 <1>  -0.0800 
 17 O       -4.3630    -3.2080     1.9170 O.3   1 <1>  -0.6800 
 18 C       -4.2890    -5.9350     0.9550 C.3   1 <1>  -0.0170 
 19 C       -3.5790    -7.0420     0.1930 C.ar  1 <1>  -0.1430 
 20 C       -4.2130    -7.7670    -0.7960 C.ar  1 <1>  -0.1500 
 21 C       -2.2620    -7.3730     0.4450 C.ar  1 <1>  -0.1500 
 22 C       -3.5120    -8.7460    -1.4820 C.ar  1 <1>   0.1600 
 23 C       -1.6530    -8.3700    -0.2990 C.ar  1 <1>   0.1600 
 24 N       -2.2450    -9.0530    -1.2630 N.ar  1 <1>  -0.6200 
 25 H       -2.9280    -0.0020    -0.1060 H     1 <1>   0.0800 
 26 H       -2.0340    -0.4180    -1.5820 H     1 <1>   0.0800 
 27 H       -2.2920     1.9080    -1.2560 H     1 <1>   0.1500 
 28 H       -2.2580    -2.1100     0.9310 H     1 <1>   0.0800 
 29 H       -1.2090    -2.4720    -0.4210 H     1 <1>   0.0800 
 30 H        2.0970     1.1930     1.8840 H     1 <1>   0.0800 
 31 H        2.3600     0.2830     0.4140 H     1 <1>   0.0800 
 32 H        1.0420    -0.1130     1.4860 H     1 <1>   0.0800 
 33 H       -1.4910     4.1570    -1.6590 H     1 <1>   0.1500 
 34 H       -3.2240    -2.5800    -1.8340 H     1 <1>   0.4500 
 35 H        0.7030     4.8530    -0.8600 H     1 <1>   0.1500 
 36 H        2.7750     4.4140     0.0720 H     1 <1>   0.0800 
 37 H        3.3070     2.7640     0.2060 H     1 <1>   0.0800 
 38 H        2.5460     3.5560     1.5720 H     1 <1>   0.0800 
 39 H       -4.5810    -1.3860     0.2130 H     1 <1>   0.0800 
 40 H       -5.3270    -2.3140    -1.0760 H     1 <1>   0.0800 
 41 H       -2.9130    -4.7710    -1.4640 H     1 <1>   0.0800 
 42 H       -2.3410    -4.3980     0.1500 H     1 <1>   0.0800 
 43 H       -6.0820    -3.4720     0.8870 H     1 <1>   0.0800 
 44 H       -5.1050    -4.9670    -0.7630 H     1 <1>   0.0800 
 45 H       -4.7740    -3.7120     2.6520 H     1 <1>   0.4000 
 46 H       -5.2530    -6.2860     1.2810 H     1 <1>   0.0800 
 47 H       -3.7160    -5.6940     1.8340 H     1 <1>   0.0800 
 48 H       -5.2430    -7.5900    -1.0440 H     1 <1>   0.1500 
 49 H       -1.6980    -6.8750     1.2120 H     1 <1>   0.1500 
 50 H       -4.0190    -9.3050    -2.2510 H     1 <1>   0.1500 
 51 H       -0.6260    -8.6200    -0.0910 H     1 <1>   0.1500 
@<TRIPOS>BOND
  1   1   2  1   
  2   1   3  1   
  3   2   4  ar  
  4   2   5  ar  
  5   3   6  1   
  6   3  25  1   
  7   3  26  1   
  8   4   7  ar  
  9   4   8  1   
 10   5   9  ar  
 11   5  27  1   
 12   6  10  1   
 13   6  28  1   
 14   6  29  1   
 15   7  11  ar  
 16   7  12  1   
 17   8  30  1   
 18   8  31  1   
 19   8  32  1   
 20   9  11  ar  
 21   9  33  1   
 22  10  13  1   
 23  10  14  1   
 24  10  34  1   
 25  11  35  1   
 26  12  36  1   
 27  12  37  1   
 28  12  38  1   
 29  13  15  1   
 30  13  39  1   
 31  13  40  1   
 32  14  16  1   
 33  14  41  1   
 34  14  42  1   
 35  15  16  1   
 36  15  17  1   
 37  15  43  1   
 38  16  18  1   
 39  16  44  1   
 40  17  45  1   
 41  18  19  1   
 42  18  46  1   
 43  18  47  1   
 44  19  20  ar  
 45  19  21  ar  
 46  20  22  ar  
 47  20  48  1   
 48  21  23  ar  
 49  21  49  1   
 50  22  24  ar  
 51  22  50  1   
 52  23  24  ar  
 53  23  51  1   
@<TRIPOS>SUBSTRUCTURE
  1 ****   6 GROUP 4 **** **** 0

# MOE 2024.06 (io_trps.svl 2023.06)
