@<TRIPOS>MOLECULE
NONAME
43 45 1 0 0 
SMALL
USER_CHARGES


@<TRIPOS>ATOM
  1 O       -0.4860     1.2140     1.3520 O.2   1 <1>  -0.5700 
  2 C       -0.2280     2.3310     0.9430 C.2   1 <1>   0.5440 
  3 N       -1.2580     3.2230     0.7210 N.am  1 <1>  -0.6600 
  4 C        1.1570     2.6830     0.6900 C.ar  1 <1>   0.0860 
  5 C       -2.6540     2.9510     1.1900 C.3   1 <1>   0.1400 
  6 C       -1.1370     4.4420    -0.1240 C.3   1 <1>   0.1400 
  7 C        1.7450     3.8040     1.2760 C.ar  1 <1>  -0.1500 
  8 C        1.9500     1.9020    -0.1500 C.ar  1 <1>  -0.1500 
  9 C       -3.6270     2.8020    -0.0050 C.3   1 <1>   0.0000 
 10 C       -2.0740     4.3320    -1.3320 C.3   1 <1>  -0.1600 
 11 C        3.0620     4.1420     1.0210 C.ar  1 <1>  -0.1500 
 12 C        3.2680     2.2340    -0.4090 C.ar  1 <1>  -0.1500 
 13 C       -5.0710     2.5690     0.4740 C.3   1 <1>   0.2000 
 14 C       -3.5260     4.0490    -0.9100 C.3   1 <1>  -0.1600 
 15 C       -3.3430     1.4970    -0.7710 C.3   1 <1>  -0.1600 
 16 C        3.8250     3.3570     0.1750 C.ar  1 <1>  -0.1500 
 17 O       -5.3850     3.3740     1.5720 O.3   1 <1>  -0.5600 
 18 C       -5.1560     1.0810     0.8270 C.3   1 <1>  -0.1600 
 19 C       -4.0400     0.3920     0.0290 C.3   1 <1>  -0.1600 
 20 C       -6.7410     3.4480     1.8780 C.3   1 <1>   0.0400 
 21 H       -2.6800     2.0690     1.8050 H     1 <1>   0.0800 
 22 H       -2.9650     3.7760     1.8070 H     1 <1>   0.0800 
 23 H       -1.4030     5.3020     0.4670 H     1 <1>   0.0800 
 24 H       -0.1290     4.5720    -0.4740 H     1 <1>   0.0800 
 25 H        1.1550     4.4110     1.9400 H     1 <1>   0.1500 
 26 H        1.5170     1.0240    -0.5970 H     1 <1>   0.1500 
 27 H       -2.0360     5.2500    -1.8920 H     1 <1>   0.0800 
 28 H       -1.7200     3.5450    -1.9750 H     1 <1>   0.0800 
 29 H        3.4950     5.0130     1.4830 H     1 <1>   0.1500 
 30 H        3.8600     1.6170    -1.0620 H     1 <1>   0.1500 
 31 H       -5.7500     2.7930    -0.3320 H     1 <1>   0.0800 
 32 H       -4.1390     3.9270    -1.7850 H     1 <1>   0.0800 
 33 H       -3.9010     4.8990    -0.3650 H     1 <1>   0.0800 
 34 H       -3.7840     1.5480    -1.7510 H     1 <1>   0.0800 
 35 H       -2.2910     1.2990    -0.8800 H     1 <1>   0.0800 
 36 H        4.8510     3.6170    -0.0250 H     1 <1>   0.1500 
 37 H       -4.9820     0.9370     1.8800 H     1 <1>   0.0800 
 38 H       -6.1190     0.6830     0.5610 H     1 <1>   0.0800 
 39 H       -3.3350    -0.0570     0.7080 H     1 <1>   0.0800 
 40 H       -4.4270    -0.3710    -0.6230 H     1 <1>   0.0800 
 41 H       -6.8580     4.1080     2.7190 H     1 <1>   0.0800 
 42 H       -7.1050     2.4690     2.1370 H     1 <1>   0.0800 
 43 H       -7.2770     3.8410     1.0320 H     1 <1>   0.0800 
@<TRIPOS>BOND
  1   1   2  2   
  2   2   3  am  
  3   2   4  1   
  4   3   5  1   
  5   3   6  1   
  6   4   7  ar  
  7   4   8  ar  
  8   5   9  1   
  9   5  21  1   
 10   5  22  1   
 11   6  10  1   
 12   6  23  1   
 13   6  24  1   
 14   7  11  ar  
 15   7  25  1   
 16   8  12  ar  
 17   8  26  1   
 18   9  13  1   
 19   9  14  1   
 20   9  15  1   
 21  10  14  1   
 22  10  27  1   
 23  10  28  1   
 24  11  16  ar  
 25  11  29  1   
 26  12  16  ar  
 27  12  30  1   
 28  13  17  1   
 29  13  18  1   
 30  13  31  1   
 31  14  32  1   
 32  14  33  1   
 33  15  19  1   
 34  15  34  1   
 35  15  35  1   
 36  16  36  1   
 37  17  20  1   
 38  18  19  1   
 39  18  37  1   
 40  18  38  1   
 41  19  39  1   
 42  19  40  1   
 43  20  41  1   
 44  20  42  1   
 45  20  43  1   
@<TRIPOS>SUBSTRUCTURE
  1 ****   3 GROUP 4 **** **** 0

# MOE 2024.06 (io_trps.svl 2023.06)
