@<TRIPOS>MOLECULE
NONAME
56 59 1 0 0 
SMALL
USER_CHARGES


@<TRIPOS>ATOM
  1 O        0.8870     0.6760    -0.1970 O.3   1 <1>  -0.6800 
  2 C        1.4020    -0.3940     0.5120 C.3   1 <1>   0.2800 
  3 C        2.9610    -0.3690     0.4840 C.3   1 <1>  -0.0800 
  4 C        0.8770    -1.6650    -0.1820 C.3   1 <1>  -0.1600 
  5 C        0.8300    -0.3000     1.9440 C.3   1 <1>  -0.1600 
  6 C        3.6080    -1.2710    -0.5790 C.3   1 <1>  -0.0800 
  7 C        3.6160     1.0020     0.2620 C.3   1 <1>   0.2090 
  8 C        1.3610    -1.8170    -1.6410 C.3   1 <1>  -0.1600 
  9 C        1.2020     0.9740     2.7240 C.3   1 <1>  -0.2400 
 10 C        2.7810    -1.2670    -1.8740 C.3   1 <1>  -0.1600 
 11 C        5.0150    -0.6980    -0.7660 C.3   1 <1>   0.2090 
 12 N        4.9420     0.7220    -0.3410 N.pl3 1 <1>  -0.8380 
 13 C        6.0670     1.4270     0.0560 C.ar  1 <1>   0.4100 
 14 N        7.1940     0.7420     0.2280 N.ar  1 <1>  -0.6200 
 15 C        5.9920     2.8060     0.2480 C.ar  1 <1>  -0.1500 
 16 C        8.2510     1.4380     0.6050 C.ar  1 <1>   0.1600 
 17 C        7.1000     3.5180     0.6410 C.ar  1 <1>  -0.1500 
 18 C        8.2690     2.8060     0.8230 C.ar  1 <1>  -0.1440 
 19 C        9.5540     3.5090     1.2410 C.3   1 <1>   0.2390 
 20 N        9.8920     4.6290     0.3350 N.pl3 1 <1>   0.3140 
 21 N       10.0490     5.8780     0.8180 N.2   1 <1>  -0.7070 
 22 C       10.1150     4.5930    -1.0020 C.2   1 <1>  -0.3320 
 23 C       10.3610     6.6000    -0.2100 C.2   1 <1>   0.1080 
 24 C       10.4180     5.8530    -1.3790 C.2   1 <1>  -0.1500 
 25 C       10.0240     3.3550    -1.8800 C.3   1 <1>  -0.0600 
 26 C       10.6240     8.0830    -0.1070 C.3   1 <1>  -0.0590 
 27 H       -0.0810     0.5910    -0.2480 H     1 <1>   0.4000 
 28 H        3.3170    -0.7310     1.4320 H     1 <1>   0.0800 
 29 H        1.2280    -2.5150     0.3770 H     1 <1>   0.0800 
 30 H       -0.1980    -1.6970    -0.1520 H     1 <1>   0.0800 
 31 H       -0.2420    -0.3720     1.8970 H     1 <1>   0.0800 
 32 H        1.1730    -1.1510     2.5060 H     1 <1>   0.0800 
 33 H        3.6860    -2.2840    -0.2240 H     1 <1>   0.0800 
 34 H        3.7140     1.5380     1.1890 H     1 <1>   0.0800 
 35 H        3.0610     1.6010    -0.4370 H     1 <1>   0.0800 
 36 H        1.3300    -2.8590    -1.9070 H     1 <1>   0.0800 
 37 H        0.6850    -1.2960    -2.2990 H     1 <1>   0.0800 
 38 H        0.9150     1.8540     2.1760 H     1 <1>   0.0800 
 39 H        2.2590     1.0120     2.9150 H     1 <1>   0.0800 
 40 H        0.6920     0.9830     3.6710 H     1 <1>   0.0800 
 41 H        2.7100    -0.2540    -2.2330 H     1 <1>   0.0800 
 42 H        3.2740    -1.8460    -2.6360 H     1 <1>   0.0800 
 43 H        5.3470    -0.7650    -1.7870 H     1 <1>   0.0800 
 44 H        5.7050    -1.2320    -0.1350 H     1 <1>   0.0800 
 45 H        5.0610     3.3070     0.0730 H     1 <1>   0.1500 
 46 H        9.1570     0.8760     0.7450 H     1 <1>   0.1500 
 47 H        7.0590     4.5850     0.7890 H     1 <1>   0.1500 
 48 H       10.3800     2.8240     1.2440 H     1 <1>   0.0800 
 49 H        9.4380     3.9040     2.2340 H     1 <1>   0.0800 
 50 H       10.6540     6.2250    -2.3590 H     1 <1>   0.1500 
 51 H       10.3170     3.5940    -2.8870 H     1 <1>   0.0800 
 52 H        9.0130     2.9870    -1.9030 H     1 <1>   0.0800 
 53 H       10.6720     2.5820    -1.5100 H     1 <1>   0.0800 
 54 H       10.8710     8.4890    -1.0700 H     1 <1>   0.0800 
 55 H       11.4410     8.2550     0.5690 H     1 <1>   0.0800 
 56 H        9.7480     8.5760     0.2710 H     1 <1>   0.0800 
@<TRIPOS>BOND
  1   1   2  1   
  2   1  27  1   
  3   2   3  1   
  4   2   4  1   
  5   2   5  1   
  6   3   6  1   
  7   3   7  1   
  8   3  28  1   
  9   4   8  1   
 10   4  29  1   
 11   4  30  1   
 12   5   9  1   
 13   5  31  1   
 14   5  32  1   
 15   6  10  1   
 16   6  11  1   
 17   6  33  1   
 18   7  12  1   
 19   7  34  1   
 20   7  35  1   
 21   8  10  1   
 22   8  36  1   
 23   8  37  1   
 24   9  38  1   
 25   9  39  1   
 26   9  40  1   
 27  10  41  1   
 28  10  42  1   
 29  11  12  1   
 30  11  43  1   
 31  11  44  1   
 32  12  13  1   
 33  13  14  ar  
 34  13  15  ar  
 35  14  16  ar  
 36  15  17  ar  
 37  15  45  1   
 38  16  18  ar  
 39  16  46  1   
 40  17  18  ar  
 41  17  47  1   
 42  18  19  1   
 43  19  20  1   
 44  19  48  1   
 45  19  49  1   
 46  20  21  1   
 47  20  22  1   
 48  21  23  2   
 49  22  24  2   
 50  22  25  1   
 51  23  24  1   
 52  23  26  1   
 53  24  50  1   
 54  25  51  1   
 55  25  52  1   
 56  25  53  1   
 57  26  54  1   
 58  26  55  1   
 59  26  56  1   
@<TRIPOS>SUBSTRUCTURE
  1 ****  13 GROUP 4 **** **** 0

# MOE 2024.06 (io_trps.svl 2023.06)
