@<TRIPOS>MOLECULE
NONAME
46 47 1 0 0 
SMALL
USER_CHARGES


@<TRIPOS>ATOM
  1 S       -0.0170     0.2650    -0.1760 S.3   1 <1>  -0.4600 
  2 C        1.6390     0.2170     0.5590 C.3   1 <1>   0.2510 
  3 C       -0.8070    -1.2290     0.4730 C.3   1 <1>   0.0700 
  4 C        2.3880     1.4670     0.1390 C.2   1 <1>  -0.1810 
  5 C       -2.2270    -1.2890    -0.0910 C.3   1 <1>  -0.1600 
  6 C        3.4700     1.6030    -0.6600 C.2   1 <1>  -0.0400 
  7 C        2.0590     2.7630     0.5390 C.2   1 <1>  -0.1500 
  8 C       -2.9710    -2.5320     0.4130 C.3   1 <1>  -0.1600 
  9 O        3.8080     2.8680    -0.7550 O.3   1 <1>  -0.2800 
 10 C        4.2950     0.5870    -1.4200 C.3   1 <1>  -0.0600 
 11 C        2.9660     3.6040    -0.0300 C.2   1 <1>   0.0550 
 12 C       -4.3920    -2.5880    -0.1540 C.3   1 <1>  -0.2400 
 13 C        3.0640     5.0480     0.0540 C.2   1 <1>   0.7150 
 14 O        2.1070     5.6840     0.4650 O.2   1 <1>  -0.5700 
 15 N        4.1980     5.7600    -0.2950 N.am  1 <1>  -0.6600 
 16 C        4.1220     7.2080    -0.6500 C.3   1 <1>   0.1400 
 17 C        5.5800     5.2260    -0.1510 C.3   1 <1>   0.1400 
 18 C        4.8470     8.0500     0.4060 C.3   1 <1>   0.1200 
 19 C        6.3430     6.0560     0.8900 C.3   1 <1>  -0.1600 
 20 C        4.8100     9.4870     0.0090 C.1   1 <1>   0.3570 
 21 C        6.2980     7.5620     0.5840 C.3   1 <1>  -0.1600 
 22 N        4.7900    10.5780    -0.3080 N.1   1 <1>  -0.5570 
 23 H        2.1200    -0.6760     0.2040 H     1 <1>   0.0800 
 24 H        1.5190     0.1770     1.6270 H     1 <1>   0.0800 
 25 H       -0.8100    -1.1530     1.5470 H     1 <1>   0.0800 
 26 H       -0.2190    -2.0710     0.1550 H     1 <1>   0.0800 
 27 H       -2.1780    -1.3080    -1.1660 H     1 <1>   0.0800 
 28 H       -2.7610    -0.4030     0.2070 H     1 <1>   0.0800 
 29 H        1.2310     3.0350     1.1700 H     1 <1>   0.1500 
 30 H       -3.0210    -2.5140     1.4880 H     1 <1>   0.0800 
 31 H       -2.4380    -3.4190     0.1160 H     1 <1>   0.0800 
 32 H        3.9060    -0.4030    -1.2780 H     1 <1>   0.0800 
 33 H        5.3130     0.6160    -1.0770 H     1 <1>   0.0800 
 34 H        4.2740     0.8210    -2.4690 H     1 <1>   0.0800 
 35 H       -4.9520    -1.7200     0.1470 H     1 <1>   0.0800 
 36 H       -4.9000    -3.4650     0.2080 H     1 <1>   0.0800 
 37 H       -4.3670    -2.6280    -1.2290 H     1 <1>   0.0800 
 38 H        3.0950     7.5260    -0.7280 H     1 <1>   0.0800 
 39 H        4.5820     7.3530    -1.6120 H     1 <1>   0.0800 
 40 H        6.0770     5.2730    -1.1050 H     1 <1>   0.0800 
 41 H        5.5670     4.2010     0.1720 H     1 <1>   0.0800 
 42 H        4.3170     7.9530     1.3370 H     1 <1>   0.0800 
 43 H        7.3670     5.7250     0.9230 H     1 <1>   0.0800 
 44 H        5.9120     5.8710     1.8590 H     1 <1>   0.0800 
 45 H        6.7700     8.1070     1.3840 H     1 <1>   0.0800 
 46 H        6.8540     7.7540    -0.3190 H     1 <1>   0.0800 
@<TRIPOS>BOND
  1   1   2  1   
  2   1   3  1   
  3   2   4  1   
  4   2  23  1   
  5   2  24  1   
  6   3   5  1   
  7   3  25  1   
  8   3  26  1   
  9   4   6  2   
 10   4   7  1   
 11   5   8  1   
 12   5  27  1   
 13   5  28  1   
 14   6   9  1   
 15   6  10  1   
 16   7  11  2   
 17   7  29  1   
 18   8  12  1   
 19   8  30  1   
 20   8  31  1   
 21   9  11  1   
 22  10  32  1   
 23  10  33  1   
 24  10  34  1   
 25  11  13  1   
 26  12  35  1   
 27  12  36  1   
 28  12  37  1   
 29  13  14  2   
 30  13  15  am  
 31  15  16  1   
 32  15  17  1   
 33  16  18  1   
 34  16  38  1   
 35  16  39  1   
 36  17  19  1   
 37  17  40  1   
 38  17  41  1   
 39  18  20  1   
 40  18  21  1   
 41  18  42  1   
 42  19  21  1   
 43  19  43  1   
 44  19  44  1   
 45  20  22  3   
 46  21  45  1   
 47  21  46  1   
@<TRIPOS>SUBSTRUCTURE
  1 ****  11 GROUP 4 **** **** 0

# MOE 2024.06 (io_trps.svl 2023.06)
