@<TRIPOS>MOLECULE
NONAME
59 61 1 0 0 
SMALL
USER_CHARGES


@<TRIPOS>ATOM
  1 O       -0.5320     0.4740    -0.6860 O.2   1 <1>  -0.5700 
  2 C       -1.4990     0.9310    -0.1250 C.2   1 <1>   0.5690 
  3 N       -2.5400     0.1310     0.2550 N.am  1 <1>  -0.6600 
  4 C       -1.5670     2.4310     0.1450 C.3   1 <1>  -0.0990 
  5 C       -3.8340     0.5680     0.8340 C.3   1 <1>   0.1400 
  6 C       -2.5340    -1.3350     0.0290 C.3   1 <1>   0.1400 
  7 C       -0.2070     3.1500     0.0680 C.3   1 <1>  -0.1600 
  8 C       -4.7390    -0.6590     0.7300 C.3   1 <1>   0.2000 
  9 C       -3.7920    -1.8560     0.7250 C.3   1 <1>  -0.0800 
 10 C       -0.3420     4.6500     0.3580 C.3   1 <1>  -0.0160 
 11 O       -5.6140    -0.7390     1.8010 O.3   1 <1>  -0.6800 
 12 C       -4.3930    -3.1020     0.0580 C.3   1 <1>   0.0210 
 13 C        1.0140     5.3340     0.2930 C.ar  1 <1>  -0.1430 
 14 C       -3.3780    -4.2270     0.0010 C.2   1 <1>   0.1080 
 15 C        1.7660     5.5120     1.4420 C.ar  1 <1>  -0.1500 
 16 C        1.5110     5.7840    -0.9190 C.ar  1 <1>  -0.1500 
 17 N       -2.8760    -4.7740     1.0640 N.2   1 <1>  -0.7070 
 18 C       -2.8680    -4.7830    -1.1680 C.2   1 <1>  -0.1500 
 19 C        3.0030     6.1370     1.3940 C.ar  1 <1>  -0.1430 
 20 C        2.7430     6.4090    -0.9810 C.ar  1 <1>  -0.1500 
 21 N       -2.0230    -5.7040     0.5970 N.pl3 1 <1>   0.3000 
 22 C       -1.9990    -5.7280    -0.7530 C.2   1 <1>  -0.3320 
 23 C        3.4980     6.5900     0.1750 C.ar  1 <1>   0.0830 
 24 C        3.8080     6.3200     2.6720 C.3   1 <1>  -0.0970 
 25 C       -1.1340    -6.6650    -1.5750 C.3   1 <1>  -0.0600 
 26 O        4.7150     7.1970     0.1750 O.3   1 <1>  -0.3630 
 27 C        5.3080     7.6660    -1.0120 C.3   1 <1>   0.1200 
 28 C        6.6620     8.2710    -0.6550 C.3   1 <1>  -0.2400 
 29 H       -2.2380     2.8630    -0.5740 H     1 <1>   0.0800 
 30 H       -1.9780     2.5820     1.1250 H     1 <1>   0.0800 
 31 H       -3.6850     0.8440     1.8630 H     1 <1>   0.0800 
 32 H       -4.2440     1.3920     0.2770 H     1 <1>   0.0800 
 33 H       -2.5680    -1.5240    -1.0310 H     1 <1>   0.0800 
 34 H       -1.6440    -1.7830     0.4390 H     1 <1>   0.0800 
 35 H        0.4710     2.7090     0.7790 H     1 <1>   0.0800 
 36 H        0.2160     3.0150    -0.9130 H     1 <1>   0.0800 
 37 H       -5.3160    -0.6070    -0.1770 H     1 <1>   0.0800 
 38 H       -3.5120    -2.1000     1.7350 H     1 <1>   0.0800 
 39 H       -0.7700     4.7970     1.3340 H     1 <1>   0.0800 
 40 H       -1.0030     5.1030    -0.3600 H     1 <1>   0.0800 
 41 H       -5.1350    -1.0060     2.6100 H     1 <1>   0.4000 
 42 H       -4.7230    -2.8680    -0.9380 H     1 <1>   0.0800 
 43 H       -5.2450    -3.4370     0.6230 H     1 <1>   0.0800 
 44 H        1.3850     5.1590     2.3840 H     1 <1>   0.1500 
 45 H        0.9390     5.6470    -1.8200 H     1 <1>   0.1500 
 46 H       -3.1260    -4.4990    -2.1720 H     1 <1>   0.1500 
 47 H        3.0950     6.7440    -1.9370 H     1 <1>   0.1500 
 48 H       -1.4720    -6.3040     1.2220 H     1 <1>   0.2700 
 49 H        3.2940     5.9080     3.5200 H     1 <1>   0.0800 
 50 H        3.9780     7.3670     2.8460 H     1 <1>   0.0800 
 51 H        4.7600     5.8290     2.5730 H     1 <1>   0.0800 
 52 H       -1.2940    -6.4910    -2.6240 H     1 <1>   0.0800 
 53 H       -1.3820    -7.6890    -1.3560 H     1 <1>   0.0800 
 54 H       -0.0940    -6.5000    -1.3550 H     1 <1>   0.0800 
 55 H        5.4280     6.8340    -1.6840 H     1 <1>   0.0800 
 56 H        4.6610     8.4090    -1.4450 H     1 <1>   0.0800 
 57 H        7.2930     7.5240    -0.2070 H     1 <1>   0.0800 
 58 H        6.5310     9.0890     0.0300 H     1 <1>   0.0800 
 59 H        7.1430     8.6390    -1.5440 H     1 <1>   0.0800 
@<TRIPOS>BOND
  1   1   2  2   
  2   2   3  am  
  3   2   4  1   
  4   3   5  1   
  5   3   6  1   
  6   4   7  1   
  7   4  29  1   
  8   4  30  1   
  9   5   8  1   
 10   5  31  1   
 11   5  32  1   
 12   6   9  1   
 13   6  33  1   
 14   6  34  1   
 15   7  10  1   
 16   7  35  1   
 17   7  36  1   
 18   8   9  1   
 19   8  11  1   
 20   8  37  1   
 21   9  12  1   
 22   9  38  1   
 23  10  13  1   
 24  10  39  1   
 25  10  40  1   
 26  11  41  1   
 27  12  14  1   
 28  12  42  1   
 29  12  43  1   
 30  13  15  ar  
 31  13  16  ar  
 32  14  17  2   
 33  14  18  1   
 34  15  19  ar  
 35  15  44  1   
 36  16  20  ar  
 37  16  45  1   
 38  17  21  1   
 39  18  22  2   
 40  18  46  1   
 41  19  23  ar  
 42  19  24  1   
 43  20  23  ar  
 44  20  47  1   
 45  21  22  1   
 46  21  48  1   
 47  22  25  1   
 48  23  26  1   
 49  24  49  1   
 50  24  50  1   
 51  24  51  1   
 52  25  52  1   
 53  25  53  1   
 54  25  54  1   
 55  26  27  1   
 56  27  28  1   
 57  27  55  1   
 58  27  56  1   
 59  28  57  1   
 60  28  58  1   
 61  28  59  1   
@<TRIPOS>SUBSTRUCTURE
  1 ****   2 GROUP 4 **** **** 0

# MOE 2024.06 (io_trps.svl 2023.06)
