@<TRIPOS>MOLECULE
NONAME
53 56 1 0 0 
SMALL
USER_CHARGES


@<TRIPOS>ATOM
  1 O       -2.2200     0.6660    -1.8350 O.2   1 <1>  -0.5700 
  2 C       -2.4030     0.9450    -0.6620 C.2   1 <1>   0.5440 
  3 N       -3.0080    -0.0320     0.1180 N.am  1 <1>  -0.6600 
  4 C       -1.9970     2.2660    -0.1680 C.ar  1 <1>   0.3960 
  5 C       -3.8920     0.2620     1.2740 C.3   1 <1>   0.1400 
  6 C       -2.8560    -1.4730    -0.2120 C.3   1 <1>   0.1400 
  7 N       -1.7860     2.4810     1.1440 N.ar  1 <1>  -0.6200 
  8 C       -1.8200     3.3000    -1.0990 C.ar  1 <1>   0.1600 
  9 C       -5.2800    -0.3160     0.9900 C.3   1 <1>  -0.1600 
 10 C       -4.2310    -2.0470    -0.5410 C.3   1 <1>  -0.1600 
 11 C       -1.4120     3.7160     1.4230 C.ar  1 <1>   0.1600 
 12 N       -1.4550     4.5420    -0.8190 N.ar  1 <1>  -0.6200 
 13 C       -5.1950    -1.8030     0.6290 C.3   1 <1>   0.4230 
 14 C       -1.2520     4.7160     0.4740 C.ar  1 <1>   0.1600 
 15 N       -6.5610    -2.3230     0.3430 N.4   1 <1>  -0.9590 
 16 C       -7.2650    -1.7840    -0.8600 C.3   1 <1>   0.3430 
 17 C       -6.6770    -3.8120     0.2580 C.3   1 <1>   0.3430 
 18 C       -8.4290    -2.7530    -1.0510 C.3   1 <1>   0.2000 
 19 C       -7.7640    -4.1070    -0.7860 C.3   1 <1>  -0.0800 
 20 O       -9.3630    -2.4860    -0.0530 O.3   1 <1>  -0.6800 
 21 C       -8.6930    -5.2660    -0.3760 C.3   1 <1>  -0.0170 
 22 C       -7.8680    -6.4980    -0.0430 C.ar  1 <1>  -0.1430 
 23 C       -7.2310    -7.2350    -1.0230 C.ar  1 <1>  -0.1500 
 24 C       -7.7050    -6.9400     1.2550 C.ar  1 <1>  -0.1500 
 25 C       -6.4660    -8.3320    -0.6650 C.ar  1 <1>   0.1600 
 26 C       -6.9190    -8.0520     1.5060 C.ar  1 <1>   0.1600 
 27 N       -6.2860    -8.7480     0.5770 N.ar  1 <1>  -0.6200 
 28 H       -3.4670    -0.1710     2.1650 H     1 <1>   0.0800 
 29 H       -3.9840     1.3240     1.4280 H     1 <1>   0.0800 
 30 H       -2.1920    -1.6040    -1.0500 H     1 <1>   0.0800 
 31 H       -2.4230    -1.9830     0.6320 H     1 <1>   0.0800 
 32 H       -1.9920     3.0770    -2.1380 H     1 <1>   0.1500 
 33 H       -5.7100     0.2480     0.1820 H     1 <1>   0.0800 
 34 H       -5.8910    -0.1830     1.8640 H     1 <1>   0.0800 
 35 H       -4.1190    -3.0980    -0.7300 H     1 <1>   0.0800 
 36 H       -4.5750    -1.5670    -1.4390 H     1 <1>   0.0800 
 37 H       -1.2200     3.9530     2.4550 H     1 <1>   0.1500 
 38 H       -4.8040    -2.3230     1.4900 H     1 <1>   0.0800 
 39 H       -0.9450     5.6960     0.7970 H     1 <1>   0.1500 
 40 H       -7.1790    -2.0520     1.1230 H     1 <1>   0.4500 
 41 H       -7.6150    -0.7760    -0.7100 H     1 <1>   0.0800 
 42 H       -6.6200    -1.8220    -1.7210 H     1 <1>   0.0800 
 43 H       -5.7480    -4.2650    -0.0460 H     1 <1>   0.0800 
 44 H       -6.9600    -4.2130     1.2170 H     1 <1>   0.0800 
 45 H       -8.8990    -2.6660    -2.0170 H     1 <1>   0.0800 
 46 H       -7.2540    -4.3990    -1.6880 H     1 <1>   0.0800 
 47 H      -10.2340    -2.8850    -0.2640 H     1 <1>   0.4000 
 48 H       -9.3710    -5.4960    -1.1790 H     1 <1>   0.0800 
 49 H       -9.2830    -4.9970     0.4840 H     1 <1>   0.0800 
 50 H       -7.3200    -6.9750    -2.0620 H     1 <1>   0.1500 
 51 H       -8.1830    -6.4410     2.0790 H     1 <1>   0.1500 
 52 H       -5.9750    -8.8990    -1.4390 H     1 <1>   0.1500 
 53 H       -6.8030    -8.3880     2.5230 H     1 <1>   0.1500 
@<TRIPOS>BOND
  1   1   2  2   
  2   2   3  am  
  3   2   4  1   
  4   3   5  1   
  5   3   6  1   
  6   4   7  ar  
  7   4   8  ar  
  8   5   9  1   
  9   5  28  1   
 10   5  29  1   
 11   6  10  1   
 12   6  30  1   
 13   6  31  1   
 14   7  11  ar  
 15   8  12  ar  
 16   8  32  1   
 17   9  13  1   
 18   9  33  1   
 19   9  34  1   
 20  10  13  1   
 21  10  35  1   
 22  10  36  1   
 23  11  14  ar  
 24  11  37  1   
 25  12  14  ar  
 26  13  15  1   
 27  13  38  1   
 28  14  39  1   
 29  15  16  1   
 30  15  17  1   
 31  15  40  1   
 32  16  18  1   
 33  16  41  1   
 34  16  42  1   
 35  17  19  1   
 36  17  43  1   
 37  17  44  1   
 38  18  19  1   
 39  18  20  1   
 40  18  45  1   
 41  19  21  1   
 42  19  46  1   
 43  20  47  1   
 44  21  22  1   
 45  21  48  1   
 46  21  49  1   
 47  22  23  ar  
 48  22  24  ar  
 49  23  25  ar  
 50  23  50  1   
 51  24  26  ar  
 52  24  51  1   
 53  25  27  ar  
 54  25  52  1   
 55  26  27  ar  
 56  26  53  1   
@<TRIPOS>SUBSTRUCTURE
  1 ****  13 GROUP 4 **** **** 0

# MOE 2024.06 (io_trps.svl 2023.06)
