@<TRIPOS>MOLECULE
NONAME
49 52 1 0 0 
SMALL
USER_CHARGES


@<TRIPOS>ATOM
  1 S       -0.8530     0.2910     0.5120 S.3   1 <1>  -0.0800 
  2 C       -2.5210    -0.2220     0.6190 C.2   1 <1>  -0.1100 
  3 C       -0.2930    -1.3270     0.8800 C.2   1 <1>  -0.1100 
  4 C       -2.6290    -1.5450     0.8970 C.2   1 <1>  -0.0860 
  5 C       -1.3360    -2.1590     1.0540 C.2   1 <1>  -0.1500 
  6 C       -3.8530    -2.3050     1.0520 C.2   1 <1>   0.7160 
  7 O       -4.0000    -2.9660     2.0650 O.2   1 <1>  -0.5700 
  8 N       -4.8410    -2.3250     0.0860 N.am  1 <1>  -0.6600 
  9 C       -6.2210    -2.8060     0.4200 C.3   1 <1>   0.1400 
 10 C       -4.6270    -1.8380    -1.3120 C.3   1 <1>   0.1400 
 11 C       -7.3160    -1.7050     0.3750 C.3   1 <1>   0.1900 
 12 C       -5.7050    -0.8700    -1.8500 C.3   1 <1>  -0.0800 
 13 N       -7.9580    -1.5260    -0.9510 N.3   1 <1>  -0.8100 
 14 C       -6.8810    -0.3280     0.9410 C.3   1 <1>   0.1200 
 15 C       -5.8660     0.4580    -1.0780 C.3   1 <1>   0.1200 
 16 C       -7.0410    -1.5850    -2.0970 C.3   1 <1>   0.1100 
 17 C       -9.1780    -2.3390    -1.1800 C.3   1 <1>   0.2900 
 18 O       -5.7920     0.2930     0.3050 O.3   1 <1>  -0.5600 
 19 C       -8.9780    -3.8480    -1.0260 C.2   1 <1>   0.0060 
 20 N       -8.3920    -4.5860    -1.9190 N.2   1 <1>  -0.5650 
 21 N       -9.4150    -4.5550     0.0510 N.pl3 1 <1>   0.0480 
 22 C       -8.4340    -5.8250    -1.4010 C.2   1 <1>   0.0770 
 23 C       -9.0530    -5.8250    -0.2030 C.2   1 <1>  -0.3020 
 24 C      -10.1730    -4.1130     1.2440 C.3   1 <1>   0.0960 
 25 C      -11.6790    -4.2040     0.9860 C.3   1 <1>  -0.2400 
 26 H       -3.2830     0.5210     0.4670 H     1 <1>   0.1500 
 27 H        0.7690    -1.4840     0.9320 H     1 <1>   0.1500 
 28 H       -1.2660    -3.2060     1.2980 H     1 <1>   0.1500 
 29 H       -6.4780    -3.6150    -0.2370 H     1 <1>   0.0800 
 30 H       -6.2240    -3.2110     1.4150 H     1 <1>   0.0800 
 31 H       -3.6720    -1.3560    -1.3950 H     1 <1>   0.0800 
 32 H       -4.5900    -2.7010    -1.9550 H     1 <1>   0.0800 
 33 H       -8.0850    -2.0400     1.0430 H     1 <1>   0.0800 
 34 H       -5.3640    -0.5950    -2.8310 H     1 <1>   0.0800 
 35 H       -6.5970    -0.4510     1.9710 H     1 <1>   0.0800 
 36 H       -7.7130     0.3520     0.9030 H     1 <1>   0.0800 
 37 H       -6.7970     0.9400    -1.3200 H     1 <1>   0.0800 
 38 H       -5.0630     1.1210    -1.3460 H     1 <1>   0.0800 
 39 H       -6.8500    -2.6080    -2.3710 H     1 <1>   0.0800 
 40 H       -7.5310    -1.1170    -2.9340 H     1 <1>   0.0800 
 41 H       -9.9450    -2.0030    -0.5070 H     1 <1>   0.0800 
 42 H       -9.5390    -2.1500    -2.1760 H     1 <1>   0.0800 
 43 H       -8.0110    -6.6650    -1.9270 H     1 <1>   0.1500 
 44 H       -9.2520    -6.6450     0.4630 H     1 <1>   0.1500 
 45 H       -9.9040    -4.7440     2.0720 H     1 <1>   0.0800 
 46 H       -9.9020    -3.1030     1.4890 H     1 <1>   0.0800 
 47 H      -11.9590    -5.2190     0.7620 H     1 <1>   0.0800 
 48 H      -11.9610    -3.5700     0.1630 H     1 <1>   0.0800 
 49 H      -12.2190    -3.8880     1.8600 H     1 <1>   0.0800 
@<TRIPOS>BOND
  1   1   2  1   
  2   1   3  1   
  3   2   4  2   
  4   2  26  1   
  5   3   5  2   
  6   3  27  1   
  7   4   5  1   
  8   4   6  1   
  9   5  28  1   
 10   6   7  2   
 11   6   8  am  
 12   8   9  1   
 13   8  10  1   
 14   9  11  1   
 15   9  29  1   
 16   9  30  1   
 17  10  12  1   
 18  10  31  1   
 19  10  32  1   
 20  11  13  1   
 21  11  14  1   
 22  11  33  1   
 23  12  15  1   
 24  12  16  1   
 25  12  34  1   
 26  13  16  1   
 27  13  17  1   
 28  14  18  1   
 29  14  35  1   
 30  14  36  1   
 31  15  18  1   
 32  15  37  1   
 33  15  38  1   
 34  16  39  1   
 35  16  40  1   
 36  17  19  1   
 37  17  41  1   
 38  17  42  1   
 39  19  20  2   
 40  19  21  1   
 41  20  22  1   
 42  21  23  1   
 43  21  24  1   
 44  22  23  2   
 45  22  43  1   
 46  23  44  1   
 47  24  25  1   
 48  24  45  1   
 49  24  46  1   
 50  25  47  1   
 51  25  48  1   
 52  25  49  1   
@<TRIPOS>SUBSTRUCTURE
  1 ****   9 GROUP 4 **** **** 0

# MOE 2024.06 (io_trps.svl 2023.06)
