@<TRIPOS>MOLECULE
NONAME
51 54 1 0 0 
SMALL
USER_CHARGES


@<TRIPOS>ATOM
  1 S        0.1880    -0.1480     2.1540 S.o2  1 <1>   1.4470 
  2 O        0.5270     1.1870     2.6010 O.2   1 <1>  -0.6500 
  3 O       -0.4820    -1.0500     3.0650 O.2   1 <1>  -0.6500 
  4 N       -0.8180     0.0320     0.8020 N.am  1 <1>  -0.8490 
  5 C        1.6530    -0.9730     1.4700 C.ar  1 <1>  -0.0090 
  6 C       -2.1940     0.3650     1.2040 C.3   1 <1>   0.1960 
  7 C       -0.3070     1.0330    -0.1400 C.3   1 <1>   0.1960 
  8 C        1.5360    -2.1530     0.7460 C.ar  1 <1>  -0.1500 
  9 C        2.9290    -0.4510     1.6470 C.ar  1 <1>  -0.1500 
 10 C       -3.1640     0.3540    -0.0040 C.3   1 <1>   0.0000 
 11 C       -1.1690     1.0580    -1.4070 C.3   1 <1>  -0.1600 
 12 C        2.6460    -2.7850     0.2170 C.ar  1 <1>  -0.1500 
 13 C        4.0410    -1.0800     1.1170 C.ar  1 <1>  -0.1500 
 14 C       -4.6130     0.6880     0.4070 C.3   1 <1>   0.2000 
 15 C       -2.6440     1.3320    -1.0780 C.3   1 <1>  -0.1600 
 16 C       -3.3200    -1.0770    -0.5500 C.3   1 <1>  -0.1600 
 17 C        3.9210    -2.2600     0.3910 C.ar  1 <1>   0.0000 
 18 O       -4.6890     1.6490     1.4000 O.3   1 <1>  -0.6800 
 19 C       -5.2510    -0.6180     0.8850 C.3   1 <1>  -0.1600 
 20 C       -4.3600    -1.7480     0.3510 C.3   1 <1>  -0.1600 
 21 C        5.0830    -2.9180    -0.1620 C.ar  1 <1>   0.0000 
 22 C        6.1280    -3.3340     0.6580 C.ar  1 <1>  -0.1500 
 23 C        5.1910    -3.1530    -1.5300 C.ar  1 <1>  -0.1500 
 24 C        7.2430    -3.9630     0.1320 C.ar  1 <1>  -0.1500 
 25 C        6.3020    -3.7820    -2.0620 C.ar  1 <1>  -0.1500 
 26 C        7.3310    -4.1880    -1.2300 C.ar  1 <1>  -0.1500 
 27 H       -2.5390    -0.3470     1.9340 H     1 <1>   0.0800 
 28 H       -2.1940     1.3380     1.6680 H     1 <1>   0.0800 
 29 H       -0.3110     2.0080     0.3210 H     1 <1>   0.0800 
 30 H        0.7070     0.7940    -0.4130 H     1 <1>   0.0800 
 31 H        0.5570    -2.5800     0.5980 H     1 <1>   0.1500 
 32 H        3.0530     0.4620     2.2060 H     1 <1>   0.1500 
 33 H       -0.8010     1.8220    -2.0690 H     1 <1>   0.0800 
 34 H       -1.0720     0.1140    -1.9130 H     1 <1>   0.0800 
 35 H        2.5280    -3.7010    -0.3360 H     1 <1>   0.1500 
 36 H        5.0180    -0.6530     1.2640 H     1 <1>   0.1500 
 37 H       -5.1540     1.0570    -0.4490 H     1 <1>   0.0800 
 38 H       -3.2370     1.2630    -1.9720 H     1 <1>   0.0800 
 39 H       -2.7360     2.3380    -0.7030 H     1 <1>   0.0800 
 40 H       -3.7070    -1.0410    -1.5540 H     1 <1>   0.0800 
 41 H       -2.3940    -1.6240    -0.5630 H     1 <1>   0.0800 
 42 H       -4.4410     1.2650     2.2620 H     1 <1>   0.4000 
 43 H       -5.2990    -0.6700     1.9590 H     1 <1>   0.0800 
 44 H       -6.2440    -0.7030     0.4820 H     1 <1>   0.0800 
 45 H       -3.8630    -2.2340     1.1740 H     1 <1>   0.0800 
 46 H       -4.9300    -2.4840    -0.1900 H     1 <1>   0.0800 
 47 H        6.0630    -3.1660     1.7180 H     1 <1>   0.1500 
 48 H        4.3960    -2.8360    -2.1810 H     1 <1>   0.1500 
 49 H        8.0410    -4.2790     0.7810 H     1 <1>   0.1500 
 50 H        6.3690    -3.9550    -3.1220 H     1 <1>   0.1500 
 51 H        8.1970    -4.6770    -1.6420 H     1 <1>   0.1500 
@<TRIPOS>BOND
  1   1   2  2   
  2   1   3  2   
  3   1   4  am  
  4   1   5  1   
  5   4   6  1   
  6   4   7  1   
  7   5   8  ar  
  8   5   9  ar  
  9   6  10  1   
 10   6  27  1   
 11   6  28  1   
 12   7  11  1   
 13   7  29  1   
 14   7  30  1   
 15   8  12  ar  
 16   8  31  1   
 17   9  13  ar  
 18   9  32  1   
 19  10  14  1   
 20  10  15  1   
 21  10  16  1   
 22  11  15  1   
 23  11  33  1   
 24  11  34  1   
 25  12  17  ar  
 26  12  35  1   
 27  13  17  ar  
 28  13  36  1   
 29  14  18  1   
 30  14  19  1   
 31  14  37  1   
 32  15  38  1   
 33  15  39  1   
 34  16  20  1   
 35  16  40  1   
 36  16  41  1   
 37  17  21  1   
 38  18  42  1   
 39  19  20  1   
 40  19  43  1   
 41  19  44  1   
 42  20  45  1   
 43  20  46  1   
 44  21  22  ar  
 45  21  23  ar  
 46  22  24  ar  
 47  22  47  1   
 48  23  25  ar  
 49  23  48  1   
 50  24  26  ar  
 51  24  49  1   
 52  25  26  ar  
 53  25  50  1   
 54  26  51  1   
@<TRIPOS>SUBSTRUCTURE
  1 ****   8 GROUP 4 **** **** 0

# MOE 2024.06 (io_trps.svl 2023.06)
