@<TRIPOS>MOLECULE
NONAME
45 48 1 0 0 
SMALL
USER_CHARGES


@<TRIPOS>ATOM
  1 O       -2.7060    -0.8310    -0.8630 O.2   1 <1>  -0.5700 
  2 C       -1.8720    -1.5070    -0.3020 C.2   1 <1>   0.6900 
  3 N       -2.1060    -2.2690     0.8030 N.am  1 <1>  -0.4200 
  4 N       -0.5920    -1.6160    -0.7110 N.am  1 <1>  -0.7300 
  5 C       -0.9860    -2.9740     1.1230 C.2   1 <1>   0.5690 
  6 C       -3.4680    -2.6130     1.2760 C.3   1 <1>   0.2010 
  7 C        0.1050    -2.6340     0.1180 C.3   1 <1>   0.2010 
  8 O       -0.8590    -3.7310     2.0540 O.2   1 <1>  -0.5700 
  9 C       -4.1670    -3.6370     0.3710 C.2   1 <1>   0.5690 
 10 O       -3.4720    -4.4470    -0.2020 O.2   1 <1>  -0.5700 
 11 N       -5.5370    -3.6490     0.2210 N.am  1 <1>  -0.6600 
 12 C       -6.5030    -2.6770     0.8290 C.3   1 <1>   0.1400 
 13 C       -6.2060    -4.6470    -0.6660 C.3   1 <1>   0.1400 
 14 C       -7.2510    -1.8930    -0.2680 C.3   1 <1>   0.1430 
 15 C       -6.9810    -3.9260    -1.7780 C.3   1 <1>  -0.1600 
 16 C       -8.2070    -0.9250     0.4050 C.ar  1 <1>   0.1670 
 17 C       -7.9640    -2.8850    -1.2110 C.3   1 <1>  -0.1600 
 18 C       -6.3060    -0.9370    -1.0460 C.3   1 <1>  -0.1600 
 19 N       -9.3270    -1.2510     1.0060 N.ar  1 <1>  -0.6200 
 20 C       -7.7500     0.3590     0.3320 C.ar  1 <1>  -0.1440 
 21 C       -6.4310     0.4500    -0.3950 C.3   1 <1>  -0.0170 
 22 C       -9.9770    -0.2220     1.5310 C.ar  1 <1>   0.7200 
 23 C       -8.5150     1.3450     0.9080 C.ar  1 <1>   0.1600 
 24 N       -9.6460     1.0620     1.5140 N.ar  1 <1>  -0.6200 
 25 N      -11.1280    -0.5130     2.1380 N.pl3 1 <1>  -0.9000 
 26 H       -0.3190    -1.3780    -1.6650 H     1 <1>   0.3700 
 27 H       -4.0300    -1.7020     1.3140 H     1 <1>   0.0800 
 28 H       -3.4040    -3.0210     2.2680 H     1 <1>   0.0800 
 29 H        0.9650    -2.2160     0.6090 H     1 <1>   0.0800 
 30 H        0.3650    -3.5000    -0.4650 H     1 <1>   0.0800 
 31 H       -6.0200    -1.9910     1.4970 H     1 <1>   0.0800 
 32 H       -7.2240    -3.2280     1.4100 H     1 <1>   0.0800 
 33 H       -6.8840    -5.2390    -0.0750 H     1 <1>   0.0800 
 34 H       -5.4860    -5.3150    -1.1080 H     1 <1>   0.0800 
 35 H       -7.5230    -4.6530    -2.3570 H     1 <1>   0.0800 
 36 H       -6.2750    -3.4500    -2.4360 H     1 <1>   0.0800 
 37 H       -8.4470    -2.3540    -2.0130 H     1 <1>   0.0800 
 38 H       -8.7320    -3.3990    -0.6580 H     1 <1>   0.0800 
 39 H       -6.6430    -0.8520    -2.0640 H     1 <1>   0.0800 
 40 H       -5.2870    -1.2770    -1.0670 H     1 <1>   0.0800 
 41 H       -6.4310     1.2330    -1.1330 H     1 <1>   0.0800 
 42 H       -5.6320     0.6120     0.3090 H     1 <1>   0.0800 
 43 H       -8.1960     2.3720     0.8720 H     1 <1>   0.1500 
 44 H      -11.7580     0.2740     2.2630 H     1 <1>   0.4000 
 45 H      -11.5480    -1.3980     1.8700 H     1 <1>   0.4000 
@<TRIPOS>BOND
  1   1   2  2   
  2   2   3  am  
  3   2   4  am  
  4   3   5  am  
  5   3   6  1   
  6   4   7  1   
  7   4  26  1   
  8   5   7  1   
  9   5   8  2   
 10   6   9  1   
 11   6  27  1   
 12   6  28  1   
 13   7  29  1   
 14   7  30  1   
 15   9  10  2   
 16   9  11  am  
 17  11  12  1   
 18  11  13  1   
 19  12  14  1   
 20  12  31  1   
 21  12  32  1   
 22  13  15  1   
 23  13  33  1   
 24  13  34  1   
 25  14  16  1   
 26  14  17  1   
 27  14  18  1   
 28  15  17  1   
 29  15  35  1   
 30  15  36  1   
 31  16  19  ar  
 32  16  20  ar  
 33  17  37  1   
 34  17  38  1   
 35  18  21  1   
 36  18  39  1   
 37  18  40  1   
 38  19  22  ar  
 39  20  21  1   
 40  20  23  ar  
 41  21  41  1   
 42  21  42  1   
 43  22  24  ar  
 44  22  25  1   
 45  23  24  ar  
 46  23  43  1   
 47  25  44  1   
 48  25  45  1   
@<TRIPOS>SUBSTRUCTURE
  1 ****  12 GROUP 4 **** **** 0

# MOE 2024.06 (io_trps.svl 2023.06)
