@<TRIPOS>MOLECULE
NONAME
51 54 1 0 0 
SMALL
USER_CHARGES


@<TRIPOS>ATOM
  1 O        3.2510     1.2020     1.5400 O.3   1 <1>  -0.0190 
  2 N        3.1620     0.0520     0.9360 N.2   1 <1>  -0.4100 
  3 C        2.4870     2.1060     0.9860 C.2   1 <1>  -0.0400 
  4 C        2.3250     0.2170    -0.0230 C.2   1 <1>   0.1080 
  5 C        1.8510     1.5250    -0.0450 C.2   1 <1>  -0.1500 
  6 C        2.4720     3.5070     1.5740 C.3   1 <1>   0.0200 
  7 C        1.9180    -0.8720    -0.9910 C.3   1 <1>  -0.0590 
  8 C        1.6580     4.5080     0.7300 C.3   1 <1>  -0.0800 
  9 C        1.4730     5.8930     1.3640 C.3   1 <1>   0.2000 
 10 C        2.2780     4.7930    -0.6510 C.3   1 <1>   0.1100 
 11 O        2.6390     6.2660     2.0120 O.3   1 <1>  -0.6800 
 12 C        1.3430     6.7910     0.1420 C.3   1 <1>   0.1100 
 13 N        2.3620     6.2520    -0.7630 N.3   1 <1>  -0.8100 
 14 C        2.2820     6.7680    -2.1400 C.3   1 <1>   0.2900 
 15 C        2.5260     8.2700    -2.1860 C.2   1 <1>   0.0060 
 16 N        1.7160     9.1090    -2.7520 N.2   1 <1>  -0.5650 
 17 N        3.6290     8.8450    -1.6260 N.pl3 1 <1>   0.3260 
 18 C        2.3070    10.3020    -2.5560 C.2   1 <1>   0.0770 
 19 C        4.6860     8.2470    -0.8930 C.ar  1 <1>  -0.0230 
 20 C        3.4630    10.1620    -1.8770 C.2   1 <1>  -0.3020 
 21 C        4.6930     8.3050     0.4960 C.ar  1 <1>  -0.1500 
 22 C        5.7120     7.5730    -1.5440 C.ar  1 <1>  -0.1500 
 23 C        5.6910     7.6850     1.2250 C.ar  1 <1>  -0.1500 
 24 C        6.7140     6.9560    -0.8180 C.ar  1 <1>  -0.1500 
 25 C        6.7080     7.0000     0.5670 C.ar  1 <1>   0.0820 
 26 O        7.7170     6.3520     1.2040 O.3   1 <1>  -0.3630 
 27 C        7.7120     6.2040     2.6070 C.3   1 <1>   0.0400 
 28 H        1.1410     1.9280    -0.7410 H     1 <1>   0.1500 
 29 H        2.0590     3.4570     2.5660 H     1 <1>   0.0800 
 30 H        3.4900     3.8480     1.6620 H     1 <1>   0.0800 
 31 H        0.8540    -1.0150    -0.9530 H     1 <1>   0.0800 
 32 H        2.4020    -1.7950    -0.7280 H     1 <1>   0.0800 
 33 H        2.2060    -0.6000    -1.9890 H     1 <1>   0.0800 
 34 H        0.6780     4.0960     0.5700 H     1 <1>   0.0800 
 35 H        0.6480     5.9580     2.0520 H     1 <1>   0.0800 
 36 H        1.6490     4.3870    -1.4260 H     1 <1>   0.0800 
 37 H        3.2660     4.3710    -0.7400 H     1 <1>   0.0800 
 38 H        3.3100     6.3960     1.3030 H     1 <1>   0.4000 
 39 H        1.5210     7.8250     0.3810 H     1 <1>   0.0800 
 40 H        0.3630     6.6860    -0.2940 H     1 <1>   0.0800 
 41 H        3.0280     6.2800    -2.7430 H     1 <1>   0.0800 
 42 H        1.3140     6.5520    -2.5580 H     1 <1>   0.0800 
 43 H        1.8590    11.2120    -2.9220 H     1 <1>   0.1500 
 44 H        4.1730    10.9010    -1.5560 H     1 <1>   0.1500 
 45 H        3.9040     8.8280     1.0100 H     1 <1>   0.1500 
 46 H        5.7250     7.5270    -2.6190 H     1 <1>   0.1500 
 47 H        5.6580     7.7440     2.2970 H     1 <1>   0.1500 
 48 H        7.5070     6.4310    -1.3190 H     1 <1>   0.1500 
 49 H        8.5640     5.6090     2.8820 H     1 <1>   0.0800 
 50 H        6.8060     5.7040     2.9020 H     1 <1>   0.0800 
 51 H        7.7820     7.1750     3.0620 H     1 <1>   0.0800 
@<TRIPOS>BOND
  1   1   2  1   
  2   1   3  1   
  3   2   4  2   
  4   3   5  2   
  5   3   6  1   
  6   4   5  1   
  7   4   7  1   
  8   5  28  1   
  9   6   8  1   
 10   6  29  1   
 11   6  30  1   
 12   7  31  1   
 13   7  32  1   
 14   7  33  1   
 15   8   9  1   
 16   8  10  1   
 17   8  34  1   
 18   9  11  1   
 19   9  12  1   
 20   9  35  1   
 21  10  13  1   
 22  10  36  1   
 23  10  37  1   
 24  11  38  1   
 25  12  13  1   
 26  12  39  1   
 27  12  40  1   
 28  13  14  1   
 29  14  15  1   
 30  14  41  1   
 31  14  42  1   
 32  15  16  2   
 33  15  17  1   
 34  16  18  1   
 35  17  19  1   
 36  17  20  1   
 37  18  20  2   
 38  18  43  1   
 39  19  21  ar  
 40  19  22  ar  
 41  20  44  1   
 42  21  23  ar  
 43  21  45  1   
 44  22  24  ar  
 45  22  46  1   
 46  23  25  ar  
 47  23  47  1   
 48  24  25  ar  
 49  24  48  1   
 50  25  26  1   
 51  26  27  1   
 52  27  49  1   
 53  27  50  1   
 54  27  51  1   
@<TRIPOS>SUBSTRUCTURE
  1 ****  13 GROUP 4 **** **** 0

# MOE 2024.06 (io_trps.svl 2023.06)
