@<TRIPOS>MOLECULE
NONAME
35 38 1 0 0 
SMALL
USER_CHARGES


@<TRIPOS>ATOM
  1 F       -0.3260    -1.2770     0.7810 F     1 <1>  -0.1900 
  2 C       -1.2310    -2.2210     0.7530 C.ar  1 <1>   0.1900 
  3 C       -2.3150    -2.0800    -0.0800 C.ar  1 <1>  -0.1500 
  4 C       -1.0420    -3.3310     1.5830 C.ar  1 <1>  -0.1500 
  5 C       -3.2590    -3.1040    -0.0840 C.ar  1 <1>   0.2270 
  6 C       -1.9780    -4.3420     1.5770 C.ar  1 <1>  -0.1500 
  7 N       -4.4100    -3.2160    -0.8050 N.2   1 <1>  -0.5650 
  8 C       -3.0860    -4.2110     0.7330 C.ar  1 <1>  -0.1520 
  9 C       -4.9070    -4.3480    -0.4350 C.2   1 <1>   0.0060 
 10 N       -4.1620    -5.0000     0.4900 N.pl3 1 <1>   0.0330 
 11 C       -6.2050    -4.9510    -0.9450 C.3   1 <1>   0.3890 
 12 N       -6.0500    -6.4250    -1.1400 N.pl3 1 <1>  -0.8210 
 13 C       -6.6050    -7.2320    -0.1530 C.2   1 <1>   0.5990 
 14 C       -6.1490    -6.8680    -2.5590 C.3   1 <1>   0.1290 
 15 N       -6.5040    -7.0120     1.1010 N.2   1 <1>  -0.4100 
 16 N       -7.2850    -8.3290    -0.4470 N.2   1 <1>  -0.5650 
 17 O       -7.1370    -7.9840     1.7050 O.3   1 <1>  -0.0190 
 18 C       -7.5760    -8.7310     0.7220 C.2   1 <1>   0.3930 
 19 C       -8.3730    -9.9790     1.0680 C.3   1 <1>  -0.0150 
 20 C       -9.4110   -10.5310     0.1380 C.3   1 <1>  -0.2000 
 21 C       -9.8250    -9.8790     1.4240 C.3   1 <1>  -0.2000 
 22 H       -2.4480    -1.2250    -0.7120 H     1 <1>   0.1500 
 23 H       -0.1710    -3.3760     2.2100 H     1 <1>   0.1500 
 24 H       -1.8700    -5.2130     2.2000 H     1 <1>   0.1500 
 25 H       -4.3890    -5.9200     0.8830 H     1 <1>   0.2700 
 26 H       -6.4720    -4.4750    -1.8720 H     1 <1>   0.0800 
 27 H       -6.9890    -4.7480    -0.2350 H     1 <1>   0.0800 
 28 H       -5.4920    -6.2780    -3.1750 H     1 <1>   0.0800 
 29 H       -7.1610    -6.7620    -2.9090 H     1 <1>   0.0800 
 30 H       -5.8570    -7.9010    -2.6420 H     1 <1>   0.0800 
 31 H       -7.7770   -10.6900     1.6120 H     1 <1>   0.1000 
 32 H       -9.5000   -11.5990     0.0420 H     1 <1>   0.1000 
 33 H       -9.5960   -10.0170    -0.7890 H     1 <1>   0.1000 
 34 H      -10.3060    -8.9170     1.3780 H     1 <1>   0.1000 
 35 H      -10.2060   -10.4950     2.2200 H     1 <1>   0.1000 
@<TRIPOS>BOND
  1   1   2  1   
  2   2   3  ar  
  3   2   4  ar  
  4   3   5  ar  
  5   3  22  1   
  6   4   6  ar  
  7   4  23  1   
  8   5   7  1   
  9   5   8  ar  
 10   6   8  ar  
 11   6  24  1   
 12   7   9  2   
 13   8  10  1   
 14   9  10  1   
 15   9  11  1   
 16  10  25  1   
 17  11  12  1   
 18  11  26  1   
 19  11  27  1   
 20  12  13  1   
 21  12  14  1   
 22  13  15  2   
 23  13  16  1   
 24  14  28  1   
 25  14  29  1   
 26  14  30  1   
 27  15  17  1   
 28  16  18  2   
 29  17  18  1   
 30  18  19  1   
 31  19  20  1   
 32  19  21  1   
 33  19  31  1   
 34  20  21  1   
 35  20  32  1   
 36  20  33  1   
 37  21  34  1   
 38  21  35  1   
@<TRIPOS>SUBSTRUCTURE
  1 ****  10 GROUP 4 **** **** 0

# MOE 2024.06 (io_trps.svl 2023.06)
