@<TRIPOS>MOLECULE
NONAME
47 50 1 0 0 
SMALL
USER_CHARGES


@<TRIPOS>ATOM
  1 F       -2.3980     0.5990    -0.7250 F     1 <1>  -0.3400 
  2 C       -2.9750    -0.4170    -0.1010 C.3   1 <1>   0.8800 
  3 F       -1.9940    -1.2460     0.2320 F     1 <1>  -0.3400 
  4 O       -3.8240    -1.0660    -1.0210 O.3   1 <1>  -0.3630 
  5 C       -4.7000    -2.0190    -0.6310 C.ar  1 <1>   0.0820 
  6 C       -4.8420    -2.4670     0.6800 C.ar  1 <1>  -0.1500 
  7 C       -5.4950    -2.5760    -1.6200 C.ar  1 <1>  -0.1500 
  8 C       -5.7720    -3.4470     0.9780 C.ar  1 <1>  -0.1500 
  9 C       -6.4160    -3.5590    -1.3120 C.ar  1 <1>  -0.1500 
 10 C       -6.5860    -4.0140    -0.0040 C.ar  1 <1>   0.0860 
 11 C       -7.5450    -5.0510     0.3360 C.2   1 <1>   0.5440 
 12 O       -7.2230    -5.9140     1.1320 O.2   1 <1>  -0.5700 
 13 N       -8.8180    -5.0910    -0.1990 N.am  1 <1>  -0.6600 
 14 C       -9.5550    -3.8820    -0.6900 C.3   1 <1>   0.1400 
 15 C       -9.6450    -6.3300    -0.1520 C.3   1 <1>   0.1400 
 16 C      -10.8140    -3.6130     0.1600 C.3   1 <1>   0.1430 
 17 C      -10.8950    -6.1000     0.7060 C.3   1 <1>  -0.1600 
 18 C      -11.5510    -2.4270    -0.4350 C.ar  1 <1>   0.1670 
 19 C      -11.6950    -4.8800     0.2190 C.3   1 <1>  -0.1600 
 20 C      -10.4430    -3.1000     1.5790 C.3   1 <1>  -0.1600 
 21 N      -12.2370    -2.4400    -1.5540 N.ar  1 <1>  -0.6200 
 22 C      -11.4040    -1.3080     0.3320 C.ar  1 <1>  -0.1430 
 23 C      -10.5500    -1.5650     1.5480 C.3   1 <1>  -0.0170 
 24 C      -12.7770    -1.2720    -1.8680 C.ar  1 <1>   0.7200 
 25 C      -12.0210    -0.1560    -0.0920 C.ar  1 <1>   0.1600 
 26 N      -12.7230    -0.1280    -1.2020 N.ar  1 <1>  -0.6200 
 27 N      -13.4910    -1.2510    -2.9940 N.pl3 1 <1>  -0.9000 
 28 H       -3.4870    -0.0670     0.7760 H     1 <1>   0.0800 
 29 H       -4.2380    -2.0820     1.4800 H     1 <1>   0.1500 
 30 H       -5.3800    -2.2380    -2.6360 H     1 <1>   0.1500 
 31 H       -5.8710    -3.7990     1.9910 H     1 <1>   0.1500 
 32 H       -7.0130    -3.9910    -2.0970 H     1 <1>   0.1500 
 33 H       -9.8490    -4.0470    -1.7130 H     1 <1>   0.0800 
 34 H       -8.9260    -3.0110    -0.6630 H     1 <1>   0.0800 
 35 H       -9.0760    -7.1530     0.2490 H     1 <1>   0.0800 
 36 H       -9.9360    -6.5910    -1.1550 H     1 <1>   0.0800 
 37 H      -10.5900    -5.9640     1.7290 H     1 <1>   0.0800 
 38 H      -11.5150    -6.9770     0.6650 H     1 <1>   0.0800 
 39 H      -12.0730    -5.0860    -0.7680 H     1 <1>   0.0800 
 40 H      -12.5440    -4.7120     0.8590 H     1 <1>   0.0800 
 41 H       -9.4660    -3.4240     1.8930 H     1 <1>   0.0800 
 42 H      -11.1600    -3.4680     2.2920 H     1 <1>   0.0800 
 43 H       -9.5800    -1.1190     1.4110 H     1 <1>   0.0800 
 44 H      -11.0070    -1.1830     2.4440 H     1 <1>   0.0800 
 45 H      -11.9380     0.7500     0.4830 H     1 <1>   0.1500 
 46 H      -14.1420    -0.4750    -3.0740 H     1 <1>   0.4000 
 47 H      -13.8140    -2.1570    -3.3180 H     1 <1>   0.4000 
@<TRIPOS>BOND
  1   1   2  1   
  2   2   3  1   
  3   2   4  1   
  4   2  28  1   
  5   4   5  1   
  6   5   6  ar  
  7   5   7  ar  
  8   6   8  ar  
  9   6  29  1   
 10   7   9  ar  
 11   7  30  1   
 12   8  10  ar  
 13   8  31  1   
 14   9  10  ar  
 15   9  32  1   
 16  10  11  1   
 17  11  12  2   
 18  11  13  am  
 19  13  14  1   
 20  13  15  1   
 21  14  16  1   
 22  14  33  1   
 23  14  34  1   
 24  15  17  1   
 25  15  35  1   
 26  15  36  1   
 27  16  18  1   
 28  16  19  1   
 29  16  20  1   
 30  17  19  1   
 31  17  37  1   
 32  17  38  1   
 33  18  21  ar  
 34  18  22  ar  
 35  19  39  1   
 36  19  40  1   
 37  20  23  1   
 38  20  41  1   
 39  20  42  1   
 40  21  24  ar  
 41  22  23  1   
 42  22  25  ar  
 43  23  43  1   
 44  23  44  1   
 45  24  26  ar  
 46  24  27  1   
 47  25  26  ar  
 48  25  45  1   
 49  27  46  1   
 50  27  47  1   
@<TRIPOS>SUBSTRUCTURE
  1 ****  14 GROUP 4 **** **** 0

# MOE 2024.06 (io_trps.svl 2023.06)
