@<TRIPOS>MOLECULE
NONAME
53 54 1 0 0 
SMALL
USER_CHARGES


@<TRIPOS>ATOM
  1 O       -4.4430     2.8040     1.2670 O.2   1 <1>  -0.5700 
  2 C       -3.4940     2.4140     0.6240 C.2   1 <1>   0.5690 
  3 N       -3.2690     1.0660     0.5000 N.am  1 <1>  -0.6600 
  4 C       -2.6120     3.4650    -0.0460 C.3   1 <1>   0.0440 
  5 C       -2.2800     0.4890    -0.4720 C.3   1 <1>   0.3210 
  6 C       -3.8670     0.1010     1.4810 C.3   1 <1>   0.1400 
  7 C       -1.1210     3.2270     0.1720 C.ar  1 <1>  -0.1440 
  8 C       -2.6990    -0.8820    -1.0070 C.2   1 <1>   0.0460 
  9 C       -5.2530    -0.4270     1.0550 C.3   1 <1>   0.3430 
 10 C       -0.2560     3.1360    -0.9070 C.ar  1 <1>  -0.1500 
 11 C       -0.6190     3.0810     1.4530 C.ar  1 <1>  -0.1500 
 12 N       -3.8230    -1.0370    -1.7420 N.2   1 <1>  -0.5650 
 13 C       -2.0530    -2.0650    -0.8660 C.2   1 <1>  -0.3320 
 14 N       -6.1640     0.6790     0.6200 N.4   1 <1>  -0.9590 
 15 C        1.0940     2.8800    -0.7190 C.ar  1 <1>  -0.1430 
 16 C        0.7250     2.8280     1.6490 C.ar  1 <1>  -0.1500 
 17 C       -3.8250    -2.2940    -2.0470 C.2   1 <1>   0.0360 
 18 N       -2.7770    -2.9760    -1.5420 N.pl3 1 <1>   0.0330 
 19 C       -0.7620    -2.4280    -0.1480 C.3   1 <1>  -0.0600 
 20 C       -7.5210     0.5890     1.2220 C.3   1 <1>   0.2630 
 21 C       -6.2120     0.7540    -0.8700 C.3   1 <1>   0.2630 
 22 C        1.5890     2.7220     0.5700 C.ar  1 <1>  -0.1430 
 23 C        2.0050     2.7840    -1.9360 C.3   1 <1>  -0.0970 
 24 C        3.0630     2.4430     0.8290 C.3   1 <1>  -0.0970 
 25 H       -2.8620     4.4300     0.3540 H     1 <1>   0.0800 
 26 H       -2.8420     3.4840    -1.0950 H     1 <1>   0.0800 
 27 H       -1.3210     0.4150     0.0100 H     1 <1>   0.0800 
 28 H       -2.1740     1.1430    -1.3170 H     1 <1>   0.0800 
 29 H       -3.9650     0.5890     2.4360 H     1 <1>   0.0800 
 30 H       -3.2000    -0.7320     1.6260 H     1 <1>   0.0800 
 31 H       -5.6860    -0.9500     1.8900 H     1 <1>   0.0800 
 32 H       -5.1310    -1.1380     0.2560 H     1 <1>   0.0800 
 33 H       -0.6320     3.2640    -1.9070 H     1 <1>   0.1500 
 34 H       -1.2700     3.1610     2.3080 H     1 <1>   0.1500 
 35 H       -5.7000     1.5590     0.9460 H     1 <1>   0.4500 
 36 H        1.0960     2.7170     2.6530 H     1 <1>   0.1500 
 37 H       -4.5760    -2.7750    -2.6500 H     1 <1>   0.1500 
 38 H       -2.5690    -3.9720    -1.6690 H     1 <1>   0.2700 
 39 H       -0.3340    -1.5720     0.3400 H     1 <1>   0.0800 
 40 H       -0.0430    -2.8080    -0.8520 H     1 <1>   0.0800 
 41 H       -0.9490    -3.1830     0.5960 H     1 <1>   0.0800 
 42 H       -8.0130    -0.3160     0.9040 H     1 <1>   0.0800 
 43 H       -8.1180     1.4340     0.9180 H     1 <1>   0.0800 
 44 H       -7.4520     0.5890     2.2980 H     1 <1>   0.0800 
 45 H       -6.6020    -0.1630    -1.2810 H     1 <1>   0.0800 
 46 H       -5.2200     0.9060    -1.2630 H     1 <1>   0.0800 
 47 H       -6.8340     1.5750    -1.1850 H     1 <1>   0.0800 
 48 H        1.4530     2.9300    -2.8460 H     1 <1>   0.0800 
 49 H        2.4690     1.8150    -1.9740 H     1 <1>   0.0800 
 50 H        2.7690     3.5380    -1.8820 H     1 <1>   0.0800 
 51 H        3.3580     1.5310     0.3420 H     1 <1>   0.0800 
 52 H        3.2580     2.3410     1.8810 H     1 <1>   0.0800 
 53 H        3.6610     3.2520     0.4530 H     1 <1>   0.0800 
@<TRIPOS>BOND
  1   1   2  2   
  2   2   3  am  
  3   2   4  1   
  4   3   5  1   
  5   3   6  1   
  6   4   7  1   
  7   4  25  1   
  8   4  26  1   
  9   5   8  1   
 10   5  27  1   
 11   5  28  1   
 12   6   9  1   
 13   6  29  1   
 14   6  30  1   
 15   7  10  ar  
 16   7  11  ar  
 17   8  12  1   
 18   8  13  2   
 19   9  14  1   
 20   9  31  1   
 21   9  32  1   
 22  10  15  ar  
 23  10  33  1   
 24  11  16  ar  
 25  11  34  1   
 26  12  17  2   
 27  13  18  1   
 28  13  19  1   
 29  14  20  1   
 30  14  21  1   
 31  14  35  1   
 32  15  22  ar  
 33  15  23  1   
 34  16  22  ar  
 35  16  36  1   
 36  17  18  1   
 37  17  37  1   
 38  18  38  1   
 39  19  39  1   
 40  19  40  1   
 41  19  41  1   
 42  20  42  1   
 43  20  43  1   
 44  20  44  1   
 45  21  45  1   
 46  21  46  1   
 47  21  47  1   
 48  22  24  1   
 49  23  48  1   
 50  23  49  1   
 51  23  50  1   
 52  24  51  1   
 53  24  52  1   
 54  24  53  1   
@<TRIPOS>SUBSTRUCTURE
  1 ****   5 GROUP 4 **** **** 0

# MOE 2024.06 (io_trps.svl 2023.06)
