@<TRIPOS>MOLECULE
NONAME
49 50 1 0 0 
SMALL
USER_CHARGES


@<TRIPOS>ATOM
  1 S        0.2600    -0.0620     0.1120 S.o2  1 <1>   1.3330 
  2 O        0.1980    -1.1260     1.0890 O.2   1 <1>  -0.6500 
  3 O       -0.4170     1.1880     0.3730 O.2   1 <1>  -0.6500 
  4 N       -0.3020    -0.6800    -1.3660 N.am  1 <1>  -0.8490 
  5 C        1.9800     0.3020    -0.2360 C.3   1 <1>  -0.0550 
  6 C       -0.0370    -2.1120    -1.5420 C.3   1 <1>   0.1160 
  7 C       -1.7270    -0.4050    -1.5790 C.3   1 <1>   0.1160 
  8 C        2.7030     0.9960     0.9310 C.3   1 <1>  -0.0800 
  9 C        4.1600     1.3090     0.5980 C.3   1 <1>   0.2200 
 10 C        2.7960     0.1590     2.2070 C.3   1 <1>   0.1200 
 11 N        4.3390     2.7720     0.5140 N.am  1 <1>  -0.7300 
 12 C        4.9430     0.7140     1.7670 C.3   1 <1>   0.1200 
 13 O        4.0130     0.5110     2.7790 O.3   1 <1>  -0.5600 
 14 C        4.2120     3.5060    -0.6280 C.2   1 <1>   0.7150 
 15 O        4.0140     2.9060    -1.6670 O.2   1 <1>  -0.5700 
 16 C        4.2940     4.9440    -0.5850 C.2   1 <1>  -0.0450 
 17 S        4.6880     5.7190     0.9380 S.3   1 <1>  -0.0800 
 18 C        4.1310     5.9360    -1.4950 C.2   1 <1>   0.0460 
 19 C        4.5920     7.2850     0.1780 C.2   1 <1>   0.1980 
 20 N        4.2990     7.2330    -1.0600 N.2   1 <1>  -0.5650 
 21 C        3.7760     5.7970    -2.9630 C.3   1 <1>  -0.0590 
 22 C        4.8620     8.5040     1.0580 C.3   1 <1>   0.1000 
 23 C        3.6260     8.8460     1.9000 C.3   1 <1>  -0.2400 
 24 C        5.2810     9.7240     0.2250 C.3   1 <1>  -0.2400 
 25 H        2.4920    -0.6060    -0.4850 H     1 <1>   0.0800 
 26 H        2.0250     0.9480    -1.0920 H     1 <1>   0.0800 
 27 H       -0.3320    -2.4230    -2.5300 H     1 <1>   0.0800 
 28 H       -0.5850    -2.6880    -0.8140 H     1 <1>   0.0800 
 29 H        1.0130    -2.3130    -1.4220 H     1 <1>   0.0800 
 30 H       -2.0450    -0.7950    -2.5310 H     1 <1>   0.0800 
 31 H       -1.9010     0.6580    -1.5780 H     1 <1>   0.0800 
 32 H       -2.3160    -0.8530    -0.7960 H     1 <1>   0.0800 
 33 H        2.1720     1.9020     1.1740 H     1 <1>   0.0800 
 34 H        4.4800     0.8480    -0.3230 H     1 <1>   0.0800 
 35 H        2.8220    -0.8970     1.9960 H     1 <1>   0.0800 
 36 H        2.0020     0.3740     2.9020 H     1 <1>   0.0800 
 37 H        4.3750     3.2650     1.4090 H     1 <1>   0.3700 
 38 H        5.7250     1.3610     2.1230 H     1 <1>   0.0800 
 39 H        5.3500    -0.2460     1.5020 H     1 <1>   0.0800 
 40 H        3.6430     4.7720    -3.2480 H     1 <1>   0.0800 
 41 H        4.5610     6.2210    -3.5620 H     1 <1>   0.0800 
 42 H        2.8650     6.3300    -3.1630 H     1 <1>   0.0800 
 43 H        5.6740     8.2600     1.7200 H     1 <1>   0.0800 
 44 H        2.7930     9.0700     1.2570 H     1 <1>   0.0800 
 45 H        3.8210     9.6970     2.5270 H     1 <1>   0.0800 
 46 H        3.3600     8.0130     2.5260 H     1 <1>   0.0800 
 47 H        4.4880    10.0090    -0.4450 H     1 <1>   0.0800 
 48 H        6.1500     9.4860    -0.3620 H     1 <1>   0.0800 
 49 H        5.5140    10.5570     0.8640 H     1 <1>   0.0800 
@<TRIPOS>BOND
  1   1   2  2   
  2   1   3  2   
  3   1   4  am  
  4   1   5  1   
  5   4   6  1   
  6   4   7  1   
  7   5   8  1   
  8   5  25  1   
  9   5  26  1   
 10   6  27  1   
 11   6  28  1   
 12   6  29  1   
 13   7  30  1   
 14   7  31  1   
 15   7  32  1   
 16   8   9  1   
 17   8  10  1   
 18   8  33  1   
 19   9  11  1   
 20   9  12  1   
 21   9  34  1   
 22  10  13  1   
 23  10  35  1   
 24  10  36  1   
 25  11  14  am  
 26  11  37  1   
 27  12  13  1   
 28  12  38  1   
 29  12  39  1   
 30  14  15  2   
 31  14  16  1   
 32  16  17  1   
 33  16  18  2   
 34  17  19  1   
 35  18  20  1   
 36  18  21  1   
 37  19  20  2   
 38  19  22  1   
 39  21  40  1   
 40  21  41  1   
 41  21  42  1   
 42  22  23  1   
 43  22  24  1   
 44  22  43  1   
 45  23  44  1   
 46  23  45  1   
 47  23  46  1   
 48  24  47  1   
 49  24  48  1   
 50  24  49  1   
@<TRIPOS>SUBSTRUCTURE
  1 ****  11 GROUP 4 **** **** 0

# MOE 2024.06 (io_trps.svl 2023.06)
