@<TRIPOS>MOLECULE
NONAME
45 48 1 0 0 
SMALL
USER_CHARGES


@<TRIPOS>ATOM
  1 O       -2.2750     0.7950     1.3310 O.co2 1 <1>  -0.9000 
  2 C       -2.0160    -0.3730     0.9800 C.2   1 <1>   1.0330 
  3 O       -0.8190    -0.6920     0.8320 O.co2 1 <1>  -0.9000 
  4 C       -3.0550    -1.3670     0.7080 C.2   1 <1>  -0.0060 
  5 N       -4.4120    -1.2370     0.8890 N.2   1 <1>  -0.5650 
  6 C       -2.8420    -2.5970     0.2040 C.2   1 <1>  -0.0100 
  7 C       -4.8980    -2.3530     0.4670 C.2   1 <1>   0.5620 
  8 O       -3.9880    -3.2110     0.0530 O.3   1 <1>  -0.2800 
  9 N       -6.2440    -2.6700     0.3910 N.pl3 1 <1>  -0.8220 
 10 C       -7.2540    -1.6200     0.7310 C.3   1 <1>   0.2090 
 11 C       -6.7380    -3.7510    -0.4970 C.3   1 <1>   0.2090 
 12 C       -7.8420    -0.9750    -0.5400 C.3   1 <1>   0.1440 
 13 C       -7.3370    -3.1450    -1.7750 C.3   1 <1>  -0.1600 
 14 C       -8.8830     0.0360    -0.0970 C.ar  1 <1>   0.1660 
 15 C       -8.4040    -2.0750    -1.4670 C.3   1 <1>  -0.1600 
 16 C       -6.8200    -0.0650    -1.2730 C.3   1 <1>  -0.1600 
 17 N      -10.0950    -0.2430     0.3140 N.ar  1 <1>  -0.6200 
 18 C       -8.3930     1.3060    -0.1550 C.ar  1 <1>  -0.1430 
 19 C       -6.9690     1.3330    -0.6560 C.3   1 <1>  -0.0170 
 20 C      -10.8320     0.8120     0.6700 C.ar  1 <1>   0.7200 
 21 C       -9.2200     2.3270     0.2360 C.ar  1 <1>   0.1600 
 22 N      -10.4440     2.0920     0.6470 N.ar  1 <1>  -0.6200 
 23 N      -12.1190     0.5560     1.1050 N.pl3 1 <1>  -0.8380 
 24 C      -12.5730    -0.8140     1.4670 C.3   1 <1>   0.1290 
 25 C      -13.1350     1.6350     1.2410 C.3   1 <1>   0.1290 
 26 H       -1.9210    -3.0790    -0.0670 H     1 <1>   0.1500 
 27 H       -6.8190    -0.8620     1.3580 H     1 <1>   0.0800 
 28 H       -8.0490    -2.0790     1.2920 H     1 <1>   0.0800 
 29 H       -7.4900    -4.3120     0.0290 H     1 <1>   0.0800 
 30 H       -5.9390    -4.4260    -0.7520 H     1 <1>   0.0800 
 31 H       -7.7750    -3.9300    -2.3630 H     1 <1>   0.0800 
 32 H       -6.5400    -2.7120    -2.3530 H     1 <1>   0.0800 
 33 H       -8.7700    -1.6390    -2.3800 H     1 <1>   0.0800 
 34 H       -9.2380    -2.5470    -0.9780 H     1 <1>   0.0800 
 35 H       -7.0860     0.0020    -2.3120 H     1 <1>   0.0800 
 36 H       -5.8090    -0.4210    -1.2120 H     1 <1>   0.0800 
 37 H       -6.8040     2.1090    -1.3820 H     1 <1>   0.0800 
 38 H       -6.2880     1.4510     0.1710 H     1 <1>   0.0800 
 39 H       -8.8740     3.3460     0.2110 H     1 <1>   0.1500 
 40 H      -11.7480    -1.4000     1.8340 H     1 <1>   0.0800 
 41 H      -12.9850    -1.2970     0.5980 H     1 <1>   0.0800 
 42 H      -13.3220    -0.7650     2.2370 H     1 <1>   0.0800 
 43 H      -12.9430     2.4260     0.5370 H     1 <1>   0.0800 
 44 H      -13.0990     2.0380     2.2380 H     1 <1>   0.0800 
 45 H      -14.1190     1.2440     1.0490 H     1 <1>   0.0800 
@<TRIPOS>BOND
  1   1   2  ar  
  2   2   3  ar  
  3   2   4  1   
  4   4   5  1   
  5   4   6  2   
  6   5   7  2   
  7   6   8  1   
  8   6  26  1   
  9   7   8  1   
 10   7   9  1   
 11   9  10  1   
 12   9  11  1   
 13  10  12  1   
 14  10  27  1   
 15  10  28  1   
 16  11  13  1   
 17  11  29  1   
 18  11  30  1   
 19  12  14  1   
 20  12  15  1   
 21  12  16  1   
 22  13  15  1   
 23  13  31  1   
 24  13  32  1   
 25  14  17  ar  
 26  14  18  ar  
 27  15  33  1   
 28  15  34  1   
 29  16  19  1   
 30  16  35  1   
 31  16  36  1   
 32  17  20  ar  
 33  18  19  1   
 34  18  21  ar  
 35  19  37  1   
 36  19  38  1   
 37  20  22  ar  
 38  20  23  1   
 39  21  22  ar  
 40  21  39  1   
 41  23  24  1   
 42  23  25  1   
 43  24  40  1   
 44  24  41  1   
 45  24  42  1   
 46  25  43  1   
 47  25  44  1   
 48  25  45  1   
@<TRIPOS>SUBSTRUCTURE
  1 ****  10 GROUP 4 **** **** 0

# MOE 2024.06 (io_trps.svl 2023.06)
