@<TRIPOS>MOLECULE
NONAME
37 39 1 0 0 
SMALL
USER_CHARGES


@<TRIPOS>ATOM
  1 O       -0.1790    -0.7750    -0.4920 O.2   1 <1>  -0.5700 
  2 C       -0.8120    -1.7870    -0.2320 C.2   1 <1>   0.6900 
  3 N       -0.3710    -2.8920     0.3950 N.am  1 <1>  -0.3680 
  4 N       -2.0950    -2.0050    -0.5250 N.am  1 <1>  -0.4900 
  5 N       -1.3820    -3.8250     0.5050 N.2   1 <1>  -0.5120 
  6 C       -2.3940    -3.2630    -0.0520 C.2   1 <1>   0.4490 
  7 C       -3.7950    -3.8640    -0.2100 C.3   1 <1>   0.2700 
  8 N       -3.9660    -5.1510     0.5240 N.pl3 1 <1>  -0.8690 
  9 C       -4.9480    -6.0560     0.2080 C.ar  1 <1>   0.4100 
 10 N       -5.9290    -5.6420    -0.5700 N.ar  1 <1>  -0.6200 
 11 C       -4.9090    -7.3410     0.6890 C.ar  1 <1>  -0.1500 
 12 C       -6.8500    -6.5490    -0.8340 C.ar  1 <1>   0.4700 
 13 C       -5.9180    -8.2080     0.3360 C.ar  1 <1>   0.4100 
 14 N       -6.9120    -7.8020    -0.4350 N.ar  1 <1>  -0.6200 
 15 N       -5.9260    -9.5230     0.7690 N.pl3 1 <1>  -0.8380 
 16 C       -4.7150   -10.3730     0.6200 C.3   1 <1>   0.2090 
 17 C       -7.2030   -10.2780     0.9030 C.3   1 <1>   0.2090 
 18 C       -4.8850   -11.3110    -0.5800 C.3   1 <1>  -0.1600 
 19 C       -7.3830   -11.2200    -0.2930 C.3   1 <1>  -0.1600 
 20 C       -6.1710   -12.1430    -0.4780 C.3   1 <1>  -0.1600 
 21 H        0.5860    -3.0040     0.7390 H     1 <1>   0.3700 
 22 H       -2.6810    -1.3270    -0.9990 H     1 <1>   0.3700 
 23 H       -3.9820    -4.0260    -1.2570 H     1 <1>   0.0800 
 24 H       -4.5230    -3.1640     0.1580 H     1 <1>   0.0800 
 25 H       -3.0870    -5.5060     0.9160 H     1 <1>   0.4000 
 26 H       -4.1190    -7.6580     1.3340 H     1 <1>   0.1500 
 27 H       -7.6610    -6.2220    -1.4620 H     1 <1>   0.1500 
 28 H       -4.5780   -10.9480     1.5190 H     1 <1>   0.0800 
 29 H       -3.8410    -9.7640     0.4720 H     1 <1>   0.0800 
 30 H       -8.0360    -9.5980     0.9640 H     1 <1>   0.0800 
 31 H       -7.1760   -10.8480     1.8150 H     1 <1>   0.0800 
 32 H       -4.0340   -11.9650    -0.6430 H     1 <1>   0.0800 
 33 H       -4.9100   -10.7170    -1.4770 H     1 <1>   0.0800 
 34 H       -7.5230   -10.6220    -1.1770 H     1 <1>   0.0800 
 35 H       -8.2720   -11.8080    -0.1500 H     1 <1>   0.0800 
 36 H       -6.1000   -12.8140     0.3610 H     1 <1>   0.0800 
 37 H       -6.2960   -12.7320    -1.3700 H     1 <1>   0.0800 
@<TRIPOS>BOND
  1   1   2  2   
  2   2   3  am  
  3   2   4  am  
  4   3   5  1   
  5   3  21  1   
  6   4   6  1   
  7   4  22  1   
  8   5   6  2   
  9   6   7  1   
 10   7   8  1   
 11   7  23  1   
 12   7  24  1   
 13   8   9  1   
 14   8  25  1   
 15   9  10  ar  
 16   9  11  ar  
 17  10  12  ar  
 18  11  13  ar  
 19  11  26  1   
 20  12  14  ar  
 21  12  27  1   
 22  13  14  ar  
 23  13  15  1   
 24  15  16  1   
 25  15  17  1   
 26  16  18  1   
 27  16  28  1   
 28  16  29  1   
 29  17  19  1   
 30  17  30  1   
 31  17  31  1   
 32  18  20  1   
 33  18  32  1   
 34  18  33  1   
 35  19  20  1   
 36  19  34  1   
 37  19  35  1   
 38  20  36  1   
 39  20  37  1   
@<TRIPOS>SUBSTRUCTURE
  1 ****   9 GROUP 4 **** **** 0

# MOE 2024.06 (io_trps.svl 2023.06)
