@<TRIPOS>MOLECULE
NONAME
50 52 1 0 0 
SMALL
USER_CHARGES


@<TRIPOS>ATOM
  1 O        1.5300    -0.6710    -2.6500 O.2   1 <1>  -0.5700 
  2 C        1.8590    -0.9310    -1.5080 C.2   1 <1>   0.5440 
  3 N        2.3090     0.0880    -0.6870 N.am  1 <1>  -0.6600 
  4 C        1.8340    -2.3100    -1.0840 C.ar  1 <1>   0.0860 
  5 C        2.8810    -0.1620     0.6710 C.3   1 <1>   0.1400 
  6 C        2.3070     1.5090    -1.1390 C.3   1 <1>   0.1400 
  7 C        0.9150    -2.7780    -0.1380 C.ar  1 <1>   0.3920 
  8 C        2.7300    -3.2260    -1.6180 C.ar  1 <1>  -0.1500 
  9 C        4.3730    -0.5170     0.5910 C.3   1 <1>   0.1400 
 10 C        3.6530     2.2120    -0.9110 C.3   1 <1>  -0.1600 
 11 O        0.0330    -1.8950     0.3700 O.3   1 <1>  -0.3630 
 12 N        0.8560    -4.0340     0.3080 N.ar  1 <1>  -0.6200 
 13 C        2.6710    -4.5270    -1.1720 C.ar  1 <1>  -0.1500 
 14 N        5.2360     0.6350     0.1740 N.am  1 <1>  -0.6600 
 15 C        4.8740     1.3060    -1.1090 C.3   1 <1>   0.1400 
 16 C       -0.9640    -2.2770     1.2930 C.3   1 <1>   0.1200 
 17 C        1.7290    -4.8730    -0.2200 C.ar  1 <1>   0.1600 
 18 C        6.4370     0.8750     0.8140 C.2   1 <1>   0.7150 
 19 C       -1.7690    -1.0330     1.6580 C.3   1 <1>  -0.2400 
 20 O        6.8760     0.0240     1.5680 O.2   1 <1>  -0.5700 
 21 C        7.1870     2.0890     0.6020 C.2   1 <1>  -0.2370 
 22 N        8.5540     2.1250     0.4600 N.pl3 1 <1>   0.0480 
 23 C        6.7350     3.3830     0.5130 C.2   1 <1>  -0.1500 
 24 C        8.9260     3.4140     0.2720 C.2   1 <1>  -0.3020 
 25 C        9.4810     0.9780     0.5050 C.3   1 <1>   0.0160 
 26 C        7.8300     4.2140     0.3010 C.2   1 <1>  -0.1500 
 27 H        2.3570    -0.9710     1.1450 H     1 <1>   0.0800 
 28 H        2.7480     0.7040     1.2960 H     1 <1>   0.0800 
 29 H        1.5280     2.0410    -0.6210 H     1 <1>   0.0800 
 30 H        2.0790     1.5560    -2.1900 H     1 <1>   0.0800 
 31 H        3.4420    -2.9160    -2.3630 H     1 <1>   0.1500 
 32 H        4.5160    -1.3330    -0.0940 H     1 <1>   0.0800 
 33 H        4.6760    -0.8590     1.5660 H     1 <1>   0.0800 
 34 H        3.6750     2.6460     0.0720 H     1 <1>   0.0800 
 35 H        3.7130     3.0250    -1.6120 H     1 <1>   0.0800 
 36 H        3.3460    -5.2700    -1.5580 H     1 <1>   0.1500 
 37 H        5.7020     1.8970    -1.4600 H     1 <1>   0.0800 
 38 H        4.6730     0.5650    -1.8650 H     1 <1>   0.0800 
 39 H       -0.4850    -2.6940     2.1610 H     1 <1>   0.0800 
 40 H       -1.5900    -3.0200     0.8280 H     1 <1>   0.0800 
 41 H        1.6920    -5.8940     0.1230 H     1 <1>   0.1500 
 42 H       -1.1270    -0.2940     2.1040 H     1 <1>   0.0800 
 43 H       -2.5380    -1.2920     2.3620 H     1 <1>   0.0800 
 44 H       -2.2330    -0.6230     0.7780 H     1 <1>   0.0800 
 45 H        5.7190     3.7210     0.5990 H     1 <1>   0.1500 
 46 H        9.9520     3.7050     0.1320 H     1 <1>   0.1500 
 47 H        9.1390     0.2160    -0.1720 H     1 <1>   0.0800 
 48 H        9.5020     0.5820     1.5040 H     1 <1>   0.0800 
 49 H       10.4670     1.2960     0.2220 H     1 <1>   0.0800 
 50 H        7.7930     5.2840     0.1880 H     1 <1>   0.1500 
@<TRIPOS>BOND
  1   1   2  2   
  2   2   3  am  
  3   2   4  1   
  4   3   5  1   
  5   3   6  1   
  6   4   7  ar  
  7   4   8  ar  
  8   5   9  1   
  9   5  27  1   
 10   5  28  1   
 11   6  10  1   
 12   6  29  1   
 13   6  30  1   
 14   7  11  1   
 15   7  12  ar  
 16   8  13  ar  
 17   8  31  1   
 18   9  14  1   
 19   9  32  1   
 20   9  33  1   
 21  10  15  1   
 22  10  34  1   
 23  10  35  1   
 24  11  16  1   
 25  12  17  ar  
 26  13  17  ar  
 27  13  36  1   
 28  14  15  1   
 29  14  18  am  
 30  15  37  1   
 31  15  38  1   
 32  16  19  1   
 33  16  39  1   
 34  16  40  1   
 35  17  41  1   
 36  18  20  2   
 37  18  21  1   
 38  19  42  1   
 39  19  43  1   
 40  19  44  1   
 41  21  22  1   
 42  21  23  2   
 43  22  24  1   
 44  22  25  1   
 45  23  26  1   
 46  23  45  1   
 47  24  26  2   
 48  24  46  1   
 49  25  47  1   
 50  25  48  1   
 51  25  49  1   
 52  26  50  1   
@<TRIPOS>SUBSTRUCTURE
  1 ****   9 GROUP 4 **** **** 0

# MOE 2024.06 (io_trps.svl 2023.06)
