@<TRIPOS>MOLECULE
NONAME
56 60 1 0 0 
SMALL
USER_CHARGES


@<TRIPOS>ATOM
  1 S       -3.1310    -2.3600     1.2600 S.3   1 <1>  -0.0800 
  2 C       -3.9270    -0.8040     1.5210 C.2   1 <1>   0.0410 
  3 C       -3.3690    -2.8450     2.9280 C.2   1 <1>  -0.1100 
  4 C       -4.0660     0.1360     0.4380 C.2   1 <1>   0.2880 
  5 C       -4.3010    -0.7230     2.8210 C.2   1 <1>  -0.1500 
  6 C       -3.9980    -1.8720     3.6110 C.2   1 <1>  -0.1500 
  7 N       -3.9480     1.4210     0.6250 N.2   1 <1>  -0.7070 
  8 C       -4.3740    -0.1330    -0.9030 C.2   1 <1>  -0.1810 
  9 N       -4.1190     2.0160    -0.5770 N.pl3 1 <1>   0.5930 
 10 C       -4.3870     1.0700    -1.5120 C.2   1 <1>  -0.3020 
 11 C       -4.6640    -1.4840    -1.5220 C.3   1 <1>   0.5240 
 12 C       -4.0340     3.4230    -0.7800 C.ar  1 <1>  -0.0230 
 13 N       -6.1420    -1.6730    -1.5540 N.4   1 <1>  -0.9590 
 14 C       -4.8290     4.0670    -1.7270 C.ar  1 <1>  -0.1500 
 15 C       -3.1470     4.1920    -0.0300 C.ar  1 <1>  -0.1500 
 16 C       -6.7120    -1.8030    -0.1720 C.3   1 <1>   0.4230 
 17 C       -6.5190    -2.7610    -2.5100 C.3   1 <1>   0.2630 
 18 C       -4.7320     5.4340    -1.9230 C.ar  1 <1>  -0.1500 
 19 C       -3.0500     5.5580    -0.2240 C.ar  1 <1>  -0.1500 
 20 C       -6.4840    -3.1790     0.4570 C.3   1 <1>  -0.1600 
 21 C       -8.2290    -1.6320    -0.1820 C.3   1 <1>  -0.1600 
 22 C       -3.8410     6.1800    -1.1720 C.ar  1 <1>  -0.1500 
 23 C       -7.7400    -4.0210     0.1820 C.3   1 <1>  -0.0800 
 24 C       -8.8490    -3.0380    -0.2220 C.3   1 <1>  -0.0800 
 25 C       -8.2580    -4.7850     1.4120 C.3   1 <1>  -0.1600 
 26 C       -9.9980    -3.2390     0.7800 C.3   1 <1>  -0.1600 
 27 C       -9.3950    -3.9490     1.9870 C.3   1 <1>   0.2000 
 28 O       -8.8550    -3.0000     2.8260 O.3   1 <1>  -0.6800 
 29 H       -3.0050    -3.8130     3.2280 H     1 <1>   0.1500 
 30 H       -4.7850     0.1350     3.2560 H     1 <1>   0.1500 
 31 H       -4.2590    -1.9120     4.6560 H     1 <1>   0.1500 
 32 H       -4.5630     1.3340    -2.5380 H     1 <1>   0.1500 
 33 H       -4.1900    -2.2800    -0.9760 H     1 <1>   0.0800 
 34 H       -4.2750    -1.4900    -2.5270 H     1 <1>   0.0800 
 35 H       -6.5100    -0.7850    -1.9180 H     1 <1>   0.4500 
 36 H       -5.5350     3.5100    -2.3170 H     1 <1>   0.1500 
 37 H       -2.5280     3.7180     0.7140 H     1 <1>   0.1500 
 38 H       -6.2860    -1.0400     0.4590 H     1 <1>   0.0800 
 39 H       -6.1420    -3.7110    -2.1680 H     1 <1>   0.0800 
 40 H       -6.1110    -2.5610    -3.4880 H     1 <1>   0.0800 
 41 H       -7.5910    -2.8280    -2.5970 H     1 <1>   0.0800 
 42 H       -5.3500     5.9220    -2.6570 H     1 <1>   0.1500 
 43 H       -2.3590     6.1370     0.3640 H     1 <1>   0.1500 
 44 H       -5.5940    -3.6660     0.1050 H     1 <1>   0.0800 
 45 H       -6.3750    -3.0340     1.5180 H     1 <1>   0.0800 
 46 H       -8.5050    -1.1460     0.7370 H     1 <1>   0.0800 
 47 H       -8.5750    -1.0140    -0.9920 H     1 <1>   0.0800 
 48 H       -3.7650     7.2430    -1.3230 H     1 <1>   0.1500 
 49 H       -7.5490    -4.7170    -0.6180 H     1 <1>   0.0800 
 50 H       -9.1990    -3.2570    -1.2170 H     1 <1>   0.0800 
 51 H       -7.5000    -5.0060     2.1430 H     1 <1>   0.0800 
 52 H       -8.6770    -5.7190     1.0790 H     1 <1>   0.0800 
 53 H      -10.7200    -3.9040     0.3390 H     1 <1>   0.0800 
 54 H      -10.5090    -2.3310     1.0510 H     1 <1>   0.0800 
 55 H      -10.1140    -4.5280     2.5450 H     1 <1>   0.0800 
 56 H       -8.1790    -2.4920     2.3510 H     1 <1>   0.4000 
@<TRIPOS>BOND
  1   1   2  1   
  2   1   3  1   
  3   2   4  1   
  4   2   5  2   
  5   3   6  2   
  6   3  29  1   
  7   4   7  2   
  8   4   8  1   
  9   5   6  1   
 10   5  30  1   
 11   6  31  1   
 12   7   9  1   
 13   8  10  2   
 14   8  11  1   
 15   9  10  1   
 16   9  12  1   
 17  10  32  1   
 18  11  13  1   
 19  11  33  1   
 20  11  34  1   
 21  12  14  ar  
 22  12  15  ar  
 23  13  16  1   
 24  13  17  1   
 25  13  35  1   
 26  14  18  ar  
 27  14  36  1   
 28  15  19  ar  
 29  15  37  1   
 30  16  20  1   
 31  16  21  1   
 32  16  38  1   
 33  17  39  1   
 34  17  40  1   
 35  17  41  1   
 36  18  22  ar  
 37  18  42  1   
 38  19  22  ar  
 39  19  43  1   
 40  20  23  1   
 41  20  44  1   
 42  20  45  1   
 43  21  24  1   
 44  21  46  1   
 45  21  47  1   
 46  22  48  1   
 47  23  24  1   
 48  23  25  1   
 49  23  49  1   
 50  24  26  1   
 51  24  50  1   
 52  25  27  1   
 53  25  51  1   
 54  25  52  1   
 55  26  27  1   
 56  26  53  1   
 57  26  54  1   
 58  27  28  1   
 59  27  55  1   
 60  28  56  1   
@<TRIPOS>SUBSTRUCTURE
  1 ****   4 GROUP 4 **** **** 0

# MOE 2024.06 (io_trps.svl 2023.06)
