@<TRIPOS>MOLECULE
NONAME
58 61 1 0 0 
SMALL
USER_CHARGES


@<TRIPOS>ATOM
  1 S       -0.6380     0.1320     1.0720 S.o2  1 <1>   1.0900 
  2 O        0.6480    -0.3180     1.5510 O.2   1 <1>  -0.6500 
  3 O       -1.2210     1.3800     1.5060 O.2   1 <1>  -0.6500 
  4 C       -1.7810    -1.2020     1.2850 C.3   1 <1>  -0.0550 
  5 C       -0.6270     0.0290    -0.7110 C.3   1 <1>  -0.0550 
  6 C       -1.4470    -2.1630     0.1470 C.3   1 <1>   0.1760 
  7 C       -1.2570    -1.3130    -1.1280 C.3   1 <1>  -0.1600 
  8 N       -2.5080    -3.1880    -0.0210 N.pl3 1 <1>   0.3140 
  9 N       -3.7950    -2.8300    -0.1780 N.2   1 <1>  -0.7070 
 10 C       -2.3630    -4.5380    -0.0260 C.2   1 <1>  -0.3320 
 11 C       -4.4460    -3.9470    -0.2660 C.2   1 <1>   0.1080 
 12 C       -3.6020    -5.0580    -0.1770 C.2   1 <1>   0.0630 
 13 C       -1.0340    -5.2650     0.1310 C.3   1 <1>  -0.0600 
 14 C       -5.9470    -3.9750    -0.4560 C.3   1 <1>  -0.0590 
 15 N       -3.9230    -6.4380    -0.2540 N.am  1 <1>  -0.4930 
 16 C       -4.9150    -7.1360     0.3860 C.2   1 <1>   0.5440 
 17 O       -5.6760    -6.5530     1.1360 O.2   1 <1>  -0.5700 
 18 C       -5.0570    -8.5600     0.1590 C.ar  1 <1>   0.0860 
 19 C       -6.3140    -9.1670     0.1900 C.ar  1 <1>  -0.1500 
 20 C       -3.9610    -9.3870    -0.1010 C.ar  1 <1>  -0.1500 
 21 C       -6.4870   -10.5180    -0.0430 C.ar  1 <1>  -0.1430 
 22 C       -4.1220   -10.7380    -0.3340 C.ar  1 <1>  -0.1500 
 23 C       -5.3810   -11.3260    -0.3140 C.ar  1 <1>   0.1000 
 24 C       -7.8870   -11.1140    -0.0070 C.3   1 <1>  -0.0970 
 25 N       -5.5230   -12.6870    -0.5440 N.pl3 1 <1>  -0.8380 
 26 C       -5.4940   -13.6220     0.6170 C.3   1 <1>   0.2090 
 27 C       -5.0630   -13.2970    -1.8260 C.3   1 <1>   0.2090 
 28 C       -4.1800   -14.4230     0.6590 C.3   1 <1>   0.1200 
 29 C       -3.7900   -14.1440    -1.6350 C.3   1 <1>   0.1200 
 30 O       -3.9250   -15.0450    -0.5710 O.3   1 <1>  -0.5600 
 31 H       -2.7850    -0.8380     1.1730 H     1 <1>   0.0800 
 32 H       -1.6690    -1.6700     2.2430 H     1 <1>   0.0800 
 33 H        0.3820     0.1000    -1.0740 H     1 <1>   0.0800 
 34 H       -1.1960     0.8370    -1.1320 H     1 <1>   0.0800 
 35 H       -0.5190    -2.6530     0.3800 H     1 <1>   0.0800 
 36 H       -0.6370    -1.8270    -1.8410 H     1 <1>   0.0800 
 37 H       -2.2160    -1.1160    -1.5770 H     1 <1>   0.0800 
 38 H       -0.3660    -4.9980    -0.6690 H     1 <1>   0.0800 
 39 H       -1.1810    -6.3300     0.1120 H     1 <1>   0.0800 
 40 H       -0.5800    -5.0080     1.0710 H     1 <1>   0.0800 
 41 H       -6.2690    -3.0820    -0.9590 H     1 <1>   0.0800 
 42 H       -6.4260    -4.0290     0.5040 H     1 <1>   0.0800 
 43 H       -6.2320    -4.8290    -1.0400 H     1 <1>   0.0800 
 44 H       -3.3160    -6.9750    -0.8660 H     1 <1>   0.3700 
 45 H       -7.1680    -8.5480     0.4040 H     1 <1>   0.1500 
 46 H       -2.9690    -8.9740    -0.1090 H     1 <1>   0.1500 
 47 H       -3.2660   -11.3560    -0.5260 H     1 <1>   0.1500 
 48 H       -8.6340   -10.3500     0.1030 H     1 <1>   0.0800 
 49 H       -7.9690   -11.7990     0.8170 H     1 <1>   0.0800 
 50 H       -8.0770   -11.6500    -0.9190 H     1 <1>   0.0800 
 51 H       -6.3220   -14.3040     0.5400 H     1 <1>   0.0800 
 52 H       -5.6050   -13.0660     1.5320 H     1 <1>   0.0800 
 53 H       -4.8780   -12.5220    -2.5490 H     1 <1>   0.0800 
 54 H       -5.8470   -13.9250    -2.2120 H     1 <1>   0.0800 
 55 H       -4.2390   -15.1910     1.4090 H     1 <1>   0.0800 
 56 H       -3.3550   -13.7730     0.8940 H     1 <1>   0.0800 
 57 H       -2.9430   -13.5110    -1.4400 H     1 <1>   0.0800 
 58 H       -3.5920   -14.7150    -2.5250 H     1 <1>   0.0800 
@<TRIPOS>BOND
  1   1   2  2   
  2   1   3  2   
  3   1   4  1   
  4   1   5  1   
  5   4   6  1   
  6   4  31  1   
  7   4  32  1   
  8   5   7  1   
  9   5  33  1   
 10   5  34  1   
 11   6   7  1   
 12   6   8  1   
 13   6  35  1   
 14   7  36  1   
 15   7  37  1   
 16   8   9  1   
 17   8  10  1   
 18   9  11  2   
 19  10  12  2   
 20  10  13  1   
 21  11  12  1   
 22  11  14  1   
 23  12  15  1   
 24  13  38  1   
 25  13  39  1   
 26  13  40  1   
 27  14  41  1   
 28  14  42  1   
 29  14  43  1   
 30  15  16  am  
 31  15  44  1   
 32  16  17  2   
 33  16  18  1   
 34  18  19  ar  
 35  18  20  ar  
 36  19  21  ar  
 37  19  45  1   
 38  20  22  ar  
 39  20  46  1   
 40  21  23  ar  
 41  21  24  1   
 42  22  23  ar  
 43  22  47  1   
 44  23  25  1   
 45  24  48  1   
 46  24  49  1   
 47  24  50  1   
 48  25  26  1   
 49  25  27  1   
 50  26  28  1   
 51  26  51  1   
 52  26  52  1   
 53  27  29  1   
 54  27  53  1   
 55  27  54  1   
 56  28  30  1   
 57  28  55  1   
 58  28  56  1   
 59  29  30  1   
 60  29  57  1   
 61  29  58  1   
@<TRIPOS>SUBSTRUCTURE
  1 ****  15 GROUP 4 **** **** 0

# MOE 2024.06 (io_trps.svl 2023.06)
