@<TRIPOS>MOLECULE
NONAME
53 56 1 0 0 
SMALL
USER_CHARGES


@<TRIPOS>ATOM
  1 S        0.3510     0.7680     1.0300 S.o2  1 <1>   1.4470 
  2 O       -0.0800     0.5260     2.3910 O.2   1 <1>  -0.6500 
  3 O        0.6000     2.1320     0.6130 O.2   1 <1>  -0.6500 
  4 N       -0.8680     0.1740     0.0120 N.am  1 <1>  -0.8490 
  5 C        1.7840    -0.3050     0.6710 C.ar  1 <1>  -0.0090 
  6 C       -2.2140     0.4260     0.5570 C.3   1 <1>   0.1960 
  7 C       -0.6920     0.5260    -1.4110 C.3   1 <1>   0.1960 
  8 C        3.1020     0.0850     0.9180 C.ar  1 <1>  -0.1440 
  9 C        1.5750    -1.5790     0.1540 C.ar  1 <1>  -0.1500 
 10 C       -3.3380     0.1070    -0.4590 C.3   1 <1>   0.0000 
 11 C       -1.7390     1.5350    -1.8950 C.3   1 <1>  -0.1600 
 12 C        4.1480    -0.7740     0.6190 C.ar  1 <1>  -0.1500 
 13 C        3.4350     1.4440     1.5210 C.3   1 <1>  -0.0970 
 14 C        2.6080    -2.4570    -0.1610 C.ar  1 <1>   0.0530 
 15 C       -4.7400     0.2510     0.1670 C.3   1 <1>   0.2000 
 16 C       -3.1780     1.0190    -1.7030 C.3   1 <1>  -0.1600 
 17 C       -3.3310    -1.3950    -0.8130 C.3   1 <1>  -0.1600 
 18 C        3.9050    -2.0230     0.0840 C.ar  1 <1>  -0.1500 
 19 C        2.3400    -3.7610    -0.7210 C.2   1 <1>   0.0870 
 20 O       -4.8420     1.3290     1.0290 O.3   1 <1>  -0.6800 
 21 C       -5.0310    -1.0520     0.9140 C.3   1 <1>  -0.1600 
 22 C       -4.0610    -2.0920     0.3390 C.3   1 <1>  -0.1600 
 23 O        1.1320    -4.1000    -1.1140 O.3   1 <1>  -0.0190 
 24 C        3.1270    -4.8320    -0.9670 C.2   1 <1>  -0.1500 
 25 N        1.0730    -5.3050    -1.5970 N.2   1 <1>  -0.4100 
 26 C        2.2670    -5.7710    -1.5190 C.2   1 <1>   0.1080 
 27 C        2.6540    -7.1600    -1.9750 C.3   1 <1>  -0.0590 
 28 H       -2.3450    -0.1640     1.4480 H     1 <1>   0.0800 
 29 H       -2.2840     1.4640     0.8390 H     1 <1>   0.0800 
 30 H        0.2970     0.9160    -1.5890 H     1 <1>   0.0800 
 31 H       -0.7880    -0.3730    -1.9960 H     1 <1>   0.0800 
 32 H        0.5650    -1.9110    -0.0120 H     1 <1>   0.1500 
 33 H       -1.6020     2.4510    -1.3460 H     1 <1>   0.0800 
 34 H       -1.5710     1.7580    -2.9330 H     1 <1>   0.0800 
 35 H        5.1660    -0.4720     0.8010 H     1 <1>   0.1500 
 36 H        4.4670     1.4950     1.8180 H     1 <1>   0.0800 
 37 H        2.8330     1.6290     2.3940 H     1 <1>   0.0800 
 38 H        3.2540     2.2230     0.8020 H     1 <1>   0.0800 
 39 H       -5.4710     0.3840    -0.6130 H     1 <1>   0.0800 
 40 H       -3.4920     0.4930    -2.5880 H     1 <1>   0.0800 
 41 H       -3.8200     1.8790    -1.6050 H     1 <1>   0.0800 
 42 H       -3.8910    -1.5620    -1.7170 H     1 <1>   0.0800 
 43 H       -2.3440    -1.8000    -0.9490 H     1 <1>   0.0800 
 44 H        4.7350    -2.6670    -0.1440 H     1 <1>   0.1500 
 45 H       -4.3400     1.1590     1.8480 H     1 <1>   0.4000 
 46 H       -4.8670    -0.9490     1.9730 H     1 <1>   0.0800 
 47 H       -6.0500    -1.3510     0.7400 H     1 <1>   0.0800 
 48 H       -3.3500    -2.3800     1.0950 H     1 <1>   0.0800 
 49 H       -4.5760    -2.9730    -0.0030 H     1 <1>   0.0800 
 50 H        4.1770    -4.9580    -0.7870 H     1 <1>   0.1500 
 51 H        3.6950    -7.3430    -1.7860 H     1 <1>   0.0800 
 52 H        2.4640    -7.2580    -3.0280 H     1 <1>   0.0800 
 53 H        2.0660    -7.8880    -1.4470 H     1 <1>   0.0800 
@<TRIPOS>BOND
  1   1   2  2   
  2   1   3  2   
  3   1   4  am  
  4   1   5  1   
  5   4   6  1   
  6   4   7  1   
  7   5   8  ar  
  8   5   9  ar  
  9   6  10  1   
 10   6  28  1   
 11   6  29  1   
 12   7  11  1   
 13   7  30  1   
 14   7  31  1   
 15   8  12  ar  
 16   8  13  1   
 17   9  14  ar  
 18   9  32  1   
 19  10  15  1   
 20  10  16  1   
 21  10  17  1   
 22  11  16  1   
 23  11  33  1   
 24  11  34  1   
 25  12  18  ar  
 26  12  35  1   
 27  13  36  1   
 28  13  37  1   
 29  13  38  1   
 30  14  18  ar  
 31  14  19  1   
 32  15  20  1   
 33  15  21  1   
 34  15  39  1   
 35  16  40  1   
 36  16  41  1   
 37  17  22  1   
 38  17  42  1   
 39  17  43  1   
 40  18  44  1   
 41  19  23  1   
 42  19  24  2   
 43  20  45  1   
 44  21  22  1   
 45  21  46  1   
 46  21  47  1   
 47  22  48  1   
 48  22  49  1   
 49  23  25  1   
 50  24  26  1   
 51  24  50  1   
 52  25  26  2   
 53  26  27  1   
 54  27  51  1   
 55  27  52  1   
 56  27  53  1   
@<TRIPOS>SUBSTRUCTURE
  1 ****   4 GROUP 4 **** **** 0

# MOE 2024.06 (io_trps.svl 2023.06)
