@<TRIPOS>MOLECULE
NONAME
47 49 1 0 0 
SMALL
USER_CHARGES


@<TRIPOS>ATOM
  1 O        4.6280     3.9900    -0.1440 O.co2 1 <1>  -0.9000 
  2 C        4.8660     3.4750    -1.2440 C.2   1 <1>   0.9060 
  3 O        5.3020     4.1690    -2.1730 O.co2 1 <1>  -0.9000 
  4 C        4.7900     1.9650    -1.3970 C.3   1 <1>   0.0140 
  5 O        6.0940     1.3830    -1.3700 O.3   1 <1>  -0.3630 
  6 C        6.3330     0.4200    -0.4560 C.ar  1 <1>   0.0830 
  7 C        6.9430     0.7200     0.7610 C.ar  1 <1>  -0.1440 
  8 C        5.9980    -0.8870    -0.7730 C.ar  1 <1>  -0.1500 
  9 C        7.2190    -0.3140     1.6420 C.ar  1 <1>  -0.1500 
 10 C        7.3010     2.1490     1.1520 C.3   1 <1>   0.2540 
 11 C        6.2710    -1.9080     0.1190 C.ar  1 <1>  -0.1500 
 12 C        6.8850    -1.6210     1.3260 C.ar  1 <1>  -0.1500 
 13 N        8.7350     2.4770     0.9330 N.3   1 <1>  -0.8100 
 14 C        9.1740     3.7880     1.4700 C.3   1 <1>   0.1100 
 15 C        9.3870     2.0120    -0.3110 C.3   1 <1>   0.1100 
 16 C        9.3110     5.0170     0.5170 C.3   1 <1>   0.4230 
 17 C        9.2570     2.9650    -1.5190 C.3   1 <1>  -0.0800 
 18 N        8.3000     5.1470    -0.5890 N.4   1 <1>  -0.9590 
 19 C       10.7460     5.1940    -0.0350 C.3   1 <1>   0.1200 
 20 C       10.5720     3.6780    -1.8710 C.3   1 <1>   0.1200 
 21 C        8.0670     3.9200    -1.4170 C.3   1 <1>   0.3430 
 22 C        6.9740     5.6120    -0.0750 C.3   1 <1>   0.2630 
 23 O       11.2490     4.0910    -0.7250 O.3   1 <1>  -0.5600 
 24 H        4.3380     1.7290    -2.3400 H     1 <1>   0.0800 
 25 H        4.2000     1.5600    -0.5960 H     1 <1>   0.0800 
 26 H        5.5320    -1.0950    -1.7180 H     1 <1>   0.1500 
 27 H        7.7000    -0.1000     2.5810 H     1 <1>   0.1500 
 28 H        7.0820     2.2650     2.1990 H     1 <1>   0.0800 
 29 H        6.6660     2.8390     0.6400 H     1 <1>   0.0800 
 30 H        6.0110    -2.9220    -0.1270 H     1 <1>   0.1500 
 31 H        7.1040    -2.4130     2.0200 H     1 <1>   0.1500 
 32 H        8.5050     4.0670     2.2650 H     1 <1>   0.0800 
 33 H       10.1310     3.6340     1.9370 H     1 <1>   0.0800 
 34 H       10.4290     1.8400    -0.0990 H     1 <1>   0.0800 
 35 H        8.9890     1.0520    -0.5870 H     1 <1>   0.0800 
 36 H        9.1720     5.8750     1.1520 H     1 <1>   0.0800 
 37 H        9.0320     2.3330    -2.3600 H     1 <1>   0.0800 
 38 H        8.6280     5.8580    -1.2450 H     1 <1>   0.4500 
 39 H       11.4140     5.3610     0.7910 H     1 <1>   0.0800 
 40 H       10.8020     6.0530    -0.6800 H     1 <1>   0.0800 
 41 H       10.4170     4.5210    -2.5220 H     1 <1>   0.0800 
 42 H       11.2240     2.9820    -2.3710 H     1 <1>   0.0800 
 43 H        7.2430     3.3670    -1.0160 H     1 <1>   0.0800 
 44 H        7.7620     4.2210    -2.4060 H     1 <1>   0.0800 
 45 H        6.5620     4.8910     0.6100 H     1 <1>   0.0800 
 46 H        6.2740     5.7280    -0.8880 H     1 <1>   0.0800 
 47 H        7.0670     6.5570     0.4310 H     1 <1>   0.0800 
@<TRIPOS>BOND
  1   1   2  ar  
  2   2   3  ar  
  3   2   4  1   
  4   4   5  1   
  5   4  24  1   
  6   4  25  1   
  7   5   6  1   
  8   6   7  ar  
  9   6   8  ar  
 10   7   9  ar  
 11   7  10  1   
 12   8  11  ar  
 13   8  26  1   
 14   9  12  ar  
 15   9  27  1   
 16  10  13  1   
 17  10  28  1   
 18  10  29  1   
 19  11  12  ar  
 20  11  30  1   
 21  12  31  1   
 22  13  14  1   
 23  13  15  1   
 24  14  16  1   
 25  14  32  1   
 26  14  33  1   
 27  15  17  1   
 28  15  34  1   
 29  15  35  1   
 30  16  18  1   
 31  16  19  1   
 32  16  36  1   
 33  17  20  1   
 34  17  21  1   
 35  17  37  1   
 36  18  21  1   
 37  18  22  1   
 38  18  38  1   
 39  19  23  1   
 40  19  39  1   
 41  19  40  1   
 42  20  23  1   
 43  20  41  1   
 44  20  42  1   
 45  21  43  1   
 46  21  44  1   
 47  22  45  1   
 48  22  46  1   
 49  22  47  1   
@<TRIPOS>SUBSTRUCTURE
  1 ****  10 GROUP 4 **** **** 0

# MOE 2024.06 (io_trps.svl 2023.06)
