@<TRIPOS>MOLECULE
NONAME
38 39 1 0 0 
SMALL
USER_CHARGES


@<TRIPOS>ATOM
  1 O        0.2090     0.5910    -0.5830 O.2   1 <1>  -0.5700 
  2 C        0.1210     1.8050    -0.4640 C.2   1 <1>   0.6160 
  3 N       -0.9020     2.3750     0.2780 N.am  1 <1>  -0.4690 
  4 C        1.0560     2.6820    -1.0760 C.2   1 <1>  -0.1360 
  5 C       -0.9840     3.7400     0.4190 C.2   1 <1>  -0.0410 
  6 C       -1.9120     1.4910     0.9170 C.3   1 <1>   0.0600 
  7 C        0.9670     4.0310    -0.9340 C.2   1 <1>  -0.1500 
  8 C       -0.0800     4.6070    -0.1470 C.2   1 <1>   0.0140 
  9 C       -0.1850     6.0350     0.0380 C.2   1 <1>   0.6160 
 10 O       -1.2610     6.5400     0.3020 O.2   1 <1>  -0.5700 
 11 N        0.9380     6.8240    -0.0560 N.am  1 <1>  -0.4940 
 12 C        1.1110     8.2280     0.0210 C.2   1 <1>  -0.0880 
 13 N        0.2650     9.2000    -0.4260 N.pl3 1 <1>   0.3140 
 14 C        2.1870     8.8720     0.5350 C.2   1 <1>  -0.1810 
 15 N        0.7780    10.4310    -0.2190 N.2   1 <1>  -0.7070 
 16 C       -1.0110     9.0610    -1.1400 C.3   1 <1>   0.0160 
 17 C        1.9190    10.2270     0.3580 C.2   1 <1>   0.1080 
 18 C        3.4320     8.2830     1.1770 C.3   1 <1>  -0.0590 
 19 C        2.8230    11.3760     0.7690 C.3   1 <1>   0.0210 
 20 C        3.8120    11.7290    -0.3450 C.3   1 <1>  -0.2400 
 21 H        1.8260     2.2120    -1.6590 H     1 <1>   0.1500 
 22 H       -1.8010     4.1300     1.0060 H     1 <1>   0.1500 
 23 H       -2.4060     0.9070     0.1610 H     1 <1>   0.0800 
 24 H       -2.6440     2.0720     1.4490 H     1 <1>   0.0800 
 25 H       -1.4210     0.8250     1.6060 H     1 <1>   0.0800 
 26 H        1.6750     4.6780    -1.4220 H     1 <1>   0.1500 
 27 H        1.8110     6.3040    -0.0250 H     1 <1>   0.3700 
 28 H       -0.9730     8.1990    -1.7780 H     1 <1>   0.0800 
 29 H       -1.1820     9.9410    -1.7300 H     1 <1>   0.0800 
 30 H       -1.8010     8.9510    -0.4210 H     1 <1>   0.0800 
 31 H        3.3740     7.2120     1.2180 H     1 <1>   0.0800 
 32 H        3.5340     8.6560     2.1800 H     1 <1>   0.0800 
 33 H        4.3020     8.5620     0.6110 H     1 <1>   0.0800 
 34 H        3.3550    11.1150     1.6650 H     1 <1>   0.0800 
 35 H        2.2090    12.2320     0.9880 H     1 <1>   0.0800 
 36 H        4.4380    10.8850    -0.5700 H     1 <1>   0.0800 
 37 H        4.4310    12.5550    -0.0460 H     1 <1>   0.0800 
 38 H        3.2720    12.0030    -1.2340 H     1 <1>   0.0800 
@<TRIPOS>BOND
  1   1   2  2   
  2   2   3  am  
  3   2   4  1   
  4   3   5  1   
  5   3   6  1   
  6   4   7  2   
  7   4  21  1   
  8   5   8  2   
  9   5  22  1   
 10   6  23  1   
 11   6  24  1   
 12   6  25  1   
 13   7   8  1   
 14   7  26  1   
 15   8   9  1   
 16   9  10  2   
 17   9  11  am  
 18  11  12  1   
 19  11  27  1   
 20  12  13  1   
 21  12  14  2   
 22  13  15  1   
 23  13  16  1   
 24  14  17  1   
 25  14  18  1   
 26  15  17  2   
 27  16  28  1   
 28  16  29  1   
 29  16  30  1   
 30  17  19  1   
 31  18  31  1   
 32  18  32  1   
 33  18  33  1   
 34  19  20  1   
 35  19  34  1   
 36  19  35  1   
 37  20  36  1   
 38  20  37  1   
 39  20  38  1   
@<TRIPOS>SUBSTRUCTURE
  1 ****  11 GROUP 4 **** **** 0

# MOE 2024.06 (io_trps.svl 2023.06)
