@<TRIPOS>MOLECULE
NONAME
55 57 1 0 0 
SMALL
USER_CHARGES


@<TRIPOS>ATOM
  1 O       -1.0460    -2.0110     1.8060 O.2   1 <1>  -0.5700 
  2 C       -0.1600    -2.5860     1.2210 C.2   1 <1>   0.5690 
  3 N       -0.3140    -3.1500    -0.0160 N.am  1 <1>  -0.6600 
  4 C        1.2000    -2.7010     1.8790 C.3   1 <1>  -0.0990 
  5 C        0.8150    -3.8650    -0.6610 C.3   1 <1>   0.1400 
  6 C       -1.6090    -3.1360    -0.7480 C.3   1 <1>   0.0600 
  7 C        2.3130    -2.3760     0.8680 C.3   1 <1>  -0.0800 
  8 C        2.1180    -3.0560    -0.5080 C.3   1 <1>  -0.0800 
  9 C        3.7110    -2.7730     1.3620 C.3   1 <1>  -0.1600 
 10 C        3.3760    -3.9020    -0.7410 C.3   1 <1>  -0.1600 
 11 C        4.4500    -3.2200     0.1060 C.3   1 <1>   0.2200 
 12 N        5.6380    -4.0720     0.4200 N.am  1 <1>  -0.6600 
 13 C        6.9340    -3.6160     0.3450 C.2   1 <1>   0.5690 
 14 C        5.3890    -5.4890     0.8350 C.3   1 <1>   0.0600 
 15 O        7.8740    -4.3580     0.5140 O.2   1 <1>  -0.5700 
 16 C        7.2260    -2.1500     0.0460 C.3   1 <1>  -0.0990 
 17 C        8.6970    -1.7520     0.2360 C.3   1 <1>  -0.0170 
 18 C        8.8780    -0.2700    -0.0500 C.ar  1 <1>  -0.1440 
 19 C        9.1390     0.1670    -1.3390 C.ar  1 <1>  -0.1500 
 20 C        8.7790     0.6590     0.9720 C.ar  1 <1>  -0.1500 
 21 C        9.2960     1.5170    -1.6020 C.ar  1 <1>  -0.1500 
 22 C        8.9360     2.0090     0.7090 C.ar  1 <1>  -0.1500 
 23 C        9.1940     2.4470    -0.5800 C.ar  1 <1>  -0.1440 
 24 C        9.3680     3.9290    -0.8690 C.3   1 <1>  -0.0170 
 25 C       10.8360     4.3350    -0.7250 C.3   1 <1>  -0.2400 
 26 H        1.2530    -2.0290     2.7160 H     1 <1>   0.0800 
 27 H        1.3010    -3.7050     2.2460 H     1 <1>   0.0800 
 28 H        0.9150    -4.8270    -0.1860 H     1 <1>   0.0800 
 29 H        0.6070    -4.0250    -1.7050 H     1 <1>   0.0800 
 30 H       -1.4880    -2.6330    -1.6910 H     1 <1>   0.0800 
 31 H       -2.3600    -2.6170    -0.1760 H     1 <1>   0.0800 
 32 H       -1.9420    -4.1440    -0.9190 H     1 <1>   0.0800 
 33 H        2.3000    -1.3110     0.7020 H     1 <1>   0.0800 
 34 H        2.1020    -2.2770    -1.2530 H     1 <1>   0.0800 
 35 H        3.6400    -3.5890     2.0570 H     1 <1>   0.0800 
 36 H        4.2100    -1.9460     1.8360 H     1 <1>   0.0800 
 37 H        3.6530    -3.9260    -1.7800 H     1 <1>   0.0800 
 38 H        3.1940    -4.9020    -0.3950 H     1 <1>   0.0800 
 39 H        4.7530    -2.3390    -0.4310 H     1 <1>   0.0800 
 40 H        4.5160    -5.5560     1.4580 H     1 <1>   0.0800 
 41 H        6.2250    -5.8750     1.3930 H     1 <1>   0.0800 
 42 H        5.2510    -6.1020    -0.0390 H     1 <1>   0.0800 
 43 H        6.9450    -1.9480    -0.9700 H     1 <1>   0.0800 
 44 H        6.6270    -1.5400     0.6950 H     1 <1>   0.0800 
 45 H        9.3210    -2.3290    -0.4260 H     1 <1>   0.0800 
 46 H        9.0060    -1.9700     1.2440 H     1 <1>   0.0800 
 47 H        9.2210    -0.5420    -2.1430 H     1 <1>   0.1500 
 48 H        8.5800     0.3370     1.9790 H     1 <1>   0.1500 
 49 H        9.5000     1.8400    -2.6070 H     1 <1>   0.1500 
 50 H        8.8580     2.7190     1.5130 H     1 <1>   0.1500 
 51 H        9.0300     4.1470    -1.8670 H     1 <1>   0.0800 
 52 H        8.7660     4.5050    -0.1880 H     1 <1>   0.0800 
 53 H       11.4440     3.7750    -1.4140 H     1 <1>   0.0800 
 54 H       11.1790     4.1360     0.2750 H     1 <1>   0.0800 
 55 H       10.9540     5.3840    -0.9310 H     1 <1>   0.0800 
@<TRIPOS>BOND
  1   1   2  2   
  2   2   3  am  
  3   2   4  1   
  4   3   5  1   
  5   3   6  1   
  6   4   7  1   
  7   4  26  1   
  8   4  27  1   
  9   5   8  1   
 10   5  28  1   
 11   5  29  1   
 12   6  30  1   
 13   6  31  1   
 14   6  32  1   
 15   7   8  1   
 16   7   9  1   
 17   7  33  1   
 18   8  10  1   
 19   8  34  1   
 20   9  11  1   
 21   9  35  1   
 22   9  36  1   
 23  10  11  1   
 24  10  37  1   
 25  10  38  1   
 26  11  12  1   
 27  11  39  1   
 28  12  13  am  
 29  12  14  1   
 30  13  15  2   
 31  13  16  1   
 32  14  40  1   
 33  14  41  1   
 34  14  42  1   
 35  16  17  1   
 36  16  43  1   
 37  16  44  1   
 38  17  18  1   
 39  17  45  1   
 40  17  46  1   
 41  18  19  ar  
 42  18  20  ar  
 43  19  21  ar  
 44  19  47  1   
 45  20  22  ar  
 46  20  48  1   
 47  21  23  ar  
 48  21  49  1   
 49  22  23  ar  
 50  22  50  1   
 51  23  24  1   
 52  24  25  1   
 53  24  51  1   
 54  24  52  1   
 55  25  53  1   
 56  25  54  1   
 57  25  55  1   
@<TRIPOS>SUBSTRUCTURE
  1 ****  11 GROUP 4 **** **** 0

# MOE 2024.06 (io_trps.svl 2023.06)
