@<TRIPOS>MOLECULE
NONAME
51 53 1 0 0 
SMALL
USER_CHARGES


@<TRIPOS>ATOM
  1 F        1.3270    -1.5870     2.7930 F     1 <1>  -0.1900 
  2 C        1.7370    -2.1660     1.6960 C.ar  1 <1>   0.1900 
  3 C        0.7930    -2.6840     0.8290 C.ar  1 <1>  -0.1500 
  4 C        3.0940    -2.2420     1.4490 C.ar  1 <1>  -0.1500 
  5 C        1.2270    -3.3070    -0.3330 C.ar  1 <1>  -0.1440 
  6 C        3.5240    -2.8590     0.2870 C.ar  1 <1>  -0.1500 
  7 C        2.5910    -3.3900    -0.6010 C.ar  1 <1>   0.0830 
  8 C        0.2440    -3.9350    -1.3060 C.3   1 <1>   0.4870 
  9 O        2.9640    -4.0080    -1.7470 O.3   1 <1>  -0.3630 
 10 N       -0.2020    -5.2490    -0.7820 N.4   1 <1>  -0.9590 
 11 C        4.1020    -4.8460    -1.7540 C.3   1 <1>   0.0400 
 12 C        0.9690    -6.1320    -0.4640 C.3   1 <1>   0.3430 
 13 C       -1.1140    -5.9630    -1.7070 C.3   1 <1>   0.3430 
 14 C        0.5600    -7.5520    -0.0390 C.3   1 <1>  -0.1060 
 15 C       -1.7820    -7.1230    -0.9570 C.3   1 <1>  -0.1600 
 16 C        0.8130    -8.4750    -1.2190 C.2   1 <1>   0.9060 
 17 C       -0.9560    -7.6330     0.2380 C.3   1 <1>   0.2000 
 18 C        1.4080    -8.0000     1.1830 C.3   1 <1>  -0.0170 
 19 O        1.0340    -7.9890    -2.3340 O.co2 1 <1>  -0.9000 
 20 O        0.6930    -9.6880    -1.0480 O.co2 1 <1>  -0.9000 
 21 O       -1.2800    -6.8220     1.3260 O.3   1 <1>  -0.6800 
 22 C        2.8860    -7.6410     1.0580 C.ar  1 <1>  -0.1430 
 23 C        3.7120    -8.3610     0.2090 C.ar  1 <1>  -0.1500 
 24 C        3.4220    -6.5950     1.7980 C.ar  1 <1>  -0.1500 
 25 C        5.0540    -8.0410     0.0990 C.ar  1 <1>  -0.1500 
 26 C        4.7650    -6.2750     1.6900 C.ar  1 <1>  -0.1500 
 27 C        5.5830    -6.9990     0.8410 C.ar  1 <1>  -0.1500 
 28 H       -0.2510    -2.5990     1.0750 H     1 <1>   0.1500 
 29 H        3.7940    -1.8230     2.1510 H     1 <1>   0.1500 
 30 H        4.5760    -2.9170     0.0770 H     1 <1>   0.1500 
 31 H        0.7210    -4.0730    -2.2630 H     1 <1>   0.0800 
 32 H       -0.6030    -3.2840    -1.4380 H     1 <1>   0.0800 
 33 H       -0.7060    -5.1510     0.1130 H     1 <1>   0.4500 
 34 H        4.0970    -5.4100    -2.6700 H     1 <1>   0.0800 
 35 H        4.0460    -5.5190    -0.9180 H     1 <1>   0.0800 
 36 H        4.9890    -4.2420    -1.7020 H     1 <1>   0.0800 
 37 H        1.6360    -6.1800    -1.3100 H     1 <1>   0.0800 
 38 H        1.5210    -5.6830     0.3430 H     1 <1>   0.0800 
 39 H       -1.8690    -5.2990    -2.0930 H     1 <1>   0.0800 
 40 H       -0.5430    -6.3540    -2.5360 H     1 <1>   0.0800 
 41 H       -1.9020    -7.9290    -1.6610 H     1 <1>   0.0800 
 42 H       -2.7680    -6.8440    -0.6340 H     1 <1>   0.0800 
 43 H       -1.2470    -8.6450     0.4780 H     1 <1>   0.0800 
 44 H        1.0340    -7.5420     2.0790 H     1 <1>   0.0800 
 45 H        1.3170    -9.0650     1.3210 H     1 <1>   0.0800 
 46 H       -1.1530    -7.3280     2.1550 H     1 <1>   0.4000 
 47 H        3.3130    -9.1790    -0.3710 H     1 <1>   0.1500 
 48 H        2.8010    -6.0260     2.4670 H     1 <1>   0.1500 
 49 H        5.6830    -8.6100    -0.5640 H     1 <1>   0.1500 
 50 H        5.1730    -5.4660     2.2710 H     1 <1>   0.1500 
 51 H        6.6280    -6.7560     0.7580 H     1 <1>   0.1500 
@<TRIPOS>BOND
  1   1   2  1   
  2   2   3  ar  
  3   2   4  ar  
  4   3   5  ar  
  5   3  28  1   
  6   4   6  ar  
  7   4  29  1   
  8   5   7  ar  
  9   5   8  1   
 10   6   7  ar  
 11   6  30  1   
 12   7   9  1   
 13   8  10  1   
 14   8  31  1   
 15   8  32  1   
 16   9  11  1   
 17  10  12  1   
 18  10  13  1   
 19  10  33  1   
 20  11  34  1   
 21  11  35  1   
 22  11  36  1   
 23  12  14  1   
 24  12  37  1   
 25  12  38  1   
 26  13  15  1   
 27  13  39  1   
 28  13  40  1   
 29  14  16  1   
 30  14  17  1   
 31  14  18  1   
 32  15  17  1   
 33  15  41  1   
 34  15  42  1   
 35  16  19  ar  
 36  16  20  ar  
 37  17  21  1   
 38  17  43  1   
 39  18  22  1   
 40  18  44  1   
 41  18  45  1   
 42  21  46  1   
 43  22  23  ar  
 44  22  24  ar  
 45  23  25  ar  
 46  23  47  1   
 47  24  26  ar  
 48  24  48  1   
 49  25  27  ar  
 50  25  49  1   
 51  26  27  ar  
 52  26  50  1   
 53  27  51  1   
@<TRIPOS>SUBSTRUCTURE
  1 ****  12 GROUP 4 **** **** 0

# MOE 2024.06 (io_trps.svl 2023.06)
