@<TRIPOS>MOLECULE
NONAME
45 46 1 0 0 
SMALL
USER_CHARGES


@<TRIPOS>ATOM
  1 S        1.2590     1.5000    -1.0240 S.o2  1 <1>   1.3330 
  2 O        1.8270     0.1820    -1.1920 O.2   1 <1>  -0.6500 
  3 O        1.1550     2.3670    -2.1770 O.2   1 <1>  -0.6500 
  4 N        2.1750     2.2880     0.1650 N.am  1 <1>  -0.8490 
  5 C       -0.3860     1.3060    -0.3120 C.3   1 <1>  -0.0550 
  6 C        3.3140     3.0210    -0.3920 C.3   1 <1>   0.1160 
  7 C        2.6330     1.4150     1.2490 C.3   1 <1>   0.1160 
  8 C       -1.1930     2.5510     0.1380 C.3   1 <1>  -0.0800 
  9 C       -1.3160     3.6610    -0.9150 C.3   1 <1>   0.2000 
 10 C       -0.6270     3.2510     1.3810 C.3   1 <1>   0.1400 
 11 O       -2.5610     4.2490    -0.7520 O.3   1 <1>  -0.6800 
 12 C       -0.2520     4.6970    -0.5470 C.3   1 <1>   0.1400 
 13 N       -0.0220     4.5170     0.9100 N.am  1 <1>  -0.6600 
 14 C        0.9170     5.1850     1.6540 C.2   1 <1>   0.5690 
 15 O        1.1540     4.8590     2.7950 O.2   1 <1>  -0.5700 
 16 C        1.6620     6.3950     1.0950 C.3   1 <1>   0.1810 
 17 O        2.3870     6.0700    -0.0820 O.3   1 <1>  -0.3630 
 18 C        2.9810     7.0340    -0.8240 C.ar  1 <1>   0.0820 
 19 C        3.2580     8.3110    -0.3440 C.ar  1 <1>  -0.1500 
 20 C        3.3170     6.7030    -2.1270 C.ar  1 <1>  -0.1500 
 21 C        3.8650     9.2410    -1.1700 C.ar  1 <1>  -0.1500 
 22 C        3.9240     7.6350    -2.9500 C.ar  1 <1>  -0.1500 
 23 C        4.1980     8.9050    -2.4720 C.ar  1 <1>  -0.1500 
 24 H       -0.9830     0.7940    -1.0410 H     1 <1>   0.0800 
 25 H       -0.3100     0.6440     0.5290 H     1 <1>   0.0800 
 26 H        3.8190     3.5700     0.3860 H     1 <1>   0.0800 
 27 H        2.9750     3.7270    -1.1290 H     1 <1>   0.0800 
 28 H        4.0070     2.3410    -0.8580 H     1 <1>   0.0800 
 29 H        3.1060     2.0030     2.0170 H     1 <1>   0.0800 
 30 H        3.3360     0.6890     0.8760 H     1 <1>   0.0800 
 31 H        1.7990     0.8960     1.6870 H     1 <1>   0.0800 
 32 H       -2.1750     2.1830     0.3820 H     1 <1>   0.0800 
 33 H       -1.2390     3.3160    -1.9330 H     1 <1>   0.0800 
 34 H        0.1060     2.6480     1.8900 H     1 <1>   0.0800 
 35 H       -1.4190     3.4860     2.0710 H     1 <1>   0.0800 
 36 H       -2.5830     4.7100     0.1100 H     1 <1>   0.4000 
 37 H       -0.5730     5.6970    -0.7790 H     1 <1>   0.0800 
 38 H        0.6610     4.4920    -1.0750 H     1 <1>   0.0800 
 39 H        2.3600     6.7490     1.8300 H     1 <1>   0.0800 
 40 H        0.9560     7.1690     0.8560 H     1 <1>   0.0800 
 41 H        3.0190     8.5950     0.6630 H     1 <1>   0.1500 
 42 H        3.1000     5.7170    -2.4950 H     1 <1>   0.1500 
 43 H        4.0820    10.2280    -0.8010 H     1 <1>   0.1500 
 44 H        4.1820     7.3720    -3.9620 H     1 <1>   0.1500 
 45 H        4.6700     9.6300    -3.1110 H     1 <1>   0.1500 
@<TRIPOS>BOND
  1   1   2  2   
  2   1   3  2   
  3   1   4  am  
  4   1   5  1   
  5   4   6  1   
  6   4   7  1   
  7   5   8  1   
  8   5  24  1   
  9   5  25  1   
 10   6  26  1   
 11   6  27  1   
 12   6  28  1   
 13   7  29  1   
 14   7  30  1   
 15   7  31  1   
 16   8   9  1   
 17   8  10  1   
 18   8  32  1   
 19   9  11  1   
 20   9  12  1   
 21   9  33  1   
 22  10  13  1   
 23  10  34  1   
 24  10  35  1   
 25  11  36  1   
 26  12  13  1   
 27  12  37  1   
 28  12  38  1   
 29  13  14  am  
 30  14  15  2   
 31  14  16  1   
 32  16  17  1   
 33  16  39  1   
 34  16  40  1   
 35  17  18  1   
 36  18  19  ar  
 37  18  20  ar  
 38  19  21  ar  
 39  19  41  1   
 40  20  22  ar  
 41  20  42  1   
 42  21  23  ar  
 43  21  43  1   
 44  22  23  ar  
 45  22  44  1   
 46  23  45  1   
@<TRIPOS>SUBSTRUCTURE
  1 ****  12 GROUP 4 **** **** 0

# MOE 2024.06 (io_trps.svl 2023.06)
