@<TRIPOS>MOLECULE
NONAME
49 51 1 0 0 
SMALL
USER_CHARGES


@<TRIPOS>ATOM
  1 S       -0.9710     0.0130    -0.1880 S.o2  1 <1>   1.3330 
  2 O       -1.7300    -0.2360    -1.3900 O.2   1 <1>  -0.6500 
  3 O       -0.9560     1.3060     0.4480 O.2   1 <1>  -0.6500 
  4 N       -1.5070    -1.0670     0.9800 N.am  1 <1>  -0.9140 
  5 C        0.7190    -0.4700    -0.4760 C.3   1 <1>  -0.1350 
  6 C       -1.5410    -2.4670     0.5910 C.3   1 <1>   0.1960 
  7 C       -2.2520    -3.2700     1.6710 C.3   1 <1>  -0.0990 
  8 C       -2.3240    -4.7150     1.2330 C.2   1 <1>   0.5690 
  9 O       -1.3460    -5.3960     1.4250 O.2   1 <1>  -0.5700 
 10 N       -3.4400    -5.2100     0.6170 N.am  1 <1>  -0.6600 
 11 C       -4.6840    -4.4680     0.2880 C.3   1 <1>   0.1400 
 12 C       -3.5360    -6.6180     0.1600 C.3   1 <1>   0.1400 
 13 C       -5.5620    -5.4730    -0.4610 C.3   1 <1>   0.2000 
 14 C       -5.0270    -6.8530    -0.0860 C.3   1 <1>  -0.0800 
 15 O       -6.8930    -5.3650    -0.0880 O.3   1 <1>  -0.6800 
 16 C       -5.3240    -7.9150    -1.1580 C.3   1 <1>  -0.0160 
 17 C       -4.7850    -9.2760    -0.7540 C.ar  1 <1>   0.1670 
 18 N       -3.5710    -9.5680    -1.1050 N.ar  1 <1>  -0.6200 
 19 C       -5.6130   -10.1420    -0.0220 C.ar  1 <1>  -0.1500 
 20 C       -3.0790   -10.7780    -0.7360 C.ar  1 <1>   0.3100 
 21 C       -5.1460   -11.3630     0.3600 C.ar  1 <1>  -0.1500 
 22 C       -3.8340   -11.7150     0.0020 C.ar  1 <1>   0.0000 
 23 C       -1.7650   -11.1170    -1.0980 C.ar  1 <1>  -0.1500 
 24 C       -3.2480   -12.9490     0.3470 C.ar  1 <1>  -0.1500 
 25 C       -1.2130   -12.3220    -0.7530 C.ar  1 <1>  -0.1500 
 26 C       -1.9640   -13.2480    -0.0220 C.ar  1 <1>  -0.1500 
 27 H       -0.9730    -0.9010     1.8300 H     1 <1>   0.4200 
 28 H        0.7650    -1.4600    -0.8840 H     1 <1>   0.0800 
 29 H        1.2800    -0.4380     0.4370 H     1 <1>   0.0800 
 30 H        1.1720     0.2040    -1.1770 H     1 <1>   0.0800 
 31 H       -2.0790    -2.5690    -0.3390 H     1 <1>   0.0800 
 32 H       -0.5420    -2.8480     0.4540 H     1 <1>   0.0800 
 33 H       -3.2330    -2.8730     1.8460 H     1 <1>   0.0800 
 34 H       -1.6940    -3.2210     2.5880 H     1 <1>   0.0800 
 35 H       -5.1610    -4.1490     1.1990 H     1 <1>   0.0800 
 36 H       -4.4630    -3.6190    -0.3350 H     1 <1>   0.0800 
 37 H       -2.9730    -6.7310    -0.7510 H     1 <1>   0.0800 
 38 H       -3.1440    -7.2960     0.9010 H     1 <1>   0.0800 
 39 H       -5.4910    -5.2980    -1.5210 H     1 <1>   0.0800 
 40 H       -5.4560    -7.1640     0.8510 H     1 <1>   0.0800 
 41 H       -7.0000    -5.5660     0.8620 H     1 <1>   0.4000 
 42 H       -4.8770    -7.6260    -2.0940 H     1 <1>   0.0800 
 43 H       -6.3850    -7.9800    -1.3150 H     1 <1>   0.0800 
 44 H       -6.6100    -9.8300     0.2300 H     1 <1>   0.1500 
 45 H       -5.7500   -12.0540     0.9210 H     1 <1>   0.1500 
 46 H       -1.2050   -10.3920    -1.6590 H     1 <1>   0.1500 
 47 H       -3.8300   -13.6560     0.9100 H     1 <1>   0.1500 
 48 H       -0.2040   -12.5680    -1.0370 H     1 <1>   0.1500 
 49 H       -1.5170   -14.1910     0.2430 H     1 <1>   0.1500 
@<TRIPOS>BOND
  1   1   2  2   
  2   1   3  2   
  3   1   4  am  
  4   1   5  1   
  5   4   6  1   
  6   4  27  1   
  7   5  28  1   
  8   5  29  1   
  9   5  30  1   
 10   6   7  1   
 11   6  31  1   
 12   6  32  1   
 13   7   8  1   
 14   7  33  1   
 15   7  34  1   
 16   8   9  2   
 17   8  10  am  
 18  10  11  1   
 19  10  12  1   
 20  11  13  1   
 21  11  35  1   
 22  11  36  1   
 23  12  14  1   
 24  12  37  1   
 25  12  38  1   
 26  13  14  1   
 27  13  15  1   
 28  13  39  1   
 29  14  16  1   
 30  14  40  1   
 31  15  41  1   
 32  16  17  1   
 33  16  42  1   
 34  16  43  1   
 35  17  18  ar  
 36  17  19  ar  
 37  18  20  ar  
 38  19  21  ar  
 39  19  44  1   
 40  20  22  ar  
 41  20  23  ar  
 42  21  22  ar  
 43  21  45  1   
 44  22  24  ar  
 45  23  25  ar  
 46  23  46  1   
 47  24  26  ar  
 48  24  47  1   
 49  25  26  ar  
 50  25  48  1   
 51  26  49  1   
@<TRIPOS>SUBSTRUCTURE
  1 ****  12 GROUP 4 **** **** 0

# MOE 2024.06 (io_trps.svl 2023.06)
