@<TRIPOS>MOLECULE
NONAME
40 42 1 0 0 
SMALL
USER_CHARGES


@<TRIPOS>ATOM
  1 O        0.7800     0.2710     0.4010 O.co2 1 <1>  -0.9000 
  2 C        1.9180     0.0880     0.8790 C.2   1 <1>   0.9790 
  3 O        1.9870    -0.6140     1.9120 O.co2 1 <1>  -0.9000 
  4 C        3.1420     0.6540     0.2910 C.ar  1 <1>   0.1310 
  5 N        3.1440     1.4280    -0.8220 N.ar  1 <1>  -0.6200 
  6 C        4.3490     0.3570     0.9340 C.ar  1 <1>   0.1600 
  7 C        4.3420     1.8250    -1.1840 C.ar  1 <1>   0.1600 
  8 N        5.5560     0.7660     0.5710 N.ar  1 <1>  -0.6200 
  9 C        5.5380     1.5220    -0.5170 C.ar  1 <1>   0.4100 
 10 N        6.7600     2.0120    -0.9660 N.pl3 1 <1>  -0.8380 
 11 C        6.9380     3.4800    -1.1820 C.3   1 <1>   0.2090 
 12 C        8.0210     1.2620    -0.7100 C.3   1 <1>   0.2090 
 13 C        7.6930     4.1200    -0.0060 C.3   1 <1>   0.2000 
 14 C        8.7740     1.8870     0.4700 C.3   1 <1>  -0.1600 
 15 O        7.9670     5.4490    -0.3410 O.3   1 <1>  -0.5600 
 16 C        9.0180     3.3930     0.2730 C.3   1 <1>  -0.1600 
 17 C        8.1030     6.3220     0.7500 C.3   1 <1>   0.2630 
 18 C        8.3970     7.7570     0.3150 C.ar  1 <1>   0.1670 
 19 N        8.4560     8.6450     1.3000 N.ar  1 <1>  -0.6200 
 20 C        8.5890     8.0860    -1.0230 C.ar  1 <1>  -0.1500 
 21 C        8.7120     9.8930     0.9430 C.ar  1 <1>   0.1600 
 22 C        8.8540     9.3910    -1.3800 C.ar  1 <1>  -0.1500 
 23 C        8.9150    10.3140    -0.3600 C.ar  1 <1>  -0.1500 
 24 H        4.3050    -0.2640     1.8130 H     1 <1>   0.1500 
 25 H        4.4100     2.4270    -2.0680 H     1 <1>   0.1500 
 26 H        5.9810     3.9600    -1.2810 H     1 <1>   0.0800 
 27 H        7.4960     3.6310    -2.0890 H     1 <1>   0.0800 
 28 H        8.6330     1.2980    -1.5950 H     1 <1>   0.0800 
 29 H        7.8020     0.2280    -0.5020 H     1 <1>   0.0800 
 30 H        7.0530     4.0940     0.8600 H     1 <1>   0.0800 
 31 H        9.7130     1.3800     0.5970 H     1 <1>   0.0800 
 32 H        8.1930     1.7270     1.3630 H     1 <1>   0.0800 
 33 H        9.4830     3.7890     1.1570 H     1 <1>   0.0800 
 34 H        9.6820     3.5360    -0.5620 H     1 <1>   0.0800 
 35 H        8.9070     5.9780     1.3750 H     1 <1>   0.0800 
 36 H        7.1860     6.3090     1.3130 H     1 <1>   0.0800 
 37 H        8.5320     7.3290    -1.7830 H     1 <1>   0.1500 
 38 H        8.7620    10.6230     1.7330 H     1 <1>   0.1500 
 39 H        9.0060     9.6730    -2.4070 H     1 <1>   0.1500 
 40 H        9.1180    11.3480    -0.5680 H     1 <1>   0.1500 
@<TRIPOS>BOND
  1   1   2  ar  
  2   2   3  ar  
  3   2   4  1   
  4   4   5  ar  
  5   4   6  ar  
  6   5   7  ar  
  7   6   8  ar  
  8   6  24  1   
  9   7   9  ar  
 10   7  25  1   
 11   8   9  ar  
 12   9  10  1   
 13  10  11  1   
 14  10  12  1   
 15  11  13  1   
 16  11  26  1   
 17  11  27  1   
 18  12  14  1   
 19  12  28  1   
 20  12  29  1   
 21  13  15  1   
 22  13  16  1   
 23  13  30  1   
 24  14  16  1   
 25  14  31  1   
 26  14  32  1   
 27  15  17  1   
 28  16  33  1   
 29  16  34  1   
 30  17  18  1   
 31  17  35  1   
 32  17  36  1   
 33  18  19  ar  
 34  18  20  ar  
 35  19  21  ar  
 36  20  22  ar  
 37  20  37  1   
 38  21  23  ar  
 39  21  38  1   
 40  22  23  ar  
 41  22  39  1   
 42  23  40  1   
@<TRIPOS>SUBSTRUCTURE
  1 ****  13 GROUP 4 **** **** 0

# MOE 2024.06 (io_trps.svl 2023.06)
