@<TRIPOS>MOLECULE
NONAME
52 54 1 0 0 
SMALL
USER_CHARGES


@<TRIPOS>ATOM
  1 O       -0.4820    -1.0260    -1.5260 O.2   1 <1>  -0.5700 
  2 C       -1.1680    -1.8840    -1.0150 C.2   1 <1>   0.6900 
  3 N       -1.7790    -1.7150     0.2200 N.am  1 <1>  -0.4690 
  4 N       -1.3610    -3.0590    -1.6640 N.am  1 <1>  -0.4900 
  5 C       -2.5570    -2.7180     0.7580 C.2   1 <1>  -0.0410 
  6 C       -1.5600    -0.4470     0.9640 C.3   1 <1>   0.0600 
  7 C       -2.1180    -4.0780    -1.1690 C.2   1 <1>   0.6160 
  8 C       -2.7660    -3.8950     0.0970 C.2   1 <1>   0.0290 
  9 O       -2.1980    -5.0810    -1.8490 O.2   1 <1>  -0.5700 
 10 C       -3.5750    -4.9410     0.6510 C.2   1 <1>   0.6160 
 11 O       -3.3740    -5.2680     1.8090 O.2   1 <1>  -0.5700 
 12 N       -4.6150    -5.5550    -0.0220 N.am  1 <1>  -0.6600 
 13 C       -5.1910    -6.8280     0.5080 C.3   1 <1>   0.1400 
 14 C       -5.2150    -5.0180    -1.2790 C.3   1 <1>   0.1400 
 15 C       -6.3320    -6.5400     1.4940 C.3   1 <1>   0.1400 
 16 C       -6.7520    -5.0060    -1.2850 C.3   1 <1>  -0.1600 
 17 N       -7.5640    -6.0660     0.7890 N.am  1 <1>  -0.6600 
 18 C       -7.4070    -4.7640     0.0800 C.3   1 <1>   0.1400 
 19 C       -8.7640    -6.7420     0.7360 C.2   1 <1>   0.5690 
 20 O       -9.7380    -6.2360     0.2280 O.2   1 <1>  -0.5700 
 21 C       -8.8960    -8.1450     1.3310 C.3   1 <1>   0.0440 
 22 C      -10.0760    -8.9680     0.8150 C.ar  1 <1>  -0.1430 
 23 C       -9.8810    -9.9590    -0.1370 C.ar  1 <1>  -0.1500 
 24 C      -11.3530    -8.7390     1.3020 C.ar  1 <1>  -0.1500 
 25 C      -10.9450   -10.7200    -0.5940 C.ar  1 <1>  -0.1430 
 26 C      -12.4190    -9.4970     0.8510 C.ar  1 <1>  -0.1500 
 27 C      -12.2150   -10.4870    -0.0930 C.ar  1 <1>  -0.1500 
 28 C      -10.7190   -11.8020    -1.6350 C.3   1 <1>  -0.0970 
 29 H       -0.8890    -3.1910    -2.5510 H     1 <1>   0.3700 
 30 H       -2.9990    -2.5480     1.7280 H     1 <1>   0.1500 
 31 H       -1.9290     0.3800     0.3830 H     1 <1>   0.0800 
 32 H       -0.5060    -0.3080     1.1350 H     1 <1>   0.0800 
 33 H       -2.0700    -0.4680     1.9110 H     1 <1>   0.0800 
 34 H       -4.4180    -7.3730     1.0220 H     1 <1>   0.0800 
 35 H       -5.5420    -7.4450    -0.3000 H     1 <1>   0.0800 
 36 H       -4.8580    -5.5980    -2.1140 H     1 <1>   0.0800 
 37 H       -4.8810    -4.0060    -1.4230 H     1 <1>   0.0800 
 38 H       -6.0110    -5.7910     2.1970 H     1 <1>   0.0800 
 39 H       -6.5330    -7.4290     2.0600 H     1 <1>   0.0800 
 40 H       -7.1240    -5.9250    -1.7020 H     1 <1>   0.0800 
 41 H       -7.0640    -4.2240    -1.9530 H     1 <1>   0.0800 
 42 H       -8.3740    -4.3130    -0.0690 H     1 <1>   0.0800 
 43 H       -6.8220    -4.0830     0.6740 H     1 <1>   0.0800 
 44 H       -8.9830    -8.0470     2.3960 H     1 <1>   0.0800 
 45 H       -8.0010    -8.6960     1.1230 H     1 <1>   0.0800 
 46 H       -8.8970   -10.1410    -0.5280 H     1 <1>   0.1500 
 47 H      -11.5220    -7.9640     2.0290 H     1 <1>   0.1500 
 48 H      -13.4070    -9.3130     1.2330 H     1 <1>   0.1500 
 49 H      -13.0490   -11.0710    -0.4380 H     1 <1>   0.1500 
 50 H       -9.9230   -11.5210    -2.3010 H     1 <1>   0.0800 
 51 H      -11.6100   -11.9540    -2.2180 H     1 <1>   0.0800 
 52 H      -10.4590   -12.7250    -1.1500 H     1 <1>   0.0800 
@<TRIPOS>BOND
  1   1   2  2   
  2   2   3  am  
  3   2   4  am  
  4   3   5  1   
  5   3   6  1   
  6   4   7  am  
  7   4  29  1   
  8   5   8  2   
  9   5  30  1   
 10   6  31  1   
 11   6  32  1   
 12   6  33  1   
 13   7   8  1   
 14   7   9  2   
 15   8  10  1   
 16  10  11  2   
 17  10  12  am  
 18  12  13  1   
 19  12  14  1   
 20  13  15  1   
 21  13  34  1   
 22  13  35  1   
 23  14  16  1   
 24  14  36  1   
 25  14  37  1   
 26  15  17  1   
 27  15  38  1   
 28  15  39  1   
 29  16  18  1   
 30  16  40  1   
 31  16  41  1   
 32  17  18  1   
 33  17  19  am  
 34  18  42  1   
 35  18  43  1   
 36  19  20  2   
 37  19  21  1   
 38  21  22  1   
 39  21  44  1   
 40  21  45  1   
 41  22  23  ar  
 42  22  24  ar  
 43  23  25  ar  
 44  23  46  1   
 45  24  26  ar  
 46  24  47  1   
 47  25  27  ar  
 48  25  28  1   
 49  26  27  ar  
 50  26  48  1   
 51  27  49  1   
 52  28  50  1   
 53  28  51  1   
 54  28  52  1   
@<TRIPOS>SUBSTRUCTURE
  1 ****  13 GROUP 4 **** **** 0

# MOE 2024.06 (io_trps.svl 2023.06)
