@<TRIPOS>MOLECULE
NONAME
44 45 1 0 0 
SMALL
USER_CHARGES


@<TRIPOS>ATOM
  1 S        0.6340    -0.3980    -0.9320 S.o2  1 <1>   1.3330 
  2 O       -0.1710    -0.4070    -2.1320 O.2   1 <1>  -0.6500 
  3 O        0.8160    -1.6250    -0.1890 O.2   1 <1>  -0.6500 
  4 N       -0.0350     0.7520     0.1220 N.am  1 <1>  -0.8490 
  5 C        2.2560     0.2600    -1.3210 C.3   1 <1>  -0.0550 
  6 C       -0.3970     2.0100    -0.5420 C.3   1 <1>   0.1160 
  7 C       -1.1940     0.2160     0.8400 C.3   1 <1>   0.1160 
  8 C        3.1370     0.5240    -0.0870 C.3   1 <1>  -0.0800 
  9 C        4.3940     1.3090    -0.4520 C.3   1 <1>   0.2200 
 10 C        3.6700    -0.7440     0.5840 C.3   1 <1>   0.1200 
 11 N        4.3880     2.6000     0.2670 N.am  1 <1>  -0.7300 
 12 C        5.5340     0.4090     0.0190 C.3   1 <1>   0.1200 
 13 O        4.9740    -0.4430     0.9630 O.3   1 <1>  -0.5600 
 14 C        3.6720     3.6860    -0.1180 C.2   1 <1>   0.5690 
 15 O        2.9660     3.6630    -1.0990 O.2   1 <1>  -0.5700 
 16 C        3.7380     4.9500     0.7190 C.3   1 <1>   0.0440 
 17 C        5.1590     5.5030     0.8090 C.ar  1 <1>  -0.1440 
 18 C        6.0700     5.0340     1.7470 C.ar  1 <1>   0.1900 
 19 C        5.5820     6.4980    -0.0660 C.ar  1 <1>  -0.1500 
 20 F        5.7060     4.0870     2.5770 F     1 <1>  -0.1900 
 21 C        7.3560     5.5440     1.8120 C.ar  1 <1>   0.1900 
 22 C        6.8730     7.0090     0.0000 C.ar  1 <1>  -0.1500 
 23 F        8.2020     5.0890     2.7010 F     1 <1>  -0.1900 
 24 C        7.7720     6.5350     0.9430 C.ar  1 <1>  -0.1500 
 25 H        2.7620    -0.4150    -1.9840 H     1 <1>   0.0800 
 26 H        2.1270     1.1860    -1.8480 H     1 <1>   0.0800 
 27 H       -0.7810     2.7110     0.1790 H     1 <1>   0.0800 
 28 H       -1.1460     1.8380    -1.2970 H     1 <1>   0.0800 
 29 H        0.4690     2.4520    -1.0060 H     1 <1>   0.0800 
 30 H       -1.5820     0.9500     1.5240 H     1 <1>   0.0800 
 31 H       -0.9050    -0.6540     1.4070 H     1 <1>   0.0800 
 32 H       -1.9670    -0.0670     0.1440 H     1 <1>   0.0800 
 33 H        2.5640     1.0680     0.6440 H     1 <1>   0.0800 
 34 H        4.4770     1.4920    -1.5100 H     1 <1>   0.0800 
 35 H        3.7060    -1.5760    -0.0990 H     1 <1>   0.0800 
 36 H        3.1010    -1.0150     1.4570 H     1 <1>   0.0800 
 37 H        4.8970     2.6100     1.1570 H     1 <1>   0.3700 
 38 H        6.3470     0.9550     0.4640 H     1 <1>   0.0800 
 39 H        5.8980    -0.1970    -0.7920 H     1 <1>   0.0800 
 40 H        3.0890     5.6870     0.2830 H     1 <1>   0.0800 
 41 H        3.3590     4.7340     1.7010 H     1 <1>   0.0800 
 42 H        4.9060     6.8830    -0.8120 H     1 <1>   0.1500 
 43 H        7.1780     7.7800    -0.6880 H     1 <1>   0.1500 
 44 H        8.7740     6.9220     1.0040 H     1 <1>   0.1500 
@<TRIPOS>BOND
  1   1   2  2   
  2   1   3  2   
  3   1   4  am  
  4   1   5  1   
  5   4   6  1   
  6   4   7  1   
  7   5   8  1   
  8   5  25  1   
  9   5  26  1   
 10   6  27  1   
 11   6  28  1   
 12   6  29  1   
 13   7  30  1   
 14   7  31  1   
 15   7  32  1   
 16   8   9  1   
 17   8  10  1   
 18   8  33  1   
 19   9  11  1   
 20   9  12  1   
 21   9  34  1   
 22  10  13  1   
 23  10  35  1   
 24  10  36  1   
 25  11  14  am  
 26  11  37  1   
 27  12  13  1   
 28  12  38  1   
 29  12  39  1   
 30  14  15  2   
 31  14  16  1   
 32  16  17  1   
 33  16  40  1   
 34  16  41  1   
 35  17  18  ar  
 36  17  19  ar  
 37  18  20  1   
 38  18  21  ar  
 39  19  22  ar  
 40  19  42  1   
 41  21  23  1   
 42  21  24  ar  
 43  22  24  ar  
 44  22  43  1   
 45  24  44  1   
@<TRIPOS>SUBSTRUCTURE
  1 ****  11 GROUP 4 **** **** 0

# MOE 2024.06 (io_trps.svl 2023.06)
