@<TRIPOS>MOLECULE
Untitled Document
30 30 1 0 0 
SMALL
USER_CHARGES


@<TRIPOS>ATOM
  1 O       -1.3680     0.3560     1.0730 O.2   1 <1>  -0.5700 
  2 C       -0.8930    -0.7610     1.0700 C.2   1 <1>   0.5440 
  3 N        0.1500    -0.9470     1.9080 N.am  1 <1>  -0.8000 
  4 C       -1.4400    -1.8200     0.2340 C.ar  1 <1>   0.0860 
  5 C       -0.7170    -2.9590    -0.1710 C.ar  1 <1>   0.0830 
  6 C       -2.7640    -1.7150    -0.2010 C.ar  1 <1>  -0.1500 
  7 O        0.5820    -3.0830     0.2100 O.3   1 <1>  -0.3620 
  8 C       -1.3280    -3.9350    -0.9590 C.ar  1 <1>  -0.1500 
  9 C       -3.3610    -2.6810    -0.9850 C.ar  1 <1>  -0.1500 
 10 C        1.4350    -4.0910    -0.2960 C.3   1 <1>   0.1200 
 11 C       -2.6410    -3.7980    -1.3640 C.ar  1 <1>  -0.1500 
 12 C        2.8480    -3.8370     0.2180 C.3   1 <1>   0.1200 
 13 O        3.6730    -4.8430    -0.2730 O.3   1 <1>  -0.5600 
 14 C        5.0010    -4.7200     0.1090 C.3   1 <1>   0.1200 
 15 C        5.7640    -5.8880    -0.5020 C.3   1 <1>  -0.2400 
 16 H        0.5230    -0.1560     2.4300 H     1 <1>   0.3700 
 17 H        0.7050    -1.8030     1.8630 H     1 <1>   0.3700 
 18 H       -3.3370    -0.8500     0.0880 H     1 <1>   0.1500 
 19 H       -0.8000    -4.8160    -1.2710 H     1 <1>   0.1500 
 20 H       -4.3840    -2.5660    -1.3000 H     1 <1>   0.1500 
 21 H        1.4210    -4.0420    -1.3710 H     1 <1>   0.0800 
 22 H        1.0790    -5.0450     0.0500 H     1 <1>   0.0800 
 23 H       -3.1040    -4.5550    -1.9730 H     1 <1>   0.1500 
 24 H        2.8670    -3.8730     1.2940 H     1 <1>   0.0800 
 25 H        3.2090    -2.8880    -0.1390 H     1 <1>   0.0800 
 26 H        5.0600    -4.7500     1.1850 H     1 <1>   0.0800 
 27 H        5.3860    -3.7830    -0.2570 H     1 <1>   0.0800 
 28 H        5.3650    -6.8190    -0.1410 H     1 <1>   0.0800 
 29 H        6.8010    -5.8290    -0.2280 H     1 <1>   0.0800 
 30 H        5.6890    -5.8570    -1.5740 H     1 <1>   0.0800 
@<TRIPOS>BOND
  1   1   2  2   
  2   2   3  am  
  3   2   4  1   
  4   3  16  1   
  5   3  17  1   
  6   4   5  ar  
  7   4   6  ar  
  8   5   7  1   
  9   5   8  ar  
 10   6   9  ar  
 11   6  18  1   
 12   7  10  1   
 13   8  11  ar  
 14   8  19  1   
 15   9  11  ar  
 16   9  20  1   
 17  10  12  1   
 18  10  21  1   
 19  10  22  1   
 20  11  23  1   
 21  12  13  1   
 22  12  24  1   
 23  12  25  1   
 24  13  14  1   
 25  14  15  1   
 26  14  26  1   
 27  14  27  1   
 28  15  28  1   
 29  15  29  1   
 30  15  30  1   
@<TRIPOS>SUBSTRUCTURE
  1 ****   7 GROUP 4 **** **** 0

# MOE 2024.06 (io_trps.svl 2023.06)
