@<TRIPOS>MOLECULE
NONAME
48 50 1 0 0 
SMALL
USER_CHARGES


@<TRIPOS>ATOM
  1 O       -1.1300    -0.6120    -0.3160 O.3   1 <1>  -0.3630 
  2 C       -1.6960     0.3900     0.4240 C.ar  1 <1>   0.0830 
  3 C        0.2270    -0.5290    -0.7100 C.3   1 <1>   0.0400 
  4 C       -1.4470     1.7570     0.2190 C.ar  1 <1>   0.0830 
  5 C       -2.5820    -0.0100     1.4210 C.ar  1 <1>  -0.1440 
  6 O       -0.6340     2.1470    -0.8050 O.3   1 <1>  -0.3620 
  7 C       -2.0610     2.6880     1.0530 C.ar  1 <1>  -0.1500 
  8 C       -3.1860     0.9340     2.2370 C.ar  1 <1>  -0.1500 
  9 C       -2.8950    -1.4810     1.6140 C.3   1 <1>   0.4860 
 10 C       -0.3690     3.5050    -1.0830 C.3   1 <1>   0.0400 
 11 C       -2.9210     2.2770     2.0550 C.ar  1 <1>  -0.1500 
 12 N       -3.4820    -1.9960     0.3520 N.4   1 <1>  -0.9590 
 13 C       -4.7610    -1.3340    -0.0400 C.3   1 <1>   0.3430 
 14 C       -3.6730    -3.4740     0.3140 C.3   1 <1>   0.3430 
 15 C       -5.5640    -2.4200    -0.7550 C.3   1 <1>   0.2000 
 16 C       -5.1280    -3.7250    -0.0970 C.3   1 <1>  -0.0800 
 17 O       -6.9310    -2.2410    -0.6150 O.3   1 <1>  -0.6800 
 18 C       -5.3080    -4.9450    -1.0210 C.3   1 <1>  -0.0170 
 19 C       -4.9330    -6.2510    -0.3330 C.ar  1 <1>   0.1670 
 20 N       -3.6680    -6.3800     0.0430 N.ar  1 <1>  -0.6200 
 21 C       -5.9000    -7.2360    -0.1330 C.ar  1 <1>   0.1600 
 22 C       -3.4380    -7.5540     0.6120 C.ar  1 <1>   0.1600 
 23 N       -5.6710    -8.4000     0.4500 N.ar  1 <1>  -0.6200 
 24 C       -4.4070    -8.5300     0.8100 C.ar  1 <1>   0.1600 
 25 H        0.5980    -1.5260    -0.8690 H     1 <1>   0.0800 
 26 H        0.7950    -0.0440     0.0650 H     1 <1>   0.0800 
 27 H        0.2920     0.0280    -1.6280 H     1 <1>   0.0800 
 28 H       -1.8890     3.7420     0.9410 H     1 <1>   0.1500 
 29 H       -3.8630     0.6410     3.0220 H     1 <1>   0.1500 
 30 H       -3.5840    -1.6140     2.4320 H     1 <1>   0.0800 
 31 H       -1.9820    -2.0080     1.8370 H     1 <1>   0.0800 
 32 H        0.2870     3.5500    -1.9350 H     1 <1>   0.0800 
 33 H        0.1120     3.9510    -0.2310 H     1 <1>   0.0800 
 34 H       -1.2940     4.0040    -1.3110 H     1 <1>   0.0800 
 35 H       -3.3860     3.0110     2.6940 H     1 <1>   0.1500 
 36 H       -2.7700    -1.7340    -0.3560 H     1 <1>   0.4500 
 37 H       -5.2930    -1.0150     0.8400 H     1 <1>   0.0800 
 38 H       -4.5800    -0.4880    -0.6840 H     1 <1>   0.0800 
 39 H       -3.0080    -3.9080    -0.4160 H     1 <1>   0.0800 
 40 H       -3.4710    -3.9300     1.2700 H     1 <1>   0.0800 
 41 H       -5.3300    -2.4070    -1.8070 H     1 <1>   0.0800 
 42 H       -5.6920    -3.8810     0.8060 H     1 <1>   0.0800 
 43 H       -7.2460    -2.3920     0.2990 H     1 <1>   0.4000 
 44 H       -4.6970    -4.8360    -1.9010 H     1 <1>   0.0800 
 45 H       -6.3330    -4.9910    -1.3470 H     1 <1>   0.0800 
 46 H       -6.9070    -7.0580    -0.4670 H     1 <1>   0.1500 
 47 H       -2.4330    -7.7590     0.9390 H     1 <1>   0.1500 
 48 H       -4.1240    -9.4540     1.2840 H     1 <1>   0.1500 
@<TRIPOS>BOND
  1   1   2  1   
  2   1   3  1   
  3   2   4  ar  
  4   2   5  ar  
  5   3  25  1   
  6   3  26  1   
  7   3  27  1   
  8   4   6  1   
  9   4   7  ar  
 10   5   8  ar  
 11   5   9  1   
 12   6  10  1   
 13   7  11  ar  
 14   7  28  1   
 15   8  11  ar  
 16   8  29  1   
 17   9  12  1   
 18   9  30  1   
 19   9  31  1   
 20  10  32  1   
 21  10  33  1   
 22  10  34  1   
 23  11  35  1   
 24  12  13  1   
 25  12  14  1   
 26  12  36  1   
 27  13  15  1   
 28  13  37  1   
 29  13  38  1   
 30  14  16  1   
 31  14  39  1   
 32  14  40  1   
 33  15  16  1   
 34  15  17  1   
 35  15  41  1   
 36  16  18  1   
 37  16  42  1   
 38  17  43  1   
 39  18  19  1   
 40  18  44  1   
 41  18  45  1   
 42  19  20  ar  
 43  19  21  ar  
 44  20  22  ar  
 45  21  23  ar  
 46  21  46  1   
 47  22  24  ar  
 48  22  47  1   
 49  23  24  ar  
 50  24  48  1   
@<TRIPOS>SUBSTRUCTURE
  1 ****  12 GROUP 4 **** **** 0

# MOE 2024.06 (io_trps.svl 2023.06)
