@<TRIPOS>MOLECULE
NONAME
56 60 1 0 0 
SMALL
USER_CHARGES


@<TRIPOS>ATOM
  1 O        0.4820     2.0170    -2.6400 O.2   1 <1>  -0.5700 
  2 C        0.5170     2.5050    -1.5290 C.2   1 <1>   0.6900 
  3 N       -0.5540     3.0830    -0.9140 N.am  1 <1>  -0.4200 
  4 N        1.6290     2.5690    -0.7430 N.am  1 <1>  -0.6600 
  5 C       -0.1980     3.5200     0.3220 C.2   1 <1>   0.5690 
  6 C       -1.9580     2.8950    -1.3490 C.3   1 <1>   0.2010 
  7 C        1.2690     3.2000     0.5540 C.3   1 <1>   0.2010 
  8 C        2.9320     1.9080    -0.9850 C.3   1 <1>   0.0600 
  9 O       -0.9200     4.0860     1.1080 O.2   1 <1>  -0.5700 
 10 C       -2.6840     1.8170    -0.5320 C.2   1 <1>   0.5690 
 11 O       -2.0430     0.8540    -0.1760 O.2   1 <1>  -0.5700 
 12 N       -4.0200     1.9230    -0.2170 N.am  1 <1>  -0.6600 
 13 C       -4.9370     3.0380    -0.6120 C.3   1 <1>   0.1400 
 14 C       -4.6610     0.8710     0.6340 C.3   1 <1>   0.1400 
 15 C       -5.4600     3.7920     0.6330 C.3   1 <1>   0.1430 
 16 C       -5.9400     1.3750     1.3270 C.3   1 <1>  -0.1600 
 17 C       -6.6760     4.5890     0.1950 C.ar  1 <1>   0.1670 
 18 C       -5.7720     2.8250     1.8070 C.3   1 <1>  -0.1600 
 19 C       -4.4840     4.9120     1.0820 C.3   1 <1>  -0.1600 
 20 N       -7.8550     4.0850    -0.0760 N.ar  1 <1>  -0.6200 
 21 C       -6.3990     5.9170     0.0880 C.ar  1 <1>  -0.1440 
 22 C       -4.9630     6.2210     0.4320 C.3   1 <1>  -0.0170 
 23 C       -8.7970     4.9610    -0.4500 C.ar  1 <1>   0.6200 
 24 C       -7.4130     6.7510    -0.3050 C.ar  1 <1>   0.1600 
 25 N       -8.6110     6.2840    -0.5740 N.ar  1 <1>  -0.6200 
 26 C      -10.1240     4.4350    -0.7460 C.ar  1 <1>   0.0000 
 27 C      -11.2730     5.2190    -0.6060 C.ar  1 <1>  -0.1500 
 28 C      -10.3110     3.1200    -1.1840 C.ar  1 <1>  -0.1500 
 29 C      -12.5330     4.7230    -0.8850 C.ar  1 <1>  -0.1500 
 30 C      -11.5680     2.6160    -1.4650 C.ar  1 <1>  -0.1500 
 31 C      -12.6840     3.4180    -1.3160 C.ar  1 <1>  -0.1500 
 32 H       -1.9770     2.6080    -2.3840 H     1 <1>   0.0800 
 33 H       -2.4510     3.8390    -1.2460 H     1 <1>   0.0800 
 34 H        1.8380     4.0960     0.7200 H     1 <1>   0.0800 
 35 H        1.3810     2.5050     1.3670 H     1 <1>   0.0800 
 36 H        2.9400     1.4650    -1.9660 H     1 <1>   0.0800 
 37 H        3.0920     1.1360    -0.2530 H     1 <1>   0.0800 
 38 H        3.7260     2.6320    -0.9230 H     1 <1>   0.0800 
 39 H       -5.7740     2.6040    -1.1310 H     1 <1>   0.0800 
 40 H       -4.4770     3.7250    -1.2950 H     1 <1>   0.0800 
 41 H       -3.9570     0.5660     1.3910 H     1 <1>   0.0800 
 42 H       -4.8850     0.0100     0.0280 H     1 <1>   0.0800 
 43 H       -6.1640     0.7350     2.1610 H     1 <1>   0.0800 
 44 H       -6.7700     1.3120     0.6440 H     1 <1>   0.0800 
 45 H       -6.6580     3.1470     2.3270 H     1 <1>   0.0800 
 46 H       -4.9590     2.8350     2.5120 H     1 <1>   0.0800 
 47 H       -3.4620     4.6890     0.8360 H     1 <1>   0.0800 
 48 H       -4.5470     5.0390     2.1490 H     1 <1>   0.0800 
 49 H       -4.4070     6.4280    -0.4670 H     1 <1>   0.0800 
 50 H       -4.8810     7.0520     1.1120 H     1 <1>   0.0800 
 51 H       -7.2420     7.8100    -0.4020 H     1 <1>   0.1500 
 52 H      -11.1760     6.2370    -0.2710 H     1 <1>   0.1500 
 53 H       -9.4550     2.4790    -1.3060 H     1 <1>   0.1500 
 54 H      -13.3970     5.3540    -0.7670 H     1 <1>   0.1500 
 55 H      -11.6780     1.6000    -1.7990 H     1 <1>   0.1500 
 56 H      -13.6640     3.0300    -1.5330 H     1 <1>   0.1500 
@<TRIPOS>BOND
  1   1   2  2   
  2   2   3  am  
  3   2   4  am  
  4   3   5  am  
  5   3   6  1   
  6   4   7  1   
  7   4   8  1   
  8   5   7  1   
  9   5   9  2   
 10   6  10  1   
 11   6  32  1   
 12   6  33  1   
 13   7  34  1   
 14   7  35  1   
 15   8  36  1   
 16   8  37  1   
 17   8  38  1   
 18  10  11  2   
 19  10  12  am  
 20  12  13  1   
 21  12  14  1   
 22  13  15  1   
 23  13  39  1   
 24  13  40  1   
 25  14  16  1   
 26  14  41  1   
 27  14  42  1   
 28  15  17  1   
 29  15  18  1   
 30  15  19  1   
 31  16  18  1   
 32  16  43  1   
 33  16  44  1   
 34  17  20  ar  
 35  17  21  ar  
 36  18  45  1   
 37  18  46  1   
 38  19  22  1   
 39  19  47  1   
 40  19  48  1   
 41  20  23  ar  
 42  21  22  1   
 43  21  24  ar  
 44  22  49  1   
 45  22  50  1   
 46  23  25  ar  
 47  23  26  1   
 48  24  25  ar  
 49  24  51  1   
 50  26  27  ar  
 51  26  28  ar  
 52  27  29  ar  
 53  27  52  1   
 54  28  30  ar  
 55  28  53  1   
 56  29  31  ar  
 57  29  54  1   
 58  30  31  ar  
 59  30  55  1   
 60  31  56  1   
@<TRIPOS>SUBSTRUCTURE
  1 ****  13 GROUP 4 **** **** 0

# MOE 2024.06 (io_trps.svl 2023.06)
