@<TRIPOS>MOLECULE
NONAME
54 58 1 0 0 
SMALL
USER_CHARGES


@<TRIPOS>ATOM
  1 O       -1.8640     0.1500    -2.0730 O.2   1 <1>  -0.5700 
  2 C       -1.7800     0.3520    -0.8780 C.2   1 <1>   0.5440 
  3 N       -1.7350    -0.7290    -0.0450 N.am  1 <1>  -0.7300 
  4 C       -1.7440     1.7030    -0.3580 C.ar  1 <1>   0.0860 
  5 C       -1.8180    -2.1460    -0.4740 C.3   1 <1>   0.2200 
  6 C       -2.2410     2.0100     0.9050 C.ar  1 <1>   0.1600 
  7 C       -1.2230     2.7560    -1.0950 C.ar  1 <1>  -0.1500 
  8 C       -3.2060    -2.7220    -0.2160 C.3   1 <1>  -0.0800 
  9 C       -0.9870    -2.9910     0.4800 C.3   1 <1>   0.1200 
 10 N       -2.2480     3.2060     1.4670 N.ar  1 <1>  -0.6200 
 11 C       -1.2180     4.0180    -0.5380 C.ar  1 <1>  -0.1440 
 12 C       -3.1370    -3.1110     1.2670 C.3   1 <1>   0.1200 
 13 C       -4.3820    -1.7890    -0.5790 C.3   1 <1>  -0.0170 
 14 O       -1.7820    -3.1350     1.6170 O.3   1 <1>  -0.5600 
 15 C       -1.7370     4.1900     0.7430 C.ar  1 <1>   0.1670 
 16 C       -0.6340     5.1730    -1.3430 C.3   1 <1>  -0.0170 
 17 C       -5.7940    -2.3650    -0.4210 C.ar  1 <1>  -0.1440 
 18 C       -1.7710     5.5610     1.4040 C.3   1 <1>  -0.0170 
 19 C       -1.0730     6.5410    -0.8090 C.3   1 <1>  -0.1600 
 20 C       -6.9140    -1.5030    -0.5250 C.ar  1 <1>   0.0000 
 21 C       -6.0500    -3.6880    -0.1880 C.ar  1 <1>  -0.1500 
 22 C       -0.8840     6.6030     0.7090 C.3   1 <1>  -0.1600 
 23 C       -8.2030    -2.0620    -0.3430 C.ar  1 <1>   0.3100 
 24 C       -6.8330    -0.1180    -0.8050 C.ar  1 <1>  -0.1500 
 25 C       -7.3660    -4.1400    -0.0350 C.ar  1 <1>   0.1600 
 26 N       -8.4110    -3.3790    -0.0980 N.ar  1 <1>  -0.6200 
 27 C       -9.3280    -1.2260    -0.4220 C.ar  1 <1>  -0.1500 
 28 C       -7.9490     0.6700    -0.8780 C.ar  1 <1>  -0.1500 
 29 C       -9.2140     0.1130    -0.6820 C.ar  1 <1>  -0.1500 
 30 H       -1.5950    -0.6190     0.9620 H     1 <1>   0.3700 
 31 H       -1.5040    -2.2560    -1.4990 H     1 <1>   0.0800 
 32 H       -2.6690     1.2160     1.4900 H     1 <1>   0.1500 
 33 H       -0.8320     2.5770    -2.0820 H     1 <1>   0.1500 
 34 H       -3.2880    -3.6220    -0.7990 H     1 <1>   0.0800 
 35 H       -0.0520    -2.5290     0.7430 H     1 <1>   0.0800 
 36 H       -0.8110    -3.9710     0.0710 H     1 <1>   0.0800 
 37 H       -3.5570    -4.0850     1.4510 H     1 <1>   0.0800 
 38 H       -3.6230    -2.3820     1.8920 H     1 <1>   0.0800 
 39 H       -4.2600    -1.4690    -1.6000 H     1 <1>   0.0800 
 40 H       -4.3170    -0.9160     0.0450 H     1 <1>   0.0800 
 41 H        0.4400     5.1060    -1.3020 H     1 <1>   0.0800 
 42 H       -0.9290     5.0860    -2.3750 H     1 <1>   0.0800 
 43 H       -2.7900     5.9010     1.3990 H     1 <1>   0.0800 
 44 H       -1.4650     5.4650     2.4310 H     1 <1>   0.0800 
 45 H       -0.4950     7.3150    -1.2840 H     1 <1>   0.0800 
 46 H       -2.1100     6.7040    -1.0500 H     1 <1>   0.0800 
 47 H       -5.2770    -4.4260    -0.1140 H     1 <1>   0.1500 
 48 H       -1.1320     7.5850     1.0720 H     1 <1>   0.0800 
 49 H        0.1470     6.4100     0.9490 H     1 <1>   0.0800 
 50 H       -5.8740     0.3370    -0.9700 H     1 <1>   0.1500 
 51 H       -7.5180    -5.1900     0.1500 H     1 <1>   0.1500 
 52 H      -10.2910    -1.6780    -0.2720 H     1 <1>   0.1500 
 53 H       -7.8680     1.7230    -1.0890 H     1 <1>   0.1500 
 54 H      -10.0850     0.7430    -0.7400 H     1 <1>   0.1500 
@<TRIPOS>BOND
  1   1   2  2   
  2   2   3  am  
  3   2   4  1   
  4   3   5  1   
  5   3  30  1   
  6   4   6  ar  
  7   4   7  ar  
  8   5   8  1   
  9   5   9  1   
 10   5  31  1   
 11   6  10  ar  
 12   6  32  1   
 13   7  11  ar  
 14   7  33  1   
 15   8  12  1   
 16   8  13  1   
 17   8  34  1   
 18   9  14  1   
 19   9  35  1   
 20   9  36  1   
 21  10  15  ar  
 22  11  15  ar  
 23  11  16  1   
 24  12  14  1   
 25  12  37  1   
 26  12  38  1   
 27  13  17  1   
 28  13  39  1   
 29  13  40  1   
 30  15  18  1   
 31  16  19  1   
 32  16  41  1   
 33  16  42  1   
 34  17  20  ar  
 35  17  21  ar  
 36  18  22  1   
 37  18  43  1   
 38  18  44  1   
 39  19  22  1   
 40  19  45  1   
 41  19  46  1   
 42  20  23  ar  
 43  20  24  ar  
 44  21  25  ar  
 45  21  47  1   
 46  22  48  1   
 47  22  49  1   
 48  23  26  ar  
 49  23  27  ar  
 50  24  28  ar  
 51  24  50  1   
 52  25  26  ar  
 53  25  51  1   
 54  27  29  ar  
 55  27  52  1   
 56  28  29  ar  
 57  28  53  1   
 58  29  54  1   
@<TRIPOS>SUBSTRUCTURE
  1 ****  13 GROUP 4 **** **** 0

# MOE 2024.06 (io_trps.svl 2023.06)
