@<TRIPOS>MOLECULE
NONAME
43 44 1 0 0 
SMALL
USER_CHARGES


@<TRIPOS>ATOM
  1 O       -0.7720    -3.3240    -1.3910 O.co2 1 <1>  -0.9000 
  2 C       -0.8260    -3.3670    -0.1540 C.2   1 <1>   1.0330 
  3 O       -1.9020    -3.7770     0.3320 O.co2 1 <1>  -0.9000 
  4 C        0.3420    -3.2380     0.6570 C.2   1 <1>  -0.2330 
  5 C        0.5510    -4.0290     1.7820 C.2   1 <1>   0.3720 
  6 C        1.4760    -2.4890     0.5870 C.2   1 <1>   0.0870 
  7 N        1.7060    -3.8280     2.3020 N.2   1 <1>  -0.4100 
  8 N       -0.3790    -4.9270     2.2820 N.pl3 1 <1>  -0.8520 
  9 O        2.2470    -2.8860     1.5750 O.3   1 <1>  -0.0190 
 10 C        1.9440    -1.4300    -0.2750 C.ar  1 <1>   0.0530 
 11 C       -0.0130    -6.3530     2.2370 C.3   1 <1>   0.2090 
 12 C        1.7380    -1.4270    -1.6540 C.ar  1 <1>  -0.1500 
 13 C        2.6490    -0.3530     0.2650 C.ar  1 <1>  -0.1500 
 14 C       -1.1460    -7.2450     1.6860 C.3   1 <1>  -0.0800 
 15 C        2.2030    -0.3980    -2.4530 C.ar  1 <1>  -0.1500 
 16 C        3.1210     0.6780    -0.5270 C.ar  1 <1>  -0.1500 
 17 C       -1.1610    -7.3110     0.1390 C.3   1 <1>   0.3430 
 18 C       -2.5010    -6.9750     2.3720 C.3   1 <1>  -0.2400 
 19 C        2.8970     0.6580    -1.8920 C.ar  1 <1>  -0.1500 
 20 N       -2.0240    -6.3250    -0.5760 N.4   1 <1>  -0.9590 
 21 C       -3.4710    -6.6540    -0.6520 C.3   1 <1>   0.2630 
 22 C       -1.4970    -6.0220    -1.9380 C.3   1 <1>   0.2630 
 23 H       -1.2840    -4.7220     1.8170 H     1 <1>   0.4000 
 24 H        0.2110    -6.6550     3.2460 H     1 <1>   0.0800 
 25 H        0.8860    -6.4840     1.6570 H     1 <1>   0.0800 
 26 H        1.2090    -2.2420    -2.1110 H     1 <1>   0.1500 
 27 H        2.8260    -0.3270     1.3260 H     1 <1>   0.1500 
 28 H       -0.8590    -8.2370     1.9860 H     1 <1>   0.0800 
 29 H        2.0220    -0.4240    -3.5130 H     1 <1>   0.1500 
 30 H        3.6600     1.4960    -0.0820 H     1 <1>   0.1500 
 31 H       -1.4720    -8.3000    -0.1540 H     1 <1>   0.0800 
 32 H       -0.1460    -7.1870    -0.2000 H     1 <1>   0.0800 
 33 H       -2.8820    -6.0020     2.1140 H     1 <1>   0.0800 
 34 H       -2.3810    -7.0050     3.4410 H     1 <1>   0.0800 
 35 H       -3.2230    -7.7230     2.0980 H     1 <1>   0.0800 
 36 H        3.2590     1.4590    -2.5130 H     1 <1>   0.1500 
 37 H       -1.9670    -5.3920    -0.0860 H     1 <1>   0.4500 
 38 H       -3.6190    -7.5810    -1.1790 H     1 <1>   0.0800 
 39 H       -3.9920    -5.8660    -1.1730 H     1 <1>   0.0800 
 40 H       -3.8940    -6.7360     0.3330 H     1 <1>   0.0800 
 41 H       -1.5650    -6.8840    -2.5790 H     1 <1>   0.0800 
 42 H       -0.4700    -5.7020    -1.8740 H     1 <1>   0.0800 
 43 H       -2.0570    -5.2070    -2.3710 H     1 <1>   0.0800 
@<TRIPOS>BOND
  1   1   2  ar  
  2   2   3  ar  
  3   2   4  1   
  4   4   5  1   
  5   4   6  2   
  6   5   7  2   
  7   5   8  1   
  8   6   9  1   
  9   6  10  1   
 10   7   9  1   
 11   8  11  1   
 12   8  23  1   
 13  10  12  ar  
 14  10  13  ar  
 15  11  14  1   
 16  11  24  1   
 17  11  25  1   
 18  12  15  ar  
 19  12  26  1   
 20  13  16  ar  
 21  13  27  1   
 22  14  17  1   
 23  14  18  1   
 24  14  28  1   
 25  15  19  ar  
 26  15  29  1   
 27  16  19  ar  
 28  16  30  1   
 29  17  20  1   
 30  17  31  1   
 31  17  32  1   
 32  18  33  1   
 33  18  34  1   
 34  18  35  1   
 35  19  36  1   
 36  20  21  1   
 37  20  22  1   
 38  20  37  1   
 39  21  38  1   
 40  21  39  1   
 41  21  40  1   
 42  22  41  1   
 43  22  42  1   
 44  22  43  1   
@<TRIPOS>SUBSTRUCTURE
  1 ****   4 GROUP 4 **** **** 0

# MOE 2024.06 (io_trps.svl 2023.06)
