@<TRIPOS>MOLECULE
NONAME
45 47 1 0 0 
SMALL
USER_CHARGES


@<TRIPOS>ATOM
  1 S       -0.0560    -0.2480    -0.0740 S.o2  1 <1>   1.0900 
  2 O        0.8940    -0.7970     0.8650 O.2   1 <1>  -0.6500 
  3 O        0.1700    -0.3810    -1.4930 O.2   1 <1>  -0.6500 
  4 C       -1.6670    -0.9170     0.2940 C.3   1 <1>  -0.0550 
  5 C       -0.2410     1.4870     0.2890 C.3   1 <1>  -0.1350 
  6 C       -1.6880    -2.4260     0.0780 C.3   1 <1>   0.1100 
  7 N       -3.0260    -2.9520     0.3750 N.3   1 <1>  -0.8100 
  8 C       -4.0060    -2.7010    -0.6890 C.3   1 <1>   0.1100 
  9 C       -3.0140    -4.4150     0.5360 C.3   1 <1>   0.1100 
 10 C       -5.1390    -3.6680    -0.3710 C.3   1 <1>   0.2000 
 11 C       -4.4090    -4.9190     0.1180 C.3   1 <1>  -0.0800 
 12 O       -5.8390    -3.1430     0.6980 O.3   1 <1>  -0.6800 
 13 C       -4.3350    -5.9880    -0.9860 C.3   1 <1>  -0.0170 
 14 C       -3.6040    -7.2350    -0.5170 C.ar  1 <1>   0.1670 
 15 N       -2.3640    -7.3760    -0.8750 N.ar  1 <1>  -0.6200 
 16 C       -4.2940    -8.1660     0.2760 C.ar  1 <1>  -0.1500 
 17 C       -1.7050    -8.4860    -0.4520 C.ar  1 <1>   0.3100 
 18 C       -3.6590    -9.2880     0.7130 C.ar  1 <1>  -0.1500 
 19 C       -2.3150    -9.4760     0.3500 C.ar  1 <1>   0.0000 
 20 C       -0.3620    -8.6590    -0.8210 C.ar  1 <1>  -0.1500 
 21 C       -1.5600   -10.5970     0.7460 C.ar  1 <1>  -0.1500 
 22 C        0.3560    -9.7570    -0.4240 C.ar  1 <1>  -0.1500 
 23 C       -0.2510   -10.7360     0.3680 C.ar  1 <1>  -0.1500 
 24 H       -1.9230    -0.7180     1.3160 H     1 <1>   0.0800 
 25 H       -2.3980    -0.4590    -0.3430 H     1 <1>   0.0800 
 26 H       -0.4990     1.6320     1.3200 H     1 <1>   0.0800 
 27 H       -1.0030     1.9230    -0.3270 H     1 <1>   0.0800 
 28 H        0.6820     1.9990     0.0980 H     1 <1>   0.0800 
 29 H       -0.9710    -2.8770     0.7470 H     1 <1>   0.0800 
 30 H       -1.4020    -2.6700    -0.9330 H     1 <1>   0.0800 
 31 H       -4.3470    -1.6800    -0.6930 H     1 <1>   0.0800 
 32 H       -3.5830    -2.9460    -1.6490 H     1 <1>   0.0800 
 33 H       -2.2540    -4.8470    -0.0940 H     1 <1>   0.0800 
 34 H       -2.7980    -4.6720     1.5600 H     1 <1>   0.0800 
 35 H       -5.8200    -3.8310    -1.1890 H     1 <1>   0.0800 
 36 H       -4.9160    -5.3430     0.9680 H     1 <1>   0.0800 
 37 H       -5.1640    -2.8590     1.3500 H     1 <1>   0.4000 
 38 H       -3.8320    -5.5890    -1.8500 H     1 <1>   0.0800 
 39 H       -5.3290    -6.2630    -1.2890 H     1 <1>   0.0800 
 40 H       -5.3220    -7.9790     0.5310 H     1 <1>   0.1500 
 41 H       -4.1550   -10.0220     1.3220 H     1 <1>   0.1500 
 42 H        0.0860    -7.8960    -1.4300 H     1 <1>   0.1500 
 43 H       -2.0320   -11.3460     1.3560 H     1 <1>   0.1500 
 44 H        1.3850    -9.8770    -0.7150 H     1 <1>   0.1500 
 45 H        0.3240   -11.5940     0.6730 H     1 <1>   0.1500 
@<TRIPOS>BOND
  1   1   2  2   
  2   1   3  2   
  3   1   4  1   
  4   1   5  1   
  5   4   6  1   
  6   4  24  1   
  7   4  25  1   
  8   5  26  1   
  9   5  27  1   
 10   5  28  1   
 11   6   7  1   
 12   6  29  1   
 13   6  30  1   
 14   7   8  1   
 15   7   9  1   
 16   8  10  1   
 17   8  31  1   
 18   8  32  1   
 19   9  11  1   
 20   9  33  1   
 21   9  34  1   
 22  10  11  1   
 23  10  12  1   
 24  10  35  1   
 25  11  13  1   
 26  11  36  1   
 27  12  37  1   
 28  13  14  1   
 29  13  38  1   
 30  13  39  1   
 31  14  15  ar  
 32  14  16  ar  
 33  15  17  ar  
 34  16  18  ar  
 35  16  40  1   
 36  17  19  ar  
 37  17  20  ar  
 38  18  19  ar  
 39  18  41  1   
 40  19  21  ar  
 41  20  22  ar  
 42  20  42  1   
 43  21  23  ar  
 44  21  43  1   
 45  22  23  ar  
 46  22  44  1   
 47  23  45  1   
@<TRIPOS>SUBSTRUCTURE
  1 ****   9 GROUP 4 **** **** 0

# MOE 2024.06 (io_trps.svl 2023.06)
