@<TRIPOS>MOLECULE
NONAME
39 41 1 0 0 
SMALL
USER_CHARGES


@<TRIPOS>ATOM
  1 CL      -3.5440     1.1180    -0.4000 Cl    1 <1>  -0.1770 
  2 C       -3.6100    -0.6060    -0.0950 C.ar  1 <1>   0.1770 
  3 C       -4.3520    -1.1370     0.9560 C.ar  1 <1>   0.1660 
  4 C       -2.9020    -1.4390    -0.9360 C.ar  1 <1>  -0.1500 
  5 N       -4.4390    -2.4370     1.2040 N.ar  1 <1>  -0.6200 
  6 C       -5.1350    -0.2460     1.9030 C.3   1 <1>  -0.0960 
  7 C       -2.9880    -2.7860    -0.6730 C.ar  1 <1>  -0.1500 
  8 C       -3.7660    -3.2350     0.3920 C.ar  1 <1>   0.4100 
  9 N       -3.8960    -4.5590     0.6890 N.pl3 1 <1>  -0.8690 
 10 C       -4.2900    -5.5680    -0.3260 C.3   1 <1>   0.2890 
 11 C       -5.7990    -5.7810    -0.3800 C.3   1 <1>  -0.0800 
 12 C       -3.8230    -6.9480     0.1310 C.3   1 <1>   0.1200 
 13 C       -6.0420    -6.7960     0.7370 C.3   1 <1>   0.1200 
 14 C       -6.6850    -4.5270    -0.2780 C.3   1 <1>  -0.0160 
 15 O       -4.8360    -7.4690     0.9430 O.3   1 <1>  -0.5600 
 16 C       -8.1530    -4.8840    -0.4520 C.ar  1 <1>  -0.1430 
 17 C       -9.0020    -5.0310     0.6260 C.ar  1 <1>  -0.1500 
 18 C       -8.7120    -5.0830    -1.6990 C.ar  1 <1>  -0.1500 
 19 C      -10.3290    -5.3650     0.4130 C.ar  1 <1>   0.1600 
 20 C      -10.0530    -5.4140    -1.8030 C.ar  1 <1>   0.1600 
 21 N      -10.8750    -5.5620    -0.7760 N.ar  1 <1>  -0.6200 
 22 H       -2.3180    -1.0430    -1.7470 H     1 <1>   0.1500 
 23 H       -4.6850     0.7250     1.9910 H     1 <1>   0.0800 
 24 H       -5.1630    -0.6900     2.8820 H     1 <1>   0.0800 
 25 H       -6.1420    -0.1380     1.5450 H     1 <1>   0.0800 
 26 H       -2.4540    -3.4970    -1.2730 H     1 <1>   0.1500 
 27 H       -4.3880    -4.6950     1.5760 H     1 <1>   0.4000 
 28 H       -3.8810    -5.3150    -1.2880 H     1 <1>   0.0800 
 29 H       -6.0230    -6.2740    -1.3090 H     1 <1>   0.0800 
 30 H       -2.9030    -6.9050     0.6870 H     1 <1>   0.0800 
 31 H       -3.7140    -7.6070    -0.7110 H     1 <1>   0.0800 
 32 H       -6.8050    -7.5100     0.4780 H     1 <1>   0.0800 
 33 H       -6.2990    -6.3080     1.6610 H     1 <1>   0.0800 
 34 H       -6.3980    -3.8180    -1.0340 H     1 <1>   0.0800 
 35 H       -6.5520    -4.0510     0.6770 H     1 <1>   0.0800 
 36 H       -8.6450    -4.8880     1.6300 H     1 <1>   0.1500 
 37 H       -8.1190    -4.9830    -2.5890 H     1 <1>   0.1500 
 38 H      -10.9760    -5.4750     1.2660 H     1 <1>   0.1500 
 39 H      -10.4720    -5.5650    -2.7830 H     1 <1>   0.1500 
@<TRIPOS>BOND
  1   1   2  1   
  2   2   3  ar  
  3   2   4  ar  
  4   3   5  ar  
  5   3   6  1   
  6   4   7  ar  
  7   4  22  1   
  8   5   8  ar  
  9   6  23  1   
 10   6  24  1   
 11   6  25  1   
 12   7   8  ar  
 13   7  26  1   
 14   8   9  1   
 15   9  10  1   
 16   9  27  1   
 17  10  11  1   
 18  10  12  1   
 19  10  28  1   
 20  11  13  1   
 21  11  14  1   
 22  11  29  1   
 23  12  15  1   
 24  12  30  1   
 25  12  31  1   
 26  13  15  1   
 27  13  32  1   
 28  13  33  1   
 29  14  16  1   
 30  14  34  1   
 31  14  35  1   
 32  16  17  ar  
 33  16  18  ar  
 34  17  19  ar  
 35  17  36  1   
 36  18  20  ar  
 37  18  37  1   
 38  19  21  ar  
 39  19  38  1   
 40  20  21  ar  
 41  20  39  1   
@<TRIPOS>SUBSTRUCTURE
  1 ****  14 GROUP 4 **** **** 0

# MOE 2024.06 (io_trps.svl 2023.06)
