@<TRIPOS>MOLECULE
NONAME
38 39 1 0 0 
SMALL
USER_CHARGES


@<TRIPOS>ATOM
  1 F       -0.6350    -0.1410     0.9440 F     1 <1>  -0.3400 
  2 C       -1.7430    -0.7930     1.2620 C.3   1 <1>   1.0200 
  3 F       -2.7100     0.1090     1.3420 F     1 <1>  -0.3400 
  4 F       -1.5690    -1.2650     2.4890 F     1 <1>  -0.3400 
  5 C       -2.0650    -1.9040     0.2630 C.3   1 <1>  -0.1600 
  6 C       -3.3550    -2.6830     0.5970 C.3   1 <1>  -0.0990 
  7 C       -3.6100    -3.7770    -0.4160 C.2   1 <1>   0.5690 
  8 O       -3.9470    -3.4710    -1.5320 O.2   1 <1>  -0.5700 
  9 N       -3.4530    -5.0680    -0.0430 N.am  1 <1>  -0.7300 
 10 C       -3.6260    -6.2350    -0.9400 C.3   1 <1>   0.2200 
 11 C       -4.9320    -6.9660    -0.6540 C.3   1 <1>  -0.0800 
 12 C       -2.6190    -7.3060    -0.5480 C.3   1 <1>   0.1200 
 13 C       -4.5620    -7.8980     0.5060 C.3   1 <1>   0.1200 
 14 C       -6.1590    -6.0740    -0.3860 C.3   1 <1>  -0.0160 
 15 O       -3.1650    -7.9120     0.5830 O.3   1 <1>  -0.5600 
 16 C       -7.4150    -6.9160    -0.2230 C.ar  1 <1>  -0.1440 
 17 C       -7.9180    -7.2540     1.0170 C.ar  1 <1>  -0.1500 
 18 C       -8.1170    -7.3860    -1.3140 C.ar  1 <1>  -0.1500 
 19 C       -9.0620    -8.0300     1.1030 C.ar  1 <1>   0.1600 
 20 C       -9.2520    -8.1560    -1.1180 C.ar  1 <1>   0.1600 
 21 N       -9.7400    -8.4910     0.0650 N.ar  1 <1>  -0.6200 
 22 H       -2.1610    -1.4600    -0.7110 H     1 <1>   0.0800 
 23 H       -1.2320    -2.5830     0.2370 H     1 <1>   0.0800 
 24 H       -4.1980    -2.0160     0.5850 H     1 <1>   0.0800 
 25 H       -3.2860    -3.1140     1.5800 H     1 <1>   0.0800 
 26 H       -3.1930    -5.3230     0.9130 H     1 <1>   0.3700 
 27 H       -3.5310    -5.9410    -1.9720 H     1 <1>   0.0800 
 28 H       -5.1510    -7.5870    -1.5050 H     1 <1>   0.0800 
 29 H       -1.6480    -6.9050    -0.3150 H     1 <1>   0.0800 
 30 H       -2.5340    -8.0540    -1.3170 H     1 <1>   0.0800 
 31 H       -4.9130    -8.9020     0.3370 H     1 <1>   0.0800 
 32 H       -4.9360    -7.5360     1.4480 H     1 <1>   0.0800 
 33 H       -6.2910    -5.3930    -1.2090 H     1 <1>   0.0800 
 34 H       -6.0100    -5.4830     0.5000 H     1 <1>   0.0800 
 35 H       -7.4340    -6.9240     1.9180 H     1 <1>   0.1500 
 36 H       -7.7930    -7.1620    -2.3130 H     1 <1>   0.1500 
 37 H       -9.4400    -8.2850     2.0790 H     1 <1>   0.1500 
 38 H       -9.7870    -8.5140    -1.9810 H     1 <1>   0.1500 
@<TRIPOS>BOND
  1   1   2  1   
  2   2   3  1   
  3   2   4  1   
  4   2   5  1   
  5   5   6  1   
  6   5  22  1   
  7   5  23  1   
  8   6   7  1   
  9   6  24  1   
 10   6  25  1   
 11   7   8  2   
 12   7   9  am  
 13   9  10  1   
 14   9  26  1   
 15  10  11  1   
 16  10  12  1   
 17  10  27  1   
 18  11  13  1   
 19  11  14  1   
 20  11  28  1   
 21  12  15  1   
 22  12  29  1   
 23  12  30  1   
 24  13  15  1   
 25  13  31  1   
 26  13  32  1   
 27  14  16  1   
 28  14  33  1   
 29  14  34  1   
 30  16  17  ar  
 31  16  18  ar  
 32  17  19  ar  
 33  17  35  1   
 34  18  20  ar  
 35  18  36  1   
 36  19  21  ar  
 37  19  37  1   
 38  20  21  ar  
 39  20  38  1   
@<TRIPOS>SUBSTRUCTURE
  1 ****   9 GROUP 4 **** **** 0

# MOE 2024.06 (io_trps.svl 2023.06)
