@<TRIPOS>MOLECULE
NONAME
52 55 1 0 0 
SMALL
USER_CHARGES


@<TRIPOS>ATOM
  1 S       -1.4650    -1.2250    -1.5930 S.3   1 <1>  -0.0800 
  2 C       -1.6330    -1.6740     0.0710 C.2   1 <1>   0.4420 
  3 C       -0.6330     0.1930    -1.0490 C.2   1 <1>   0.1980 
  4 N       -1.1120    -0.8100     0.8650 N.2   1 <1>  -0.3380 
  5 N       -2.2830    -2.8600     0.3280 N.am  1 <1>  -0.4940 
  6 N       -0.5440     0.2530     0.2180 N.2   1 <1>  -0.3380 
  7 C       -0.1360     1.1890    -2.0830 C.3   1 <1>   0.3000 
  8 C       -2.6310    -3.4490     1.5050 C.2   1 <1>   0.5690 
  9 O        0.5940     0.5360    -3.0820 O.3   1 <1>  -0.5600 
 10 O       -2.4450    -2.9700     2.5950 O.2   1 <1>  -0.5700 
 11 C       -3.3190    -4.8080     1.3990 C.3   1 <1>   0.1710 
 12 C        1.1370     1.3860    -4.0410 C.3   1 <1>   0.0400 
 13 N       -4.0260    -5.0180     0.0960 N.3   1 <1>  -0.8100 
 14 C       -5.2870    -4.2520     0.0160 C.3   1 <1>   0.1100 
 15 C       -4.4350    -6.4180    -0.0610 C.3   1 <1>   0.1100 
 16 C       -6.4140    -5.1700     0.5090 C.3   1 <1>   0.2000 
 17 C       -5.7730    -6.5480     0.6680 C.3   1 <1>  -0.0800 
 18 O       -6.8940    -4.7420     1.7360 O.3   1 <1>  -0.6800 
 19 C       -6.6630    -7.6950     0.1600 C.3   1 <1>  -0.0170 
 20 C       -5.9640    -9.0390     0.3480 C.ar  1 <1>  -0.1440 
 21 C       -5.2160    -9.6870    -0.6660 C.ar  1 <1>   0.0000 
 22 C       -6.0400    -9.6530     1.5640 C.ar  1 <1>  -0.1500 
 23 C       -4.5750   -10.9050    -0.3280 C.ar  1 <1>   0.3100 
 24 C       -5.0620    -9.2100    -1.9900 C.ar  1 <1>  -0.1500 
 25 C       -5.3800   -10.8660     1.7870 C.ar  1 <1>   0.1600 
 26 N       -4.6670   -11.4790     0.8980 N.ar  1 <1>  -0.6200 
 27 C       -3.8040   -11.5630    -1.3000 C.ar  1 <1>  -0.1500 
 28 C       -4.3070    -9.8780    -2.9140 C.ar  1 <1>  -0.1500 
 29 C       -3.6650   -11.0690    -2.5670 C.ar  1 <1>  -0.1500 
 30 H       -2.5970    -3.3990    -0.4810 H     1 <1>   0.3700 
 31 H        0.5020     1.9120    -1.6050 H     1 <1>   0.0800 
 32 H       -0.9720     1.6870    -2.5390 H     1 <1>   0.0800 
 33 H       -4.0020    -4.9140     2.2230 H     1 <1>   0.0800 
 34 H       -2.5530    -5.5550     1.5110 H     1 <1>   0.0800 
 35 H        1.6690     0.7850    -4.7570 H     1 <1>   0.0800 
 36 H        1.8210     2.0690    -3.5660 H     1 <1>   0.0800 
 37 H        0.3450     1.9210    -4.5350 H     1 <1>   0.0800 
 38 H       -5.2440    -3.3280     0.5690 H     1 <1>   0.0800 
 39 H       -5.4690    -4.0190    -1.0190 H     1 <1>   0.0800 
 40 H       -4.5700    -6.6090    -1.1110 H     1 <1>   0.0800 
 41 H       -3.6970    -7.1050     0.3190 H     1 <1>   0.0800 
 42 H       -7.2340    -5.1690    -0.1890 H     1 <1>   0.0800 
 43 H       -5.5530    -6.7290     1.7060 H     1 <1>   0.0800 
 44 H       -6.1580    -4.6300     2.3680 H     1 <1>   0.4000 
 45 H       -6.9460    -7.5370    -0.8630 H     1 <1>   0.0800 
 46 H       -7.5750    -7.6950     0.7320 H     1 <1>   0.0800 
 47 H       -6.5960    -9.2240     2.3770 H     1 <1>   0.1500 
 48 H       -5.5490    -8.3040    -2.2900 H     1 <1>   0.1500 
 49 H       -5.4680   -11.3160     2.7620 H     1 <1>   0.1500 
 50 H       -3.3240   -12.4800    -1.0100 H     1 <1>   0.1500 
 51 H       -4.1980    -9.5020    -3.9170 H     1 <1>   0.1500 
 52 H       -3.0720   -11.5860    -3.3020 H     1 <1>   0.1500 
@<TRIPOS>BOND
  1   1   2  1   
  2   1   3  1   
  3   2   4  2   
  4   2   5  1   
  5   3   6  2   
  6   3   7  1   
  7   4   6  1   
  8   5   8  am  
  9   5  30  1   
 10   7   9  1   
 11   7  31  1   
 12   7  32  1   
 13   8  10  2   
 14   8  11  1   
 15   9  12  1   
 16  11  13  1   
 17  11  33  1   
 18  11  34  1   
 19  12  35  1   
 20  12  36  1   
 21  12  37  1   
 22  13  14  1   
 23  13  15  1   
 24  14  16  1   
 25  14  38  1   
 26  14  39  1   
 27  15  17  1   
 28  15  40  1   
 29  15  41  1   
 30  16  17  1   
 31  16  18  1   
 32  16  42  1   
 33  17  19  1   
 34  17  43  1   
 35  18  44  1   
 36  19  20  1   
 37  19  45  1   
 38  19  46  1   
 39  20  21  ar  
 40  20  22  ar  
 41  21  23  ar  
 42  21  24  ar  
 43  22  25  ar  
 44  22  47  1   
 45  23  26  ar  
 46  23  27  ar  
 47  24  28  ar  
 48  24  48  1   
 49  25  26  ar  
 50  25  49  1   
 51  27  29  ar  
 52  27  50  1   
 53  28  29  ar  
 54  28  51  1   
 55  29  52  1   
@<TRIPOS>SUBSTRUCTURE
  1 ****  13 GROUP 4 **** **** 0

# MOE 2024.06 (io_trps.svl 2023.06)
