@<TRIPOS>MOLECULE
NONAME
45 47 1 0 0 
SMALL
USER_CHARGES


@<TRIPOS>ATOM
  1 O       -0.8550     0.4930     1.8470 O.2   1 <1>  -0.5700 
  2 C       -1.5980     1.0200     1.0370 C.2   1 <1>   0.6160 
  3 N       -2.5560     0.2370     0.4330 N.am  1 <1>  -0.6600 
  4 C       -1.4890     2.4320     0.8090 C.2   1 <1>   0.0290 
  5 C       -3.6200     0.6980    -0.4950 C.3   1 <1>   0.1400 
  6 C       -2.7400    -1.1970     0.7440 C.3   1 <1>   0.1400 
  7 C       -1.2130     2.9160    -0.5090 C.2   1 <1>   0.6160 
  8 C       -1.6210     3.3450     1.8280 C.2   1 <1>  -0.1500 
  9 C       -4.6000    -0.4760    -0.6130 C.3   1 <1>   0.2000 
 10 C       -3.7350    -1.7020    -0.3040 C.3   1 <1>  -0.0800 
 11 O       -1.0650     2.2130    -1.4970 O.2   1 <1>  -0.5700 
 12 N       -1.1150     4.2700    -0.7000 N.am  1 <1>  -0.5390 
 13 C       -1.5070     4.7280     1.5770 C.2   1 <1>  -0.1500 
 14 O       -5.5980    -0.3690     0.3640 O.3   1 <1>  -0.5600 
 15 C       -4.5230    -2.9460     0.1450 C.3   1 <1>   0.0200 
 16 C       -1.2560     5.1750     0.3150 C.2   1 <1>  -0.0290 
 17 C       -6.6910     0.4210     0.0120 C.3   1 <1>   0.0400 
 18 C       -3.6590    -4.1910     0.2670 C.2   1 <1>  -0.0400 
 19 C       -1.1160     6.6420    -0.0400 C.3   1 <1>  -0.1020 
 20 O       -4.2040    -5.2920     0.7130 O.3   1 <1>  -0.0190 
 21 C       -2.3690    -4.4540     0.0010 C.2   1 <1>  -0.1500 
 22 N       -3.3500    -6.2740     0.7620 N.2   1 <1>  -0.4100 
 23 C       -2.2350    -5.7970     0.3400 C.2   1 <1>   0.1080 
 24 C       -0.9540    -6.5930     0.2300 C.3   1 <1>  -0.0590 
 25 H       -4.0990     1.5890    -0.1300 H     1 <1>   0.0800 
 26 H       -3.1820     0.8880    -1.4580 H     1 <1>   0.0800 
 27 H       -1.8000    -1.7190     0.7000 H     1 <1>   0.0800 
 28 H       -3.1530    -1.2840     1.7350 H     1 <1>   0.0800 
 29 H       -1.8090     3.0130     2.8350 H     1 <1>   0.1500 
 30 H       -5.0570    -0.5410    -1.5860 H     1 <1>   0.0800 
 31 H       -3.1810    -1.9430    -1.1940 H     1 <1>   0.0800 
 32 H       -0.9040     4.5490    -1.6580 H     1 <1>   0.3700 
 33 H       -1.6200     5.4100     2.4030 H     1 <1>   0.1500 
 34 H       -5.3050    -3.1460    -0.5660 H     1 <1>   0.0800 
 35 H       -4.9900    -2.7580     1.0960 H     1 <1>   0.0800 
 36 H       -7.3740     0.4310     0.8430 H     1 <1>   0.0800 
 37 H       -7.1760    -0.0060    -0.8480 H     1 <1>   0.0800 
 38 H       -6.3620     1.4240    -0.1950 H     1 <1>   0.0800 
 39 H       -1.8580     6.9170    -0.7670 H     1 <1>   0.0800 
 40 H       -0.1390     6.8290    -0.4480 H     1 <1>   0.0800 
 41 H       -1.2460     7.2570     0.8320 H     1 <1>   0.0800 
 42 H       -1.5920    -3.8190    -0.3810 H     1 <1>   0.1500 
 43 H       -0.2000    -6.1560     0.8570 H     1 <1>   0.0800 
 44 H       -0.6130    -6.5970    -0.7890 H     1 <1>   0.0800 
 45 H       -1.1250    -7.6070     0.5450 H     1 <1>   0.0800 
@<TRIPOS>BOND
  1   1   2  2   
  2   2   3  am  
  3   2   4  1   
  4   3   5  1   
  5   3   6  1   
  6   4   7  1   
  7   4   8  2   
  8   5   9  1   
  9   5  25  1   
 10   5  26  1   
 11   6  10  1   
 12   6  27  1   
 13   6  28  1   
 14   7  11  2   
 15   7  12  am  
 16   8  13  1   
 17   8  29  1   
 18   9  10  1   
 19   9  14  1   
 20   9  30  1   
 21  10  15  1   
 22  10  31  1   
 23  12  16  1   
 24  12  32  1   
 25  13  16  2   
 26  13  33  1   
 27  14  17  1   
 28  15  18  1   
 29  15  34  1   
 30  15  35  1   
 31  16  19  1   
 32  17  36  1   
 33  17  37  1   
 34  17  38  1   
 35  18  20  1   
 36  18  21  2   
 37  19  39  1   
 38  19  40  1   
 39  19  41  1   
 40  20  22  1   
 41  21  23  1   
 42  21  42  1   
 43  22  23  2   
 44  23  24  1   
 45  24  43  1   
 46  24  44  1   
 47  24  45  1   
@<TRIPOS>SUBSTRUCTURE
  1 ****   3 GROUP 4 **** **** 0

# MOE 2024.06 (io_trps.svl 2023.06)
