@<TRIPOS>MOLECULE
NONAME
48 50 1 0 0 
SMALL
USER_CHARGES


@<TRIPOS>ATOM
  1 O       -0.4350    -2.1720    -1.0420 O.3   1 <1>  -0.5600 
  2 C       -0.5560    -3.4980    -0.6530 C.3   1 <1>   0.1200 
  3 C       -0.7490    -1.2280    -0.0620 C.3   1 <1>   0.1200 
  4 C       -2.0450    -3.8360    -0.4600 C.3   1 <1>  -0.1600 
  5 C       -2.0080    -1.6290     0.7340 C.3   1 <1>  -0.1600 
  6 C       -2.9150    -2.6300    -0.0160 C.3   1 <1>   0.0000 
  7 C       -4.0220    -3.0930     0.9620 C.3   1 <1>   0.3430 
  8 C       -3.5280    -1.9270    -1.2500 C.3   1 <1>  -0.2400 
  9 N       -4.9380    -4.1180     0.3770 N.4   1 <1>  -0.9590 
 10 C       -6.1380    -3.5660    -0.3380 C.3   1 <1>   0.3430 
 11 C       -5.4470    -5.1030     1.3640 C.3   1 <1>   0.3430 
 12 C       -7.3460    -4.3890     0.1390 C.3   1 <1>   0.2000 
 13 C       -6.7270    -5.6530     0.7330 C.3   1 <1>  -0.0800 
 14 O       -8.0200    -3.7000     1.1410 O.3   1 <1>  -0.6800 
 15 C       -6.4800    -6.7040    -0.3830 C.3   1 <1>  -0.0170 
 16 C       -5.1170    -7.3800    -0.3290 C.ar  1 <1>   0.1670 
 17 N       -4.1000    -6.6850    -0.8280 N.ar  1 <1>  -0.6200 
 18 C       -5.0030    -8.6510     0.2120 C.ar  1 <1>  -0.1500 
 19 C       -2.9290    -7.3100    -0.8160 C.ar  1 <1>   0.1600 
 20 C       -3.7740    -9.2720     0.2390 C.ar  1 <1>  -0.1500 
 21 C       -2.7150    -8.5750    -0.2990 C.ar  1 <1>  -0.1500 
 22 H       -0.1200    -4.1120    -1.4230 H     1 <1>   0.0800 
 23 H        0.0020    -3.6340     0.2580 H     1 <1>   0.0800 
 24 H        0.1020    -1.1200     0.5900 H     1 <1>   0.0800 
 25 H       -0.9090    -0.2930    -0.5720 H     1 <1>   0.0800 
 26 H       -2.4210    -4.2430    -1.3820 H     1 <1>   0.0800 
 27 H       -2.0910    -4.6230     0.2710 H     1 <1>   0.0800 
 28 H       -1.6750    -2.0690     1.6580 H     1 <1>   0.0800 
 29 H       -2.5510    -0.7370     0.9930 H     1 <1>   0.0800 
 30 H       -4.5920    -2.2390     1.2900 H     1 <1>   0.0800 
 31 H       -3.5360    -3.5130     1.8270 H     1 <1>   0.0800 
 32 H       -2.7600    -1.5220    -1.8850 H     1 <1>   0.0800 
 33 H       -4.1670    -1.1150    -0.9500 H     1 <1>   0.0800 
 34 H       -4.0940    -2.6120    -1.8530 H     1 <1>   0.0800 
 35 H       -4.4010    -4.6980    -0.3020 H     1 <1>   0.4500 
 36 H       -6.2900    -2.5220    -0.1230 H     1 <1>   0.0800 
 37 H       -6.0080    -3.6940    -1.4000 H     1 <1>   0.0800 
 38 H       -4.7230    -5.8790     1.5590 H     1 <1>   0.0800 
 39 H       -5.6870    -4.6060     2.2900 H     1 <1>   0.0800 
 40 H       -8.0500    -4.5810    -0.6530 H     1 <1>   0.0800 
 41 H       -7.3600    -6.0900     1.4860 H     1 <1>   0.0800 
 42 H       -7.4710    -3.5180     1.9270 H     1 <1>   0.4000 
 43 H       -6.5660    -6.2560    -1.3570 H     1 <1>   0.0800 
 44 H       -7.2520    -7.4520    -0.3310 H     1 <1>   0.0800 
 45 H       -5.8640    -9.1630     0.6050 H     1 <1>   0.1500 
 46 H       -2.0880    -6.7910    -1.2440 H     1 <1>   0.1500 
 47 H       -3.6480   -10.2600     0.6500 H     1 <1>   0.1500 
 48 H       -1.7310    -9.0110    -0.3220 H     1 <1>   0.1500 
@<TRIPOS>BOND
  1   1   2  1   
  2   1   3  1   
  3   2   4  1   
  4   2  22  1   
  5   2  23  1   
  6   3   5  1   
  7   3  24  1   
  8   3  25  1   
  9   4   6  1   
 10   4  26  1   
 11   4  27  1   
 12   5   6  1   
 13   5  28  1   
 14   5  29  1   
 15   6   7  1   
 16   6   8  1   
 17   7   9  1   
 18   7  30  1   
 19   7  31  1   
 20   8  32  1   
 21   8  33  1   
 22   8  34  1   
 23   9  10  1   
 24   9  11  1   
 25   9  35  1   
 26  10  12  1   
 27  10  36  1   
 28  10  37  1   
 29  11  13  1   
 30  11  38  1   
 31  11  39  1   
 32  12  13  1   
 33  12  14  1   
 34  12  40  1   
 35  13  15  1   
 36  13  41  1   
 37  14  42  1   
 38  15  16  1   
 39  15  43  1   
 40  15  44  1   
 41  16  17  ar  
 42  16  18  ar  
 43  17  19  ar  
 44  18  20  ar  
 45  18  45  1   
 46  19  21  ar  
 47  19  46  1   
 48  20  21  ar  
 49  20  47  1   
 50  21  48  1   
@<TRIPOS>SUBSTRUCTURE
  1 ****   9 GROUP 4 **** **** 0

# MOE 2024.06 (io_trps.svl 2023.06)
