@<TRIPOS>MOLECULE
NONAME
51 55 1 0 0 
SMALL
USER_CHARGES


@<TRIPOS>ATOM
  1 O        0.1150     0.8800     0.0520 O.2   1 <1>  -0.5700 
  2 C       -0.5880     1.7130    -0.4890 C.2   1 <1>   0.7150 
  3 N       -1.9580     1.5950    -0.3940 N.am  1 <1>  -0.6600 
  4 C        0.0310     2.8110    -1.1750 C.2   1 <1>  -0.2370 
  5 C       -2.9090     2.7070    -0.7080 C.3   1 <1>   0.1400 
  6 C       -2.5870     0.4040     0.2620 C.3   1 <1>   0.1400 
  7 N        1.0390     3.5500    -0.6470 N.pl3 1 <1>   0.3140 
  8 C       -0.1990     3.3470    -2.4060 C.2   1 <1>  -0.1500 
  9 C       -3.5600     3.2550     0.5810 C.3   1 <1>   0.1440 
 10 C       -3.9410     0.7450     0.9100 C.3   1 <1>  -0.1600 
 11 N        1.4240     4.5420    -1.4650 N.2   1 <1>  -0.7070 
 12 C        1.6960     3.3550     0.6550 C.3   1 <1>   0.0160 
 13 C        0.6830     4.4050    -2.5220 C.2   1 <1>   0.1390 
 14 C       -4.7810     4.0550     0.1600 C.ar  1 <1>   0.1660 
 15 C       -3.8990     2.1240     1.5890 C.3   1 <1>  -0.1600 
 16 C       -2.6710     4.3450     1.2370 C.3   1 <1>  -0.1600 
 17 N       -5.9240     3.5480    -0.2350 N.ar  1 <1>  -0.6200 
 18 C       -4.5470     5.3940     0.2190 C.ar  1 <1>  -0.1440 
 19 C       -3.1460     5.7010     0.6860 C.3   1 <1>  -0.0170 
 20 C       -6.8740     4.4330    -0.5660 C.ar  1 <1>   0.6200 
 21 C       -5.5660     6.2360    -0.1420 C.ar  1 <1>   0.1600 
 22 N       -6.7290     5.7660    -0.5330 N.ar  1 <1>  -0.6200 
 23 C       -8.1620     3.9040    -0.9970 C.ar  1 <1>   0.0000 
 24 C       -8.2800     2.6390    -1.5800 C.ar  1 <1>  -0.1500 
 25 C       -9.3440     4.6370    -0.8450 C.ar  1 <1>  -0.1500 
 26 C       -9.5020     2.1340    -1.9890 C.ar  1 <1>  -0.1500 
 27 C      -10.5690     4.1400    -1.2510 C.ar  1 <1>  -0.1500 
 28 C      -10.6510     2.8850    -1.8250 C.ar  1 <1>  -0.1500 
 29 H       -3.6760     2.3170    -1.3560 H     1 <1>   0.0800 
 30 H       -2.4310     3.5110    -1.2330 H     1 <1>   0.0800 
 31 H       -1.9270     0.0320     1.0280 H     1 <1>   0.0800 
 32 H       -2.7160    -0.3770    -0.4690 H     1 <1>   0.0800 
 33 H       -0.9090     3.0280    -3.1470 H     1 <1>   0.1500 
 34 H       -4.1880    -0.0130     1.6320 H     1 <1>   0.0800 
 35 H       -4.7140     0.7340     0.1600 H     1 <1>   0.0800 
 36 H        0.9530     3.3190     1.4290 H     1 <1>   0.0800 
 37 H        2.3710     4.1710     0.8380 H     1 <1>   0.0800 
 38 H        2.2450     2.4320     0.6360 H     1 <1>   0.0800 
 39 H        0.7610     5.0500    -3.3820 H     1 <1>   0.1500 
 40 H       -4.8400     2.3270     2.0700 H     1 <1>   0.0800 
 41 H       -3.1450     2.0820     2.3550 H     1 <1>   0.0800 
 42 H       -1.6230     4.1840     1.0570 H     1 <1>   0.0800 
 43 H       -2.8360     4.3500     2.3000 H     1 <1>   0.0800 
 44 H       -2.5410     6.0060    -0.1500 H     1 <1>   0.0800 
 45 H       -3.1340     6.4630     1.4460 H     1 <1>   0.0800 
 46 H       -5.4290     7.3040    -0.1120 H     1 <1>   0.1500 
 47 H       -7.3980     2.0380    -1.7180 H     1 <1>   0.1500 
 48 H       -9.3020     5.6160    -0.4000 H     1 <1>   0.1500 
 49 H       -9.5580     1.1560    -2.4340 H     1 <1>   0.1500 
 50 H      -11.4590     4.7300    -1.1200 H     1 <1>   0.1500 
 51 H      -11.6030     2.4950    -2.1410 H     1 <1>   0.1500 
@<TRIPOS>BOND
  1   1   2  2   
  2   2   3  am  
  3   2   4  1   
  4   3   5  1   
  5   3   6  1   
  6   4   7  1   
  7   4   8  2   
  8   5   9  1   
  9   5  29  1   
 10   5  30  1   
 11   6  10  1   
 12   6  31  1   
 13   6  32  1   
 14   7  11  1   
 15   7  12  1   
 16   8  13  1   
 17   8  33  1   
 18   9  14  1   
 19   9  15  1   
 20   9  16  1   
 21  10  15  1   
 22  10  34  1   
 23  10  35  1   
 24  11  13  2   
 25  12  36  1   
 26  12  37  1   
 27  12  38  1   
 28  13  39  1   
 29  14  17  ar  
 30  14  18  ar  
 31  15  40  1   
 32  15  41  1   
 33  16  19  1   
 34  16  42  1   
 35  16  43  1   
 36  17  20  ar  
 37  18  19  1   
 38  18  21  ar  
 39  19  44  1   
 40  19  45  1   
 41  20  22  ar  
 42  20  23  1   
 43  21  22  ar  
 44  21  46  1   
 45  23  24  ar  
 46  23  25  ar  
 47  24  26  ar  
 48  24  47  1   
 49  25  27  ar  
 50  25  48  1   
 51  26  28  ar  
 52  26  49  1   
 53  27  28  ar  
 54  27  50  1   
 55  28  51  1   
@<TRIPOS>SUBSTRUCTURE
  1 ****   9 GROUP 4 **** **** 0

# MOE 2024.06 (io_trps.svl 2023.06)
