@<TRIPOS>MOLECULE
NONAME
44 46 1 0 0 
SMALL
USER_CHARGES


@<TRIPOS>ATOM
  1 O        0.8650     1.5350    -0.7520 O.2   1 <1>  -0.5700 
  2 C        1.1750     0.3710    -0.6480 C.2   1 <1>   0.5690 
  3 N        2.2410     0.0160     0.1440 N.am  1 <1>  -0.6600 
  4 C        0.3700    -0.6450    -1.4560 C.3   1 <1>   0.0440 
  5 C        2.6860     0.9220     1.2550 C.3   1 <1>   0.1400 
  6 C        3.0100    -1.2570     0.0240 C.3   1 <1>   0.1400 
  7 C       -0.0520    -1.8810    -0.6640 C.ar  1 <1>  -0.1440 
  8 C        4.1280     1.4860     1.1220 C.3   1 <1>   0.4230 
  9 C        4.4710    -0.9900    -0.4000 C.3   1 <1>  -0.0800 
 10 C        0.0870    -3.1470    -1.2150 C.ar  1 <1>  -0.1500 
 11 C       -0.5790    -1.7510     0.6140 C.ar  1 <1>  -0.1500 
 12 N        4.6630     1.5990    -0.2940 N.4   1 <1>  -0.9590 
 13 C        5.1190     0.7410     2.0430 C.3   1 <1>   0.1200 
 14 C        5.4900    -1.2040     0.7300 C.3   1 <1>   0.1200 
 15 C        4.6400     0.3510    -1.1380 C.3   1 <1>   0.3430 
 16 C       -0.2820    -4.2640    -0.4830 C.ar  1 <1>   0.0820 
 17 C       -0.9460    -2.8700     1.3420 C.ar  1 <1>  -0.1500 
 18 C        3.9340     2.6890    -1.0190 C.3   1 <1>   0.2630 
 19 O        5.0410    -0.6440     1.9190 O.3   1 <1>  -0.5600 
 20 O       -0.1490    -5.4920    -1.0070 O.3   1 <1>  -0.5330 
 21 C       -0.7940    -4.1310     0.7950 C.ar  1 <1>  -0.1500 
 22 H       -0.5190    -0.1610    -1.8180 H     1 <1>   0.0800 
 23 H        0.9500    -0.9290    -2.3120 H     1 <1>   0.0800 
 24 H        2.0120     1.7570     1.3300 H     1 <1>   0.0800 
 25 H        2.5960     0.3890     2.1870 H     1 <1>   0.0800 
 26 H        2.9700    -1.7930     0.9590 H     1 <1>   0.0800 
 27 H        2.5560    -1.8900    -0.7170 H     1 <1>   0.0800 
 28 H        4.0880     2.4860     1.5210 H     1 <1>   0.0800 
 29 H        4.7030    -1.7460    -1.1280 H     1 <1>   0.0800 
 30 H        0.4780    -3.2700    -2.2080 H     1 <1>   0.1500 
 31 H       -0.7100    -0.7770     1.0540 H     1 <1>   0.1500 
 32 H        5.6460     1.8840    -0.2090 H     1 <1>   0.4500 
 33 H        4.8720     0.9640     3.0670 H     1 <1>   0.0800 
 34 H        6.1340     1.0560     1.8740 H     1 <1>   0.0800 
 35 H        6.4620    -0.8080     0.4890 H     1 <1>   0.0800 
 36 H        5.5960    -2.2600     0.9160 H     1 <1>   0.0800 
 37 H        3.8290     0.4270    -1.8440 H     1 <1>   0.0800 
 38 H        5.5510     0.3110    -1.7130 H     1 <1>   0.0800 
 39 H       -1.3520    -2.7610     2.3330 H     1 <1>   0.1500 
 40 H        2.8950     2.4300    -1.1380 H     1 <1>   0.0800 
 41 H        4.3610     2.8420    -1.9970 H     1 <1>   0.0800 
 42 H        3.9930     3.6140    -0.4700 H     1 <1>   0.0800 
 43 H        0.1600    -5.4890    -1.9290 H     1 <1>   0.4500 
 44 H       -1.0740    -5.0090     1.3480 H     1 <1>   0.1500 
@<TRIPOS>BOND
  1   1   2  2   
  2   2   3  am  
  3   2   4  1   
  4   3   5  1   
  5   3   6  1   
  6   4   7  1   
  7   4  22  1   
  8   4  23  1   
  9   5   8  1   
 10   5  24  1   
 11   5  25  1   
 12   6   9  1   
 13   6  26  1   
 14   6  27  1   
 15   7  10  ar  
 16   7  11  ar  
 17   8  12  1   
 18   8  13  1   
 19   8  28  1   
 20   9  14  1   
 21   9  15  1   
 22   9  29  1   
 23  10  16  ar  
 24  10  30  1   
 25  11  17  ar  
 26  11  31  1   
 27  12  15  1   
 28  12  18  1   
 29  12  32  1   
 30  13  19  1   
 31  13  33  1   
 32  13  34  1   
 33  14  19  1   
 34  14  35  1   
 35  14  36  1   
 36  15  37  1   
 37  15  38  1   
 38  16  20  1   
 39  16  21  ar  
 40  17  21  ar  
 41  17  39  1   
 42  18  40  1   
 43  18  41  1   
 44  18  42  1   
 45  20  43  1   
 46  21  44  1   
@<TRIPOS>SUBSTRUCTURE
  1 ****   3 GROUP 4 **** **** 0

# MOE 2024.06 (io_trps.svl 2023.06)
