@<TRIPOS>MOLECULE
NONAME
41 42 1 0 0 
SMALL
USER_CHARGES


@<TRIPOS>ATOM
  1 S        0.6510    -1.4420    -1.9560 S.3   1 <1>  -0.0800 
  2 C        0.7590    -1.4230    -0.2020 C.2   1 <1>  -0.1400 
  3 C        1.3940     0.1410    -2.0610 C.2   1 <1>  -0.1100 
  4 C        1.3350    -0.2790     0.2160 C.2   1 <1>  -0.1500 
  5 C        0.2430    -2.6360     0.5520 C.3   1 <1>   0.5230 
  6 C        1.6960     0.6240    -0.8390 C.2   1 <1>   0.0190 
  7 N       -1.2140    -2.5100     0.8440 N.4   1 <1>  -0.9590 
  8 C        2.3110     1.8840    -0.5550 C.1   1 <1>  -0.0190 
  9 C       -2.0350    -2.7160    -0.3800 C.3   1 <1>   0.5240 
 10 C       -1.5550    -1.2720     1.6070 C.3   1 <1>   0.3430 
 11 C        2.8260     2.9300    -0.3140 C.1   1 <1>  -0.2000 
 12 C       -2.0010    -4.2080    -0.6690 C.2   1 <1>   0.0460 
 13 C       -2.9410    -1.3490     2.2640 C.3   1 <1>   0.1200 
 14 C        3.4830     4.2310    -0.0140 C.3   1 <1>   0.3200 
 15 N       -2.0270    -5.0850     0.3580 N.2   1 <1>  -0.5650 
 16 C       -1.9250    -4.8550    -1.8530 C.2   1 <1>  -0.3020 
 17 O       -3.1300    -0.1840     2.9840 O.3   1 <1>  -0.6800 
 18 O        2.6230     5.2300    -0.4120 O.3   1 <1>  -0.6800 
 19 C       -1.9800    -6.2410    -0.2190 C.2   1 <1>   0.0060 
 20 N       -1.9170    -6.1700    -1.5670 N.pl3 1 <1>   0.0330 
 21 C       -1.9970    -7.5600     0.5260 C.3   1 <1>  -0.0600 
 22 H        1.5370     0.5630    -3.0400 H     1 <1>   0.1500 
 23 H        1.5390    -0.0050     1.2370 H     1 <1>   0.1500 
 24 H        0.7820    -2.7170     1.4820 H     1 <1>   0.0800 
 25 H        0.4350    -3.5310    -0.0190 H     1 <1>   0.0800 
 26 H       -1.4540    -3.3560     1.3920 H     1 <1>   0.4500 
 27 H       -1.6650    -2.1470    -1.2140 H     1 <1>   0.0800 
 28 H       -3.0570    -2.4330    -0.1930 H     1 <1>   0.0800 
 29 H       -1.5200    -0.4180     0.9500 H     1 <1>   0.0800 
 30 H       -0.8280    -1.1240     2.3880 H     1 <1>   0.0800 
 31 H       -2.9960    -2.1770     2.9510 H     1 <1>   0.0800 
 32 H       -3.7260    -1.4160     1.5310 H     1 <1>   0.0800 
 33 H        4.4020     4.3320    -0.5650 H     1 <1>   0.0800 
 34 H        3.6720     4.3440     1.0400 H     1 <1>   0.0800 
 35 H       -1.8810    -4.4750    -2.8590 H     1 <1>   0.1500 
 36 H       -3.9940    -0.1800     3.4490 H     1 <1>   0.4000 
 37 H        2.1800     4.9550    -1.2370 H     1 <1>   0.4000 
 38 H       -1.8790    -6.9570    -2.2240 H     1 <1>   0.2700 
 39 H       -2.0590    -7.3850     1.5850 H     1 <1>   0.0800 
 40 H       -1.1000    -8.1150     0.3210 H     1 <1>   0.0800 
 41 H       -2.8500    -8.1430     0.2260 H     1 <1>   0.0800 
@<TRIPOS>BOND
  1   1   2  1   
  2   1   3  1   
  3   2   4  2   
  4   2   5  1   
  5   3   6  2   
  6   3  22  1   
  7   4   6  1   
  8   4  23  1   
  9   5   7  1   
 10   5  24  1   
 11   5  25  1   
 12   6   8  1   
 13   7   9  1   
 14   7  10  1   
 15   7  26  1   
 16   8  11  3   
 17   9  12  1   
 18   9  27  1   
 19   9  28  1   
 20  10  13  1   
 21  10  29  1   
 22  10  30  1   
 23  11  14  1   
 24  12  15  1   
 25  12  16  2   
 26  13  17  1   
 27  13  31  1   
 28  13  32  1   
 29  14  18  1   
 30  14  33  1   
 31  14  34  1   
 32  15  19  2   
 33  16  20  1   
 34  16  35  1   
 35  17  36  1   
 36  18  37  1   
 37  19  20  1   
 38  19  21  1   
 39  20  38  1   
 40  21  39  1   
 41  21  40  1   
 42  21  41  1   
@<TRIPOS>SUBSTRUCTURE
  1 ****   2 GROUP 4 **** **** 0

# MOE 2024.06 (io_trps.svl 2023.06)
