@<TRIPOS>MOLECULE
NONAME
36 38 1 0 0 
SMALL
USER_CHARGES


@<TRIPOS>ATOM
  1 S       -1.0530    -0.6690     0.5180 S.3   1 <1>  -0.0800 
  2 C       -1.2620    -1.3640    -1.0560 C.2   1 <1>   0.4420 
  3 C       -0.2690     0.6710    -0.2520 C.2   1 <1>   0.1980 
  4 N       -0.7680    -0.6250    -1.9810 N.2   1 <1>  -0.3380 
  5 N       -1.9050    -2.5760    -1.1110 N.am  1 <1>  -0.4940 
  6 N       -0.2030     0.5310    -1.5170 N.2   1 <1>  -0.3380 
  7 C        0.2530     1.8010     0.6380 C.3   1 <1>   0.3800 
  8 C       -2.2000    -3.3880    -2.1700 C.2   1 <1>   0.7160 
  9 O       -0.7480     2.1760     1.5430 O.3   1 <1>  -0.5600 
 10 C        0.6590     3.0420    -0.1650 C.3   1 <1>  -0.2400 
 11 O       -1.8640    -3.0980    -3.3010 O.2   1 <1>  -0.5700 
 12 C       -2.9150    -4.5960    -1.9090 C.2   1 <1>  -0.0860 
 13 C       -0.3060     2.6920     2.7600 C.3   1 <1>   0.0400 
 14 C       -3.3650    -5.0970    -0.7140 C.2   1 <1>  -0.0260 
 15 C       -3.3180    -5.5470    -2.8440 C.2   1 <1>   0.1390 
 16 N       -3.2580    -4.5890     0.5610 N.2   1 <1>  -0.5760 
 17 N       -3.9910    -6.2830    -1.0060 N.pl3 1 <1>   0.6010 
 18 N       -3.9570    -6.5540    -2.3240 N.2   1 <1>  -0.7070 
 19 C       -3.7930    -5.3030     1.5030 C.2   1 <1>   0.3760 
 20 C       -4.5510    -7.0230     0.0090 C.2   1 <1>  -0.1810 
 21 C       -4.4610    -6.5440     1.2790 C.2   1 <1>  -0.1240 
 22 C       -5.0500    -7.2940     2.4630 C.3   1 <1>  -0.1020 
 23 H       -2.2430    -2.9580    -0.2240 H     1 <1>   0.3700 
 24 H        1.0960     1.4240     1.1910 H     1 <1>   0.0800 
 25 H       -0.1960     3.4300    -0.6900 H     1 <1>   0.0800 
 26 H        1.4070     2.7740    -0.8890 H     1 <1>   0.0800 
 27 H        1.0660     3.8020     0.4740 H     1 <1>   0.0800 
 28 H       -1.1710     2.9240     3.3570 H     1 <1>   0.0800 
 29 H        0.2610     3.5910     2.5900 H     1 <1>   0.0800 
 30 H        0.2920     1.9540     3.2660 H     1 <1>   0.0800 
 31 H       -3.1180    -5.4560    -3.9010 H     1 <1>   0.1500 
 32 H       -3.7360    -4.9460     2.5170 H     1 <1>   0.0600 
 33 H       -5.0270    -7.9410    -0.2800 H     1 <1>   0.1500 
 34 H       -5.7900    -6.6870     2.9550 H     1 <1>   0.0800 
 35 H       -4.2770    -7.5390     3.1690 H     1 <1>   0.0800 
 36 H       -5.5190    -8.2070     2.1410 H     1 <1>   0.0800 
@<TRIPOS>BOND
  1   1   2  1   
  2   1   3  1   
  3   2   4  2   
  4   2   5  1   
  5   3   6  2   
  6   3   7  1   
  7   4   6  1   
  8   5   8  am  
  9   5  23  1   
 10   7   9  1   
 11   7  10  1   
 12   7  24  1   
 13   8  11  2   
 14   8  12  1   
 15   9  13  1   
 16  10  25  1   
 17  10  26  1   
 18  10  27  1   
 19  12  14  2   
 20  12  15  1   
 21  13  28  1   
 22  13  29  1   
 23  13  30  1   
 24  14  16  1   
 25  14  17  1   
 26  15  18  2   
 27  15  31  1   
 28  16  19  2   
 29  17  18  1   
 30  17  20  1   
 31  19  21  1   
 32  19  32  1   
 33  20  21  2   
 34  20  33  1   
 35  21  22  1   
 36  22  34  1   
 37  22  35  1   
 38  22  36  1   
@<TRIPOS>SUBSTRUCTURE
  1 ****   5 GROUP 4 **** **** 0

# MOE 2024.06 (io_trps.svl 2023.06)
