@<TRIPOS>MOLECULE
NONAME
46 46 1 0 0 
SMALL
USER_CHARGES


@<TRIPOS>ATOM
  1 O       -0.2470    -0.0440    -0.7420 O.2   1 <1>  -0.5700 
  2 C       -1.3350    -0.5730    -0.6460 C.2   1 <1>   0.7800 
  3 O       -1.4800    -1.8420    -0.2730 O.3   1 <1>  -0.4300 
  4 N       -2.4880     0.0810    -0.9090 N.am  1 <1>  -0.7300 
  5 C       -0.4520    -2.7500     0.0620 C.3   1 <1>   0.2800 
  6 C       -2.6100     1.4910    -1.3210 C.3   1 <1>   0.1400 
  7 C        0.4630    -2.9860    -1.1450 C.3   1 <1>  -0.2400 
  8 C       -1.1700    -4.0540     0.4120 C.3   1 <1>  -0.2400 
  9 C        0.3170    -2.2520     1.2910 C.3   1 <1>  -0.2400 
 10 C       -3.4960     2.2290    -0.3150 C.3   1 <1>  -0.1600 
 11 C       -3.7700     3.6930    -0.7090 C.3   1 <1>  -0.0800 
 12 C       -2.4830     4.5390    -0.7220 C.3   1 <1>  -0.1600 
 13 C       -4.7940     4.3050     0.2610 C.3   1 <1>  -0.1600 
 14 C       -2.7760     6.0090    -1.0480 C.3   1 <1>  -0.1600 
 15 C       -5.0880     5.7750    -0.0680 C.3   1 <1>  -0.1600 
 16 C       -3.7990     6.6170    -0.0740 C.3   1 <1>  -0.0800 
 17 C       -4.0700     8.0860    -0.4460 C.3   1 <1>  -0.0990 
 18 C       -4.9560     8.7940     0.5600 C.2   1 <1>   0.4490 
 19 O       -4.5430     9.6260     1.3100 O.2   1 <1>  -0.5700 
 20 H       -3.3490    -0.4510    -0.7980 H     1 <1>   0.3700 
 21 H       -3.0440     1.5350    -2.3050 H     1 <1>   0.0800 
 22 H       -1.6310     1.9400    -1.3590 H     1 <1>   0.0800 
 23 H       -0.1170    -3.2660    -2.0060 H     1 <1>   0.0800 
 24 H        1.1570    -3.7780    -0.9300 H     1 <1>   0.0800 
 25 H        1.0360    -2.1070    -1.3750 H     1 <1>   0.0800 
 26 H       -1.7360    -4.4070    -0.4310 H     1 <1>   0.0800 
 27 H       -1.8360    -3.9020     1.2430 H     1 <1>   0.0800 
 28 H       -0.4580    -4.8120     0.6830 H     1 <1>   0.0800 
 29 H        0.8910    -1.3730     1.0600 H     1 <1>   0.0800 
 30 H        1.0040    -3.0080     1.6250 H     1 <1>   0.0800 
 31 H       -0.3630    -2.0290     2.0930 H     1 <1>   0.0800 
 32 H       -3.0250     2.2010     0.6520 H     1 <1>   0.0800 
 33 H       -4.4360     1.7100    -0.2470 H     1 <1>   0.0800 
 34 H       -4.1980     3.7060    -1.6980 H     1 <1>   0.0800 
 35 H       -1.7940     4.1610    -1.4550 H     1 <1>   0.0800 
 36 H       -2.0040     4.4800     0.2410 H     1 <1>   0.0800 
 37 H       -4.4170     4.2400     1.2680 H     1 <1>   0.0800 
 38 H       -5.7130     3.7460     0.2190 H     1 <1>   0.0800 
 39 H       -3.1510     6.0770    -2.0560 H     1 <1>   0.0800 
 40 H       -1.8560     6.5660    -1.0020 H     1 <1>   0.0800 
 41 H       -5.7780     6.1540     0.6650 H     1 <1>   0.0800 
 42 H       -5.5630     5.8310    -1.0330 H     1 <1>   0.0800 
 43 H       -3.3720     6.5950     0.9160 H     1 <1>   0.0800 
 44 H       -4.5290     8.1460    -1.4150 H     1 <1>   0.0800 
 45 H       -3.1360     8.6170    -0.4910 H     1 <1>   0.0800 
 46 H       -5.9920     8.5070     0.5590 H     1 <1>   0.0600 
@<TRIPOS>BOND
  1   1   2  2   
  2   2   3  1   
  3   2   4  am  
  4   3   5  1   
  5   4   6  1   
  6   4  20  1   
  7   5   7  1   
  8   5   8  1   
  9   5   9  1   
 10   6  10  1   
 11   6  21  1   
 12   6  22  1   
 13   7  23  1   
 14   7  24  1   
 15   7  25  1   
 16   8  26  1   
 17   8  27  1   
 18   8  28  1   
 19   9  29  1   
 20   9  30  1   
 21   9  31  1   
 22  10  11  1   
 23  10  32  1   
 24  10  33  1   
 25  11  12  1   
 26  11  13  1   
 27  11  34  1   
 28  12  14  1   
 29  12  35  1   
 30  12  36  1   
 31  13  15  1   
 32  13  37  1   
 33  13  38  1   
 34  14  16  1   
 35  14  39  1   
 36  14  40  1   
 37  15  16  1   
 38  15  41  1   
 39  15  42  1   
 40  16  17  1   
 41  16  43  1   
 42  17  18  1   
 43  17  44  1   
 44  17  45  1   
 45  18  19  2   
 46  18  46  1   
@<TRIPOS>SUBSTRUCTURE
  1 ****  10 GROUP 4 **** **** 0

# MOE 2024.06 (io_trps.svl 2023.06)
