@<TRIPOS>MOLECULE
NONAME
37 37 1 0 0 
SMALL
USER_CHARGES


@<TRIPOS>ATOM
  1 S        0.2760    -0.1360    -0.3470 S.o2  1 <1>   2.0820 
  2 O       -0.8920    -0.9330    -0.3090 O.2   1 <1>  -0.7240 
  3 N        1.0630    -0.4170    -1.7750 N.am  1 <1>  -0.9650 
  4 C        0.0090     1.6350    -0.2550 C.ar  1 <1>  -0.1190 
  5 C        1.4510    -0.5400     0.9050 C.3   1 <1>  -0.2320 
  6 C        0.9870     2.5450    -0.6550 C.ar  1 <1>  -0.1500 
  7 C       -1.1870     2.1490     0.2400 C.ar  1 <1>  -0.1500 
  8 C        0.7720     3.9080    -0.5670 C.ar  1 <1>  -0.1500 
  9 C       -1.3970     3.5120     0.3280 C.ar  1 <1>  -0.1500 
 10 C       -0.4240     4.4170    -0.0800 C.ar  1 <1>   0.1170 
 11 N       -0.5960     5.8040    -0.0110 N.am  1 <1>  -0.5470 
 12 C       -1.7200     6.5710     0.0260 C.2   1 <1>   0.7800 
 13 O       -2.8450     6.1200    -0.0140 O.2   1 <1>  -0.5700 
 14 O       -1.4870     7.8790     0.0970 O.3   1 <1>  -0.4300 
 15 C       -2.4450     8.9160     0.1430 C.3   1 <1>   0.2800 
 16 C       -1.6320    10.2090     0.2220 C.3   1 <1>  -0.2400 
 17 C       -3.2810     8.9230    -1.1430 C.3   1 <1>  -0.2400 
 18 C       -3.3100     8.7840     1.4020 C.3   1 <1>  -0.2400 
 19 H        0.4340    -0.0860    -2.5080 H     1 <1>   0.3600 
 20 H        1.0730    -1.4300    -1.8900 H     1 <1>   0.3600 
 21 H        1.7170    -1.5770     0.8390 H     1 <1>   0.0800 
 22 H        1.0320    -0.3550     1.8750 H     1 <1>   0.0800 
 23 H        2.3370     0.0530     0.7900 H     1 <1>   0.0800 
 24 H        1.9340     2.2070    -1.0490 H     1 <1>   0.1500 
 25 H       -1.9820     1.4940     0.5650 H     1 <1>   0.1500 
 26 H        1.5410     4.5910    -0.8870 H     1 <1>   0.1500 
 27 H       -2.3320     3.8740     0.7200 H     1 <1>   0.1500 
 28 H        0.2440     6.3760    -0.0460 H     1 <1>   0.3700 
 29 H       -1.0010    10.3070    -0.6420 H     1 <1>   0.0800 
 30 H       -1.0210    10.2110     1.1070 H     1 <1>   0.0800 
 31 H       -2.2870    11.0600     0.2610 H     1 <1>   0.0800 
 32 H       -2.6410     8.9430    -2.0060 H     1 <1>   0.0800 
 33 H       -3.9110     9.7930    -1.1650 H     1 <1>   0.0800 
 34 H       -3.9190     8.0600    -1.1960 H     1 <1>   0.0800 
 35 H       -2.6900     8.7100     2.2770 H     1 <1>   0.0800 
 36 H       -3.9490     7.9220     1.3470 H     1 <1>   0.0800 
 37 H       -3.9410     9.6480     1.5040 H     1 <1>   0.0800 
@<TRIPOS>BOND
  1   1   2  2   
  2   1   3  am  
  3   1   4  1   
  4   1   5  1   
  5   3  19  1   
  6   3  20  1   
  7   4   6  ar  
  8   4   7  ar  
  9   5  21  1   
 10   5  22  1   
 11   5  23  1   
 12   6   8  ar  
 13   6  24  1   
 14   7   9  ar  
 15   7  25  1   
 16   8  10  ar  
 17   8  26  1   
 18   9  10  ar  
 19   9  27  1   
 20  10  11  1   
 21  11  12  am  
 22  11  28  1   
 23  12  13  2   
 24  12  14  1   
 25  14  15  1   
 26  15  16  1   
 27  15  17  1   
 28  15  18  1   
 29  16  29  1   
 30  16  30  1   
 31  16  31  1   
 32  17  32  1   
 33  17  33  1   
 34  17  34  1   
 35  18  35  1   
 36  18  36  1   
 37  18  37  1   
@<TRIPOS>SUBSTRUCTURE
  1 ****  10 GROUP 4 **** **** 0

# MOE 2024.06 (io_trps.svl 2023.06)
