@<TRIPOS>MOLECULE
NONAME
46 47 1 0 0 
SMALL
USER_CHARGES


@<TRIPOS>ATOM
  1 S        0.6080     1.4040    -1.3170 S.o2  1 <1>   1.3330 
  2 O        0.9270     0.2310    -2.0900 O.2   1 <1>  -0.6500 
  3 O       -0.3540     2.3680    -1.7990 O.2   1 <1>  -0.6500 
  4 N        2.0510     2.2720    -1.0830 N.am  1 <1>  -0.8490 
  5 C        0.0960     0.9080     0.3410 C.3   1 <1>  -0.0550 
  6 C        2.4060     3.0170    -2.3050 C.3   1 <1>   0.1160 
  7 C        3.1900     1.3920    -0.7630 C.3   1 <1>   0.1160 
  8 C       -0.2670     2.0110     1.3750 C.3   1 <1>  -0.0800 
  9 C       -1.4200     2.9210     0.9330 C.3   1 <1>   0.2000 
 10 C        0.8680     2.9900     1.6750 C.3   1 <1>   0.3430 
 11 O       -2.1920     3.2280     2.0470 O.3   1 <1>  -0.6800 
 12 C       -0.7700     4.2080     0.3970 C.3   1 <1>   0.3430 
 13 N        0.6900     4.1040     0.7130 N.4   1 <1>  -0.9590 
 14 C        1.3280     5.3860     1.0900 C.3   1 <1>   0.4860 
 15 C        2.2740     5.7660    -0.0410 C.ar  1 <1>  -0.1440 
 16 C        3.6600     5.5650     0.0260 C.ar  1 <1>  -0.1440 
 17 C        1.7130     6.3300    -1.1800 C.ar  1 <1>  -0.1500 
 18 C        4.4400     5.9400    -1.0660 C.ar  1 <1>  -0.1500 
 19 C        4.3350     4.9490     1.2680 C.3   1 <1>   1.1630 
 20 C        2.5050     6.6920    -2.2520 C.ar  1 <1>  -0.1500 
 21 C        3.8690     6.4960    -2.1950 C.ar  1 <1>  -0.1500 
 22 F        5.6500     4.8220     1.1750 F     1 <1>  -0.3400 
 23 F        3.8600     3.7350     1.5230 F     1 <1>  -0.3400 
 24 F        4.0950     5.6640     2.3580 F     1 <1>  -0.3400 
 25 H       -0.7660     0.2770     0.2330 H     1 <1>   0.0800 
 26 H        0.8640     0.2880     0.7620 H     1 <1>   0.0800 
 27 H        3.3280     3.5560    -2.1670 H     1 <1>   0.0800 
 28 H        1.6360     3.7290    -2.5530 H     1 <1>   0.0800 
 29 H        2.5210     2.3420    -3.1380 H     1 <1>   0.0800 
 30 H        4.0820     1.9760    -0.6060 H     1 <1>   0.0800 
 31 H        3.3750     0.6990    -1.5700 H     1 <1>   0.0800 
 32 H        2.9980     0.8280     0.1320 H     1 <1>   0.0800 
 33 H       -0.5330     1.4950     2.2820 H     1 <1>   0.0800 
 34 H       -2.0710     2.4670     0.2030 H     1 <1>   0.0800 
 35 H        1.8340     2.5240     1.5670 H     1 <1>   0.0800 
 36 H        0.7630     3.3600     2.6830 H     1 <1>   0.0800 
 37 H       -1.6730     3.5400     2.8120 H     1 <1>   0.4000 
 38 H       -1.2200     5.0640     0.8710 H     1 <1>   0.0800 
 39 H       -0.9110     4.2790    -0.6690 H     1 <1>   0.0800 
 40 H        1.1720     3.7920    -0.1590 H     1 <1>   0.4500 
 41 H        0.5830     6.1550     1.2130 H     1 <1>   0.0800 
 42 H        1.8590     5.2820     2.0210 H     1 <1>   0.0800 
 43 H        0.6520     6.4990    -1.2500 H     1 <1>   0.1500 
 44 H        5.5110     5.8090    -1.0560 H     1 <1>   0.1500 
 45 H        2.0620     7.1310    -3.1320 H     1 <1>   0.1500 
 46 H        4.4890     6.7830    -3.0290 H     1 <1>   0.1500 
@<TRIPOS>BOND
  1   1   2  2   
  2   1   3  2   
  3   1   4  am  
  4   1   5  1   
  5   4   6  1   
  6   4   7  1   
  7   5   8  1   
  8   5  25  1   
  9   5  26  1   
 10   6  27  1   
 11   6  28  1   
 12   6  29  1   
 13   7  30  1   
 14   7  31  1   
 15   7  32  1   
 16   8   9  1   
 17   8  10  1   
 18   8  33  1   
 19   9  11  1   
 20   9  12  1   
 21   9  34  1   
 22  10  13  1   
 23  10  35  1   
 24  10  36  1   
 25  11  37  1   
 26  12  13  1   
 27  12  38  1   
 28  12  39  1   
 29  13  14  1   
 30  13  40  1   
 31  14  15  1   
 32  14  41  1   
 33  14  42  1   
 34  15  16  ar  
 35  15  17  ar  
 36  16  18  ar  
 37  16  19  1   
 38  17  20  ar  
 39  17  43  1   
 40  18  21  ar  
 41  18  44  1   
 42  19  22  1   
 43  19  23  1   
 44  19  24  1   
 45  20  21  ar  
 46  20  45  1   
 47  21  46  1   
@<TRIPOS>SUBSTRUCTURE
  1 ****  13 GROUP 4 **** **** 0

# MOE 2024.06 (io_trps.svl 2023.06)
