@<TRIPOS>MOLECULE
NONAME
53 54 1 0 0 
SMALL
USER_CHARGES


@<TRIPOS>ATOM
  1 O       -2.6790    -0.5670     1.6550 O.3   1 <1>  -0.3630 
  2 C       -2.8890    -1.1280     0.4400 C.ar  1 <1>   0.0830 
  3 C       -2.8330     0.8200     1.8650 C.3   1 <1>   0.0400 
  4 C       -3.3590    -0.4310    -0.6680 C.ar  1 <1>  -0.1500 
  5 C       -2.6130    -2.4810     0.3360 C.ar  1 <1>  -0.1500 
  6 C       -3.5410    -1.0980    -1.8740 C.ar  1 <1>   0.0830 
  7 C       -2.8100    -3.1580    -0.8580 C.ar  1 <1>  -0.1430 
  8 O       -3.9980    -0.5100    -3.0060 O.3   1 <1>  -0.3630 
  9 C       -3.2570    -2.4500    -1.9630 C.ar  1 <1>  -0.1500 
 10 C       -2.5510    -4.6540    -0.9510 C.3   1 <1>   0.4860 
 11 C       -4.2480     0.8770    -3.0670 C.3   1 <1>   0.0400 
 12 N       -3.7970    -5.4100    -0.6230 N.4   1 <1>  -0.9590 
 13 C       -4.9000    -5.1100    -1.5870 C.3   1 <1>   0.3430 
 14 C       -4.2530    -5.1730     0.7760 C.3   1 <1>   0.3430 
 15 C       -6.0800    -6.0730    -1.3560 C.3   1 <1>   0.2000 
 16 C       -5.4550    -6.0630     1.1070 C.3   1 <1>  -0.1600 
 17 O       -5.5690    -7.3500    -1.6080 O.3   1 <1>  -0.6800 
 18 C       -6.6370    -5.9970     0.0980 C.3   1 <1>   0.0000 
 19 C       -7.5580    -7.2280     0.3460 C.3   1 <1>   0.1200 
 20 C       -7.5230    -4.7270     0.3270 C.3   1 <1>  -0.1600 
 21 O       -8.1160    -7.2060     1.6160 O.3   1 <1>  -0.6800 
 22 C       -7.0290    -3.3360    -0.1130 C.3   1 <1>  -0.1600 
 23 C       -7.9990    -2.2480     0.3540 C.3   1 <1>  -0.2400 
 24 H       -2.5760     1.0350     2.8870 H     1 <1>   0.0800 
 25 H       -3.8580     1.0910     1.6840 H     1 <1>   0.0800 
 26 H       -2.1700     1.3500     1.2040 H     1 <1>   0.0800 
 27 H       -3.5790     0.6140    -0.5930 H     1 <1>   0.1500 
 28 H       -2.2420    -2.9840     1.2120 H     1 <1>   0.1500 
 29 H       -3.3960    -2.9290    -2.9160 H     1 <1>   0.1500 
 30 H       -1.7650    -4.9250    -0.2660 H     1 <1>   0.0800 
 31 H       -2.2250    -4.8980    -1.9480 H     1 <1>   0.0800 
 32 H       -4.5670     1.1160    -4.0660 H     1 <1>   0.0800 
 33 H       -3.3400     1.4070    -2.8390 H     1 <1>   0.0800 
 34 H       -5.0260     1.1250    -2.3670 H     1 <1>   0.0800 
 35 H       -3.6320    -6.4230    -0.7340 H     1 <1>   0.4500 
 36 H       -5.2110    -4.0890    -1.4760 H     1 <1>   0.0800 
 37 H       -4.5510    -5.2380    -2.5980 H     1 <1>   0.0800 
 38 H       -3.4530    -5.3930     1.4640 H     1 <1>   0.0800 
 39 H       -4.5200    -4.1380     0.9040 H     1 <1>   0.0800 
 40 H       -6.8600    -5.8780    -2.0740 H     1 <1>   0.0800 
 41 H       -5.0940    -7.0750     1.1630 H     1 <1>   0.0800 
 42 H       -5.8030    -5.8050     2.0920 H     1 <1>   0.0800 
 43 H       -6.2910    -7.9870    -1.7940 H     1 <1>   0.4000 
 44 H       -7.0220    -8.1580     0.2520 H     1 <1>   0.0800 
 45 H       -8.3740    -7.2320    -0.3570 H     1 <1>   0.0800 
 46 H       -8.4660    -4.8870    -0.1700 H     1 <1>   0.0800 
 47 H       -7.7580    -4.6680     1.3770 H     1 <1>   0.0800 
 48 H       -7.4610    -7.4330     2.3040 H     1 <1>   0.4000 
 49 H       -6.0640    -3.1110     0.2980 H     1 <1>   0.0800 
 50 H       -6.9790    -3.2810    -1.1870 H     1 <1>   0.0800 
 51 H       -8.0690    -2.2360     1.4280 H     1 <1>   0.0800 
 52 H       -8.9820    -2.4150    -0.0530 H     1 <1>   0.0800 
 53 H       -7.6560    -1.2820     0.0260 H     1 <1>   0.0800 
@<TRIPOS>BOND
  1   1   2  1   
  2   1   3  1   
  3   2   4  ar  
  4   2   5  ar  
  5   3  24  1   
  6   3  25  1   
  7   3  26  1   
  8   4   6  ar  
  9   4  27  1   
 10   5   7  ar  
 11   5  28  1   
 12   6   8  1   
 13   6   9  ar  
 14   7   9  ar  
 15   7  10  1   
 16   8  11  1   
 17   9  29  1   
 18  10  12  1   
 19  10  30  1   
 20  10  31  1   
 21  11  32  1   
 22  11  33  1   
 23  11  34  1   
 24  12  13  1   
 25  12  14  1   
 26  12  35  1   
 27  13  15  1   
 28  13  36  1   
 29  13  37  1   
 30  14  16  1   
 31  14  38  1   
 32  14  39  1   
 33  15  17  1   
 34  15  18  1   
 35  15  40  1   
 36  16  18  1   
 37  16  41  1   
 38  16  42  1   
 39  17  43  1   
 40  18  19  1   
 41  18  20  1   
 42  19  21  1   
 43  19  44  1   
 44  19  45  1   
 45  20  22  1   
 46  20  46  1   
 47  20  47  1   
 48  21  48  1   
 49  22  23  1   
 50  22  49  1   
 51  22  50  1   
 52  23  51  1   
 53  23  52  1   
 54  23  53  1   
@<TRIPOS>SUBSTRUCTURE
  1 ****  13 GROUP 4 **** **** 0

# MOE 2024.06 (io_trps.svl 2023.06)
