@<TRIPOS>MOLECULE
NONAME
51 52 1 0 0 
SMALL
USER_CHARGES


@<TRIPOS>ATOM
  1 S        0.3640     0.5390    -0.6480 S.o2  1 <1>   1.3330 
  2 O        0.1550     1.0800    -1.9720 O.2   1 <1>  -0.6500 
  3 O        0.1610    -0.8730    -0.4120 O.2   1 <1>  -0.6500 
  4 N       -0.6270     1.3950     0.4310 N.am  1 <1>  -0.8490 
  5 C        2.0110     1.0310    -0.1450 C.3   1 <1>  -0.0550 
  6 C       -0.7490     0.7440     1.7410 C.3   1 <1>   0.1160 
  7 C       -1.9620     1.6360    -0.1240 C.3   1 <1>   0.1160 
  8 C        3.1350     0.3860    -0.9930 C.3   1 <1>  -0.0800 
  9 C        4.5140     1.0020    -0.7800 C.3   1 <1>   0.2200 
 10 C        3.4020    -1.0340    -0.5000 C.3   1 <1>   0.1200 
 11 N        4.4800     2.4790    -0.6180 N.am  1 <1>  -0.7300 
 12 C        5.0370     0.2520     0.4520 C.3   1 <1>   0.1200 
 13 O        4.2130    -0.8680     0.6170 O.3   1 <1>  -0.5600 
 14 C        5.5620     3.2540    -0.3000 C.2   1 <1>   0.5440 
 15 O        6.6260     2.7030    -0.1000 O.2   1 <1>  -0.5700 
 16 C        5.4410     4.6990    -0.2280 C.ar  1 <1>   0.0860 
 17 C        4.2250     5.3270     0.0580 C.ar  1 <1>  -0.1500 
 18 C        6.5460     5.5250    -0.4440 C.ar  1 <1>  -0.1500 
 19 C        4.1120     6.7050     0.1100 C.ar  1 <1>  -0.1500 
 20 C        6.4410     6.9020    -0.3920 C.ar  1 <1>  -0.1500 
 21 C        5.2260     7.5070    -0.1180 C.ar  1 <1>   0.0820 
 22 O        5.2130     8.8600    -0.0910 O.3   1 <1>  -0.3630 
 23 C        4.0760     9.6300     0.2290 C.3   1 <1>   0.2000 
 24 C        4.3130    11.0320    -0.3280 C.3   1 <1>  -0.2400 
 25 C        3.9120     9.6630     1.7500 C.3   1 <1>  -0.2400 
 26 H        2.0550     2.0970    -0.2340 H     1 <1>   0.0800 
 27 H        2.1650     0.7910     0.8890 H     1 <1>   0.0800 
 28 H       -1.3180     1.3650     2.4110 H     1 <1>   0.0800 
 29 H        0.2250     0.5850     2.1720 H     1 <1>   0.0800 
 30 H       -1.2420    -0.2100     1.6450 H     1 <1>   0.0800 
 31 H       -2.5640     2.1920     0.5750 H     1 <1>   0.0800 
 32 H       -2.4500     0.7010    -0.3480 H     1 <1>   0.0800 
 33 H       -1.8860     2.2110    -1.0320 H     1 <1>   0.0800 
 34 H        2.8710     0.3870    -2.0370 H     1 <1>   0.0800 
 35 H        5.1530     0.7610    -1.6130 H     1 <1>   0.0800 
 36 H        3.9550    -1.6020    -1.2300 H     1 <1>   0.0800 
 37 H        2.5190    -1.5790    -0.2160 H     1 <1>   0.0800 
 38 H        3.6880     2.9420    -1.0640 H     1 <1>   0.3700 
 39 H        4.9650     0.8520     1.3430 H     1 <1>   0.0800 
 40 H        6.0500    -0.0780     0.3070 H     1 <1>   0.0800 
 41 H        3.3520     4.7300     0.2520 H     1 <1>   0.1500 
 42 H        7.5000     5.0730    -0.6550 H     1 <1>   0.1500 
 43 H        3.1540     7.1360     0.3330 H     1 <1>   0.1500 
 44 H        7.3040     7.5200    -0.5630 H     1 <1>   0.1500 
 45 H        3.2150     9.2010    -0.2540 H     1 <1>   0.0800 
 46 H        5.1900    11.4680     0.1160 H     1 <1>   0.0800 
 47 H        3.4690    11.6620    -0.1150 H     1 <1>   0.0800 
 48 H        4.4420    10.9840    -1.3940 H     1 <1>   0.0800 
 49 H        4.7890    10.0820     2.2090 H     1 <1>   0.0800 
 50 H        3.7520     8.6740     2.1380 H     1 <1>   0.0800 
 51 H        3.0640    10.2680     2.0140 H     1 <1>   0.0800 
@<TRIPOS>BOND
  1   1   2  2   
  2   1   3  2   
  3   1   4  am  
  4   1   5  1   
  5   4   6  1   
  6   4   7  1   
  7   5   8  1   
  8   5  26  1   
  9   5  27  1   
 10   6  28  1   
 11   6  29  1   
 12   6  30  1   
 13   7  31  1   
 14   7  32  1   
 15   7  33  1   
 16   8   9  1   
 17   8  10  1   
 18   8  34  1   
 19   9  11  1   
 20   9  12  1   
 21   9  35  1   
 22  10  13  1   
 23  10  36  1   
 24  10  37  1   
 25  11  14  am  
 26  11  38  1   
 27  12  13  1   
 28  12  39  1   
 29  12  40  1   
 30  14  15  2   
 31  14  16  1   
 32  16  17  ar  
 33  16  18  ar  
 34  17  19  ar  
 35  17  41  1   
 36  18  20  ar  
 37  18  42  1   
 38  19  21  ar  
 39  19  43  1   
 40  20  21  ar  
 41  20  44  1   
 42  21  22  1   
 43  22  23  1   
 44  23  24  1   
 45  23  25  1   
 46  23  45  1   
 47  24  46  1   
 48  24  47  1   
 49  24  48  1   
 50  25  49  1   
 51  25  50  1   
 52  25  51  1   
@<TRIPOS>SUBSTRUCTURE
  1 ****  11 GROUP 4 **** **** 0

# MOE 2024.06 (io_trps.svl 2023.06)
