@<TRIPOS>MOLECULE
NONAME
59 61 1 0 0 
SMALL
USER_CHARGES


@<TRIPOS>ATOM
  1 O        0.4500     1.3140     0.2670 O.2   1 <1>  -0.5700 
  2 C        0.0410     2.4430     0.1270 C.2   1 <1>   0.5690 
  3 N       -0.9100     2.9890     0.9440 N.am  1 <1>  -0.6600 
  4 C        0.5980     3.2730    -1.0290 C.3   1 <1>   0.1810 
  5 C       -1.4480     4.3700     0.7080 C.3   1 <1>   0.3640 
  6 C       -1.4620     2.2620     2.1240 C.3   1 <1>   0.0600 
  7 O        0.5070     4.6560    -0.7890 O.3   1 <1>  -0.5600 
  8 C       -2.9840     4.3420     0.6040 C.ar  1 <1>  -0.1440 
  9 C       -0.8060     5.1210    -0.4930 C.3   1 <1>   0.2610 
 10 C       -3.7140     3.5200    -0.2640 C.ar  1 <1>  -0.1440 
 11 C       -3.6790     5.2030     1.4450 C.ar  1 <1>  -0.1500 
 12 C       -0.7550     6.6300    -0.2100 C.2   1 <1>   0.5690 
 13 C       -5.1000     3.5830    -0.2590 C.ar  1 <1>  -0.1500 
 14 C       -3.0760     2.5280    -1.2300 C.3   1 <1>  -0.0960 
 15 C       -5.0590     5.2580     1.4400 C.ar  1 <1>  -0.1500 
 16 O       -1.7600     7.2400     0.0660 O.2   1 <1>  -0.5700 
 17 N        0.4410     7.2750    -0.2850 N.am  1 <1>  -0.7300 
 18 C       -5.7730     4.4440     0.5850 C.ar  1 <1>  -0.1500 
 19 C        0.6380     8.7100    -0.0600 C.3   1 <1>   0.2200 
 20 C        0.4970     9.4470    -1.3890 C.3   1 <1>  -0.1600 
 21 C        2.0140     8.9510     0.5540 C.3   1 <1>  -0.1600 
 22 C        0.7700    10.9360    -1.2030 C.3   1 <1>   0.3430 
 23 C        2.2710    10.4480     0.7090 C.3   1 <1>   0.3430 
 24 N        2.1300    11.1340    -0.6150 N.4   1 <1>  -0.9590 
 25 C        2.4970    12.5760    -0.6020 C.3   1 <1>   0.4230 
 26 C        4.0050    12.7050    -0.4080 C.3   1 <1>  -0.2400 
 27 C        1.7360    13.3540     0.4740 C.3   1 <1>  -0.2400 
 28 H        0.0670     3.0430    -1.9330 H     1 <1>   0.0800 
 29 H        1.6360     3.0330    -1.1660 H     1 <1>   0.0800 
 30 H       -1.1920     4.9350     1.5870 H     1 <1>   0.0800 
 31 H       -1.3740     2.8720     3.0050 H     1 <1>   0.0800 
 32 H       -0.9280     1.3420     2.2880 H     1 <1>   0.0800 
 33 H       -2.5000     2.0300     1.9590 H     1 <1>   0.0800 
 34 H       -1.4070     4.9780    -1.3700 H     1 <1>   0.0800 
 35 H       -3.1480     5.8560     2.1170 H     1 <1>   0.1500 
 36 H       -5.6750     2.9560    -0.9170 H     1 <1>   0.1500 
 37 H       -3.8050     2.1360    -1.9160 H     1 <1>   0.0800 
 38 H       -2.6610     1.6990    -0.6860 H     1 <1>   0.0800 
 39 H       -2.3060     2.9940    -1.8100 H     1 <1>   0.0800 
 40 H       -5.5760     5.9350     2.0980 H     1 <1>   0.1500 
 41 H        1.2500     6.7000    -0.5490 H     1 <1>   0.3700 
 42 H       -6.8490     4.4820     0.5760 H     1 <1>   0.1500 
 43 H       -0.1220     9.0630     0.6220 H     1 <1>   0.0800 
 44 H        1.1740     9.0420    -2.1210 H     1 <1>   0.0800 
 45 H       -0.5070     9.3220    -1.7540 H     1 <1>   0.0800 
 46 H        2.0550     8.4880     1.5240 H     1 <1>   0.0800 
 47 H        2.7840     8.5170    -0.0600 H     1 <1>   0.0800 
 48 H        0.0230    11.3550    -0.5480 H     1 <1>   0.0800 
 49 H        0.7010    11.4340    -2.1570 H     1 <1>   0.0800 
 50 H        3.2630    10.6000     1.1040 H     1 <1>   0.0800 
 51 H        1.5630    10.8610     1.4100 H     1 <1>   0.0800 
 52 H        2.7950    10.6830    -1.2550 H     1 <1>   0.4500 
 53 H        2.2520    13.0020    -1.5630 H     1 <1>   0.0800 
 54 H        4.3130    12.3710     0.5660 H     1 <1>   0.0800 
 55 H        4.2880    13.7390    -0.5020 H     1 <1>   0.0800 
 56 H        4.5350    12.1530    -1.1630 H     1 <1>   0.0800 
 57 H        2.0140    13.0440     1.4650 H     1 <1>   0.0800 
 58 H        0.6740    13.2570     0.3490 H     1 <1>   0.0800 
 59 H        1.9760    14.3990     0.3860 H     1 <1>   0.0800 
@<TRIPOS>BOND
  1   1   2  2   
  2   2   3  am  
  3   2   4  1   
  4   3   5  1   
  5   3   6  1   
  6   4   7  1   
  7   4  28  1   
  8   4  29  1   
  9   5   8  1   
 10   5   9  1   
 11   5  30  1   
 12   6  31  1   
 13   6  32  1   
 14   6  33  1   
 15   7   9  1   
 16   8  10  ar  
 17   8  11  ar  
 18   9  12  1   
 19   9  34  1   
 20  10  13  ar  
 21  10  14  1   
 22  11  15  ar  
 23  11  35  1   
 24  12  16  2   
 25  12  17  am  
 26  13  18  ar  
 27  13  36  1   
 28  14  37  1   
 29  14  38  1   
 30  14  39  1   
 31  15  18  ar  
 32  15  40  1   
 33  17  19  1   
 34  17  41  1   
 35  18  42  1   
 36  19  20  1   
 37  19  21  1   
 38  19  43  1   
 39  20  22  1   
 40  20  44  1   
 41  20  45  1   
 42  21  23  1   
 43  21  46  1   
 44  21  47  1   
 45  22  24  1   
 46  22  48  1   
 47  22  49  1   
 48  23  24  1   
 49  23  50  1   
 50  23  51  1   
 51  24  25  1   
 52  24  52  1   
 53  25  26  1   
 54  25  27  1   
 55  25  53  1   
 56  26  54  1   
 57  26  55  1   
 58  26  56  1   
 59  27  57  1   
 60  27  58  1   
 61  27  59  1   
@<TRIPOS>SUBSTRUCTURE
  1 ****  12 GROUP 4 **** **** 0

# MOE 2024.06 (io_trps.svl 2023.06)
