@<TRIPOS>MOLECULE
NONAME
48 51 1 0 0 
SMALL
USER_CHARGES


@<TRIPOS>ATOM
  1 O       -1.2100     0.8250     0.1300 O.2   1 <1>  -0.5700 
  2 C       -0.8930     1.9510     0.4180 C.2   1 <1>   0.5690 
  3 N       -1.8070     2.8230     0.8970 N.am  1 <1>  -0.7300 
  4 C        0.5490     2.4210     0.2050 C.3   1 <1>   0.1810 
  5 C       -1.4930     4.2260     1.2620 C.3   1 <1>   0.3640 
  6 O        0.8590     3.6030     0.9100 O.3   1 <1>  -0.5600 
  7 C       -2.5700     5.1370     0.6740 C.ar  1 <1>  -0.1440 
  8 C       -0.0880     4.6520     0.7610 C.3   1 <1>   0.2610 
  9 C       -3.0370     4.9650    -0.6240 C.ar  1 <1>  -0.1500 
 10 C       -3.0890     6.1700     1.4420 C.ar  1 <1>  -0.1500 
 11 C        0.3980     5.9310     1.4630 C.2   1 <1>   0.5690 
 12 C       -4.0060     5.8070    -1.1410 C.ar  1 <1>  -0.1500 
 13 C       -4.0570     7.0130     0.9260 C.ar  1 <1>  -0.1500 
 14 O       -0.0620     6.2330     2.5440 O.2   1 <1>  -0.5700 
 15 N        1.3380     6.7260     0.8610 N.am  1 <1>  -0.6600 
 16 C       -4.5170     6.8330    -0.3660 C.ar  1 <1>  -0.1500 
 17 C        1.8250     7.9860     1.4680 C.3   1 <1>   0.1400 
 18 C        2.1080     6.4010    -0.3600 C.3   1 <1>   0.1400 
 19 C        2.7230     8.6210     0.4020 C.3   1 <1>   0.0000 
 20 C        3.2520     7.4100    -0.3800 C.3   1 <1>  -0.1600 
 21 C        3.8450     9.5010     0.9560 C.3   1 <1>  -0.1600 
 22 C        1.9620     9.5800    -0.5230 C.3   1 <1>  -0.1600 
 23 C        4.2510    10.4090    -0.2060 C.3   1 <1>  -0.1600 
 24 C        3.0260    10.5040    -1.1250 C.3   1 <1>  -0.1600 
 25 H       -2.7690     2.5110     1.0340 H     1 <1>   0.3700 
 26 H        0.7160     2.5960    -0.8410 H     1 <1>   0.0800 
 27 H        1.2240     1.6550     0.5400 H     1 <1>   0.0800 
 28 H       -1.5190     4.2940     2.3360 H     1 <1>   0.0800 
 29 H       -0.1610     4.8670    -0.2880 H     1 <1>   0.0800 
 30 H       -2.6530     4.1720    -1.2430 H     1 <1>   0.1500 
 31 H       -2.7370     6.3290     2.4480 H     1 <1>   0.1500 
 32 H       -4.3640     5.6650    -2.1460 H     1 <1>   0.1500 
 33 H       -4.4510     7.8110     1.5310 H     1 <1>   0.1500 
 34 H       -5.2700     7.4880    -0.7660 H     1 <1>   0.1500 
 35 H        1.0010     8.6220     1.7440 H     1 <1>   0.0800 
 36 H        2.3960     7.7450     2.3480 H     1 <1>   0.0800 
 37 H        2.4800     5.3900    -0.3260 H     1 <1>   0.0800 
 38 H        1.4780     6.5330    -1.2220 H     1 <1>   0.0800 
 39 H        4.0910     6.9770     0.1350 H     1 <1>   0.0800 
 40 H        3.5540     7.6510    -1.3830 H     1 <1>   0.0800 
 41 H        3.4540    10.1110     1.7530 H     1 <1>   0.0800 
 42 H        4.6750     8.9310     1.3350 H     1 <1>   0.0800 
 43 H        1.3940     9.0690    -1.2810 H     1 <1>   0.0800 
 44 H        1.2840    10.1780     0.0620 H     1 <1>   0.0800 
 45 H        4.5570    11.3780     0.1480 H     1 <1>   0.0800 
 46 H        5.0690     9.9630    -0.7460 H     1 <1>   0.0800 
 47 H        3.2880    10.1720    -2.1150 H     1 <1>   0.0800 
 48 H        2.6600    11.5140    -1.1840 H     1 <1>   0.0800 
@<TRIPOS>BOND
  1   1   2  2   
  2   2   3  am  
  3   2   4  1   
  4   3   5  1   
  5   3  25  1   
  6   4   6  1   
  7   4  26  1   
  8   4  27  1   
  9   5   7  1   
 10   5   8  1   
 11   5  28  1   
 12   6   8  1   
 13   7   9  ar  
 14   7  10  ar  
 15   8  11  1   
 16   8  29  1   
 17   9  12  ar  
 18   9  30  1   
 19  10  13  ar  
 20  10  31  1   
 21  11  14  2   
 22  11  15  am  
 23  12  16  ar  
 24  12  32  1   
 25  13  16  ar  
 26  13  33  1   
 27  15  17  1   
 28  15  18  1   
 29  16  34  1   
 30  17  19  1   
 31  17  35  1   
 32  17  36  1   
 33  18  20  1   
 34  18  37  1   
 35  18  38  1   
 36  19  20  1   
 37  19  21  1   
 38  19  22  1   
 39  20  39  1   
 40  20  40  1   
 41  21  23  1   
 42  21  41  1   
 43  21  42  1   
 44  22  24  1   
 45  22  43  1   
 46  22  44  1   
 47  23  24  1   
 48  23  45  1   
 49  23  46  1   
 50  24  47  1   
 51  24  48  1   
@<TRIPOS>SUBSTRUCTURE
  1 ****  11 GROUP 4 **** **** 0

# MOE 2024.06 (io_trps.svl 2023.06)
