@<TRIPOS>MOLECULE
NONAME
50 52 1 0 0 
SMALL
USER_CHARGES


@<TRIPOS>ATOM
  1 O        0.9990    -2.7760     1.4690 O.3   1 <1>  -0.5600 
  2 C        0.8270    -1.9020     0.3870 C.3   1 <1>   0.2000 
  3 C       -0.0220    -2.7370     2.4200 C.3   1 <1>   0.0400 
  4 C        2.2000    -1.6620    -0.2670 C.3   1 <1>   0.0000 
  5 C       -0.0070    -2.6100    -0.6900 C.3   1 <1>  -0.1600 
  6 C        3.3070    -1.4650     0.7910 C.3   1 <1>   0.2090 
  7 C        2.1640    -0.3980    -1.1670 C.3   1 <1>  -0.1600 
  8 C        2.3830    -2.9410    -1.1110 C.3   1 <1>  -0.1600 
  9 C        0.9890    -3.2960    -1.6350 C.3   1 <1>  -0.1600 
 10 N        4.6300    -1.2390     0.1210 N.pl3 1 <1>  -0.8380 
 11 C        3.5480    -0.0390    -1.7450 C.3   1 <1>  -0.1600 
 12 C        5.6740    -2.1230     0.1570 C.ar  1 <1>   0.4610 
 13 C        4.6460     0.0240    -0.6750 C.3   1 <1>   0.2090 
 14 N        5.4020    -3.4130     0.3980 N.ar  1 <1>  -0.1790 
 15 C        6.9980    -1.8240    -0.0510 C.ar  1 <1>  -0.1500 
 16 C        6.3430    -4.3720     0.4350 C.ar  1 <1>   0.7710 
 17 C        7.9340    -2.8450    -0.0090 C.ar  1 <1>   0.4100 
 18 N        7.6130    -4.1070     0.2270 N.ar  1 <1>  -0.6200 
 19 N        5.9390    -5.6550     0.6830 N.pl3 1 <1>  -0.8380 
 20 N        9.2410    -2.6210    -0.2070 N.pl3 1 <1>  -0.9000 
 21 C        4.6770    -6.0570     1.3810 C.3   1 <1>   0.1290 
 22 C        6.8480    -6.8140     0.4060 C.3   1 <1>   0.1290 
 23 H        0.3760    -0.9860     0.7340 H     1 <1>   0.0800 
 24 H        0.2020    -3.4590     3.1860 H     1 <1>   0.0800 
 25 H       -0.9610    -2.9860     1.9570 H     1 <1>   0.0800 
 26 H       -0.0680    -1.7530     2.8550 H     1 <1>   0.0800 
 27 H       -0.7030    -3.3140    -0.2700 H     1 <1>   0.0800 
 28 H       -0.5630    -1.8740    -1.2440 H     1 <1>   0.0800 
 29 H        3.3550    -2.3060     1.4590 H     1 <1>   0.0800 
 30 H        3.0680    -0.6040     1.3930 H     1 <1>   0.0800 
 31 H        1.4670    -0.5260    -1.9770 H     1 <1>   0.0800 
 32 H        1.8190     0.4360    -0.5800 H     1 <1>   0.0800 
 33 H        3.0930    -2.8320    -1.9110 H     1 <1>   0.0800 
 34 H        2.6980    -3.7470    -0.4750 H     1 <1>   0.0800 
 35 H        0.8440    -4.3630    -1.6440 H     1 <1>   0.0800 
 36 H        0.8600    -2.9210    -2.6360 H     1 <1>   0.0800 
 37 H        3.4870     0.9160    -2.2370 H     1 <1>   0.0800 
 38 H        3.8340    -0.7570    -2.4910 H     1 <1>   0.0800 
 39 H        4.4670     0.8600    -0.0180 H     1 <1>   0.0800 
 40 H        5.5970     0.1730    -1.1550 H     1 <1>   0.0800 
 41 H        4.4410    -3.7010     0.4690 H     1 <1>   0.4570 
 42 H        7.3220    -0.8210    -0.2350 H     1 <1>   0.1500 
 43 H        9.9000    -3.4030    -0.1580 H     1 <1>   0.4000 
 44 H        9.6650    -1.7080    -0.3830 H     1 <1>   0.4000 
 45 H        4.8950    -6.8090     2.1220 H     1 <1>   0.0800 
 46 H        3.9800    -6.4710     0.6720 H     1 <1>   0.0800 
 47 H        4.2190    -5.2240     1.8870 H     1 <1>   0.0800 
 48 H        6.2790    -7.6530     0.0420 H     1 <1>   0.0800 
 49 H        7.3580    -7.1020     1.3100 H     1 <1>   0.0800 
 50 H        7.5840    -6.5620    -0.3390 H     1 <1>   0.0800 
@<TRIPOS>BOND
  1   1   2  1   
  2   1   3  1   
  3   2   4  1   
  4   2   5  1   
  5   2  23  1   
  6   3  24  1   
  7   3  25  1   
  8   3  26  1   
  9   4   6  1   
 10   4   7  1   
 11   4   8  1   
 12   5   9  1   
 13   5  27  1   
 14   5  28  1   
 15   6  10  1   
 16   6  29  1   
 17   6  30  1   
 18   7  11  1   
 19   7  31  1   
 20   7  32  1   
 21   8   9  1   
 22   8  33  1   
 23   8  34  1   
 24   9  35  1   
 25   9  36  1   
 26  10  12  1   
 27  10  13  1   
 28  11  13  1   
 29  11  37  1   
 30  11  38  1   
 31  12  14  ar  
 32  12  15  ar  
 33  13  39  1   
 34  13  40  1   
 35  14  16  ar  
 36  14  41  1   
 37  15  17  ar  
 38  15  42  1   
 39  16  18  ar  
 40  16  19  1   
 41  17  18  ar  
 42  17  20  1   
 43  19  21  1   
 44  19  22  1   
 45  20  43  1   
 46  20  44  1   
 47  21  45  1   
 48  21  46  1   
 49  21  47  1   
 50  22  48  1   
 51  22  49  1   
 52  22  50  1   
@<TRIPOS>SUBSTRUCTURE
  1 ****  14 GROUP 4 **** **** 0

# MOE 2024.06 (io_trps.svl 2023.06)
