@<TRIPOS>MOLECULE
NONAME
47 50 1 0 0 
SMALL
USER_CHARGES


@<TRIPOS>ATOM
  1 S        0.1050     0.9790     0.1850 S.3   1 <1>  -0.0800 
  2 C        1.1560    -0.4330     0.0840 C.2   1 <1>   0.3250 
  3 C        1.3230     1.8280     1.0800 C.2   1 <1>  -0.1100 
  4 N        2.2860    -0.2390     0.6720 N.2   1 <1>  -0.5650 
  5 C        0.6980    -1.6200    -0.6100 C.ar  1 <1>   0.0530 
  6 C        2.3830     1.0210     1.2300 C.2   1 <1>   0.0460 
  7 C        1.5260    -2.7430    -0.6870 C.ar  1 <1>  -0.1500 
  8 C       -0.5540    -1.7170    -1.2280 C.ar  1 <1>  -0.1500 
  9 C        3.6810     1.3610     1.9420 C.3   1 <1>   0.0820 
 10 C        1.1340    -3.8960    -1.3420 C.ar  1 <1>  -0.1500 
 11 C       -0.9520    -2.8670    -1.8840 C.ar  1 <1>  -0.1500 
 12 C        3.9470     2.8570     1.9700 C.2   1 <1>   0.5690 
 13 C       -0.1080    -3.9610    -1.9430 C.ar  1 <1>  -0.1500 
 14 O        3.7540     3.4280     3.0200 O.2   1 <1>  -0.5700 
 15 N        4.3980     3.5320     0.8560 N.am  1 <1>  -0.6600 
 16 C        5.0010     4.8950     1.0180 C.3   1 <1>   0.1400 
 17 C        4.5150     2.9130    -0.5070 C.3   1 <1>   0.1400 
 18 C        6.5260     4.9600     0.7650 C.3   1 <1>   0.2200 
 19 C        5.9570     2.7280    -1.0210 C.3   1 <1>  -0.0190 
 20 N        6.8150     5.0480    -0.6950 N.am  1 <1>  -0.6600 
 21 C        7.3740     3.8540     1.4460 C.3   1 <1>   0.1200 
 22 C        6.5170     4.0280    -1.5510 C.2   1 <1>   0.5690 
 23 C        6.9680     2.0430    -0.0820 C.3   1 <1>   0.1200 
 24 C        7.3950     6.3360    -1.1740 C.3   1 <1>   0.0600 
 25 O        6.9480     2.5340     1.2240 O.3   1 <1>  -0.5600 
 26 O        6.6880     4.1200    -2.7440 O.2   1 <1>  -0.5700 
 27 H        1.1180     2.8350     1.3990 H     1 <1>   0.1500 
 28 H        2.4960    -2.7080    -0.2230 H     1 <1>   0.1500 
 29 H       -1.2370    -0.8880    -1.2020 H     1 <1>   0.1500 
 30 H        4.5050     0.8750     1.4580 H     1 <1>   0.0800 
 31 H        3.6340     0.9870     2.9470 H     1 <1>   0.0800 
 32 H        1.7960    -4.7450    -1.3830 H     1 <1>   0.1500 
 33 H       -1.9210    -2.9140    -2.3510 H     1 <1>   0.1500 
 34 H       -0.4170    -4.8570    -2.4540 H     1 <1>   0.1500 
 35 H        4.5010     5.5810     0.3570 H     1 <1>   0.0800 
 36 H        4.8260     5.2480     2.0190 H     1 <1>   0.0800 
 37 H        4.0340     1.9540    -0.5230 H     1 <1>   0.0800 
 38 H        3.9770     3.5320    -1.2050 H     1 <1>   0.0800 
 39 H        6.8540     5.8880     1.1990 H     1 <1>   0.0800 
 40 H        5.8790     2.0860    -1.8790 H     1 <1>   0.0800 
 41 H        7.3310     4.0030     2.5100 H     1 <1>   0.0800 
 42 H        8.4020     3.9350     1.1410 H     1 <1>   0.0800 
 43 H        7.9700     2.1360    -0.4670 H     1 <1>   0.0800 
 44 H        6.7310     0.9960    -0.0170 H     1 <1>   0.0800 
 45 H        8.3270     6.5250    -0.6710 H     1 <1>   0.0800 
 46 H        6.7100     7.1410    -0.9730 H     1 <1>   0.0800 
 47 H        7.5810     6.3020    -2.2340 H     1 <1>   0.0800 
@<TRIPOS>BOND
  1   1   2  1   
  2   1   3  1   
  3   2   4  2   
  4   2   5  1   
  5   3   6  2   
  6   3  27  1   
  7   4   6  1   
  8   5   7  ar  
  9   5   8  ar  
 10   6   9  1   
 11   7  10  ar  
 12   7  28  1   
 13   8  11  ar  
 14   8  29  1   
 15   9  12  1   
 16   9  30  1   
 17   9  31  1   
 18  10  13  ar  
 19  10  32  1   
 20  11  13  ar  
 21  11  33  1   
 22  12  14  2   
 23  12  15  am  
 24  13  34  1   
 25  15  16  1   
 26  15  17  1   
 27  16  18  1   
 28  16  35  1   
 29  16  36  1   
 30  17  19  1   
 31  17  37  1   
 32  17  38  1   
 33  18  20  1   
 34  18  21  1   
 35  18  39  1   
 36  19  22  1   
 37  19  23  1   
 38  19  40  1   
 39  20  22  am  
 40  20  24  1   
 41  21  25  1   
 42  21  41  1   
 43  21  42  1   
 44  22  26  2   
 45  23  25  1   
 46  23  43  1   
 47  23  44  1   
 48  24  45  1   
 49  24  46  1   
 50  24  47  1   
@<TRIPOS>SUBSTRUCTURE
  1 ****  17 GROUP 4 **** **** 0

# MOE 2024.06 (io_trps.svl 2023.06)
