@<TRIPOS>MOLECULE
Untitled Document
61 65 1 0 0 
SMALL
USER_CHARGES


@<TRIPOS>ATOM
  1 O       -3.1700    -0.7120    -0.0920 O.3   1 <1>  -0.5600 
  2 C       -2.8600    -1.3420     1.1140 C.3   1 <1>   0.1200 
  3 C       -2.2270    -0.8800    -1.1050 C.3   1 <1>   0.1200 
  4 C       -2.8170    -2.8570     0.8950 C.3   1 <1>  -0.1600 
  5 C       -2.1410    -2.3640    -1.4750 C.3   1 <1>  -0.1600 
  6 C       -1.8360    -3.2090    -0.2310 C.3   1 <1>   0.1010 
  7 C       -1.8220    -4.7030    -0.5400 C.2   1 <1>   0.1080 
  8 N       -0.7700    -5.4410    -0.3390 N.2   1 <1>  -0.7070 
  9 C       -2.8700    -5.4610    -1.0570 C.2   1 <1>   0.0620 
 10 N       -1.1260    -6.6830    -0.7340 N.pl3 1 <1>   0.5610 
 11 O       -4.1200    -5.0190    -1.3880 O.3   1 <1>  -0.1440 
 12 C       -2.3980    -6.7160    -1.1780 C.2   1 <1>  -0.3020 
 13 C       -0.1920    -7.8300    -0.6750 C.3   1 <1>  -0.0910 
 14 C       -5.1770    -5.2710    -0.5830 C.ar  1 <1>   0.0820 
 15 C       -0.6420    -9.1460    -0.1060 C.3   1 <1>  -0.2000 
 16 C        0.3270    -8.2970     0.6540 C.3   1 <1>  -0.2000 
 17 C       -6.4190    -4.8160    -0.9610 C.ar  1 <1>  -0.1500 
 18 C       -5.0970    -5.9520     0.6210 C.ar  1 <1>  -0.1500 
 19 C       -7.5220    -5.0520    -0.1520 C.ar  1 <1>   0.4100 
 20 C       -6.2500    -6.1380     1.3560 C.ar  1 <1>   0.1600 
 21 N       -7.4490    -5.7090     1.0000 N.ar  1 <1>  -0.6200 
 22 N       -8.7550    -4.5530    -0.5470 N.pl3 1 <1>  -0.6000 
 23 C      -10.0500    -4.9510    -0.2120 C.ar  1 <1>   0.1000 
 24 C      -11.1100    -4.0740    -0.3510 C.ar  1 <1>  -0.1500 
 25 C      -10.3770    -6.2130     0.2470 C.ar  1 <1>  -0.1500 
 26 C      -12.4050    -4.4590    -0.0340 C.ar  1 <1>   0.1670 
 27 C      -11.6900    -6.5190     0.5360 C.ar  1 <1>   0.1600 
 28 N      -12.7070    -5.6810     0.4050 N.ar  1 <1>  -0.6200 
 29 C      -13.5590    -3.4390    -0.2060 C.3   1 <1>   0.4240 
 30 O      -13.1240    -2.1820     0.1660 O.3   1 <1>  -0.6800 
 31 C      -14.7730    -3.7260     0.6840 C.3   1 <1>  -0.2400 
 32 C      -13.9820    -3.3370    -1.6700 C.3   1 <1>  -0.2400 
 33 H       -3.6260    -1.0850     1.8250 H     1 <1>   0.0800 
 34 H       -1.9140    -0.9670     1.4660 H     1 <1>   0.0800 
 35 H       -1.2790    -0.5050    -0.7590 H     1 <1>   0.0800 
 36 H       -2.5470    -0.2970    -1.9520 H     1 <1>   0.0800 
 37 H       -3.8070    -3.1910     0.6500 H     1 <1>   0.0800 
 38 H       -2.5160    -3.3470     1.8040 H     1 <1>   0.0800 
 39 H       -1.3700    -2.5100    -2.2100 H     1 <1>   0.0800 
 40 H       -3.0770    -2.6600    -1.9120 H     1 <1>   0.0800 
 41 H       -0.8470    -2.9450     0.1050 H     1 <1>   0.0800 
 42 H       -2.8740    -7.6050    -1.5440 H     1 <1>   0.1500 
 43 H        0.4900    -7.8220    -1.5060 H     1 <1>   0.1000 
 44 H       -0.2750   -10.0580    -0.5450 H     1 <1>   0.1000 
 45 H       -1.6420    -9.2460     0.2800 H     1 <1>   0.1000 
 46 H       -0.0020    -7.7790     1.5390 H     1 <1>   0.1000 
 47 H        1.3490    -8.6250     0.7250 H     1 <1>   0.1000 
 48 H       -6.5320    -4.2800    -1.8820 H     1 <1>   0.1500 
 49 H       -4.1640    -6.3320     0.9920 H     1 <1>   0.1500 
 50 H       -6.1860    -6.6680     2.2920 H     1 <1>   0.1500 
 51 H       -8.6950    -3.7090    -1.1140 H     1 <1>   0.4000 
 52 H      -10.9210    -3.0800    -0.7110 H     1 <1>   0.1500 
 53 H       -9.6130    -6.9550     0.3770 H     1 <1>   0.1500 
 54 H      -11.9200    -7.5070     0.8930 H     1 <1>   0.1500 
 55 H      -12.8480    -2.2260     1.1000 H     1 <1>   0.4000 
 56 H      -14.4720    -3.8080     1.7120 H     1 <1>   0.0800 
 57 H      -15.2230    -4.6580     0.3940 H     1 <1>   0.0800 
 58 H      -15.5100    -2.9490     0.5840 H     1 <1>   0.0800 
 59 H      -13.1430    -3.0620    -2.2820 H     1 <1>   0.0800 
 60 H      -14.7630    -2.6080    -1.7870 H     1 <1>   0.0800 
 61 H      -14.3470    -4.2900    -2.0050 H     1 <1>   0.0800 
@<TRIPOS>BOND
  1   1   2  1   
  2   1   3  1   
  3   2   4  1   
  4   2  33  1   
  5   2  34  1   
  6   3   5  1   
  7   3  35  1   
  8   3  36  1   
  9   4   6  1   
 10   4  37  1   
 11   4  38  1   
 12   5   6  1   
 13   5  39  1   
 14   5  40  1   
 15   6   7  1   
 16   6  41  1   
 17   7   8  2   
 18   7   9  1   
 19   8  10  1   
 20   9  11  1   
 21   9  12  2   
 22  10  12  1   
 23  10  13  1   
 24  11  14  1   
 25  12  42  1   
 26  13  15  1   
 27  13  16  1   
 28  13  43  1   
 29  14  17  ar  
 30  14  18  ar  
 31  15  16  1   
 32  15  44  1   
 33  15  45  1   
 34  16  46  1   
 35  16  47  1   
 36  17  19  ar  
 37  17  48  1   
 38  18  20  ar  
 39  18  49  1   
 40  19  21  ar  
 41  19  22  1   
 42  20  21  ar  
 43  20  50  1   
 44  22  23  1   
 45  22  51  1   
 46  23  24  ar  
 47  23  25  ar  
 48  24  26  ar  
 49  24  52  1   
 50  25  27  ar  
 51  25  53  1   
 52  26  28  ar  
 53  26  29  1   
 54  27  28  ar  
 55  27  54  1   
 56  29  30  1   
 57  29  31  1   
 58  29  32  1   
 59  30  55  1   
 60  31  56  1   
 61  31  57  1   
 62  31  58  1   
 63  32  59  1   
 64  32  60  1   
 65  32  61  1   
@<TRIPOS>SUBSTRUCTURE
  1 ****  17 GROUP 4 **** **** 0

# MOE 2024.06 (io_trps.svl 2023.06)
