@<TRIPOS>MOLECULE
NONAME
62 66 1 0 0 
SMALL
USER_CHARGES


@<TRIPOS>ATOM
  1 O        2.2990     0.4200    -1.3600 O.3   1 <1>  -0.6800 
  2 C        1.8020     0.4570    -0.0650 C.3   1 <1>   0.4240 
  3 C        1.0590     1.7930     0.1340 C.ar  1 <1>  -0.1440 
  4 C        2.9980     0.3500     0.9080 C.3   1 <1>  -0.0800 
  5 C        0.8720    -0.7700     0.0870 C.3   1 <1>  -0.1600 
  6 C        0.4520     2.0560     1.3580 C.ar  1 <1>  -0.1500 
  7 C        0.9850     2.7750    -0.8540 C.ar  1 <1>  -0.1500 
  8 C        3.8450    -0.9150     0.7100 C.3   1 <1>  -0.0800 
  9 C        3.9750     1.5070     0.7500 C.3   1 <1>   0.3430 
 10 C        1.5770    -2.0600     0.5670 C.3   1 <1>  -0.1600 
 11 C       -0.1990     3.2540     1.5930 C.ar  1 <1>  -0.1500 
 12 C        0.3360     3.9740    -0.6210 C.ar  1 <1>  -0.1500 
 13 C        3.0520    -2.1160     0.1480 C.3   1 <1>  -0.1600 
 14 C        4.9780    -0.4780    -0.2170 C.3   1 <1>   0.3430 
 15 N        5.1330     0.9970    -0.0460 N.4   1 <1>  -0.9590 
 16 C       -0.2560     4.2170     0.6040 C.ar  1 <1>  -0.1500 
 17 C        5.2160     1.6810    -1.3610 C.3   1 <1>   0.5240 
 18 C        5.5680     3.1300    -1.1110 C.2   1 <1>  -0.1810 
 19 C        4.6800     4.1970    -1.1520 C.2   1 <1>   0.1390 
 20 C        6.7560     3.6910    -0.7960 C.2   1 <1>  -0.3020 
 21 N        5.2580     5.3190    -0.8740 N.2   1 <1>  -0.7070 
 22 N        6.5680     5.0300    -0.6590 N.pl3 1 <1>   0.5930 
 23 C        7.5480     5.9980    -0.2960 C.ar  1 <1>  -0.0230 
 24 C        8.8680     5.8810    -0.7220 C.ar  1 <1>  -0.1500 
 25 C        7.2070     7.0830     0.5020 C.ar  1 <1>  -0.1500 
 26 C        9.8310     6.8070    -0.3530 C.ar  1 <1>  -0.1430 
 27 C        8.1610     8.0120     0.8740 C.ar  1 <1>  -0.1500 
 28 C        9.4750     7.8820     0.4550 C.ar  1 <1>  -0.1430 
 29 C       11.2600     6.6290    -0.8460 C.3   1 <1>  -0.0970 
 30 C       10.4940     8.9250     0.8890 C.3   1 <1>  -0.0970 
 31 H        1.5310     0.3850    -1.9650 H     1 <1>   0.4000 
 32 H        2.6100     0.3630     1.9100 H     1 <1>   0.0800 
 33 H        0.0970    -0.5520     0.7990 H     1 <1>   0.0800 
 34 H        0.3700    -0.9570    -0.8470 H     1 <1>   0.0800 
 35 H        0.4720     1.3310     2.1530 H     1 <1>   0.1500 
 36 H        1.4260     2.6370    -1.8250 H     1 <1>   0.1500 
 37 H        4.2710    -1.1920     1.6590 H     1 <1>   0.0800 
 38 H        4.3180     1.8190     1.7230 H     1 <1>   0.0800 
 39 H        3.4990     2.3480     0.2710 H     1 <1>   0.0800 
 40 H        1.5240    -2.1120     1.6420 H     1 <1>   0.0800 
 41 H        1.0530    -2.9190     0.1810 H     1 <1>   0.0800 
 42 H       -0.6640     3.4400     2.5460 H     1 <1>   0.1500 
 43 H        0.2870     4.7230    -1.3930 H     1 <1>   0.1500 
 44 H        3.0910    -2.1260    -0.9290 H     1 <1>   0.0800 
 45 H        3.4920    -3.0370     0.4920 H     1 <1>   0.0800 
 46 H        4.6920    -0.6930    -1.2340 H     1 <1>   0.0800 
 47 H        5.8920    -1.0040     0.0090 H     1 <1>   0.0800 
 48 H        5.9970     1.2150     0.4640 H     1 <1>   0.4500 
 49 H       -0.7620     5.1500     0.7850 H     1 <1>   0.1500 
 50 H        5.9850     1.2270    -1.9650 H     1 <1>   0.0800 
 51 H        4.2770     1.6080    -1.8850 H     1 <1>   0.0800 
 52 H        3.6270     4.1260    -1.3790 H     1 <1>   0.1500 
 53 H        7.7230     3.2460    -0.6550 H     1 <1>   0.1500 
 54 H        9.1480     5.0580    -1.3550 H     1 <1>   0.1500 
 55 H        6.1900     7.2050     0.8330 H     1 <1>   0.1500 
 56 H        7.8690     8.8410     1.4940 H     1 <1>   0.1500 
 57 H       11.3480     5.7670    -1.4830 H     1 <1>   0.0800 
 58 H       11.9240     6.5010    -0.0110 H     1 <1>   0.0800 
 59 H       11.5670     7.4930    -1.4080 H     1 <1>   0.0800 
 60 H       10.0440     9.6630     1.5280 H     1 <1>   0.0800 
 61 H       10.8970     9.4260     0.0280 H     1 <1>   0.0800 
 62 H       11.2960     8.4560     1.4300 H     1 <1>   0.0800 
@<TRIPOS>BOND
  1   1   2  1   
  2   1  31  1   
  3   2   3  1   
  4   2   4  1   
  5   2   5  1   
  6   3   6  ar  
  7   3   7  ar  
  8   4   8  1   
  9   4   9  1   
 10   4  32  1   
 11   5  10  1   
 12   5  33  1   
 13   5  34  1   
 14   6  11  ar  
 15   6  35  1   
 16   7  12  ar  
 17   7  36  1   
 18   8  13  1   
 19   8  14  1   
 20   8  37  1   
 21   9  15  1   
 22   9  38  1   
 23   9  39  1   
 24  10  13  1   
 25  10  40  1   
 26  10  41  1   
 27  11  16  ar  
 28  11  42  1   
 29  12  16  ar  
 30  12  43  1   
 31  13  44  1   
 32  13  45  1   
 33  14  15  1   
 34  14  46  1   
 35  14  47  1   
 36  15  17  1   
 37  15  48  1   
 38  16  49  1   
 39  17  18  1   
 40  17  50  1   
 41  17  51  1   
 42  18  19  1   
 43  18  20  2   
 44  19  21  2   
 45  19  52  1   
 46  20  22  1   
 47  20  53  1   
 48  21  22  1   
 49  22  23  1   
 50  23  24  ar  
 51  23  25  ar  
 52  24  26  ar  
 53  24  54  1   
 54  25  27  ar  
 55  25  55  1   
 56  26  28  ar  
 57  26  29  1   
 58  27  28  ar  
 59  27  56  1   
 60  28  30  1   
 61  29  57  1   
 62  29  58  1   
 63  29  59  1   
 64  30  60  1   
 65  30  61  1   
 66  30  62  1   
@<TRIPOS>SUBSTRUCTURE
  1 ****  18 GROUP 4 **** **** 0

# MOE 2024.06 (io_trps.svl 2023.06)
