@<TRIPOS>MOLECULE
NONAME
49 52 1 0 0 
SMALL
USER_CHARGES


@<TRIPOS>ATOM
  1 O        0.6220    -0.2240     1.0290 O.3   1 <1>  -0.5600 
  2 C        1.7260    -0.8040     0.3700 C.3   1 <1>   0.4240 
  3 C       -0.6500    -0.5850     0.5930 C.3   1 <1>   0.1200 
  4 C        1.4690    -2.2910     0.0360 C.ar  1 <1>  -0.1440 
  5 C        2.0110     0.0080    -0.9040 C.3   1 <1>  -0.1600 
  6 C        2.9010    -0.6680     1.3460 C.3   1 <1>  -0.1600 
  7 C       -0.8730    -2.0620     0.9020 C.3   1 <1>  -0.0160 
  8 C        0.2400    -2.8870     0.2880 C.ar  1 <1>  -0.1440 
  9 C        2.4700    -3.0660    -0.5360 C.ar  1 <1>  -0.1500 
 10 C        2.3180     1.4700    -0.5850 C.3   1 <1>   0.2090 
 11 C        3.2370     0.7960     1.6390 C.3   1 <1>   0.2090 
 12 C        0.0250    -4.2210    -0.0190 C.ar  1 <1>  -0.1500 
 13 C        2.2740    -4.4020    -0.8440 C.ar  1 <1>   0.0820 
 14 N        3.4540     1.5400     0.3670 N.pl3 1 <1>  -0.8380 
 15 C        1.0280    -4.9960    -0.5940 C.ar  1 <1>   0.0820 
 16 O        3.3510    -5.0360    -1.3880 O.3   1 <1>  -0.3630 
 17 C        4.7350     1.7340    -0.1210 C.ar  1 <1>   0.4100 
 18 O        0.8150    -6.3020    -0.9330 O.3   1 <1>  -0.3630 
 19 C        3.6420    -6.3720    -1.0430 C.3   1 <1>   0.0400 
 20 N        5.6280     0.7750     0.1020 N.ar  1 <1>  -0.6200 
 21 C        5.0350     2.9000    -0.8220 C.ar  1 <1>  -0.1500 
 22 C       -0.4630    -6.8950    -0.8710 C.3   1 <1>   0.0400 
 23 C        6.8370     0.9820    -0.3910 C.ar  1 <1>   0.1600 
 24 C        6.2960     3.1030    -1.3310 C.ar  1 <1>  -0.1500 
 25 C        7.2200     2.1040    -1.1030 C.ar  1 <1>  -0.1500 
 26 H       -0.7330    -0.3910    -0.4620 H     1 <1>   0.0800 
 27 H       -1.3640     0.0230     1.1210 H     1 <1>   0.0800 
 28 H        1.1810    -0.0580    -1.5790 H     1 <1>   0.0800 
 29 H        2.8640    -0.4070    -1.4080 H     1 <1>   0.0800 
 30 H        3.7790    -1.1300     0.9350 H     1 <1>   0.0800 
 31 H        2.6650    -1.1790     2.2600 H     1 <1>   0.0800 
 32 H       -1.8250    -2.3650     0.5050 H     1 <1>   0.0800 
 33 H       -0.8870    -2.2060     1.9670 H     1 <1>   0.0800 
 34 H        3.4330    -2.6400    -0.7530 H     1 <1>   0.1500 
 35 H        1.4580     1.9440    -0.1420 H     1 <1>   0.0800 
 36 H        2.5620     1.9920    -1.4930 H     1 <1>   0.0800 
 37 H        4.1200     0.8530     2.2510 H     1 <1>   0.0800 
 38 H        2.4270     1.2560     2.1790 H     1 <1>   0.0800 
 39 H       -0.9380    -4.6400     0.1980 H     1 <1>   0.1500 
 40 H        4.6870    -6.5440    -1.2240 H     1 <1>   0.0800 
 41 H        3.0540    -7.0250    -1.6610 H     1 <1>   0.0800 
 42 H        3.4170    -6.5250    -0.0020 H     1 <1>   0.0800 
 43 H        4.2660     3.6360    -0.9500 H     1 <1>   0.1500 
 44 H       -0.3850    -7.8960    -1.2560 H     1 <1>   0.0800 
 45 H       -1.1430    -6.3230    -1.4770 H     1 <1>   0.0800 
 46 H       -0.7860    -6.9240     0.1540 H     1 <1>   0.0800 
 47 H        7.5650     0.2090    -0.2170 H     1 <1>   0.1500 
 48 H        6.5510     3.9950    -1.8750 H     1 <1>   0.1500 
 49 H        8.2260     2.1950    -1.4720 H     1 <1>   0.1500 
@<TRIPOS>BOND
  1   1   2  1   
  2   1   3  1   
  3   2   4  1   
  4   2   5  1   
  5   2   6  1   
  6   3   7  1   
  7   3  26  1   
  8   3  27  1   
  9   4   8  ar  
 10   4   9  ar  
 11   5  10  1   
 12   5  28  1   
 13   5  29  1   
 14   6  11  1   
 15   6  30  1   
 16   6  31  1   
 17   7   8  1   
 18   7  32  1   
 19   7  33  1   
 20   8  12  ar  
 21   9  13  ar  
 22   9  34  1   
 23  10  14  1   
 24  10  35  1   
 25  10  36  1   
 26  11  14  1   
 27  11  37  1   
 28  11  38  1   
 29  12  15  ar  
 30  12  39  1   
 31  13  15  ar  
 32  13  16  1   
 33  14  17  1   
 34  15  18  1   
 35  16  19  1   
 36  17  20  ar  
 37  17  21  ar  
 38  18  22  1   
 39  19  40  1   
 40  19  41  1   
 41  19  42  1   
 42  20  23  ar  
 43  21  24  ar  
 44  21  43  1   
 45  22  44  1   
 46  22  45  1   
 47  22  46  1   
 48  23  25  ar  
 49  23  47  1   
 50  24  25  ar  
 51  24  48  1   
 52  25  49  1   
@<TRIPOS>SUBSTRUCTURE
  1 ****   2 GROUP 4 **** **** 0

# MOE 2024.06 (io_trps.svl 2023.06)
