@<TRIPOS>MOLECULE
NONAME
51 54 1 0 0 
SMALL
USER_CHARGES


@<TRIPOS>ATOM
  1 O       -1.5420     1.1740    -1.7050 O.2   1 <1>  -0.5700 
  2 C       -1.9950     1.2900    -0.5770 C.2   1 <1>   0.7160 
  3 N       -2.9310     0.3530    -0.1670 N.am  1 <1>  -0.6600 
  4 C       -1.5200     2.3860     0.2670 C.2   1 <1>   0.1410 
  5 C       -3.3310     0.1930     1.2640 C.3   1 <1>   0.1400 
  6 C       -3.5430    -0.5880    -1.1520 C.3   1 <1>   0.1400 
  7 N       -2.2470     2.9830     1.2670 N.2   1 <1>  -0.5650 
  8 C       -0.3220     3.0230     0.2200 C.2   1 <1>  -0.0400 
  9 C       -3.7810    -1.2420     1.5310 C.3   1 <1>  -0.1600 
 10 C       -4.9590    -0.9810    -0.7240 C.3   1 <1>  -0.1600 
 11 C       -1.4670     3.8920     1.7180 C.2   1 <1>   0.3280 
 12 O       -0.3030     3.9530     1.1260 O.3   1 <1>  -0.2800 
 13 C        0.9130     2.8490    -0.6450 C.3   1 <1>  -0.0600 
 14 C       -5.0200    -1.5950     0.6920 C.3   1 <1>   0.4240 
 15 O       -6.0840    -0.9700     1.3660 O.3   1 <1>  -0.5600 
 16 C       -5.2110    -3.1270     0.6320 C.ar  1 <1>  -0.1430 
 17 C       -7.3690    -1.4420     1.1030 C.3   1 <1>   0.1200 
 18 C       -6.3820    -3.7250     1.0890 C.ar  1 <1>  -0.1430 
 19 C       -4.2140    -3.9420     0.1040 C.ar  1 <1>  -0.1500 
 20 C       -7.4890    -2.8590     1.6550 C.3   1 <1>  -0.0170 
 21 C       -6.5460    -5.0990     1.0210 C.ar  1 <1>  -0.1500 
 22 C       -4.3640    -5.3160     0.0440 C.ar  1 <1>   0.0830 
 23 C       -5.5540    -5.9010     0.4860 C.ar  1 <1>   0.0830 
 24 O       -3.3250    -6.0340    -0.4480 O.3   1 <1>  -0.3630 
 25 O       -5.7960    -7.2330     0.4120 O.3   1 <1>  -0.3630 
 26 C       -2.6830    -6.9060     0.4570 C.3   1 <1>   0.0400 
 27 C       -5.9000    -7.7770    -0.8850 C.3   1 <1>   0.0400 
 28 H       -4.1340     0.8770     1.4870 H     1 <1>   0.0800 
 29 H       -2.4980     0.4260     1.9050 H     1 <1>   0.0800 
 30 H       -2.9210    -1.4620    -1.2330 H     1 <1>   0.0800 
 31 H       -3.5860    -0.1220    -2.1230 H     1 <1>   0.0800 
 32 H       -4.0110    -1.3710     2.5730 H     1 <1>   0.0800 
 33 H       -2.9590    -1.8940     1.3060 H     1 <1>   0.0800 
 34 H       -5.3580    -1.6780    -1.4380 H     1 <1>   0.0800 
 35 H       -5.5630    -0.0920    -0.7640 H     1 <1>   0.0800 
 36 H       -1.6790     4.5840     2.5140 H     1 <1>   0.1500 
 37 H        0.8070     2.0160    -1.3140 H     1 <1>   0.0800 
 38 H        1.7720     2.6810    -0.0210 H     1 <1>   0.0800 
 39 H        1.0750     3.7390    -1.2260 H     1 <1>   0.0800 
 40 H       -7.5420    -1.4230     0.0410 H     1 <1>   0.0800 
 41 H       -8.0690    -0.7860     1.5890 H     1 <1>   0.0800 
 42 H       -3.2970    -3.5240    -0.2660 H     1 <1>   0.1500 
 43 H       -8.4500    -3.2630     1.3910 H     1 <1>   0.0800 
 44 H       -7.4160    -2.8330     2.7280 H     1 <1>   0.0800 
 45 H       -7.4500    -5.5620     1.3740 H     1 <1>   0.1500 
 46 H       -1.8170    -7.3160    -0.0290 H     1 <1>   0.0800 
 47 H       -3.3570    -7.6960     0.7320 H     1 <1>   0.0800 
 48 H       -2.3890    -6.3460     1.3280 H     1 <1>   0.0800 
 49 H       -6.1960    -8.8070    -0.7950 H     1 <1>   0.0800 
 50 H       -4.9460    -7.7120    -1.3760 H     1 <1>   0.0800 
 51 H       -6.6420    -7.2250    -1.4340 H     1 <1>   0.0800 
@<TRIPOS>BOND
  1   1   2  2   
  2   2   3  am  
  3   2   4  1   
  4   3   5  1   
  5   3   6  1   
  6   4   7  1   
  7   4   8  2   
  8   5   9  1   
  9   5  28  1   
 10   5  29  1   
 11   6  10  1   
 12   6  30  1   
 13   6  31  1   
 14   7  11  2   
 15   8  12  1   
 16   8  13  1   
 17   9  14  1   
 18   9  32  1   
 19   9  33  1   
 20  10  14  1   
 21  10  34  1   
 22  10  35  1   
 23  11  12  1   
 24  11  36  1   
 25  13  37  1   
 26  13  38  1   
 27  13  39  1   
 28  14  15  1   
 29  14  16  1   
 30  15  17  1   
 31  16  18  ar  
 32  16  19  ar  
 33  17  20  1   
 34  17  40  1   
 35  17  41  1   
 36  18  20  1   
 37  18  21  ar  
 38  19  22  ar  
 39  19  42  1   
 40  20  43  1   
 41  20  44  1   
 42  21  23  ar  
 43  21  45  1   
 44  22  23  ar  
 45  22  24  1   
 46  23  25  1   
 47  24  26  1   
 48  25  27  1   
 49  26  46  1   
 50  26  47  1   
 51  26  48  1   
 52  27  49  1   
 53  27  50  1   
 54  27  51  1   
@<TRIPOS>SUBSTRUCTURE
  1 ****   9 GROUP 4 **** **** 0

# MOE 2024.06 (io_trps.svl 2023.06)
