@<TRIPOS>MOLECULE
NONAME
46 49 1 0 0 
SMALL
USER_CHARGES


@<TRIPOS>ATOM
  1 O       -0.2650     0.1580     0.3560 O.2   1 <1>  -0.5700 
  2 C       -1.3000     0.7600     0.1390 C.2   1 <1>   0.7030 
  3 N       -2.4310     0.0330    -0.1620 N.am  1 <1>  -0.6600 
  4 C       -1.2940     2.2100     0.1890 C.2   1 <1>   0.2770 
  5 C       -3.5880     0.5140    -0.9690 C.3   1 <1>   0.1400 
  6 C       -2.4730    -1.4570    -0.0870 C.3   1 <1>   0.1400 
  7 N       -0.3280     3.0220    -0.4170 N.pl3 1 <1>  -0.6290 
  8 C       -2.1560     3.0580     0.8180 C.2   1 <1>   0.1820 
  9 C       -4.6150    -0.6090    -0.8580 C.3   1 <1>   0.2000 
 10 C       -3.7490    -1.8700    -0.8340 C.3   1 <1>  -0.0800 
 11 C       -0.6510     4.2960    -0.1520 C.cat 1 <1>   0.9620 
 12 C        0.8140     2.7360    -1.1120 C.2   1 <1>   0.2290 
 13 N       -1.7530     4.3360     0.5810 N.pl3 1 <1>  -0.7000 
 14 C       -3.3680     2.7810     1.6920 C.3   1 <1>  -0.0720 
 15 O       -5.2720    -0.4640     0.3550 O.3   1 <1>  -0.6800 
 16 C       -4.4200    -3.1400    -0.2760 C.3   1 <1>   0.0210 
 17 N        0.0430     5.3590    -0.5580 N.2   1 <1>  -0.6120 
 18 C        1.5580     3.7900    -1.5350 C.2   1 <1>  -0.1360 
 19 C       -3.4450    -4.3020    -0.2280 C.2   1 <1>   0.1080 
 20 C        1.1210     5.0930    -1.2320 C.2   1 <1>   0.3760 
 21 N       -2.6620    -4.6100    -1.2160 N.2   1 <1>  -0.7070 
 22 C       -3.2720    -5.1470     0.8620 C.2   1 <1>  -0.1500 
 23 N       -1.9640    -5.6750    -0.7770 N.pl3 1 <1>   0.3000 
 24 C       -2.3140    -6.0170     0.4800 C.2   1 <1>  -0.3320 
 25 C       -1.7020    -7.1730     1.2500 C.3   1 <1>  -0.0600 
 26 H       -3.9930     1.4450    -0.6170 H     1 <1>   0.0800 
 27 H       -3.2820     0.6180    -1.9960 H     1 <1>   0.0800 
 28 H       -1.6020    -1.8970    -0.5450 H     1 <1>   0.0800 
 29 H       -2.5150    -1.7610     0.9460 H     1 <1>   0.0800 
 30 H       -5.3440    -0.5990    -1.6510 H     1 <1>   0.0800 
 31 H       -3.4580    -2.0800    -1.8500 H     1 <1>   0.0800 
 32 H        1.0820     1.7040    -1.2930 H     1 <1>   0.1500 
 33 H       -2.1470     5.2220     0.8990 H     1 <1>   0.4500 
 34 H       -3.4980     1.7250     1.8480 H     1 <1>   0.0800 
 35 H       -4.2570     3.1730     1.2300 H     1 <1>   0.0800 
 36 H       -3.2420     3.2490     2.6520 H     1 <1>   0.0800 
 37 H       -4.6350    -0.5970     1.0830 H     1 <1>   0.4000 
 38 H       -5.2480    -3.4130    -0.9050 H     1 <1>   0.0800 
 39 H       -4.7990    -2.9690     0.7150 H     1 <1>   0.0800 
 40 H        2.4690     3.6590    -2.0900 H     1 <1>   0.1500 
 41 H        1.7220     5.9160    -1.5810 H     1 <1>   0.0600 
 42 H       -3.8010    -5.0980     1.7970 H     1 <1>   0.1500 
 43 H       -1.2590    -6.1450    -1.3590 H     1 <1>   0.2700 
 44 H       -2.1480    -7.2440     2.2260 H     1 <1>   0.0800 
 45 H       -0.6430    -7.0240     1.3670 H     1 <1>   0.0800 
 46 H       -1.8720    -8.0980     0.7280 H     1 <1>   0.0800 
@<TRIPOS>BOND
  1   1   2  2   
  2   2   3  am  
  3   2   4  1   
  4   3   5  1   
  5   3   6  1   
  6   4   7  1   
  7   4   8  2   
  8   5   9  1   
  9   5  26  1   
 10   5  27  1   
 11   6  10  1   
 12   6  28  1   
 13   6  29  1   
 14   7  11  ar  
 15   7  12  1   
 16   8  13  1   
 17   8  14  1   
 18   9  10  1   
 19   9  15  1   
 20   9  30  1   
 21  10  16  1   
 22  10  31  1   
 23  11  13  ar  
 24  11  17  1   
 25  12  18  2   
 26  12  32  1   
 27  13  33  1   
 28  14  34  1   
 29  14  35  1   
 30  14  36  1   
 31  15  37  1   
 32  16  19  1   
 33  16  38  1   
 34  16  39  1   
 35  17  20  2   
 36  18  20  1   
 37  18  40  1   
 38  19  21  2   
 39  19  22  1   
 40  20  41  1   
 41  21  23  1   
 42  22  24  2   
 43  22  42  1   
 44  23  24  1   
 45  23  43  1   
 46  24  25  1   
 47  25  44  1   
 48  25  45  1   
 49  25  46  1   
@<TRIPOS>SUBSTRUCTURE
  1 ****   3 GROUP 4 **** **** 0

# MOE 2024.06 (io_trps.svl 2023.06)
