@<TRIPOS>MOLECULE
NONAME
50 51 1 0 0 
SMALL
USER_CHARGES


@<TRIPOS>ATOM
  1 O        1.7180     0.5730     2.3660 O.co2 1 <1>  -0.9000 
  2 C        1.6510     0.0830     1.2330 C.2   1 <1>   0.9060 
  3 O        1.3030    -1.0940     1.0540 O.co2 1 <1>  -0.9000 
  4 C        2.1090     0.8840     0.0120 C.3   1 <1>  -0.1060 
  5 C        3.4210     0.1670    -0.3950 C.3   1 <1>   0.2000 
  6 C        2.4080     2.3810     0.3390 C.3   1 <1>  -0.1600 
  7 C        1.0260     0.8280    -1.1070 C.3   1 <1>  -0.0160 
  8 O        3.1370    -0.9730    -1.1310 O.3   1 <1>  -0.6800 
  9 C        4.4010     1.0770    -1.1440 C.3   1 <1>   0.1400 
 10 C        3.8420     2.6040     0.8170 C.3   1 <1>   0.1400 
 11 C       -0.1870     1.7250    -0.8630 C.ar  1 <1>  -0.1440 
 12 N        4.7970     2.2490    -0.2860 N.am  1 <1>  -0.6600 
 13 C       -1.0980     1.4140     0.1340 C.ar  1 <1>  -0.1500 
 14 C       -0.3950     2.8560    -1.6390 C.ar  1 <1>  -0.1500 
 15 C        5.9670     2.9140    -0.5400 C.2   1 <1>   0.5690 
 16 C       -2.1980     2.2240     0.3590 C.ar  1 <1>  -0.1500 
 17 C       -1.4950     3.6680    -1.4180 C.ar  1 <1>  -0.1500 
 18 O        6.6470     2.6490    -1.5050 O.2   1 <1>  -0.5700 
 19 C        6.4330     4.0220     0.4000 C.3   1 <1>  -0.0990 
 20 C       -2.3970     3.3520    -0.4180 C.ar  1 <1>  -0.1500 
 21 C        7.9020     4.4500     0.2020 C.3   1 <1>  -0.1600 
 22 C        8.3950     5.4670     1.2480 C.3   1 <1>  -0.0800 
 23 C        7.6440     6.8020     1.1570 C.3   1 <1>  -0.2400 
 24 C        9.8960     5.7140     1.0570 C.3   1 <1>  -0.2400 
 25 H        3.9300    -0.1750     0.4920 H     1 <1>   0.0800 
 26 H        1.7180     2.7330     1.0860 H     1 <1>   0.0800 
 27 H        2.2640     2.9930    -0.5330 H     1 <1>   0.0800 
 28 H        1.4800     1.1060    -2.0410 H     1 <1>   0.0800 
 29 H        0.6720    -0.1810    -1.2300 H     1 <1>   0.0800 
 30 H        2.4710    -1.4750    -0.5920 H     1 <1>   0.4000 
 31 H        3.9410     1.4420    -2.0450 H     1 <1>   0.0800 
 32 H        5.2790     0.5120    -1.4050 H     1 <1>   0.0800 
 33 H        4.0350     1.9890     1.6810 H     1 <1>   0.0800 
 34 H        3.9540     3.6350     1.1010 H     1 <1>   0.0800 
 35 H       -0.9500     0.5370     0.7450 H     1 <1>   0.1500 
 36 H        0.3020     3.1090    -2.4170 H     1 <1>   0.1500 
 37 H       -2.8910     1.9720     1.1410 H     1 <1>   0.1500 
 38 H       -1.6460     4.5430    -2.0230 H     1 <1>   0.1500 
 39 H        5.7890     4.8660     0.2450 H     1 <1>   0.0800 
 40 H        6.3120     3.6800     1.4110 H     1 <1>   0.0800 
 41 H       -3.2510     3.9820    -0.2410 H     1 <1>   0.1500 
 42 H        8.0210     4.8580    -0.7870 H     1 <1>   0.0800 
 43 H        8.5170     3.5670     0.2590 H     1 <1>   0.0800 
 44 H        8.2470     5.0540     2.2320 H     1 <1>   0.0800 
 45 H        7.7210     7.2120     0.1650 H     1 <1>   0.0800 
 46 H        8.0600     7.5100     1.8520 H     1 <1>   0.0800 
 47 H        6.6050     6.6760     1.4010 H     1 <1>   0.0800 
 48 H       10.0910     6.1290     0.0840 H     1 <1>   0.0800 
 49 H       10.4420     4.7920     1.1520 H     1 <1>   0.0800 
 50 H       10.2610     6.3980     1.8020 H     1 <1>   0.0800 
@<TRIPOS>BOND
  1   1   2  ar  
  2   2   3  ar  
  3   2   4  1   
  4   4   5  1   
  5   4   6  1   
  6   4   7  1   
  7   5   8  1   
  8   5   9  1   
  9   5  25  1   
 10   6  10  1   
 11   6  26  1   
 12   6  27  1   
 13   7  11  1   
 14   7  28  1   
 15   7  29  1   
 16   8  30  1   
 17   9  12  1   
 18   9  31  1   
 19   9  32  1   
 20  10  12  1   
 21  10  33  1   
 22  10  34  1   
 23  11  13  ar  
 24  11  14  ar  
 25  12  15  am  
 26  13  16  ar  
 27  13  35  1   
 28  14  17  ar  
 29  14  36  1   
 30  15  18  2   
 31  15  19  1   
 32  16  20  ar  
 33  16  37  1   
 34  17  20  ar  
 35  17  38  1   
 36  19  21  1   
 37  19  39  1   
 38  19  40  1   
 39  20  41  1   
 40  21  22  1   
 41  21  42  1   
 42  21  43  1   
 43  22  23  1   
 44  22  24  1   
 45  22  44  1   
 46  23  45  1   
 47  23  46  1   
 48  23  47  1   
 49  24  48  1   
 50  24  49  1   
 51  24  50  1   
@<TRIPOS>SUBSTRUCTURE
  1 ****   6 GROUP 4 **** **** 0

# MOE 2024.06 (io_trps.svl 2023.06)
