@<TRIPOS>MOLECULE
NONAME
41 42 1 0 0 
SMALL
USER_CHARGES


@<TRIPOS>ATOM
  1 S        0.0470     0.2590     0.0300 S.o2  1 <1>   1.3330 
  2 O        0.0280    -0.5310     1.2410 O.2   1 <1>  -0.6500 
  3 O       -0.5520     1.5740     0.0290 O.2   1 <1>  -0.6500 
  4 N       -0.7000    -0.6590    -1.1880 N.am  1 <1>  -0.8490 
  5 C        1.7250     0.4170    -0.5820 C.3   1 <1>  -0.0550 
  6 C       -2.1340    -0.3760    -1.2970 C.3   1 <1>   0.1160 
  7 C       -0.4870    -2.1040    -1.0410 C.3   1 <1>   0.1160 
  8 C        2.6360     1.2810     0.3120 C.3   1 <1>  -0.0800 
  9 C        3.9640     1.5530    -0.3750 C.3   1 <1>   0.2200 
 10 C        3.0960     0.5260     1.5580 C.3   1 <1>   0.1200 
 11 N        4.5520     2.7890     0.1790 N.am  1 <1>  -0.7300 
 12 C        4.8070     0.3420     0.0280 C.3   1 <1>   0.1200 
 13 O        4.2030    -0.2210     1.1570 O.3   1 <1>  -0.5600 
 14 C        4.7010     3.9810    -0.4680 C.2   1 <1>   0.7160 
 15 O        4.3380     4.0510    -1.6300 O.2   1 <1>  -0.5700 
 16 C        5.2810     5.1060     0.2570 C.2   1 <1>   0.1410 
 17 N        5.7130     4.9690     1.5520 N.2   1 <1>  -0.5650 
 18 C        5.5030     6.4010    -0.1360 C.2   1 <1>  -0.3320 
 19 C        6.1610     6.1310     1.8820 C.2   1 <1>   0.0360 
 20 N        6.0620     7.0440     0.8980 N.pl3 1 <1>   0.0330 
 21 C        5.2190     7.1060    -1.4550 C.3   1 <1>  -0.0600 
 22 H        2.1570    -0.5570    -0.6990 H     1 <1>   0.0800 
 23 H        1.6750     0.8700    -1.5540 H     1 <1>   0.0800 
 24 H       -2.5720    -0.9630    -2.0860 H     1 <1>   0.0800 
 25 H       -2.2880     0.6650    -1.5290 H     1 <1>   0.0800 
 26 H       -2.6320    -0.6010    -0.3680 H     1 <1>   0.0800 
 27 H       -0.9000    -2.6260    -1.8870 H     1 <1>   0.0800 
 28 H       -0.9610    -2.4640    -0.1410 H     1 <1>   0.0800 
 29 H        0.5650    -2.3220    -0.9870 H     1 <1>   0.0800 
 30 H        2.1270     2.1960     0.5630 H     1 <1>   0.0800 
 31 H        3.8760     1.6350    -1.4460 H     1 <1>   0.0800 
 32 H        2.3550    -0.1350     1.9710 H     1 <1>   0.0800 
 33 H        3.4240     1.2130     2.3200 H     1 <1>   0.0800 
 34 H        4.8740     2.7710     1.1510 H     1 <1>   0.3700 
 35 H        5.8230     0.6110     0.2630 H     1 <1>   0.0800 
 36 H        4.7980    -0.4030    -0.7470 H     1 <1>   0.0800 
 37 H        6.5800     6.3720     2.8440 H     1 <1>   0.1500 
 38 H        6.3550     8.0240     0.9410 H     1 <1>   0.2700 
 39 H        4.7460     6.4450    -2.1580 H     1 <1>   0.0800 
 40 H        6.1360     7.4570    -1.8920 H     1 <1>   0.0800 
 41 H        4.5650     7.9440    -1.2940 H     1 <1>   0.0800 
@<TRIPOS>BOND
  1   1   2  2   
  2   1   3  2   
  3   1   4  am  
  4   1   5  1   
  5   4   6  1   
  6   4   7  1   
  7   5   8  1   
  8   5  22  1   
  9   5  23  1   
 10   6  24  1   
 11   6  25  1   
 12   6  26  1   
 13   7  27  1   
 14   7  28  1   
 15   7  29  1   
 16   8   9  1   
 17   8  10  1   
 18   8  30  1   
 19   9  11  1   
 20   9  12  1   
 21   9  31  1   
 22  10  13  1   
 23  10  32  1   
 24  10  33  1   
 25  11  14  am  
 26  11  34  1   
 27  12  13  1   
 28  12  35  1   
 29  12  36  1   
 30  14  15  2   
 31  14  16  1   
 32  16  17  1   
 33  16  18  2   
 34  17  19  2   
 35  18  20  1   
 36  18  21  1   
 37  19  20  1   
 38  19  37  1   
 39  20  38  1   
 40  21  39  1   
 41  21  40  1   
 42  21  41  1   
@<TRIPOS>SUBSTRUCTURE
  1 ****   8 GROUP 4 **** **** 0

# MOE 2024.06 (io_trps.svl 2023.06)
