@<TRIPOS>MOLECULE
NONAME
53 55 1 0 0 
SMALL
USER_CHARGES


@<TRIPOS>ATOM
  1 F       -2.0090    -1.8240    -0.7840 F     1 <1>  -0.1900 
  2 C       -2.9990    -0.9850    -0.6260 C.ar  1 <1>   0.1900 
  3 C       -3.3940    -0.5600     0.6450 C.ar  1 <1>   0.0820 
  4 C       -3.6570    -0.5670    -1.7660 C.ar  1 <1>  -0.1500 
  5 O       -2.8210    -0.9340     1.8200 O.3   1 <1>  -0.3630 
  6 C       -4.4780     0.2960     0.7380 C.ar  1 <1>  -0.1500 
  7 C       -4.7450     0.2780    -1.6430 C.ar  1 <1>  -0.1500 
  8 C       -1.4270    -1.1480     1.9040 C.3   1 <1>   0.0400 
  9 C       -5.1810     0.7140    -0.3910 C.ar  1 <1>   0.0530 
 10 C       -6.3580     1.5230    -0.2550 C.2   1 <1>   0.0870 
 11 O       -6.3570     2.6690     0.3720 O.3   1 <1>  -0.0190 
 12 C       -7.6350     1.2680    -0.6250 C.2   1 <1>  -0.0860 
 13 N       -7.5540     3.1950     0.4520 N.2   1 <1>  -0.4100 
 14 C       -8.3430     2.3700    -0.1470 C.2   1 <1>   0.3720 
 15 C       -8.1440     0.0940    -1.2480 C.2   1 <1>   0.7160 
 16 N       -9.7300     2.5380    -0.2710 N.pl3 1 <1>  -0.8210 
 17 O       -7.8370    -0.1820    -2.3920 O.2   1 <1>  -0.5700 
 18 N       -8.8760    -0.8240    -0.5310 N.am  1 <1>  -0.6600 
 19 C      -10.3410     3.5230     0.6680 C.3   1 <1>   0.1290 
 20 C      -10.1950     2.7540    -1.6690 C.3   1 <1>   0.1290 
 21 C       -9.1710    -2.1920    -1.0130 C.3   1 <1>   0.1400 
 22 C       -9.1080    -0.7430     0.9280 C.3   1 <1>   0.1400 
 23 C       -8.9030    -3.0950     0.1980 C.3   1 <1>   0.4230 
 24 C       -9.2680    -2.1970     1.3890 C.3   1 <1>  -0.1600 
 25 N       -7.4700    -3.5840     0.2480 N.4   1 <1>  -0.9590 
 26 C       -7.2540    -4.5720     1.3510 C.3   1 <1>   0.2630 
 27 C       -6.4290    -2.5020     0.3100 C.3   1 <1>   0.2630 
 28 H       -3.3240    -0.9010    -2.7340 H     1 <1>   0.1500 
 29 H       -4.7850     0.6420     1.7100 H     1 <1>   0.1500 
 30 H       -5.2700     0.6040    -2.5270 H     1 <1>   0.1500 
 31 H       -1.1430    -1.0980     2.9400 H     1 <1>   0.0800 
 32 H       -0.9160    -0.3810     1.3490 H     1 <1>   0.0800 
 33 H       -1.1950    -2.1220     1.5140 H     1 <1>   0.0800 
 34 H      -11.4130     3.4450     0.6380 H     1 <1>   0.0800 
 35 H      -10.0480     4.5230     0.3970 H     1 <1>   0.0800 
 36 H      -10.0090     3.3260     1.6730 H     1 <1>   0.0800 
 37 H      -11.2670     2.6700    -1.7150 H     1 <1>   0.0800 
 38 H       -9.7680     2.0200    -2.3290 H     1 <1>   0.0800 
 39 H       -9.9030     3.7340    -2.0060 H     1 <1>   0.0800 
 40 H      -10.2120    -2.2380    -1.2840 H     1 <1>   0.0800 
 41 H       -8.5730    -2.4650    -1.8660 H     1 <1>   0.0800 
 42 H       -8.2710    -0.2760     1.4200 H     1 <1>   0.0800 
 43 H       -9.9970    -0.1660     1.1260 H     1 <1>   0.0800 
 44 H       -9.5600    -3.9490     0.1590 H     1 <1>   0.0800 
 45 H      -10.3060    -2.3490     1.6280 H     1 <1>   0.0800 
 46 H       -8.6960    -2.3960     2.2760 H     1 <1>   0.0800 
 47 H       -7.3070    -4.0830    -0.6400 H     1 <1>   0.4500 
 48 H       -7.3740    -4.0980     2.3110 H     1 <1>   0.0800 
 49 H       -6.2580    -4.9810     1.2950 H     1 <1>   0.0800 
 50 H       -7.9620    -5.3810     1.2740 H     1 <1>   0.0800 
 51 H       -6.5520    -1.9080     1.2000 H     1 <1>   0.0800 
 52 H       -6.5080    -1.8540    -0.5490 H     1 <1>   0.0800 
 53 H       -5.4390    -2.9290     0.3180 H     1 <1>   0.0800 
@<TRIPOS>BOND
  1   1   2  1   
  2   2   3  ar  
  3   2   4  ar  
  4   3   5  1   
  5   3   6  ar  
  6   4   7  ar  
  7   4  28  1   
  8   5   8  1   
  9   6   9  ar  
 10   6  29  1   
 11   7   9  ar  
 12   7  30  1   
 13   8  31  1   
 14   8  32  1   
 15   8  33  1   
 16   9  10  1   
 17  10  11  1   
 18  10  12  2   
 19  11  13  1   
 20  12  14  1   
 21  12  15  1   
 22  13  14  2   
 23  14  16  1   
 24  15  17  2   
 25  15  18  am  
 26  16  19  1   
 27  16  20  1   
 28  18  21  1   
 29  18  22  1   
 30  19  34  1   
 31  19  35  1   
 32  19  36  1   
 33  20  37  1   
 34  20  38  1   
 35  20  39  1   
 36  21  23  1   
 37  21  40  1   
 38  21  41  1   
 39  22  24  1   
 40  22  42  1   
 41  22  43  1   
 42  23  24  1   
 43  23  25  1   
 44  23  44  1   
 45  24  45  1   
 46  24  46  1   
 47  25  26  1   
 48  25  27  1   
 49  25  47  1   
 50  26  48  1   
 51  26  49  1   
 52  26  50  1   
 53  27  51  1   
 54  27  52  1   
 55  27  53  1   
@<TRIPOS>SUBSTRUCTURE
  1 ****  10 GROUP 4 **** **** 0

# MOE 2024.06 (io_trps.svl 2023.06)
