@<TRIPOS>MOLECULE
NONAME
60 64 1 0 0 
SMALL
USER_CHARGES


@<TRIPOS>ATOM
  1 O       -2.3820     0.6950     1.2360 O.2   1 <1>  -0.5700 
  2 C       -2.1530     0.2050     0.1580 C.2   1 <1>   0.5690 
  3 N       -1.4780     0.8830    -0.8120 N.am  1 <1>  -0.7300 
  4 C       -2.6110    -1.2190    -0.1160 C.3   1 <1>   0.0440 
  5 C       -0.7220     2.1610    -0.6330 C.3   1 <1>   0.2200 
  6 C       -1.5330    -2.2320     0.2600 C.ar  1 <1>  -0.1440 
  7 C        0.3420     2.0510     0.4700 C.3   1 <1>   0.2000 
  8 C       -1.6240     3.3470    -0.2490 C.3   1 <1>   0.1400 
  9 C       -0.2950    -2.1890    -0.3610 C.ar  1 <1>  -0.1500 
 10 C       -1.7650    -3.1930     1.2330 C.ar  1 <1>  -0.1500 
 11 O        1.5660     2.5070    -0.0500 O.3   1 <1>  -0.5600 
 12 C       -0.1210     2.9860     1.5890 C.3   1 <1>   0.1400 
 13 N       -1.0090     3.9810     0.9450 N.am  1 <1>  -0.6600 
 14 C        0.7160    -3.0670     0.0100 C.ar  1 <1>   0.0830 
 15 C       -0.7710    -4.0930     1.5830 C.ar  1 <1>  -0.1500 
 16 C        2.6920     1.7870     0.3480 C.3   1 <1>   0.2630 
 17 C       -1.1160     5.2670     1.4140 C.2   1 <1>   0.5690 
 18 O        1.9550    -3.0000    -0.5450 O.3   1 <1>  -0.1650 
 19 C        0.4700    -4.0310     0.9740 C.ar  1 <1>  -0.1500 
 20 C        2.8280     0.5490    -0.5290 C.ar  1 <1>  -0.1430 
 21 O       -0.5240     5.6030     2.4140 O.2   1 <1>  -0.5700 
 22 C       -1.9580     6.3510     0.7290 C.3   1 <1>  -0.0190 
 23 C        2.4640    -1.7990    -0.9220 C.ar  1 <1>   0.0830 
 24 C        2.3630    -0.6840    -0.0990 C.ar  1 <1>  -0.1500 
 25 C        3.4200     0.6490    -1.7800 C.ar  1 <1>  -0.1500 
 26 C       -3.4420     5.9920     0.5180 C.3   1 <1>  -0.1600 
 27 C       -1.3270     6.8720    -0.5750 C.3   1 <1>  -0.1600 
 28 C        3.0740    -1.6930    -2.1610 C.ar  1 <1>  -0.1500 
 29 C        3.5510    -0.4680    -2.5900 C.ar  1 <1>  -0.1500 
 30 C       -4.1730     7.1310    -0.1980 C.3   1 <1>   0.1200 
 31 C       -2.2190     7.9360    -1.2240 C.3   1 <1>   0.1200 
 32 O       -3.5060     7.4230    -1.3880 O.3   1 <1>  -0.5600 
 33 H       -1.2750     0.4050    -1.6910 H     1 <1>   0.3700 
 34 H       -3.5050    -1.4010     0.4520 H     1 <1>   0.0800 
 35 H       -2.8570    -1.3230    -1.1560 H     1 <1>   0.0800 
 36 H       -0.2330     2.3910    -1.5640 H     1 <1>   0.0800 
 37 H        0.4430     1.0400     0.8230 H     1 <1>   0.0800 
 38 H       -2.6090     2.9980     0.0100 H     1 <1>   0.0800 
 39 H       -1.6890     4.0380    -1.0650 H     1 <1>   0.0800 
 40 H       -0.1030    -1.4680    -1.1320 H     1 <1>   0.1500 
 41 H       -2.7190    -3.2460     1.7290 H     1 <1>   0.1500 
 42 H        0.7130     3.4540     2.0820 H     1 <1>   0.0800 
 43 H       -0.6980     2.4320     2.3090 H     1 <1>   0.0800 
 44 H       -0.9630    -4.8390     2.3350 H     1 <1>   0.1500 
 45 H        3.5470     2.4260     0.2150 H     1 <1>   0.0800 
 46 H        2.6100     1.5350     1.3920 H     1 <1>   0.0800 
 47 H        1.2480    -4.7200     1.2460 H     1 <1>   0.1500 
 48 H       -1.9570     7.1870     1.4090 H     1 <1>   0.0800 
 49 H        1.9130    -0.7870     0.8720 H     1 <1>   0.1500 
 50 H        3.7810     1.6020    -2.1280 H     1 <1>   0.1500 
 51 H       -3.9080     5.8050     1.4690 H     1 <1>   0.0800 
 52 H       -3.5520     5.1100    -0.0800 H     1 <1>   0.0800 
 53 H       -1.1790     6.0770    -1.2800 H     1 <1>   0.0800 
 54 H       -0.3630     7.2970    -0.3620 H     1 <1>   0.0800 
 55 H        3.1650    -2.5650    -2.7840 H     1 <1>   0.1500 
 56 H        4.0200    -0.3810    -3.5550 H     1 <1>   0.1500 
 57 H       -4.2070     8.0210     0.4080 H     1 <1>   0.0800 
 58 H       -5.1780     6.8380    -0.4480 H     1 <1>   0.0800 
 59 H       -1.8440     8.2010    -2.1970 H     1 <1>   0.0800 
 60 H       -2.2760     8.8240    -0.6170 H     1 <1>   0.0800 
@<TRIPOS>BOND
  1   1   2  2   
  2   2   3  am  
  3   2   4  1   
  4   3   5  1   
  5   3  33  1   
  6   4   6  1   
  7   4  34  1   
  8   4  35  1   
  9   5   7  1   
 10   5   8  1   
 11   5  36  1   
 12   6   9  ar  
 13   6  10  ar  
 14   7  11  1   
 15   7  12  1   
 16   7  37  1   
 17   8  13  1   
 18   8  38  1   
 19   8  39  1   
 20   9  14  ar  
 21   9  40  1   
 22  10  15  ar  
 23  10  41  1   
 24  11  16  1   
 25  12  13  1   
 26  12  42  1   
 27  12  43  1   
 28  13  17  am  
 29  14  18  1   
 30  14  19  ar  
 31  15  19  ar  
 32  15  44  1   
 33  16  20  1   
 34  16  45  1   
 35  16  46  1   
 36  17  21  2   
 37  17  22  1   
 38  18  23  1   
 39  19  47  1   
 40  20  24  ar  
 41  20  25  ar  
 42  22  26  1   
 43  22  27  1   
 44  22  48  1   
 45  23  24  ar  
 46  23  28  ar  
 47  24  49  1   
 48  25  29  ar  
 49  25  50  1   
 50  26  30  1   
 51  26  51  1   
 52  26  52  1   
 53  27  31  1   
 54  27  53  1   
 55  27  54  1   
 56  28  29  ar  
 57  28  55  1   
 58  29  56  1   
 59  30  32  1   
 60  30  57  1   
 61  30  58  1   
 62  31  32  1   
 63  31  59  1   
 64  31  60  1   
@<TRIPOS>SUBSTRUCTURE
  1 ****   7 GROUP 4 **** **** 0

# MOE 2024.06 (io_trps.svl 2023.06)
