@<TRIPOS>MOLECULE
NONAME
67 70 1 0 0 
SMALL
USER_CHARGES


@<TRIPOS>ATOM
  1 O       -1.3310     0.5990     0.1130 O.2   1 <1>  -0.5700 
  2 C       -2.2110     1.4140    -0.0670 C.2   1 <1>   0.5690 
  3 N       -3.4200     0.9300    -0.5270 N.am  1 <1>  -0.6600 
  4 C       -1.9470     2.9280     0.2370 C.3   1 <1>   0.2040 
  5 C       -3.4430    -0.3880    -1.2140 C.3   1 <1>   0.1400 
  6 C       -4.7400     1.2520     0.0770 C.3   1 <1>   0.1400 
  7 C       -0.4160     3.2440     0.2960 C.ar  1 <1>  -0.1440 
  8 C       -2.6910     3.8340    -0.7810 C.3   1 <1>  -0.1600 
  9 C       -2.5520     3.3780     1.5970 C.3   1 <1>  -0.1600 
 10 C       -3.6710    -1.4830    -0.1490 C.3   1 <1>   0.4230 
 11 C       -5.0290     0.2180     1.1790 C.3   1 <1>  -0.1600 
 12 C        0.2340     4.1480    -0.5460 C.ar  1 <1>  -0.1500 
 13 C        0.3670     2.6040     1.2560 C.ar  1 <1>  -0.1500 
 14 C       -2.9670     5.1380    -0.0410 C.3   1 <1>  -0.1600 
 15 C       -3.3350     4.6780     1.3640 C.3   1 <1>  -0.1600 
 16 N       -3.4920    -2.9030    -0.6540 N.4   1 <1>  -0.9590 
 17 C       -4.9570    -1.2690     0.7100 C.3   1 <1>   0.0000 
 18 C        1.5920     4.4010    -0.4380 C.ar  1 <1>   0.0820 
 19 C        1.7280     2.8330     1.3660 C.ar  1 <1>  -0.1500 
 20 C       -3.9910    -3.9440     0.3010 C.3   1 <1>   0.3430 
 21 C       -4.0600    -3.1360    -2.0200 C.3   1 <1>   0.2630 
 22 C       -4.8330    -2.1780     1.9680 C.3   1 <1>  -0.1600 
 23 C       -6.2890    -1.6460    -0.0050 C.3   1 <1>   0.1200 
 24 O        2.1210     5.3250    -1.2780 O.3   1 <1>  -0.3630 
 25 C        2.3550     3.7180     0.5110 C.ar  1 <1>   0.0820 
 26 C       -3.9650    -3.4370     1.7460 C.3   1 <1>  -0.1600 
 27 O       -6.3910    -1.0960    -1.2720 O.3   1 <1>  -0.6800 
 28 C        2.6180     6.5010    -0.6780 C.3   1 <1>   0.0400 
 29 O        3.6950     3.8750     0.6370 O.3   1 <1>  -0.3630 
 30 C        4.4750     3.4040    -0.4400 C.3   1 <1>   0.0400 
 31 H       -4.2100    -0.3800    -1.9640 H     1 <1>   0.0800 
 32 H       -2.4980    -0.5500    -1.7030 H     1 <1>   0.0800 
 33 H       -4.7450     2.2410     0.4950 H     1 <1>   0.0800 
 34 H       -5.5010     1.2210    -0.6850 H     1 <1>   0.0800 
 35 H       -2.1680     3.9660    -1.7080 H     1 <1>   0.0800 
 36 H       -3.6440     3.4210    -1.0430 H     1 <1>   0.0800 
 37 H       -3.1930     2.6260     2.0160 H     1 <1>   0.0800 
 38 H       -1.7830     3.5710     2.3240 H     1 <1>   0.0800 
 39 H       -2.8620    -1.3230     0.5450 H     1 <1>   0.0800 
 40 H       -4.3030     0.3910     1.9540 H     1 <1>   0.0800 
 41 H       -5.9930     0.4260     1.6080 H     1 <1>   0.0800 
 42 H       -0.2780     4.6990    -1.3060 H     1 <1>   0.1500 
 43 H       -0.0820     1.8990     1.9340 H     1 <1>   0.1500 
 44 H       -2.0740     5.7390    -0.0030 H     1 <1>   0.0800 
 45 H       -3.7560     5.7090    -0.5010 H     1 <1>   0.0800 
 46 H       -4.3920     4.4800     1.4120 H     1 <1>   0.0800 
 47 H       -3.0900     5.4280     2.0970 H     1 <1>   0.0800 
 48 H       -2.4710    -3.0240    -0.7200 H     1 <1>   0.4500 
 49 H        2.3080     2.3190     2.1100 H     1 <1>   0.1500 
 50 H       -5.0050    -4.2070     0.0500 H     1 <1>   0.0800 
 51 H       -3.3900    -4.8350     0.2150 H     1 <1>   0.0800 
 52 H       -5.1250    -2.9740    -2.0180 H     1 <1>   0.0800 
 53 H       -3.8660    -4.1470    -2.3390 H     1 <1>   0.0800 
 54 H       -3.6140    -2.4640    -2.7350 H     1 <1>   0.0800 
 55 H       -4.3920    -1.6380     2.7890 H     1 <1>   0.0800 
 56 H       -5.8130    -2.4740     2.3040 H     1 <1>   0.0800 
 57 H       -7.1280    -1.2950     0.5730 H     1 <1>   0.0800 
 58 H       -6.3880    -2.7110    -0.1110 H     1 <1>   0.0800 
 59 H       -4.3050    -4.2200     2.4010 H     1 <1>   0.0800 
 60 H       -2.9440    -3.2270     2.0160 H     1 <1>   0.0800 
 61 H       -7.3230    -1.1110    -1.5830 H     1 <1>   0.4000 
 62 H        2.8910     7.1870    -1.4590 H     1 <1>   0.0800 
 63 H        3.4800     6.2600    -0.0830 H     1 <1>   0.0800 
 64 H        1.8470     6.9280    -0.0620 H     1 <1>   0.0800 
 65 H        5.5110     3.5140    -0.1780 H     1 <1>   0.0800 
 66 H        4.2540     3.9810    -1.3190 H     1 <1>   0.0800 
 67 H        4.2430     2.3670    -0.6070 H     1 <1>   0.0800 
@<TRIPOS>BOND
  1   1   2  2   
  2   2   3  am  
  3   2   4  1   
  4   3   5  1   
  5   3   6  1   
  6   4   7  1   
  7   4   8  1   
  8   4   9  1   
  9   5  10  1   
 10   5  31  1   
 11   5  32  1   
 12   6  11  1   
 13   6  33  1   
 14   6  34  1   
 15   7  12  ar  
 16   7  13  ar  
 17   8  14  1   
 18   8  35  1   
 19   8  36  1   
 20   9  15  1   
 21   9  37  1   
 22   9  38  1   
 23  10  16  1   
 24  10  17  1   
 25  10  39  1   
 26  11  17  1   
 27  11  40  1   
 28  11  41  1   
 29  12  18  ar  
 30  12  42  1   
 31  13  19  ar  
 32  13  43  1   
 33  14  15  1   
 34  14  44  1   
 35  14  45  1   
 36  15  46  1   
 37  15  47  1   
 38  16  20  1   
 39  16  21  1   
 40  16  48  1   
 41  17  22  1   
 42  17  23  1   
 43  18  24  1   
 44  18  25  ar  
 45  19  25  ar  
 46  19  49  1   
 47  20  26  1   
 48  20  50  1   
 49  20  51  1   
 50  21  52  1   
 51  21  53  1   
 52  21  54  1   
 53  22  26  1   
 54  22  55  1   
 55  22  56  1   
 56  23  27  1   
 57  23  57  1   
 58  23  58  1   
 59  24  28  1   
 60  25  29  1   
 61  26  59  1   
 62  26  60  1   
 63  27  61  1   
 64  28  62  1   
 65  28  63  1   
 66  28  64  1   
 67  29  30  1   
 68  30  65  1   
 69  30  66  1   
 70  30  67  1   
@<TRIPOS>SUBSTRUCTURE
  1 ****   2 GROUP 4 **** **** 0

# MOE 2024.06 (io_trps.svl 2023.06)
