@<TRIPOS>MOLECULE
NONAME
48 51 1 0 0 
SMALL
USER_CHARGES


@<TRIPOS>ATOM
  1 O       -1.2270     0.9760    -2.2210 O.2   1 <1>  -0.5700 
  2 C       -1.5710     1.5490    -1.1980 C.2   1 <1>   0.7150 
  3 N       -2.6480     1.0250    -0.4980 N.am  1 <1>  -0.6600 
  4 C       -0.8170     2.7340    -0.8050 C.2   1 <1>   0.1010 
  5 C       -3.5800     0.0400    -1.1270 C.3   1 <1>   0.1400 
  6 C       -2.9480     1.3740     0.9190 C.3   1 <1>   0.1400 
  7 N       -1.0910     3.6450     0.0960 N.2   1 <1>  -0.5650 
  8 N        0.3540     3.0080    -1.4490 N.pl3 1 <1>   0.0330 
  9 C       -5.0290     0.5500    -1.1560 C.3   1 <1>   0.1400 
 10 C       -4.0630     2.4220     0.9640 C.3   1 <1>  -0.1600 
 11 C       -0.0650     4.5290     0.0360 C.ar  1 <1>   0.2270 
 12 C        0.8500     4.1500    -0.9250 C.ar  1 <1>  -0.1520 
 13 N       -5.6360     0.5660     0.2130 N.am  1 <1>  -0.6600 
 14 C       -5.4860     1.8450     0.9760 C.3   1 <1>   0.1400 
 15 C        0.1520     5.6900     0.7790 C.ar  1 <1>  -0.1500 
 16 C        1.9970     4.9050    -1.1780 C.ar  1 <1>  -0.1500 
 17 C       -6.3350    -0.4850     0.7560 C.2   1 <1>   0.5690 
 18 C        1.2800     6.4430     0.5390 C.ar  1 <1>  -0.1500 
 19 C        2.2030     6.0490    -0.4400 C.ar  1 <1>  -0.1500 
 20 O       -6.8130    -0.4290     1.8640 O.2   1 <1>  -0.5700 
 21 C       -6.5360    -1.7700    -0.0310 C.3   1 <1>  -0.0990 
 22 C       -7.2470    -2.8540     0.7920 C.3   1 <1>   0.0960 
 23 N       -7.4200    -4.0770    -0.0130 N.pl3 1 <1>   0.0480 
 24 C       -6.6100    -5.1310    -0.1140 C.2   1 <1>   0.0360 
 25 C       -8.4150    -4.3940    -0.8410 C.2   1 <1>   0.0370 
 26 N       -7.0680    -6.0110    -0.9360 N.2   1 <1>  -0.3380 
 27 N       -8.2260    -5.5380    -1.4020 N.2   1 <1>  -0.3380 
 28 H       -3.5270    -0.8910    -0.5910 H     1 <1>   0.0800 
 29 H       -3.2800    -0.1570    -2.1410 H     1 <1>   0.0800 
 30 H       -2.0640     1.7600     1.3950 H     1 <1>   0.0800 
 31 H       -3.2380     0.4920     1.4640 H     1 <1>   0.0800 
 32 H        0.7400     2.4430    -2.2110 H     1 <1>   0.2700 
 33 H       -5.6080    -0.0810    -1.8050 H     1 <1>   0.0800 
 34 H       -5.0510     1.5400    -1.5800 H     1 <1>   0.0800 
 35 H       -3.9500     3.1080     0.1430 H     1 <1>   0.0800 
 36 H       -3.9430     3.0040     1.8600 H     1 <1>   0.0800 
 37 H       -6.1700     2.5740     0.5780 H     1 <1>   0.0800 
 38 H       -5.7630     1.6810     2.0040 H     1 <1>   0.0800 
 39 H       -0.5720     5.9690     1.5220 H     1 <1>   0.1500 
 40 H        2.6990     4.5930    -1.9320 H     1 <1>   0.1500 
 41 H        1.4630     7.3410     1.1020 H     1 <1>   0.1500 
 42 H        3.0760     6.6550    -0.6090 H     1 <1>   0.1500 
 43 H       -5.5770    -2.1390    -0.3410 H     1 <1>   0.0800 
 44 H       -7.1280    -1.5440    -0.8990 H     1 <1>   0.0800 
 45 H       -8.2150    -2.5060     1.1080 H     1 <1>   0.0800 
 46 H       -6.6710    -3.0910     1.6700 H     1 <1>   0.0800 
 47 H       -5.6870    -5.2230     0.4290 H     1 <1>   0.1500 
 48 H       -9.2670    -3.7610    -1.0120 H     1 <1>   0.1500 
@<TRIPOS>BOND
  1   1   2  2   
  2   2   3  am  
  3   2   4  1   
  4   3   5  1   
  5   3   6  1   
  6   4   7  2   
  7   4   8  1   
  8   5   9  1   
  9   5  28  1   
 10   5  29  1   
 11   6  10  1   
 12   6  30  1   
 13   6  31  1   
 14   7  11  1   
 15   8  12  1   
 16   8  32  1   
 17   9  13  1   
 18   9  33  1   
 19   9  34  1   
 20  10  14  1   
 21  10  35  1   
 22  10  36  1   
 23  11  12  ar  
 24  11  15  ar  
 25  12  16  ar  
 26  13  14  1   
 27  13  17  am  
 28  14  37  1   
 29  14  38  1   
 30  15  18  ar  
 31  15  39  1   
 32  16  19  ar  
 33  16  40  1   
 34  17  20  2   
 35  17  21  1   
 36  18  19  ar  
 37  18  41  1   
 38  19  42  1   
 39  21  22  1   
 40  21  43  1   
 41  21  44  1   
 42  22  23  1   
 43  22  45  1   
 44  22  46  1   
 45  23  24  1   
 46  23  25  1   
 47  24  26  2   
 48  24  47  1   
 49  25  27  2   
 50  25  48  1   
 51  26  27  1   
@<TRIPOS>SUBSTRUCTURE
  1 ****   3 GROUP 4 **** **** 0

# MOE 2024.06 (io_trps.svl 2023.06)
