@<TRIPOS>MOLECULE
NONAME
45 48 1 0 0 
SMALL
USER_CHARGES


@<TRIPOS>ATOM
  1 O       -3.1420     0.7470    -2.5230 O.2   1 <1>  -0.5700 
  2 C       -2.3400     0.7900    -1.6220 C.2   1 <1>   0.5690 
  3 N       -1.9310    -0.3320    -0.9830 N.am  1 <1>  -0.7300 
  4 C       -1.7770     2.1330    -1.1880 C.3   1 <1>  -0.0040 
  5 C       -2.4360    -1.6930    -1.2620 C.3   1 <1>   0.2200 
  6 C       -1.5780     2.2440     0.3350 C.3   1 <1>  -0.1950 
  7 C       -3.6060    -1.9820    -0.3390 C.3   1 <1>  -0.0800 
  8 C       -1.4150    -2.7330    -0.8140 C.3   1 <1>   0.1200 
  9 C       -0.6180     3.2360     0.9080 C.3   1 <1>  -0.2000 
 10 C       -0.3220     1.7640     0.9920 C.3   1 <1>  -0.2000 
 11 C       -2.8990    -2.4600     0.9320 C.3   1 <1>   0.1200 
 12 C       -4.5390    -3.0560    -0.9310 C.3   1 <1>  -0.0170 
 13 O       -1.6520    -2.9610     0.5450 O.3   1 <1>  -0.5600 
 14 C       -5.7720    -3.2700    -0.0590 C.ar  1 <1>  -0.1440 
 15 C       -6.8470    -2.3490    -0.0310 C.ar  1 <1>   0.0000 
 16 C       -5.8690    -4.3770     0.7320 C.ar  1 <1>  -0.1500 
 17 C       -7.9360    -2.6370     0.8280 C.ar  1 <1>   0.3100 
 18 C       -6.9090    -1.1660    -0.8050 C.ar  1 <1>  -0.1500 
 19 C       -6.9940    -4.5680     1.5420 C.ar  1 <1>   0.1600 
 20 N       -7.9930    -3.7470     1.6070 N.ar  1 <1>  -0.6200 
 21 C       -9.0130    -1.7380     0.8850 C.ar  1 <1>  -0.1500 
 22 C       -7.9750    -0.3120    -0.7270 C.ar  1 <1>  -0.1500 
 23 C       -9.0410    -0.5980     0.1290 C.ar  1 <1>  -0.1500 
 24 H       -1.3320    -0.2480    -0.1570 H     1 <1>   0.3700 
 25 H       -0.8440     2.2860    -1.6970 H     1 <1>   0.0800 
 26 H       -2.4550     2.9030    -1.5070 H     1 <1>   0.0800 
 27 H       -2.6840    -1.7850    -2.3060 H     1 <1>   0.0800 
 28 H       -2.5010     2.1000     0.8740 H     1 <1>   0.1000 
 29 H       -4.1740    -1.0910    -0.1430 H     1 <1>   0.0800 
 30 H       -0.4000    -2.4050    -0.9540 H     1 <1>   0.0800 
 31 H       -1.5710    -3.6630    -1.3300 H     1 <1>   0.0800 
 32 H       -0.0250     3.8420     0.2440 H     1 <1>   0.1000 
 33 H       -0.8910     3.7600     1.8070 H     1 <1>   0.1000 
 34 H       -0.3850     1.2850     1.9540 H     1 <1>   0.1000 
 35 H        0.4850     1.3780     0.3920 H     1 <1>   0.1000 
 36 H       -3.4400    -3.2280     1.4560 H     1 <1>   0.0800 
 37 H       -2.7220    -1.6330     1.5980 H     1 <1>   0.0800 
 38 H       -4.0050    -3.9850    -1.0330 H     1 <1>   0.0800 
 39 H       -4.8540    -2.7680    -1.9190 H     1 <1>   0.0800 
 40 H       -5.0940    -5.1210     0.7590 H     1 <1>   0.1500 
 41 H       -6.1030    -0.9240    -1.4730 H     1 <1>   0.1500 
 42 H       -7.0300    -5.4550     2.1520 H     1 <1>   0.1500 
 43 H       -9.8220    -1.9800     1.5480 H     1 <1>   0.1500 
 44 H       -8.0060     0.5860    -1.3210 H     1 <1>   0.1500 
 45 H       -9.8740     0.0830     0.1820 H     1 <1>   0.1500 
@<TRIPOS>BOND
  1   1   2  2   
  2   2   3  am  
  3   2   4  1   
  4   3   5  1   
  5   3  24  1   
  6   4   6  1   
  7   4  25  1   
  8   4  26  1   
  9   5   7  1   
 10   5   8  1   
 11   5  27  1   
 12   6   9  1   
 13   6  10  1   
 14   6  28  1   
 15   7  11  1   
 16   7  12  1   
 17   7  29  1   
 18   8  13  1   
 19   8  30  1   
 20   8  31  1   
 21   9  10  1   
 22   9  32  1   
 23   9  33  1   
 24  10  34  1   
 25  10  35  1   
 26  11  13  1   
 27  11  36  1   
 28  11  37  1   
 29  12  14  1   
 30  12  38  1   
 31  12  39  1   
 32  14  15  ar  
 33  14  16  ar  
 34  15  17  ar  
 35  15  18  ar  
 36  16  19  ar  
 37  16  40  1   
 38  17  20  ar  
 39  17  21  ar  
 40  18  22  ar  
 41  18  41  1   
 42  19  20  ar  
 43  19  42  1   
 44  21  23  ar  
 45  21  43  1   
 46  22  23  ar  
 47  22  44  1   
 48  23  45  1   
@<TRIPOS>SUBSTRUCTURE
  1 ****   7 GROUP 4 **** **** 0

# MOE 2024.06 (io_trps.svl 2023.06)
