@<TRIPOS>MOLECULE
NONAME
49 52 1 0 0 
SMALL
USER_CHARGES


@<TRIPOS>ATOM
  1 O        3.2640    -1.1790    -0.0610 O.3   1 <1>  -0.0190 
  2 N        2.3020    -1.6940    -0.7590 N.2   1 <1>  -0.4100 
  3 C        2.9940    -1.1570     1.2150 C.2   1 <1>  -0.0400 
  4 C        1.3700    -2.0310     0.0800 C.2   1 <1>   0.2350 
  5 C        1.7790    -1.6970     1.3790 C.2   1 <1>  -0.1500 
  6 C        4.0070    -0.5820     2.1890 C.3   1 <1>   0.3890 
  7 C        0.1100    -2.6470    -0.2860 C.ar  1 <1>   0.0540 
  8 N        4.0600     0.8950     2.0600 N.pl3 1 <1>  -0.8690 
  9 C       -0.6400    -3.3930     0.6250 C.ar  1 <1>   0.1600 
 10 C       -0.4100    -2.5220    -1.5670 C.ar  1 <1>  -0.1500 
 11 C        4.5390     1.6400     1.0530 C.ar  1 <1>   0.4100 
 12 N       -1.8010    -3.9790     0.3850 N.ar  1 <1>  -0.6200 
 13 C       -1.6160    -3.1270    -1.8430 C.ar  1 <1>  -0.1500 
 14 N        4.2160     2.9100     1.1100 N.ar  1 <1>  -0.6200 
 15 C        5.3120     1.1090     0.0030 C.ar  1 <1>  -0.1500 
 16 C       -2.2640    -3.8340    -0.8460 C.ar  1 <1>   0.1600 
 17 C        4.6110     3.6940     0.1160 C.ar  1 <1>   0.7710 
 18 C        5.6970     1.9250    -1.0070 C.ar  1 <1>   0.2180 
 19 N        5.3220     3.2230    -0.9230 N.ar  1 <1>  -0.1790 
 20 N        4.2890     5.0100     0.1430 N.pl3 1 <1>  -0.8380 
 21 C        6.5130     1.4580    -2.2060 C.3   1 <1>  -0.0170 
 22 C        3.4750     5.5900     1.2490 C.3   1 <1>   0.2090 
 23 C        4.6660     6.0790    -0.8220 C.3   1 <1>   0.2090 
 24 C        7.8880     2.1370    -2.2690 C.3   1 <1>  -0.2400 
 25 C        3.1650     7.0150     0.8140 C.3   1 <1>  -0.1600 
 26 C        4.3050     7.3840    -0.1270 C.3   1 <1>  -0.1600 
 27 H        1.2170    -1.8450     2.2820 H     1 <1>   0.1500 
 28 H        4.9780    -1.0060     2.0020 H     1 <1>   0.0800 
 29 H        3.7210    -0.8350     3.1960 H     1 <1>   0.0800 
 30 H        3.4740     1.3960     2.7340 H     1 <1>   0.4000 
 31 H       -0.2520    -3.5180     1.6200 H     1 <1>   0.1500 
 32 H        0.1180    -1.9660    -2.3220 H     1 <1>   0.1500 
 33 H       -2.0530    -3.0540    -2.8230 H     1 <1>   0.1500 
 34 H        5.5740     0.0690     0.0180 H     1 <1>   0.1500 
 35 H       -3.2080    -4.3020    -1.0700 H     1 <1>   0.1500 
 36 H        5.5590     3.8990    -1.6350 H     1 <1>   0.4570 
 37 H        5.9680     1.6540    -3.1130 H     1 <1>   0.0800 
 38 H        6.6570     0.3920    -2.1460 H     1 <1>   0.0800 
 39 H        4.0580     5.5940     2.1560 H     1 <1>   0.0800 
 40 H        2.5710     5.0250     1.4090 H     1 <1>   0.0800 
 41 H        4.0780     5.9760    -1.7200 H     1 <1>   0.0800 
 42 H        5.7160     6.0560    -1.0580 H     1 <1>   0.0800 
 43 H        7.8000     3.1990    -2.4050 H     1 <1>   0.0800 
 44 H        8.4510     1.7390    -3.0970 H     1 <1>   0.0800 
 45 H        8.4440     1.9450    -1.3670 H     1 <1>   0.0800 
 46 H        3.0930     7.6820     1.6550 H     1 <1>   0.0800 
 47 H        2.2300     7.0230     0.2820 H     1 <1>   0.0800 
 48 H        4.0250     8.1510    -0.8280 H     1 <1>   0.0800 
 49 H        5.1520     7.7270     0.4440 H     1 <1>   0.0800 
@<TRIPOS>BOND
  1   1   2  1   
  2   1   3  1   
  3   2   4  2   
  4   3   5  2   
  5   3   6  1   
  6   4   5  1   
  7   4   7  1   
  8   5  27  1   
  9   6   8  1   
 10   6  28  1   
 11   6  29  1   
 12   7   9  ar  
 13   7  10  ar  
 14   8  11  1   
 15   8  30  1   
 16   9  12  ar  
 17   9  31  1   
 18  10  13  ar  
 19  10  32  1   
 20  11  14  ar  
 21  11  15  ar  
 22  12  16  ar  
 23  13  16  ar  
 24  13  33  1   
 25  14  17  ar  
 26  15  18  ar  
 27  15  34  1   
 28  16  35  1   
 29  17  19  ar  
 30  17  20  1   
 31  18  19  ar  
 32  18  21  1   
 33  19  36  1   
 34  20  22  1   
 35  20  23  1   
 36  21  24  1   
 37  21  37  1   
 38  21  38  1   
 39  22  25  1   
 40  22  39  1   
 41  22  40  1   
 42  23  26  1   
 43  23  41  1   
 44  23  42  1   
 45  24  43  1   
 46  24  44  1   
 47  24  45  1   
 48  25  26  1   
 49  25  46  1   
 50  25  47  1   
 51  26  48  1   
 52  26  49  1   
@<TRIPOS>SUBSTRUCTURE
  1 ****  11 GROUP 4 **** **** 0

# MOE 2024.06 (io_trps.svl 2023.06)
