@<TRIPOS>MOLECULE
NONAME
43 44 1 0 0 
SMALL
USER_CHARGES


@<TRIPOS>ATOM
  1 O        1.8860     0.6240    -0.5640 O.3   1 <1>  -0.2800 
  2 C        2.2290     0.4230     0.6940 C.2   1 <1>  -0.0400 
  3 C        2.5630    -0.2290    -1.3040 C.2   1 <1>  -0.0400 
  4 C        3.1560    -0.5560     0.7820 C.2   1 <1>  -0.1500 
  5 C        1.5690     1.2820     1.7520 C.3   1 <1>   0.5230 
  6 C        3.3730    -0.9840    -0.5330 C.2   1 <1>  -0.1500 
  7 C        2.3380    -0.2420    -2.8020 C.3   1 <1>  -0.0600 
  8 N        1.7890     2.7010     1.3770 N.4   1 <1>  -0.9590 
  9 C        3.2020     3.1030     1.5600 C.3   1 <1>   0.5230 
 10 C        0.8280     3.6320     2.0410 C.3   1 <1>   0.2630 
 11 C        3.4030     4.3740     0.7790 C.2   1 <1>  -0.3320 
 12 N        3.7420     4.4430    -0.5300 N.pl3 1 <1>   0.0480 
 13 C        3.3000     5.6490     1.2170 C.2   1 <1>   0.0770 
 14 C        3.7920     5.7680    -0.7930 C.2   1 <1>   0.0360 
 15 C        4.0780     3.3610    -1.4890 C.3   1 <1>   0.0960 
 16 N        3.5270     6.5190     0.2250 N.2   1 <1>  -0.5650 
 17 C        5.4910     2.7910    -1.2490 C.3   1 <1>  -0.0800 
 18 C        6.5810     3.8670    -1.3660 C.3   1 <1>  -0.2400 
 19 C        5.7810     1.6700    -2.2540 C.3   1 <1>  -0.2400 
 20 H        3.6480    -0.9680     1.6470 H     1 <1>   0.1500 
 21 H        1.9800     1.0700     2.7250 H     1 <1>   0.0800 
 22 H        0.5140     1.0620     1.7620 H     1 <1>   0.0800 
 23 H        4.0490    -1.7670    -0.8320 H     1 <1>   0.1500 
 24 H        2.5740     0.7190    -3.2210 H     1 <1>   0.0800 
 25 H        1.3090    -0.4710    -3.0130 H     1 <1>   0.0800 
 26 H        2.9590    -0.9860    -3.2650 H     1 <1>   0.0800 
 27 H        1.6250     2.7340     0.3600 H     1 <1>   0.4500 
 28 H        3.8690     2.3410     1.1910 H     1 <1>   0.0800 
 29 H        3.4110     3.2720     2.6040 H     1 <1>   0.0800 
 30 H        0.9930     3.6510     3.1060 H     1 <1>   0.0800 
 31 H       -0.1870     3.3220     1.8520 H     1 <1>   0.0800 
 32 H        0.9520     4.6320     1.6550 H     1 <1>   0.0800 
 33 H        3.0680     6.0070     2.2080 H     1 <1>   0.1500 
 34 H        4.0420     6.1480    -1.7690 H     1 <1>   0.1500 
 35 H        4.0180     3.7600    -2.4860 H     1 <1>   0.0800 
 36 H        3.3470     2.5800    -1.4020 H     1 <1>   0.0800 
 37 H        5.5350     2.3640    -0.2620 H     1 <1>   0.0800 
 38 H        6.5520     4.3390    -2.3330 H     1 <1>   0.0800 
 39 H        7.5550     3.4280    -1.2330 H     1 <1>   0.0800 
 40 H        6.4600     4.6250    -0.6110 H     1 <1>   0.0800 
 41 H        5.7510     2.0430    -3.2630 H     1 <1>   0.0800 
 42 H        5.0620     0.8780    -2.1580 H     1 <1>   0.0800 
 43 H        6.7580     1.2540    -2.0770 H     1 <1>   0.0800 
@<TRIPOS>BOND
  1   1   2  1   
  2   1   3  1   
  3   2   4  2   
  4   2   5  1   
  5   3   6  2   
  6   3   7  1   
  7   4   6  1   
  8   4  20  1   
  9   5   8  1   
 10   5  21  1   
 11   5  22  1   
 12   6  23  1   
 13   7  24  1   
 14   7  25  1   
 15   7  26  1   
 16   8   9  1   
 17   8  10  1   
 18   8  27  1   
 19   9  11  1   
 20   9  28  1   
 21   9  29  1   
 22  10  30  1   
 23  10  31  1   
 24  10  32  1   
 25  11  12  1   
 26  11  13  2   
 27  12  14  1   
 28  12  15  1   
 29  13  16  1   
 30  13  33  1   
 31  14  16  2   
 32  14  34  1   
 33  15  17  1   
 34  15  35  1   
 35  15  36  1   
 36  17  18  1   
 37  17  19  1   
 38  17  37  1   
 39  18  38  1   
 40  18  39  1   
 41  18  40  1   
 42  19  41  1   
 43  19  42  1   
 44  19  43  1   
@<TRIPOS>SUBSTRUCTURE
  1 ****  15 GROUP 4 **** **** 0

# MOE 2024.06 (io_trps.svl 2023.06)
