@<TRIPOS>MOLECULE
NONAME
55 58 1 0 0 
SMALL
USER_CHARGES


@<TRIPOS>ATOM
  1 S        0.3310    -0.5690     0.1290 S.o2  1 <1>   1.3330 
  2 O        1.0060    -1.7360     0.6550 O.2   1 <1>  -0.6500 
  3 O        0.1230    -0.4540    -1.2980 O.2   1 <1>  -0.6500 
  4 N       -1.1550    -0.3780     0.9340 N.am  1 <1>  -0.8490 
  5 C        1.2590     0.8600     0.6960 C.3   1 <1>  -0.0550 
  6 C       -2.3220    -0.1000     0.0900 C.3   1 <1>   0.1960 
  7 C       -1.4550    -1.3480     1.9940 C.3   1 <1>   0.1960 
  8 C        0.6070     2.2310     0.4300 C.3   1 <1>  -0.0800 
  9 C       -2.8650    -1.3780    -0.5550 C.3   1 <1>  -0.1600 
 10 C       -1.9750    -2.6690     1.4170 C.3   1 <1>  -0.1600 
 11 C        0.5590     2.6310    -1.0450 C.3   1 <1>  -0.1600 
 12 C        1.3830     3.3740     1.0790 C.3   1 <1>  -0.1600 
 13 C       -3.1870    -2.4560     0.4960 C.3   1 <1>   0.4240 
 14 C        0.4890     4.1600    -1.0550 C.3   1 <1>  -0.1600 
 15 C        0.9150     4.6260     0.3410 C.3   1 <1>  -0.1600 
 16 O       -4.1660    -1.9070     1.3530 O.3   1 <1>  -0.5600 
 17 C       -3.6640    -3.7950    -0.1370 C.ar  1 <1>  -0.1440 
 18 C       -5.4980    -2.0090     0.9670 C.3   1 <1>   0.1200 
 19 C       -2.8410    -4.5540    -0.9800 C.ar  1 <1>   0.0820 
 20 C       -4.9480    -4.2720     0.1260 C.ar  1 <1>  -0.1440 
 21 C       -5.8900    -3.4780     1.0060 C.3   1 <1>  -0.0170 
 22 O       -1.5970    -4.0910    -1.2660 O.3   1 <1>  -0.3630 
 23 C       -3.2970    -5.7560    -1.5140 C.ar  1 <1>  -0.1500 
 24 C       -5.3910    -5.4700    -0.4090 C.ar  1 <1>  -0.1500 
 25 C       -0.6530    -4.8130    -2.0230 C.3   1 <1>   0.0400 
 26 C       -4.5670    -6.2140    -1.2280 C.ar  1 <1>  -0.1500 
 27 H        2.2310     0.8420     0.2440 H     1 <1>   0.0800 
 28 H        1.4000     0.7610     1.7540 H     1 <1>   0.0800 
 29 H       -2.0640     0.6160    -0.6720 H     1 <1>   0.0800 
 30 H       -3.0920     0.3410     0.7000 H     1 <1>   0.0800 
 31 H       -2.2060    -0.9290     2.6430 H     1 <1>   0.0800 
 32 H       -0.5770    -1.5280     2.5910 H     1 <1>   0.0800 
 33 H       -0.3950     2.2400     0.8250 H     1 <1>   0.0800 
 34 H       -2.1340    -1.7380    -1.2500 H     1 <1>   0.0800 
 35 H       -3.7420    -1.1540    -1.1300 H     1 <1>   0.0800 
 36 H       -2.2590    -3.3260     2.2170 H     1 <1>   0.0800 
 37 H       -1.1710    -3.1450     0.8960 H     1 <1>   0.0800 
 38 H       -0.2820     2.1930    -1.5540 H     1 <1>   0.0800 
 39 H        1.4630     2.3160    -1.5400 H     1 <1>   0.0800 
 40 H        2.4390     3.2420     0.9130 H     1 <1>   0.0800 
 41 H        1.1970     3.4400     2.1380 H     1 <1>   0.0800 
 42 H       -0.5170     4.4860    -1.2580 H     1 <1>   0.0800 
 43 H        1.1410     4.5600    -1.8130 H     1 <1>   0.0800 
 44 H        1.6940     5.3680     0.2930 H     1 <1>   0.0800 
 45 H        0.0640     5.0470     0.8500 H     1 <1>   0.0800 
 46 H       -5.6190    -1.5990    -0.0200 H     1 <1>   0.0800 
 47 H       -6.0890    -1.4410     1.6640 H     1 <1>   0.0800 
 48 H       -6.9020    -3.5820     0.6610 H     1 <1>   0.0800 
 49 H       -5.8360    -3.8390     2.0180 H     1 <1>   0.0800 
 50 H       -2.6790    -6.3510    -2.1580 H     1 <1>   0.1500 
 51 H       -6.3810    -5.8290    -0.1900 H     1 <1>   0.1500 
 52 H        0.2530    -4.2350    -2.0570 H     1 <1>   0.0800 
 53 H       -1.0350    -4.9510    -3.0180 H     1 <1>   0.0800 
 54 H       -0.4670    -5.7560    -1.5420 H     1 <1>   0.0800 
 55 H       -4.9140    -7.1440    -1.6420 H     1 <1>   0.1500 
@<TRIPOS>BOND
  1   1   2  2   
  2   1   3  2   
  3   1   4  am  
  4   1   5  1   
  5   4   6  1   
  6   4   7  1   
  7   5   8  1   
  8   5  27  1   
  9   5  28  1   
 10   6   9  1   
 11   6  29  1   
 12   6  30  1   
 13   7  10  1   
 14   7  31  1   
 15   7  32  1   
 16   8  11  1   
 17   8  12  1   
 18   8  33  1   
 19   9  13  1   
 20   9  34  1   
 21   9  35  1   
 22  10  13  1   
 23  10  36  1   
 24  10  37  1   
 25  11  14  1   
 26  11  38  1   
 27  11  39  1   
 28  12  15  1   
 29  12  40  1   
 30  12  41  1   
 31  13  16  1   
 32  13  17  1   
 33  14  15  1   
 34  14  42  1   
 35  14  43  1   
 36  15  44  1   
 37  15  45  1   
 38  16  18  1   
 39  17  19  ar  
 40  17  20  ar  
 41  18  21  1   
 42  18  46  1   
 43  18  47  1   
 44  19  22  1   
 45  19  23  ar  
 46  20  21  1   
 47  20  24  ar  
 48  21  48  1   
 49  21  49  1   
 50  22  25  1   
 51  23  26  ar  
 52  23  50  1   
 53  24  26  ar  
 54  24  51  1   
 55  25  52  1   
 56  25  53  1   
 57  25  54  1   
 58  26  55  1   
@<TRIPOS>SUBSTRUCTURE
  1 ****   9 GROUP 4 **** **** 0

# MOE 2024.06 (io_trps.svl 2023.06)
