@<TRIPOS>MOLECULE
NONAME
48 50 1 0 0 
SMALL
USER_CHARGES


@<TRIPOS>ATOM
  1 O        0.1560    -0.4270     0.1000 O.3   1 <1>  -0.3630 
  2 C        0.0100    -1.7630     0.2710 C.ar  1 <1>   0.0830 
  3 C        1.2430     0.1120    -0.6170 C.3   1 <1>   0.1200 
  4 C        0.8640    -2.7160    -0.2760 C.ar  1 <1>  -0.1500 
  5 C       -1.0630    -2.1760     1.0420 C.ar  1 <1>  -0.1500 
  6 C        1.1160     1.6320    -0.5910 C.3   1 <1>  -0.2400 
  7 C        0.6350    -4.0630    -0.0530 C.ar  1 <1>  -0.1500 
  8 C       -1.2920    -3.5210     1.2660 C.ar  1 <1>  -0.1500 
  9 C       -0.4480    -4.4730     0.7130 C.ar  1 <1>  -0.1430 
 10 C       -0.7180    -5.9470     0.9460 C.3   1 <1>   0.4860 
 11 N       -1.2700    -6.5360    -0.3070 N.4   1 <1>  -0.9590 
 12 C       -2.6260    -5.9680    -0.6040 C.3   1 <1>   0.3430 
 13 C       -1.4450    -8.0160    -0.1640 C.3   1 <1>   0.3430 
 14 C       -3.6280    -6.9870    -0.0550 C.3   1 <1>   0.2000 
 15 C       -2.9350    -8.3130    -0.3670 C.3   1 <1>  -0.0800 
 16 O       -3.7180    -6.8130     1.3240 O.3   1 <1>  -0.6800 
 17 C       -3.4170    -9.5430     0.4260 C.3   1 <1>  -0.0170 
 18 C       -2.5420   -10.7430     0.1060 C.ar  1 <1>  -0.1430 
 19 C       -1.6240   -11.2390     1.0120 C.ar  1 <1>  -0.1500 
 20 C       -2.6150   -11.3960    -1.1090 C.ar  1 <1>  -0.1500 
 21 C       -0.8310   -12.3190     0.6600 C.ar  1 <1>   0.1600 
 22 C       -1.7750   -12.4680    -1.3610 C.ar  1 <1>   0.1600 
 23 N       -0.8780   -12.9350    -0.5090 N.ar  1 <1>  -0.6200 
 24 H        2.1550    -0.2010    -0.1400 H     1 <1>   0.0800 
 25 H        1.2020    -0.2550    -1.6280 H     1 <1>   0.0800 
 26 H        1.7090    -2.4240    -0.8720 H     1 <1>   0.1500 
 27 H       -1.7130    -1.4310     1.4670 H     1 <1>   0.1500 
 28 H        1.1420     1.9880     0.4230 H     1 <1>   0.0800 
 29 H        0.1940     1.9340    -1.0550 H     1 <1>   0.0800 
 30 H        1.9330     2.0750    -1.1310 H     1 <1>   0.0800 
 31 H        1.3150    -4.7800    -0.4800 H     1 <1>   0.1500 
 32 H       -2.1320    -3.8110     1.8760 H     1 <1>   0.1500 
 33 H       -1.4200    -6.0690     1.7550 H     1 <1>   0.0800 
 34 H        0.2030    -6.4390     1.2150 H     1 <1>   0.0800 
 35 H       -0.6250    -6.2980    -1.0700 H     1 <1>   0.4500 
 36 H       -2.7760    -4.9960    -0.1640 H     1 <1>   0.0800 
 37 H       -2.7550    -5.8910    -1.6710 H     1 <1>   0.0800 
 38 H       -0.8500    -8.5560    -0.8840 H     1 <1>   0.0800 
 39 H       -1.1540    -8.3270     0.8270 H     1 <1>   0.0800 
 40 H       -4.6080    -6.8840    -0.4910 H     1 <1>   0.0800 
 41 H       -3.0750    -8.5190    -1.4150 H     1 <1>   0.0800 
 42 H       -4.5330    -7.2270     1.6810 H     1 <1>   0.4000 
 43 H       -4.4390    -9.7680     0.1700 H     1 <1>   0.0800 
 44 H       -3.3800    -9.3550     1.4850 H     1 <1>   0.0800 
 45 H       -1.5150   -10.8080     1.9900 H     1 <1>   0.1500 
 46 H       -3.3150   -11.0900    -1.8640 H     1 <1>   0.1500 
 47 H       -0.1220   -12.6980     1.3760 H     1 <1>   0.1500 
 48 H       -1.8430   -12.9680    -2.3130 H     1 <1>   0.1500 
@<TRIPOS>BOND
  1   1   2  1   
  2   1   3  1   
  3   2   4  ar  
  4   2   5  ar  
  5   3   6  1   
  6   3  24  1   
  7   3  25  1   
  8   4   7  ar  
  9   4  26  1   
 10   5   8  ar  
 11   5  27  1   
 12   6  28  1   
 13   6  29  1   
 14   6  30  1   
 15   7   9  ar  
 16   7  31  1   
 17   8   9  ar  
 18   8  32  1   
 19   9  10  1   
 20  10  11  1   
 21  10  33  1   
 22  10  34  1   
 23  11  12  1   
 24  11  13  1   
 25  11  35  1   
 26  12  14  1   
 27  12  36  1   
 28  12  37  1   
 29  13  15  1   
 30  13  38  1   
 31  13  39  1   
 32  14  15  1   
 33  14  16  1   
 34  14  40  1   
 35  15  17  1   
 36  15  41  1   
 37  16  42  1   
 38  17  18  1   
 39  17  43  1   
 40  17  44  1   
 41  18  19  ar  
 42  18  20  ar  
 43  19  21  ar  
 44  19  45  1   
 45  20  22  ar  
 46  20  46  1   
 47  21  23  ar  
 48  21  47  1   
 49  22  23  ar  
 50  22  48  1   
@<TRIPOS>SUBSTRUCTURE
  1 ****  11 GROUP 4 **** **** 0

# MOE 2024.06 (io_trps.svl 2023.06)
