@<TRIPOS>MOLECULE
NONAME
42 43 1 0 0 
SMALL
USER_CHARGES


@<TRIPOS>ATOM
  1 N        0.6690     0.4960     1.4340 N.ar  1 <1>  -0.6200 
  2 C        1.6180     0.0720     0.6170 C.ar  1 <1>   0.4100 
  3 C        0.8640     1.6890     1.9580 C.ar  1 <1>   0.4700 
  4 N        1.4580    -1.1700     0.0280 N.pl3 1 <1>  -0.8380 
  5 C        2.7260     0.8450     0.3650 C.ar  1 <1>  -0.1500 
  6 N        1.8790     2.5120     1.7820 N.ar  1 <1>  -0.6200 
  7 C        0.6090    -2.2000     0.6880 C.3   1 <1>   0.1290 
  8 C        1.5660    -1.3090    -1.4480 C.3   1 <1>   0.1290 
  9 C        2.8230     2.0710     0.9730 C.ar  1 <1>   0.4100 
 10 N        3.9080     2.8800     0.7560 N.pl3 1 <1>  -0.8690 
 11 C        4.2380     3.9880     1.6630 C.3   1 <1>   0.3890 
 12 C        5.4710     4.6630     1.1080 C.2   1 <1>  -0.3320 
 13 N        5.5060     5.3800    -0.0360 N.pl3 1 <1>   0.0480 
 14 C        6.7230     4.6890     1.6160 C.2   1 <1>   0.0770 
 15 C        6.7920     5.7850    -0.1420 C.2   1 <1>   0.0360 
 16 C        4.4060     5.6620    -0.9880 C.3   1 <1>   0.0960 
 17 N        7.5530     5.3940     0.8280 N.2   1 <1>  -0.5650 
 18 C        3.5430     6.8580    -0.5440 C.3   1 <1>  -0.0800 
 19 C        2.3600     7.0320    -1.5050 C.3   1 <1>  -0.2400 
 20 C        4.3460     8.1660    -0.4780 C.3   1 <1>  -0.2400 
 21 H        0.0890     2.0380     2.6190 H     1 <1>   0.1500 
 22 H        3.4960     0.4910    -0.2860 H     1 <1>   0.1500 
 23 H        0.7100    -2.1290     1.7580 H     1 <1>   0.0800 
 24 H        0.9130    -3.1840     0.3780 H     1 <1>   0.0800 
 25 H       -0.4230    -2.0430     0.4260 H     1 <1>   0.0800 
 26 H        1.9230    -0.3960    -1.8920 H     1 <1>   0.0800 
 27 H        0.6010    -1.5350    -1.8660 H     1 <1>   0.0800 
 28 H        2.2500    -2.1060    -1.6870 H     1 <1>   0.0800 
 29 H        4.7500     2.4380     0.3860 H     1 <1>   0.4000 
 30 H        4.4330     3.5990     2.6490 H     1 <1>   0.0800 
 31 H        3.4160     4.6800     1.7210 H     1 <1>   0.0800 
 32 H        7.0790     4.2270     2.5220 H     1 <1>   0.1500 
 33 H        7.1320     6.3840    -0.9680 H     1 <1>   0.1500 
 34 H        3.7920     4.7820    -1.0680 H     1 <1>   0.0800 
 35 H        4.8320     5.8570    -1.9550 H     1 <1>   0.0800 
 36 H        3.1430     6.6480     0.4340 H     1 <1>   0.0800 
 37 H        2.7060     7.2480    -2.5010 H     1 <1>   0.0800 
 38 H        1.7300     7.8410    -1.1790 H     1 <1>   0.0800 
 39 H        1.7660     6.1360    -1.5330 H     1 <1>   0.0800 
 40 H        4.7910     8.3900    -1.4320 H     1 <1>   0.0800 
 41 H        5.1270     8.0970     0.2590 H     1 <1>   0.0800 
 42 H        3.7050     8.9840    -0.2000 H     1 <1>   0.0800 
@<TRIPOS>BOND
  1   1   2  ar  
  2   1   3  ar  
  3   2   4  1   
  4   2   5  ar  
  5   3   6  ar  
  6   3  21  1   
  7   4   7  1   
  8   4   8  1   
  9   5   9  ar  
 10   5  22  1   
 11   6   9  ar  
 12   7  23  1   
 13   7  24  1   
 14   7  25  1   
 15   8  26  1   
 16   8  27  1   
 17   8  28  1   
 18   9  10  1   
 19  10  11  1   
 20  10  29  1   
 21  11  12  1   
 22  11  30  1   
 23  11  31  1   
 24  12  13  1   
 25  12  14  2   
 26  13  15  1   
 27  13  16  1   
 28  14  17  1   
 29  14  32  1   
 30  15  17  2   
 31  15  33  1   
 32  16  18  1   
 33  16  34  1   
 34  16  35  1   
 35  18  19  1   
 36  18  20  1   
 37  18  36  1   
 38  19  37  1   
 39  19  38  1   
 40  19  39  1   
 41  20  40  1   
 42  20  41  1   
 43  20  42  1   
@<TRIPOS>SUBSTRUCTURE
  1 ****  10 GROUP 4 **** **** 0

# MOE 2024.06 (io_trps.svl 2023.06)
