@<TRIPOS>MOLECULE
NONAME
39 41 1 0 0 
SMALL
USER_CHARGES


@<TRIPOS>ATOM
  1 O        0.1720    -0.2610    -0.1590 O.2   1 <1>  -0.5700 
  2 C        1.2760    -0.7730    -0.0950 C.2   1 <1>   0.5440 
  3 N        2.3800     0.0290     0.0200 N.am  1 <1>  -0.4930 
  4 C        1.4100    -2.2120    -0.1310 C.ar  1 <1>   0.0860 
  5 C        2.4610     1.4440     0.1280 C.2   1 <1>   0.0630 
  6 C        0.3060    -3.0300     0.1120 C.ar  1 <1>   0.1600 
  7 C        2.6120    -2.8640    -0.4020 C.ar  1 <1>  -0.1500 
  8 C        3.6030     2.1690     0.0380 C.2   1 <1>  -0.0680 
  9 C        1.4570     2.3820     0.3800 C.2   1 <1>   0.1390 
 10 N        0.2980    -4.3510     0.1230 N.ar  1 <1>  -0.6200 
 11 C        2.6210    -4.2380    -0.3960 C.ar  1 <1>  -0.1500 
 12 N        3.2440     3.4600     0.2640 N.pl3 1 <1>   0.3140 
 13 N        4.9320     1.7580    -0.2340 N.pl3 1 <1>  -0.8530 
 14 N        1.9130     3.5990     0.4630 N.2   1 <1>  -0.7070 
 15 C        1.4570    -4.9530    -0.1240 C.ar  1 <1>   0.4100 
 16 C        4.1960     4.5800     0.2530 C.3   1 <1>   0.0960 
 17 C        5.9190     2.8480    -0.4780 C.3   1 <1>   0.2090 
 18 N        1.4730    -6.3330    -0.1060 N.pl3 1 <1>  -0.8380 
 19 C        5.6330     4.0530     0.4310 C.3   1 <1>  -0.1600 
 20 C        2.4820    -7.0690     0.7000 C.3   1 <1>   0.1290 
 21 C        0.2280    -7.0970    -0.3980 C.3   1 <1>   0.1290 
 22 H        3.2830    -0.4220     0.1520 H     1 <1>   0.3700 
 23 H       -0.6370    -2.5490     0.3120 H     1 <1>   0.1500 
 24 H        3.5120    -2.3200    -0.6230 H     1 <1>   0.1500 
 25 H        0.4170     2.1290     0.4980 H     1 <1>   0.1500 
 26 H        3.5190    -4.7830    -0.6100 H     1 <1>   0.1500 
 27 H        4.9760     1.0540    -0.9800 H     1 <1>   0.4000 
 28 H        3.9380     5.2600     1.0440 H     1 <1>   0.0800 
 29 H        4.0960     5.0860    -0.6890 H     1 <1>   0.0800 
 30 H        5.8670     3.1480    -1.5120 H     1 <1>   0.0800 
 31 H        6.9110     2.4750    -0.2820 H     1 <1>   0.0800 
 32 H        5.7770     3.7570     1.4550 H     1 <1>   0.0800 
 33 H        6.3320     4.8410     0.2190 H     1 <1>   0.0800 
 34 H        3.1830    -6.3860     1.1470 H     1 <1>   0.0800 
 35 H        3.0150    -7.7590     0.0700 H     1 <1>   0.0800 
 36 H        1.9920    -7.6160     1.4870 H     1 <1>   0.0800 
 37 H       -0.3660    -6.5690    -1.1250 H     1 <1>   0.0800 
 38 H       -0.3480    -7.2100     0.5040 H     1 <1>   0.0800 
 39 H        0.4730    -8.0660    -0.7930 H     1 <1>   0.0800 
@<TRIPOS>BOND
  1   1   2  2   
  2   2   3  am  
  3   2   4  1   
  4   3   5  1   
  5   3  22  1   
  6   4   6  ar  
  7   4   7  ar  
  8   5   8  2   
  9   5   9  1   
 10   6  10  ar  
 11   6  23  1   
 12   7  11  ar  
 13   7  24  1   
 14   8  12  1   
 15   8  13  1   
 16   9  14  2   
 17   9  25  1   
 18  10  15  ar  
 19  11  15  ar  
 20  11  26  1   
 21  12  14  1   
 22  12  16  1   
 23  13  17  1   
 24  13  27  1   
 25  15  18  1   
 26  16  19  1   
 27  16  28  1   
 28  16  29  1   
 29  17  19  1   
 30  17  30  1   
 31  17  31  1   
 32  18  20  1   
 33  18  21  1   
 34  19  32  1   
 35  19  33  1   
 36  20  34  1   
 37  20  35  1   
 38  20  36  1   
 39  21  37  1   
 40  21  38  1   
 41  21  39  1   
@<TRIPOS>SUBSTRUCTURE
  1 ****   3 GROUP 4 **** **** 0

# MOE 2024.06 (io_trps.svl 2023.06)
