@<TRIPOS>MOLECULE
NONAME
50 52 1 0 0 
SMALL
USER_CHARGES


@<TRIPOS>ATOM
  1 CL       2.0170    -6.1700    -2.5690 Cl    1 <1>  -0.1770 
  2 C        0.8640    -5.5070    -1.4370 C.ar  1 <1>   0.1770 
  3 C       -0.1720    -4.7240    -1.9080 C.ar  1 <1>  -0.1500 
  4 C        1.0070    -5.7750    -0.0900 C.ar  1 <1>  -0.1500 
  5 C       -1.0940    -4.1970    -1.0160 C.ar  1 <1>  -0.1440 
  6 C        0.0910    -5.2520     0.8050 C.ar  1 <1>  -0.1500 
  7 C       -0.9680    -4.4670     0.3470 C.ar  1 <1>   0.0830 
  8 C       -2.2260    -3.3220    -1.5380 C.3   1 <1>  -0.0960 
  9 O       -1.9100    -3.9380     1.1720 O.3   1 <1>  -0.3630 
 10 C       -1.8860    -4.0950     2.5860 C.3   1 <1>   0.1810 
 11 C       -2.1640    -5.5240     3.0670 C.2   1 <1>   0.5690 
 12 O       -1.3570    -5.9810     3.8460 O.2   1 <1>  -0.5700 
 13 N       -3.2700    -6.2540     2.6820 N.am  1 <1>  -0.6600 
 14 C       -4.2950    -5.7360     1.7240 C.3   1 <1>   0.2200 
 15 C       -3.4510    -7.6450     3.2080 C.3   1 <1>   0.0600 
 16 C       -4.1770    -6.3800     0.3470 C.3   1 <1>  -0.1600 
 17 C       -5.7430    -5.9920     2.1350 C.3   1 <1>  -0.1600 
 18 C       -5.5240    -6.0880    -0.3250 C.3   1 <1>  -0.0800 
 19 C       -6.5330    -5.8590     0.8250 C.3   1 <1>  -0.0800 
 20 C       -5.9270    -7.1720    -1.3430 C.3   1 <1>   0.1400 
 21 C       -7.7630    -6.7820     0.7610 C.3   1 <1>  -0.0990 
 22 N       -7.3730    -7.0610    -1.6590 N.am  1 <1>  -0.6600 
 23 C       -8.2860    -6.8730    -0.6580 C.2   1 <1>   0.5690 
 24 C       -7.7640    -7.2100    -3.0860 C.3   1 <1>   0.0600 
 25 O       -9.4740    -6.7820    -0.8500 O.2   1 <1>  -0.5700 
 26 H       -0.2440    -4.5330    -2.9630 H     1 <1>   0.1500 
 27 H        1.8250    -6.3850     0.2510 H     1 <1>   0.1500 
 28 H        0.2230    -5.4720     1.8480 H     1 <1>   0.1500 
 29 H       -2.1940    -3.2410    -2.6090 H     1 <1>   0.0800 
 30 H       -2.1440    -2.3360    -1.1170 H     1 <1>   0.0800 
 31 H       -3.1760    -3.7380    -1.2540 H     1 <1>   0.0800 
 32 H       -0.9260    -3.7670     2.9410 H     1 <1>   0.0800 
 33 H       -2.6340    -3.4430     2.9930 H     1 <1>   0.0800 
 34 H       -4.1910    -4.6720     1.6060 H     1 <1>   0.0800 
 35 H       -3.8720    -8.2880     2.4570 H     1 <1>   0.0800 
 36 H       -4.1030    -7.6240     4.0620 H     1 <1>   0.0800 
 37 H       -2.5060    -8.0630     3.5100 H     1 <1>   0.0800 
 38 H       -3.3570    -5.9690    -0.2120 H     1 <1>   0.0800 
 39 H       -4.0390    -7.4400     0.4460 H     1 <1>   0.0800 
 40 H       -5.8630    -6.9870     2.5210 H     1 <1>   0.0800 
 41 H       -6.0750    -5.2810     2.8700 H     1 <1>   0.0800 
 42 H       -5.4310    -5.1600    -0.8630 H     1 <1>   0.0800 
 43 H       -6.8840    -4.8430     0.7420 H     1 <1>   0.0800 
 44 H       -5.7450    -8.1520    -0.9360 H     1 <1>   0.0800 
 45 H       -5.3390    -7.0630    -2.2390 H     1 <1>   0.0800 
 46 H       -8.5380    -6.4120     1.4080 H     1 <1>   0.0800 
 47 H       -7.5080    -7.7770     1.0760 H     1 <1>   0.0800 
 48 H       -7.4420    -8.1680    -3.4540 H     1 <1>   0.0800 
 49 H       -7.3100    -6.4300    -3.6710 H     1 <1>   0.0800 
 50 H       -8.8340    -7.1420    -3.1920 H     1 <1>   0.0800 
@<TRIPOS>BOND
  1   1   2  1   
  2   2   3  ar  
  3   2   4  ar  
  4   3   5  ar  
  5   3  26  1   
  6   4   6  ar  
  7   4  27  1   
  8   5   7  ar  
  9   5   8  1   
 10   6   7  ar  
 11   6  28  1   
 12   7   9  1   
 13   8  29  1   
 14   8  30  1   
 15   8  31  1   
 16   9  10  1   
 17  10  11  1   
 18  10  32  1   
 19  10  33  1   
 20  11  12  2   
 21  11  13  am  
 22  13  14  1   
 23  13  15  1   
 24  14  16  1   
 25  14  17  1   
 26  14  34  1   
 27  15  35  1   
 28  15  36  1   
 29  15  37  1   
 30  16  18  1   
 31  16  38  1   
 32  16  39  1   
 33  17  19  1   
 34  17  40  1   
 35  17  41  1   
 36  18  19  1   
 37  18  20  1   
 38  18  42  1   
 39  19  21  1   
 40  19  43  1   
 41  20  22  1   
 42  20  44  1   
 43  20  45  1   
 44  21  23  1   
 45  21  46  1   
 46  21  47  1   
 47  22  23  am  
 48  22  24  1   
 49  23  25  2   
 50  24  48  1   
 51  24  49  1   
 52  24  50  1   
@<TRIPOS>SUBSTRUCTURE
  1 ****  16 GROUP 4 **** **** 0

# MOE 2024.06 (io_trps.svl 2023.06)
