@<TRIPOS>MOLECULE
NONAME
49 52 1 0 0 
SMALL
USER_CHARGES


@<TRIPOS>ATOM
  1 S        0.2440    -0.1720     0.8120 S.3   1 <1>  -0.0800 
  2 C        0.0630     1.4770     0.2510 C.2   1 <1>  -0.1400 
  3 C        1.9490     0.1070     1.1390 C.2   1 <1>  -0.1100 
  4 C        1.2180     2.1530     0.3050 C.2   1 <1>  -0.1810 
  5 C       -1.2510     2.0360    -0.2220 C.3   1 <1>   0.0200 
  6 C        2.3020     1.3680     0.8230 C.2   1 <1>  -0.1500 
  7 C        1.3030     3.6110    -0.1530 C.3   1 <1>   0.4610 
  8 C       -1.1260     3.5680    -0.1970 C.3   1 <1>   0.1200 
  9 O        0.0860     3.9910    -0.7750 O.3   1 <1>  -0.5600 
 10 C        2.3900     3.7680    -1.2180 C.3   1 <1>  -0.1600 
 11 C        1.5770     4.5410     1.0350 C.3   1 <1>  -0.1600 
 12 C        2.5670     5.2260    -1.6410 C.3   1 <1>   0.2090 
 13 C        1.7230     5.9930     0.5870 C.3   1 <1>   0.2090 
 14 N        2.7780     6.0880    -0.4490 N.pl3 1 <1>  -0.8380 
 15 C        4.0580     6.4200    -0.0640 C.ar  1 <1>   0.4100 
 16 N        4.8740     5.4190     0.1960 N.ar  1 <1>  -0.6200 
 17 C        4.4660     7.7440     0.0570 C.ar  1 <1>  -0.1430 
 18 C        6.0860     5.7490     0.5840 C.ar  1 <1>   0.4770 
 19 C        5.7580     7.9470     0.4750 C.ar  1 <1>   0.1600 
 20 C        3.4900     8.8780    -0.2750 C.3   1 <1>  -0.0170 
 21 N        6.5860     6.9580     0.7460 N.ar  1 <1>  -0.6200 
 22 C        7.0220     4.6050     0.8870 C.3   1 <1>  -0.0970 
 23 C        4.1060    10.2850    -0.3050 C.3   1 <1>  -0.1600 
 24 C        3.0670    11.3390    -0.7040 C.3   1 <1>  -0.2400 
 25 H        2.5140    -0.7150     1.5410 H     1 <1>   0.1500 
 26 H       -2.0490     1.7240     0.4270 H     1 <1>   0.0800 
 27 H       -1.4580     1.6940    -1.2200 H     1 <1>   0.0800 
 28 H        3.2880     1.7850     0.9330 H     1 <1>   0.1500 
 29 H       -1.1660     3.9300     0.8150 H     1 <1>   0.0800 
 30 H       -1.9300     4.0160    -0.7540 H     1 <1>   0.0800 
 31 H        2.1430     3.1650    -2.0710 H     1 <1>   0.0800 
 32 H        3.3280     3.4150    -0.8330 H     1 <1>   0.0800 
 33 H        2.4940     4.2420     1.5090 H     1 <1>   0.0800 
 34 H        0.7980     4.4530     1.7660 H     1 <1>   0.0800 
 35 H        1.6910     5.5630    -2.1680 H     1 <1>   0.0800 
 36 H        3.4130     5.3120    -2.3030 H     1 <1>   0.0800 
 37 H        1.9870     6.6070     1.4300 H     1 <1>   0.0800 
 38 H        0.7940     6.3520     0.1790 H     1 <1>   0.0800 
 39 H        6.1490     8.9410     0.5980 H     1 <1>   0.1500 
 40 H        2.6920     8.8600     0.4460 H     1 <1>   0.0800 
 41 H        3.0570     8.6730    -1.2390 H     1 <1>   0.0800 
 42 H        6.6710     3.7020     0.4220 H     1 <1>   0.0800 
 43 H        7.0700     4.4600     1.9490 H     1 <1>   0.0800 
 44 H        8.0040     4.8300     0.5160 H     1 <1>   0.0800 
 45 H        4.9170    10.3080    -1.0130 H     1 <1>   0.0800 
 46 H        4.4940    10.5330     0.6690 H     1 <1>   0.0800 
 47 H        2.6760    11.1310    -1.6850 H     1 <1>   0.0800 
 48 H        3.5190    12.3150    -0.7170 H     1 <1>   0.0800 
 49 H        2.2520    11.3500    -0.0010 H     1 <1>   0.0800 
@<TRIPOS>BOND
  1   1   2  1   
  2   1   3  1   
  3   2   4  2   
  4   2   5  1   
  5   3   6  2   
  6   3  25  1   
  7   4   6  1   
  8   4   7  1   
  9   5   8  1   
 10   5  26  1   
 11   5  27  1   
 12   6  28  1   
 13   7   9  1   
 14   7  10  1   
 15   7  11  1   
 16   8   9  1   
 17   8  29  1   
 18   8  30  1   
 19  10  12  1   
 20  10  31  1   
 21  10  32  1   
 22  11  13  1   
 23  11  33  1   
 24  11  34  1   
 25  12  14  1   
 26  12  35  1   
 27  12  36  1   
 28  13  14  1   
 29  13  37  1   
 30  13  38  1   
 31  14  15  1   
 32  15  16  ar  
 33  15  17  ar  
 34  16  18  ar  
 35  17  19  ar  
 36  17  20  1   
 37  18  21  ar  
 38  18  22  1   
 39  19  21  ar  
 40  19  39  1   
 41  20  23  1   
 42  20  40  1   
 43  20  41  1   
 44  22  42  1   
 45  22  43  1   
 46  22  44  1   
 47  23  24  1   
 48  23  45  1   
 49  23  46  1   
 50  24  47  1   
 51  24  48  1   
 52  24  49  1   
@<TRIPOS>SUBSTRUCTURE
  1 ****  14 GROUP 4 **** **** 0

# MOE 2024.06 (io_trps.svl 2023.06)
