@<TRIPOS>MOLECULE
NONAME
46 48 1 0 0 
SMALL
USER_CHARGES


@<TRIPOS>ATOM
  1 O       -0.9380    -0.5540    -1.1260 O.2   1 <1>  -0.5700 
  2 C       -1.7690     0.0630    -0.4850 C.2   1 <1>   0.5440 
  3 N       -1.3630     1.1700     0.2390 N.am  1 <1>  -0.6600 
  4 C       -3.1400    -0.3920    -0.4960 C.ar  1 <1>   0.0860 
  5 C       -2.1080     1.7070     1.4110 C.3   1 <1>   0.0600 
  6 C       -0.0200     1.7780     0.0300 C.3   1 <1>   0.0600 
  7 C       -3.4320    -1.7470    -0.3660 C.ar  1 <1>   0.1600 
  8 C       -4.2230     0.4700    -0.6410 C.ar  1 <1>  -0.1500 
  9 N       -4.6400    -2.2850    -0.3400 N.ar  1 <1>  -0.6200 
 10 C       -5.4860    -0.0710    -0.6200 C.ar  1 <1>  -0.1500 
 11 C       -5.6570    -1.4430    -0.4640 C.ar  1 <1>   0.4100 
 12 N       -6.9190    -1.9680    -0.4320 N.pl3 1 <1>  -0.8690 
 13 C       -7.2150    -3.4150    -0.4510 C.3   1 <1>   0.3040 
 14 C       -8.6170    -3.6940    -1.0430 C.3   1 <1>  -0.1900 
 15 C       -9.7740    -2.7920    -0.7270 C.3   1 <1>  -0.2000 
 16 C       -9.1820    -2.8040    -2.1130 C.3   1 <1>  -0.2000 
 17 C       -8.8720    -5.2060    -1.2060 C.3   1 <1>   0.1910 
 18 N       -8.6100    -5.9680     0.0370 N.pl3 1 <1>   0.0480 
 19 C       -9.3970    -6.1540     1.1270 C.2   1 <1>   0.0070 
 20 C       -7.4900    -6.6670     0.3060 C.2   1 <1>  -0.3020 
 21 N       -8.8600    -6.9010     2.0350 N.2   1 <1>  -0.5650 
 22 C      -10.7770    -5.5510     1.2920 C.3   1 <1>  -0.0600 
 23 C       -7.6600    -7.2240     1.5230 C.2   1 <1>   0.0770 
 24 H       -2.8910     1.0330     1.7120 H     1 <1>   0.0800 
 25 H       -2.5380     2.6610     1.1610 H     1 <1>   0.0800 
 26 H       -1.4350     1.8320     2.2420 H     1 <1>   0.0800 
 27 H        0.3790     1.4950    -0.9290 H     1 <1>   0.0800 
 28 H        0.6540     1.4400     0.7970 H     1 <1>   0.0800 
 29 H       -0.0930     2.8510     0.0650 H     1 <1>   0.0800 
 30 H       -2.5990    -2.4240    -0.2760 H     1 <1>   0.1500 
 31 H       -4.0640     1.5260    -0.7690 H     1 <1>   0.1500 
 32 H       -6.3520     0.5540    -0.7230 H     1 <1>   0.1500 
 33 H       -7.7130    -1.3810    -0.6830 H     1 <1>   0.4000 
 34 H       -7.1550    -3.7880     0.5580 H     1 <1>   0.0800 
 35 H       -6.4700    -3.9240    -1.0400 H     1 <1>   0.0800 
 36 H       -9.6160    -1.9360    -0.0940 H     1 <1>   0.1000 
 37 H      -10.7610    -3.2020    -0.6050 H     1 <1>   0.1000 
 38 H       -9.7640    -3.2370    -2.9080 H     1 <1>   0.1000 
 39 H       -8.6210    -1.9500    -2.4520 H     1 <1>   0.1000 
 40 H       -8.2290    -5.5920    -1.9760 H     1 <1>   0.0800 
 41 H       -9.8880    -5.3830    -1.5090 H     1 <1>   0.0800 
 42 H       -6.6500    -6.7320    -0.3620 H     1 <1>   0.1500 
 43 H      -11.3720    -5.7220     0.4140 H     1 <1>   0.0800 
 44 H      -10.6940    -4.4970     1.4760 H     1 <1>   0.0800 
 45 H      -11.2700    -6.0050     2.1330 H     1 <1>   0.0800 
 46 H       -6.9730    -7.8500     2.0660 H     1 <1>   0.1500 
@<TRIPOS>BOND
  1   1   2  2   
  2   2   3  am  
  3   2   4  1   
  4   3   5  1   
  5   3   6  1   
  6   4   7  ar  
  7   4   8  ar  
  8   5  24  1   
  9   5  25  1   
 10   5  26  1   
 11   6  27  1   
 12   6  28  1   
 13   6  29  1   
 14   7   9  ar  
 15   7  30  1   
 16   8  10  ar  
 17   8  31  1   
 18   9  11  ar  
 19  10  11  ar  
 20  10  32  1   
 21  11  12  1   
 22  12  13  1   
 23  12  33  1   
 24  13  14  1   
 25  13  34  1   
 26  13  35  1   
 27  14  15  1   
 28  14  16  1   
 29  14  17  1   
 30  15  16  1   
 31  15  36  1   
 32  15  37  1   
 33  16  38  1   
 34  16  39  1   
 35  17  18  1   
 36  17  40  1   
 37  17  41  1   
 38  18  19  1   
 39  18  20  1   
 40  19  21  2   
 41  19  22  1   
 42  20  23  2   
 43  20  42  1   
 44  21  23  1   
 45  22  43  1   
 46  22  44  1   
 47  22  45  1   
 48  23  46  1   
@<TRIPOS>SUBSTRUCTURE
  1 ****  12 GROUP 4 **** **** 0

# MOE 2024.06 (io_trps.svl 2023.06)
