@<TRIPOS>MOLECULE
NONAME
54 55 1 0 0 
SMALL
USER_CHARGES


@<TRIPOS>ATOM
  1 S        2.0670     0.3140    -0.4520 S.o2  1 <1>   1.3330 
  2 O        3.1110    -0.6430    -0.1590 O.2   1 <1>  -0.6500 
  3 O        1.1630     0.0680    -1.5530 O.2   1 <1>  -0.6500 
  4 N        1.1130     0.4800     0.9450 N.am  1 <1>  -0.8490 
  5 C        2.8290     1.9260    -0.6610 C.3   1 <1>  -0.0550 
  6 C        0.8730    -0.8080     1.6030 C.3   1 <1>   0.1160 
  7 C       -0.1660     1.1550     0.6980 C.3   1 <1>   0.1160 
  8 C        3.8450     2.3010     0.4390 C.3   1 <1>  -0.0800 
  9 C        4.6270     3.5790     0.1780 C.3   1 <1>   0.2200 
 10 C        3.2390     2.5540     1.8230 C.3   1 <1>   0.1200 
 11 N        3.7560     4.6500    -0.3600 N.am  1 <1>  -0.7300 
 12 C        5.0520     3.9480     1.5920 C.3   1 <1>   0.1200 
 13 O        3.9930     3.5690     2.4200 O.3   1 <1>  -0.5600 
 14 C        3.7220     5.0350    -1.6590 C.2   1 <1>   0.5690 
 15 O        4.2060     4.3610    -2.5360 O.2   1 <1>  -0.5700 
 16 C        3.0450     6.3470    -2.0260 C.3   1 <1>   0.1310 
 17 S        3.4220     7.6700    -0.8180 S.3   1 <1>  -0.4600 
 18 C        5.1140     8.1830    -1.2470 C.3   1 <1>   0.2130 
 19 C        6.1110     7.2420    -0.5900 C.ar  1 <1>  -0.1440 
 20 C        6.7110     6.2270    -1.3180 C.ar  1 <1>  -0.1500 
 21 C        6.4410     7.4030     0.7470 C.ar  1 <1>  -0.1500 
 22 C        7.6300     5.3800    -0.7240 C.ar  1 <1>  -0.1440 
 23 C        7.3670     6.5680     1.3500 C.ar  1 <1>  -0.1440 
 24 C        7.9590     5.5580     0.6100 C.ar  1 <1>  -0.1500 
 25 C        8.2670     4.2670    -1.5360 C.3   1 <1>  -0.0970 
 26 C        7.7200     6.7550     2.8140 C.3   1 <1>  -0.0970 
 27 H        3.3450     1.9310    -1.6020 H     1 <1>   0.0800 
 28 H        2.0640     2.6750    -0.7170 H     1 <1>   0.0800 
 29 H        0.2780    -0.6700     2.4890 H     1 <1>   0.0800 
 30 H        1.8100    -1.2540     1.8930 H     1 <1>   0.0800 
 31 H        0.3630    -1.4810     0.9330 H     1 <1>   0.0800 
 32 H       -0.6890     1.3080     1.6270 H     1 <1>   0.0800 
 33 H       -0.7850     0.5640     0.0420 H     1 <1>   0.0800 
 34 H        0.0010     2.1150     0.2420 H     1 <1>   0.0800 
 35 H        4.5540     1.4970     0.5370 H     1 <1>   0.0800 
 36 H        5.4740     3.4250    -0.4700 H     1 <1>   0.0800 
 37 H        3.2750     1.6760     2.4450 H     1 <1>   0.0800 
 38 H        2.2260     2.9080     1.7520 H     1 <1>   0.0800 
 39 H        3.4310     5.3140     0.3510 H     1 <1>   0.3700 
 40 H        5.2390     5.0000     1.7070 H     1 <1>   0.0800 
 41 H        5.9210     3.3870     1.8870 H     1 <1>   0.0800 
 42 H        1.9790     6.2190    -2.0310 H     1 <1>   0.0800 
 43 H        3.3740     6.6840    -2.9910 H     1 <1>   0.0800 
 44 H        5.2000     8.1760    -2.3190 H     1 <1>   0.0800 
 45 H        5.2390     9.1870    -0.8820 H     1 <1>   0.0800 
 46 H        6.4600     6.0890    -2.3560 H     1 <1>   0.1500 
 47 H        5.9730     8.1840     1.3200 H     1 <1>   0.1500 
 48 H        8.6790     4.9070     1.0740 H     1 <1>   0.1500 
 49 H        8.5820     3.4630    -0.8960 H     1 <1>   0.0800 
 50 H        9.1230     4.6480    -2.0640 H     1 <1>   0.0800 
 51 H        7.5630     3.8780    -2.2500 H     1 <1>   0.0800 
 52 H        8.7100     6.3860     3.0150 H     1 <1>   0.0800 
 53 H        7.0180     6.2200     3.4290 H     1 <1>   0.0800 
 54 H        7.6880     7.7970     3.0770 H     1 <1>   0.0800 
@<TRIPOS>BOND
  1   1   2  2   
  2   1   3  2   
  3   1   4  am  
  4   1   5  1   
  5   4   6  1   
  6   4   7  1   
  7   5   8  1   
  8   5  27  1   
  9   5  28  1   
 10   6  29  1   
 11   6  30  1   
 12   6  31  1   
 13   7  32  1   
 14   7  33  1   
 15   7  34  1   
 16   8   9  1   
 17   8  10  1   
 18   8  35  1   
 19   9  11  1   
 20   9  12  1   
 21   9  36  1   
 22  10  13  1   
 23  10  37  1   
 24  10  38  1   
 25  11  14  am  
 26  11  39  1   
 27  12  13  1   
 28  12  40  1   
 29  12  41  1   
 30  14  15  2   
 31  14  16  1   
 32  16  17  1   
 33  16  42  1   
 34  16  43  1   
 35  17  18  1   
 36  18  19  1   
 37  18  44  1   
 38  18  45  1   
 39  19  20  ar  
 40  19  21  ar  
 41  20  22  ar  
 42  20  46  1   
 43  21  23  ar  
 44  21  47  1   
 45  22  24  ar  
 46  22  25  1   
 47  23  24  ar  
 48  23  26  1   
 49  24  48  1   
 50  25  49  1   
 51  25  50  1   
 52  25  51  1   
 53  26  52  1   
 54  26  53  1   
 55  26  54  1   
@<TRIPOS>SUBSTRUCTURE
  1 ****   9 GROUP 4 **** **** 0

# MOE 2024.06 (io_trps.svl 2023.06)
