@<TRIPOS>MOLECULE
NONAME
44 46 1 0 0 
SMALL
USER_CHARGES


@<TRIPOS>ATOM
  1 S       -0.2750    -3.4000     0.4050 S.3   1 <1>  -0.0800 
  2 C       -1.8450    -2.6960     0.1140 C.2   1 <1>  -0.1400 
  3 C        0.3960    -1.8010     0.5800 C.2   1 <1>   0.2280 
  4 C       -1.7190    -1.3520     0.1780 C.2   1 <1>   0.0460 
  5 C       -2.9310    -3.7390    -0.1300 C.3   1 <1>   0.0200 
  6 N       -0.4500    -0.8640     0.4400 N.2   1 <1>  -0.5650 
  7 C       -2.7560    -0.2570     0.0100 C.3   1 <1>  -0.0590 
  8 C       -4.3120    -3.1720    -0.4720 C.3   1 <1>   0.2090 
  9 N       -5.2920    -4.2590    -0.7570 N.pl3 1 <1>  -0.8380 
 10 C       -5.6720    -5.0760     0.2960 C.ar  1 <1>   0.4100 
 11 C       -5.2290    -4.8350    -2.1300 C.3   1 <1>   0.1290 
 12 N       -5.1950    -6.3080     0.2850 N.ar  1 <1>  -0.6200 
 13 C       -6.4980    -4.5940     1.3210 C.ar  1 <1>   0.1600 
 14 C       -5.5600    -7.0470     1.3460 C.ar  1 <1>   0.3960 
 15 N       -6.8770    -5.2860     2.3750 N.ar  1 <1>  -0.6200 
 16 C       -5.1070    -8.4340     1.5040 C.2   1 <1>   0.5440 
 17 C       -6.3780    -6.5150     2.3490 C.ar  1 <1>   0.1600 
 18 O       -5.0310    -8.9000     2.6300 O.2   1 <1>  -0.5700 
 19 N       -4.7760    -9.2780     0.4560 N.am  1 <1>  -0.6600 
 20 C       -4.4210   -10.7010     0.6600 C.3   1 <1>   0.1400 
 21 C       -4.8730    -8.9660    -0.9880 C.3   1 <1>   0.1400 
 22 C       -4.6700   -11.3590    -0.6900 C.3   1 <1>  -0.1600 
 23 C       -4.4460   -10.2430    -1.7060 C.3   1 <1>  -0.1600 
 24 H        1.4480    -1.7280     0.7890 H     1 <1>   0.1500 
 25 H       -3.0130    -4.3480     0.7520 H     1 <1>   0.0800 
 26 H       -2.6080    -4.3700    -0.9380 H     1 <1>   0.0800 
 27 H       -3.7400    -0.6350    -0.1620 H     1 <1>   0.0800 
 28 H       -2.4790     0.3680    -0.8190 H     1 <1>   0.0800 
 29 H       -2.7760     0.3490     0.8980 H     1 <1>   0.0800 
 30 H       -4.2370    -2.5310    -1.3330 H     1 <1>   0.0800 
 31 H       -4.6690    -2.5900     0.3590 H     1 <1>   0.0800 
 32 H       -5.3550    -4.0580    -2.8630 H     1 <1>   0.0800 
 33 H       -6.0150    -5.5600    -2.2580 H     1 <1>   0.0800 
 34 H       -4.2820    -5.3240    -2.2850 H     1 <1>   0.0800 
 35 H       -6.8480    -3.5820     1.2360 H     1 <1>   0.1500 
 36 H       -6.6340    -7.1490     3.1800 H     1 <1>   0.1500 
 37 H       -5.0210   -11.1460     1.4360 H     1 <1>   0.0800 
 38 H       -3.3800   -10.7640     0.9290 H     1 <1>   0.0800 
 39 H       -4.2240    -8.1470    -1.2480 H     1 <1>   0.0800 
 40 H       -5.8920    -8.7150    -1.2300 H     1 <1>   0.0800 
 41 H       -5.6920   -11.6930    -0.7310 H     1 <1>   0.0800 
 42 H       -4.0190   -12.2000    -0.8510 H     1 <1>   0.0800 
 43 H       -3.3990   -10.1730    -1.9440 H     1 <1>   0.0800 
 44 H       -5.0020   -10.3960    -2.6140 H     1 <1>   0.0800 
@<TRIPOS>BOND
  1   1   2  1   
  2   1   3  1   
  3   2   4  2   
  4   2   5  1   
  5   3   6  2   
  6   3  24  1   
  7   4   6  1   
  8   4   7  1   
  9   5   8  1   
 10   5  25  1   
 11   5  26  1   
 12   7  27  1   
 13   7  28  1   
 14   7  29  1   
 15   8   9  1   
 16   8  30  1   
 17   8  31  1   
 18   9  10  1   
 19   9  11  1   
 20  10  12  ar  
 21  10  13  ar  
 22  11  32  1   
 23  11  33  1   
 24  11  34  1   
 25  12  14  ar  
 26  13  15  ar  
 27  13  35  1   
 28  14  16  1   
 29  14  17  ar  
 30  15  17  ar  
 31  16  18  2   
 32  16  19  am  
 33  17  36  1   
 34  19  20  1   
 35  19  21  1   
 36  20  22  1   
 37  20  37  1   
 38  20  38  1   
 39  21  23  1   
 40  21  39  1   
 41  21  40  1   
 42  22  23  1   
 43  22  41  1   
 44  22  42  1   
 45  23  43  1   
 46  23  44  1   
@<TRIPOS>SUBSTRUCTURE
  1 ****  12 GROUP 4 **** **** 0

# MOE 2024.06 (io_trps.svl 2023.06)
