@<TRIPOS>MOLECULE
NONAME
56 58 1 0 0 
SMALL
USER_CHARGES


@<TRIPOS>ATOM
  1 S        0.4770    -0.6370    -0.2840 S.o2  1 <1>   1.3330 
  2 O       -0.3390     0.5450    -0.1570 O.2   1 <1>  -0.6500 
  3 O        1.5390    -0.7260    -1.2540 O.2   1 <1>  -0.6500 
  4 N       -0.5390    -1.9340    -0.6110 N.am  1 <1>  -0.9140 
  5 C        1.1710    -1.0200     1.3120 C.3   1 <1>  -0.1350 
  6 C       -1.5980    -2.1820     0.3570 C.3   1 <1>   0.1960 
  7 C       -2.5960    -3.1780    -0.2320 C.3   1 <1>  -0.0990 
  8 C       -3.6840    -3.5540     0.7600 C.2   1 <1>   0.5690 
  9 O       -3.5280    -3.2340     1.9160 O.2   1 <1>  -0.5700 
 10 N       -4.7920    -4.2520     0.3490 N.am  1 <1>  -0.6600 
 11 C       -5.0410    -4.7550    -1.0340 C.3   1 <1>   0.1400 
 12 C       -5.9000    -4.5700     1.2950 C.3   1 <1>   0.1400 
 13 C       -5.2300    -6.2740    -0.9940 C.3   1 <1>  -0.1600 
 14 C       -6.0950    -6.0860     1.3590 C.3   1 <1>  -0.1600 
 15 C       -6.3540    -6.6890    -0.0320 C.3   1 <1>   0.4240 
 16 O       -7.5220    -6.1020    -0.5570 O.3   1 <1>  -0.5600 
 17 C       -6.4670    -8.2270     0.0330 C.ar  1 <1>  -0.1430 
 18 C       -8.7450    -6.6510    -0.1750 C.3   1 <1>   0.1200 
 19 C       -7.6460    -8.8790    -0.3050 C.ar  1 <1>  -0.1430 
 20 C       -5.3850    -8.9970     0.4390 C.ar  1 <1>  -0.1500 
 21 C       -8.8480    -8.0640    -0.7400 C.3   1 <1>  -0.0170 
 22 C       -7.7310   -10.2610    -0.2430 C.ar  1 <1>  -0.1500 
 23 C       -5.4480   -10.3790     0.5010 C.ar  1 <1>   0.0830 
 24 C       -6.6450   -11.0320     0.1640 C.ar  1 <1>   0.0830 
 25 O       -4.2900   -10.9790     0.9040 O.3   1 <1>  -0.3630 
 26 O       -6.7360   -12.3920     0.2560 O.3   1 <1>  -0.3620 
 27 C       -3.9540   -12.2880     0.5040 C.3   1 <1>   0.0400 
 28 C       -7.9520   -13.0810     0.0690 C.3   1 <1>   0.0400 
 29 H        0.0460    -2.7490    -0.7710 H     1 <1>   0.4200 
 30 H        1.8930    -0.2720     1.5780 H     1 <1>   0.0800 
 31 H        1.6610    -1.9730     1.2900 H     1 <1>   0.0800 
 32 H        0.4060    -1.0320     2.0630 H     1 <1>   0.0800 
 33 H       -2.1130    -1.2600     0.5820 H     1 <1>   0.0800 
 34 H       -1.1810    -2.5740     1.2700 H     1 <1>   0.0800 
 35 H       -2.0850    -4.0750    -0.5250 H     1 <1>   0.0800 
 36 H       -3.0500    -2.7250    -1.0940 H     1 <1>   0.0800 
 37 H       -4.2270    -4.5200    -1.6940 H     1 <1>   0.0800 
 38 H       -5.9290    -4.2860    -1.4230 H     1 <1>   0.0800 
 39 H       -6.8040    -4.0960     0.9500 H     1 <1>   0.0800 
 40 H       -5.6840    -4.1930     2.2800 H     1 <1>   0.0800 
 41 H       -4.3020    -6.7200    -0.6940 H     1 <1>   0.0800 
 42 H       -5.4620    -6.6400    -1.9770 H     1 <1>   0.0800 
 43 H       -6.9040    -6.3250     2.0220 H     1 <1>   0.0800 
 44 H       -5.2070    -6.5190     1.7810 H     1 <1>   0.0800 
 45 H       -9.5260    -6.0280    -0.5740 H     1 <1>   0.0800 
 46 H       -8.8130    -6.6570     0.8990 H     1 <1>   0.0800 
 47 H       -4.4580    -8.5310     0.7180 H     1 <1>   0.1500 
 48 H       -8.8860    -8.0180    -1.8130 H     1 <1>   0.0800 
 49 H       -9.7550    -8.5200    -0.3870 H     1 <1>   0.0800 
 50 H       -8.6590   -10.7200    -0.5190 H     1 <1>   0.1500 
 51 H       -2.8990   -12.4250     0.6570 H     1 <1>   0.0800 
 52 H       -4.1950   -12.4110    -0.5370 H     1 <1>   0.0800 
 53 H       -4.5020   -12.9870     1.1090 H     1 <1>   0.0800 
 54 H       -7.7750   -14.1250     0.2530 H     1 <1>   0.0800 
 55 H       -8.2820   -12.9400    -0.9450 H     1 <1>   0.0800 
 56 H       -8.6780   -12.7050     0.7700 H     1 <1>   0.0800 
@<TRIPOS>BOND
  1   1   2  2   
  2   1   3  2   
  3   1   4  am  
  4   1   5  1   
  5   4   6  1   
  6   4  29  1   
  7   5  30  1   
  8   5  31  1   
  9   5  32  1   
 10   6   7  1   
 11   6  33  1   
 12   6  34  1   
 13   7   8  1   
 14   7  35  1   
 15   7  36  1   
 16   8   9  2   
 17   8  10  am  
 18  10  11  1   
 19  10  12  1   
 20  11  13  1   
 21  11  37  1   
 22  11  38  1   
 23  12  14  1   
 24  12  39  1   
 25  12  40  1   
 26  13  15  1   
 27  13  41  1   
 28  13  42  1   
 29  14  15  1   
 30  14  43  1   
 31  14  44  1   
 32  15  16  1   
 33  15  17  1   
 34  16  18  1   
 35  17  19  ar  
 36  17  20  ar  
 37  18  21  1   
 38  18  45  1   
 39  18  46  1   
 40  19  21  1   
 41  19  22  ar  
 42  20  23  ar  
 43  20  47  1   
 44  21  48  1   
 45  21  49  1   
 46  22  24  ar  
 47  22  50  1   
 48  23  24  ar  
 49  23  25  1   
 50  24  26  1   
 51  25  27  1   
 52  26  28  1   
 53  27  51  1   
 54  27  52  1   
 55  27  53  1   
 56  28  54  1   
 57  28  55  1   
 58  28  56  1   
@<TRIPOS>SUBSTRUCTURE
  1 ****  13 GROUP 4 **** **** 0

# MOE 2024.06 (io_trps.svl 2023.06)
