@<TRIPOS>MOLECULE
NONAME
48 50 1 0 0 
SMALL
USER_CHARGES


@<TRIPOS>ATOM
  1 CL      -1.0280    -0.7360     2.2980 Cl    1 <1>  -0.1770 
  2 C       -2.0280    -1.0360     0.8940 C.ar  1 <1>   0.1770 
  3 C       -2.6180     0.0230     0.2220 C.ar  1 <1>   0.0830 
  4 C       -2.1940    -2.3440     0.4750 C.ar  1 <1>  -0.1500 
  5 O       -2.3860     1.2850     0.6620 O.3   1 <1>  -0.3630 
  6 C       -3.4210    -0.2560    -0.8880 C.ar  1 <1>   0.0830 
  7 C       -2.9740    -2.6170    -0.6420 C.ar  1 <1>  -0.1440 
  8 C       -1.7180     2.1700    -0.2320 C.3   1 <1>   0.1810 
  9 O       -4.0620     0.7070    -1.5910 O.3   1 <1>  -0.3630 
 10 C       -3.5770    -1.5640    -1.3190 C.ar  1 <1>  -0.1500 
 11 C       -3.1650    -4.0450    -1.1210 C.3   1 <1>   0.4870 
 12 C       -0.9570     3.2470     0.5320 C.2   1 <1>   0.5690 
 13 C       -5.0900     1.4170    -0.9300 C.3   1 <1>   0.0400 
 14 N       -4.1100    -4.7400    -0.2030 N.4   1 <1>  -0.9590 
 15 O       -0.7060     4.2930    -0.0080 O.2   1 <1>  -0.5700 
 16 N       -0.5550     3.0280     1.8010 N.am  1 <1>  -0.8000 
 17 C       -4.1190    -6.2120    -0.4520 C.3   1 <1>   0.3430 
 18 C       -5.4790    -4.1410    -0.2620 C.3   1 <1>   0.3430 
 19 C       -4.9780    -6.9110     0.5970 C.3   1 <1>  -0.1600 
 20 C       -6.3670    -4.7830     0.7970 C.3   1 <1>  -0.1600 
 21 C       -6.3830    -6.3000     0.6220 C.3   1 <1>   0.2580 
 22 O       -7.1490    -6.8810     1.6540 O.3   1 <1>  -0.5160 
 23 C       -7.3940    -6.8460    -0.4000 C.3   1 <1>   0.0000 
 24 C       -7.8210    -7.7610     0.7540 C.3   1 <1>   0.2580 
 25 H       -1.7010    -3.1250     1.0280 H     1 <1>   0.1500 
 26 H       -2.4490     2.6290    -0.8710 H     1 <1>   0.0800 
 27 H       -1.0250     1.6070    -0.8290 H     1 <1>   0.0800 
 28 H       -4.1800    -1.7350    -2.1950 H     1 <1>   0.1500 
 29 H       -2.2100    -4.5470    -1.1190 H     1 <1>   0.0800 
 30 H       -3.5490    -4.0500    -2.1280 H     1 <1>   0.0800 
 31 H       -5.5320     2.0990    -1.6340 H     1 <1>   0.0800 
 32 H       -4.6780     1.9660    -0.1030 H     1 <1>   0.0800 
 33 H       -5.8290     0.7180    -0.5820 H     1 <1>   0.0800 
 34 H       -3.7600    -4.5820     0.7520 H     1 <1>   0.4500 
 35 H       -0.0550     3.7540     2.3150 H     1 <1>   0.3700 
 36 H       -0.7890     2.1710     2.3070 H     1 <1>   0.3700 
 37 H       -3.1150    -6.6030    -0.4060 H     1 <1>   0.0800 
 38 H       -4.5170    -6.4140    -1.4340 H     1 <1>   0.0800 
 39 H       -5.9090    -4.3000    -1.2390 H     1 <1>   0.0800 
 40 H       -5.4290    -3.0780    -0.0830 H     1 <1>   0.0800 
 41 H       -4.5210    -6.7990     1.5640 H     1 <1>   0.0800 
 42 H       -5.0260    -7.9620     0.3720 H     1 <1>   0.0800 
 43 H       -7.3650    -4.3900     0.7170 H     1 <1>   0.0800 
 44 H       -5.9920    -4.5360     1.7740 H     1 <1>   0.0800 
 45 H       -6.9570    -7.3660    -1.2340 H     1 <1>   0.0000 
 46 H       -8.1590    -6.1460    -0.6860 H     1 <1>   0.0000 
 47 H       -8.8770    -7.7720     0.9590 H     1 <1>   0.0000 
 48 H       -7.3470    -8.7270     0.7620 H     1 <1>   0.0000 
@<TRIPOS>BOND
  1   1   2  1   
  2   2   3  ar  
  3   2   4  ar  
  4   3   5  1   
  5   3   6  ar  
  6   4   7  ar  
  7   4  25  1   
  8   5   8  1   
  9   6   9  1   
 10   6  10  ar  
 11   7  10  ar  
 12   7  11  1   
 13   8  12  1   
 14   8  26  1   
 15   8  27  1   
 16   9  13  1   
 17  10  28  1   
 18  11  14  1   
 19  11  29  1   
 20  11  30  1   
 21  12  15  2   
 22  12  16  am  
 23  13  31  1   
 24  13  32  1   
 25  13  33  1   
 26  14  17  1   
 27  14  18  1   
 28  14  34  1   
 29  16  35  1   
 30  16  36  1   
 31  17  19  1   
 32  17  37  1   
 33  17  38  1   
 34  18  20  1   
 35  18  39  1   
 36  18  40  1   
 37  19  21  1   
 38  19  41  1   
 39  19  42  1   
 40  20  21  1   
 41  20  43  1   
 42  20  44  1   
 43  21  22  1   
 44  21  23  1   
 45  22  24  1   
 46  23  24  1   
 47  23  45  1   
 48  23  46  1   
 49  24  47  1   
 50  24  48  1   
@<TRIPOS>SUBSTRUCTURE
  1 ****   7 GROUP 4 **** **** 0

# MOE 2024.06 (io_trps.svl 2023.06)
