@<TRIPOS>MOLECULE
NONAME
37 39 1 0 0 
SMALL
USER_CHARGES


@<TRIPOS>ATOM
  1 O       -0.2840     0.1060     0.6150 O.2   1 <1>  -0.5700 
  2 C       -1.3590     0.0580     0.0470 C.2   1 <1>   0.7800 
  3 O       -1.9780    -1.1130    -0.0790 O.3   1 <1>  -0.4300 
  4 N       -1.9730     1.1630    -0.4740 N.am  1 <1>  -0.6600 
  5 C       -1.4100    -2.2810     0.4640 C.3   1 <1>   0.2640 
  6 C       -3.3020     1.1100    -1.1370 C.3   1 <1>   0.2350 
  7 C       -1.4320     2.5320    -0.2770 C.3   1 <1>   0.1400 
  8 C       -2.3650    -3.4380     0.2190 C.ar  1 <1>  -0.1440 
  9 C       -4.3050     1.9200    -0.3030 C.3   1 <1>  -0.1900 
 10 C       -2.4220     3.3600     0.5490 C.3   1 <1>  -0.1600 
 11 C       -3.5940    -3.4700     0.8590 C.ar  1 <1>  -0.1500 
 12 C       -2.0200    -4.4690    -0.6420 C.ar  1 <1>  -0.1500 
 13 C       -3.8270     3.3610    -0.0710 C.3   1 <1>  -0.0650 
 14 C       -5.7680     1.6480    -0.4400 C.3   1 <1>  -0.2000 
 15 C       -5.0290     1.2240     0.8040 C.3   1 <1>  -0.2000 
 16 C       -4.4680    -4.5220     0.6450 C.ar  1 <1>  -0.1500 
 17 C       -2.8930    -5.5220    -0.8570 C.ar  1 <1>  -0.1500 
 18 C       -4.1170    -5.5490    -0.2140 C.ar  1 <1>  -0.1500 
 19 H       -1.2630    -2.1300     1.5200 H     1 <1>   0.0800 
 20 H       -0.4590    -2.4490    -0.0110 H     1 <1>   0.0800 
 21 H       -3.6460     0.0950    -1.2440 H     1 <1>   0.0800 
 22 H       -3.2200     1.5360    -2.1210 H     1 <1>   0.0800 
 23 H       -1.2810     2.9900    -1.2390 H     1 <1>   0.0800 
 24 H       -0.4810     2.4940     0.2270 H     1 <1>   0.0800 
 25 H       -2.0610     4.3700     0.6310 H     1 <1>   0.0800 
 26 H       -2.4690     2.9480     1.5420 H     1 <1>   0.0800 
 27 H       -3.8740    -2.6710     1.5230 H     1 <1>   0.1500 
 28 H       -1.0710    -4.4570    -1.1500 H     1 <1>   0.1500 
 29 H       -4.5080     3.8840     0.5780 H     1 <1>   0.0800 
 30 H       -3.8030     3.8800    -1.0130 H     1 <1>   0.0800 
 31 H       -6.1030     0.8830    -1.1190 H     1 <1>   0.1000 
 32 H       -6.4650     2.4650    -0.3670 H     1 <1>   0.1000 
 33 H       -5.2120     1.7530     1.7230 H     1 <1>   0.1000 
 34 H       -4.8370     0.1770     0.9670 H     1 <1>   0.1000 
 35 H       -5.4210    -4.5390     1.1440 H     1 <1>   0.1500 
 36 H       -2.6200    -6.3180    -1.5270 H     1 <1>   0.1500 
 37 H       -4.7960    -6.3670    -0.3810 H     1 <1>   0.1500 
@<TRIPOS>BOND
  1   1   2  2   
  2   2   3  1   
  3   2   4  am  
  4   3   5  1   
  5   4   6  1   
  6   4   7  1   
  7   5   8  1   
  8   5  19  1   
  9   5  20  1   
 10   6   9  1   
 11   6  21  1   
 12   6  22  1   
 13   7  10  1   
 14   7  23  1   
 15   7  24  1   
 16   8  11  ar  
 17   8  12  ar  
 18   9  13  1   
 19   9  14  1   
 20   9  15  1   
 21  10  13  1   
 22  10  25  1   
 23  10  26  1   
 24  11  16  ar  
 25  11  27  1   
 26  12  17  ar  
 27  12  28  1   
 28  13  29  1   
 29  13  30  1   
 30  14  15  1   
 31  14  31  1   
 32  14  32  1   
 33  15  33  1   
 34  15  34  1   
 35  16  18  ar  
 36  16  35  1   
 37  17  18  ar  
 38  17  36  1   
 39  18  37  1   
@<TRIPOS>SUBSTRUCTURE
  1 ****   3 GROUP 4 **** **** 0

# MOE 2024.06 (io_trps.svl 2023.06)
