@<TRIPOS>MOLECULE
NONAME
35 36 1 0 0 
SMALL
USER_CHARGES


@<TRIPOS>ATOM
  1 S       -0.5400    -0.0940     0.5990 S.3   1 <1>  -0.0800 
  2 C       -1.0140    -1.2250    -0.6240 C.2   1 <1>   0.4420 
  3 C       -0.1330     1.0100    -0.6740 C.2   1 <1>   0.1980 
  4 N       -0.8400    -0.7600    -1.8070 N.2   1 <1>  -0.3380 
  5 N       -1.4880    -2.4390    -0.1800 N.am  1 <1>  -0.4940 
  6 N       -0.3390     0.5120    -1.8280 N.2   1 <1>  -0.3380 
  7 C        0.4240     2.3810    -0.2850 C.3   1 <1>   0.3800 
  8 C       -1.9920    -3.5040    -0.8820 C.2   1 <1>   0.7150 
  9 O       -0.3320     2.9030     0.7730 O.3   1 <1>  -0.5600 
 10 C        0.3760     3.3810    -1.4470 C.3   1 <1>  -0.2400 
 11 O       -2.1830    -3.4100    -2.0780 O.2   1 <1>  -0.5700 
 12 C       -2.2850    -4.7170    -0.1540 C.2   1 <1>   0.0550 
 13 C        0.3320     3.7960     1.6140 C.3   1 <1>   0.0400 
 14 O       -3.1600    -5.6040    -0.6170 O.3   1 <1>  -0.2800 
 15 C       -1.8040    -5.1800     1.0370 C.2   1 <1>  -0.1500 
 16 C       -3.2580    -6.6010     0.2320 C.2   1 <1>  -0.0400 
 17 C       -2.4350    -6.3990     1.2830 C.2   1 <1>  -0.1500 
 18 C       -4.2050    -7.7450    -0.0770 C.3   1 <1>   0.2500 
 19 S       -5.8750    -7.2800     0.4680 S.3   1 <1>  -0.4600 
 20 C       -6.9220    -8.5960    -0.2090 C.3   1 <1>  -0.0100 
 21 H       -1.5120    -2.5500     0.8270 H     1 <1>   0.3700 
 22 H        1.4380     2.2460     0.0490 H     1 <1>   0.0800 
 23 H       -0.6430     3.5360    -1.7520 H     1 <1>   0.0800 
 24 H        0.9230     2.9880    -2.2850 H     1 <1>   0.0800 
 25 H        0.8170     4.3190    -1.1700 H     1 <1>   0.0800 
 26 H       -0.3540     4.0950     2.3870 H     1 <1>   0.0800 
 27 H        0.6390     4.6620     1.0560 H     1 <1>   0.0800 
 28 H        1.1810     3.3060     2.0570 H     1 <1>   0.0800 
 29 H       -1.0770    -4.7290     1.6880 H     1 <1>   0.1500 
 30 H       -2.2830    -7.0270     2.1440 H     1 <1>   0.1500 
 31 H       -3.9330    -8.6330     0.4630 H     1 <1>   0.0800 
 32 H       -4.2420    -7.9420    -1.1330 H     1 <1>   0.0800 
 33 H       -7.9360    -8.3860     0.0800 H     1 <1>   0.0800 
 34 H       -6.5920    -9.5320     0.2030 H     1 <1>   0.0800 
 35 H       -6.8210    -8.5840    -1.2800 H     1 <1>   0.0800 
@<TRIPOS>BOND
  1   1   2  1   
  2   1   3  1   
  3   2   4  2   
  4   2   5  1   
  5   3   6  2   
  6   3   7  1   
  7   4   6  1   
  8   5   8  am  
  9   5  21  1   
 10   7   9  1   
 11   7  10  1   
 12   7  22  1   
 13   8  11  2   
 14   8  12  1   
 15   9  13  1   
 16  10  23  1   
 17  10  24  1   
 18  10  25  1   
 19  12  14  1   
 20  12  15  2   
 21  13  26  1   
 22  13  27  1   
 23  13  28  1   
 24  14  16  1   
 25  15  17  1   
 26  15  29  1   
 27  16  17  2   
 28  16  18  1   
 29  17  30  1   
 30  18  19  1   
 31  18  31  1   
 32  18  32  1   
 33  19  20  1   
 34  20  33  1   
 35  20  34  1   
 36  20  35  1   
@<TRIPOS>SUBSTRUCTURE
  1 ****   5 GROUP 4 **** **** 0

# MOE 2024.06 (io_trps.svl 2023.06)
