@<TRIPOS>MOLECULE
NONAME
54 57 1 0 0 
SMALL
USER_CHARGES


@<TRIPOS>ATOM
  1 S       -2.0510    -0.3850    -1.3940 S.3   1 <1>  -0.0800 
  2 C       -1.8600     0.4110     0.1570 C.2   1 <1>   0.1980 
  3 C       -0.6770     0.4980    -1.9900 C.2   1 <1>  -0.1100 
  4 N       -0.8780     1.2220     0.2060 N.2   1 <1>  -0.5650 
  5 C       -2.8380     0.0540     1.2680 C.3   1 <1>   0.3200 
  6 C       -0.2090     1.2790    -1.0060 C.2   1 <1>   0.0770 
  7 N       -4.2440     0.4800     0.9910 N.am  1 <1>  -0.5090 
  8 C       -5.2900    -0.3950     1.1860 C.2   1 <1>   0.5440 
  9 C       -4.4550     1.9480     1.0170 C.3   1 <1>   0.0490 
 10 O       -6.3210    -0.0050     1.6990 O.2   1 <1>  -0.5700 
 11 C       -5.1830    -1.7910     0.8130 C.ar  1 <1>   0.0860 
 12 C       -5.5040     2.5460     0.1320 C.3   1 <1>  -0.2000 
 13 C       -4.0570     2.7630    -0.1740 C.3   1 <1>  -0.2000 
 14 C       -5.3840    -2.8020     1.7490 C.ar  1 <1>  -0.1500 
 15 C       -4.8850    -2.1720    -0.4930 C.ar  1 <1>  -0.1500 
 16 C       -5.2840    -4.1360     1.4010 C.ar  1 <1>  -0.1500 
 17 C       -4.7820    -3.5030    -0.8500 C.ar  1 <1>  -0.1500 
 18 C       -4.9890    -4.4970     0.0940 C.ar  1 <1>  -0.1430 
 19 C       -4.9110    -5.9610    -0.3010 C.3   1 <1>   0.4860 
 20 N       -6.2860    -6.5280    -0.2810 N.4   1 <1>  -0.9590 
 21 C       -6.2800    -8.0070    -0.4090 C.3   1 <1>   0.3430 
 22 C       -7.1640    -5.9110    -1.3090 C.3   1 <1>   0.3430 
 23 C       -7.5150    -8.6200     0.2580 C.3   1 <1>  -0.1600 
 24 C       -8.5240    -5.5710    -0.7010 C.3   1 <1>  -0.1600 
 25 C       -8.8810    -8.0850    -0.2120 C.3   1 <1>  -0.1600 
 26 C       -9.1440    -6.6360     0.2240 C.3   1 <1>  -0.1600 
 27 H       -0.3690     0.3380    -3.0070 H     1 <1>   0.1500 
 28 H       -2.5090     0.5380     2.1710 H     1 <1>   0.0800 
 29 H       -2.7920    -1.0060     1.4360 H     1 <1>   0.0800 
 30 H        0.6380     1.9410    -1.0790 H     1 <1>   0.1500 
 31 H       -4.3360     2.3690     2.0020 H     1 <1>   0.1000 
 32 H       -6.0800     3.3710     0.5110 H     1 <1>   0.1000 
 33 H       -6.0830     1.8890    -0.4910 H     1 <1>   0.1000 
 34 H       -3.6440     2.2760    -1.0390 H     1 <1>   0.1000 
 35 H       -3.6370     3.7390    -0.0100 H     1 <1>   0.1000 
 36 H       -5.6280    -2.5240     2.7620 H     1 <1>   0.1500 
 37 H       -4.7420    -1.4040    -1.2360 H     1 <1>   0.1500 
 38 H       -5.4420    -4.8820     2.1620 H     1 <1>   0.1500 
 39 H       -4.5430    -3.7490    -1.8720 H     1 <1>   0.1500 
 40 H       -4.2830    -6.4830     0.4020 H     1 <1>   0.0800 
 41 H       -4.4800    -6.0580    -1.2840 H     1 <1>   0.0800 
 42 H       -6.7010    -6.2860     0.6270 H     1 <1>   0.4500 
 43 H       -5.4020    -8.4140     0.0660 H     1 <1>   0.0800 
 44 H       -6.2530    -8.2850    -1.4510 H     1 <1>   0.0800 
 45 H       -7.2980    -6.5950    -2.1320 H     1 <1>   0.0800 
 46 H       -6.7230    -5.0070    -1.6970 H     1 <1>   0.0800 
 47 H       -7.4320    -8.5070     1.3250 H     1 <1>   0.0800 
 48 H       -7.4900    -9.6790     0.0640 H     1 <1>   0.0800 
 49 H       -9.2010    -5.3920    -1.5180 H     1 <1>   0.0800 
 50 H       -8.4450    -4.6420    -0.1630 H     1 <1>   0.0800 
 51 H       -9.6410    -8.7040     0.2380 H     1 <1>   0.0800 
 52 H       -8.9900    -8.1890    -1.2790 H     1 <1>   0.0800 
 53 H      -10.2090    -6.4720     0.2440 H     1 <1>   0.0800 
 54 H       -8.7980    -6.4950     1.2340 H     1 <1>   0.0800 
@<TRIPOS>BOND
  1   1   2  1   
  2   1   3  1   
  3   2   4  2   
  4   2   5  1   
  5   3   6  2   
  6   3  27  1   
  7   4   6  1   
  8   5   7  1   
  9   5  28  1   
 10   5  29  1   
 11   6  30  1   
 12   7   8  am  
 13   7   9  1   
 14   8  10  2   
 15   8  11  1   
 16   9  12  1   
 17   9  13  1   
 18   9  31  1   
 19  11  14  ar  
 20  11  15  ar  
 21  12  13  1   
 22  12  32  1   
 23  12  33  1   
 24  13  34  1   
 25  13  35  1   
 26  14  16  ar  
 27  14  36  1   
 28  15  17  ar  
 29  15  37  1   
 30  16  18  ar  
 31  16  38  1   
 32  17  18  ar  
 33  17  39  1   
 34  18  19  1   
 35  19  20  1   
 36  19  40  1   
 37  19  41  1   
 38  20  21  1   
 39  20  22  1   
 40  20  42  1   
 41  21  23  1   
 42  21  43  1   
 43  21  44  1   
 44  22  24  1   
 45  22  45  1   
 46  22  46  1   
 47  23  25  1   
 48  23  47  1   
 49  23  48  1   
 50  24  26  1   
 51  24  49  1   
 52  24  50  1   
 53  25  26  1   
 54  25  51  1   
 55  25  52  1   
 56  26  53  1   
 57  26  54  1   
@<TRIPOS>SUBSTRUCTURE
  1 ****  15 GROUP 4 **** **** 0

# MOE 2024.06 (io_trps.svl 2023.06)
