@<TRIPOS>MOLECULE
NONAME
50 52 1 0 0 
SMALL
USER_CHARGES


@<TRIPOS>ATOM
  1 O        2.4050    -0.6350    -2.0280 O.2   1 <1>  -0.5700 
  2 C        1.6090    -1.0820    -1.2360 C.2   1 <1>   0.5690 
  3 N        1.2060    -0.4500    -0.1010 N.am  1 <1>  -0.4930 
  4 C        0.9840    -2.4510    -1.5070 C.3   1 <1>   0.1710 
  5 C        1.5200     0.8220     0.4400 C.2   1 <1>   0.0630 
  6 N       -0.3180    -2.6660    -0.8050 N.3   1 <1>  -0.8100 
  7 C        2.7000     1.5760     0.4070 C.2   1 <1>   0.1080 
  8 C        0.6640     1.5760     1.1590 C.2   1 <1>  -0.3020 
  9 C       -0.6390    -4.1080    -0.7490 C.3   1 <1>   0.1100 
 10 C       -1.4020    -1.9210    -1.4740 C.3   1 <1>   0.1100 
 11 N        2.5800     2.7000     1.0460 N.2   1 <1>  -0.7070 
 12 C        4.0030     1.1870    -0.2550 C.3   1 <1>  -0.0590 
 13 N        1.3210     2.7020     1.5060 N.pl3 1 <1>   0.3140 
 14 C       -1.9330    -4.3560     0.0490 C.3   1 <1>   0.2000 
 15 C       -2.7100    -2.0800    -0.6900 C.3   1 <1>  -0.1600 
 16 C        0.7870     3.8210     2.2900 C.3   1 <1>   0.0160 
 17 O       -2.2720    -5.7050    -0.0230 O.3   1 <1>  -0.5600 
 18 C       -3.0980    -3.5600    -0.5430 C.3   1 <1>  -0.1600 
 19 C       -1.6590    -6.5180     0.9430 C.3   1 <1>   0.2630 
 20 C       -1.8670    -8.0030     0.6560 C.ar  1 <1>   0.1660 
 21 N       -1.0250    -8.8230     1.2730 N.ar  1 <1>  -0.6200 
 22 C       -2.8790    -8.4370    -0.1910 C.ar  1 <1>  -0.1500 
 23 C       -1.1960   -10.1140     1.0330 C.ar  1 <1>   0.1600 
 24 C       -3.0460    -9.7840    -0.4300 C.ar  1 <1>  -0.1500 
 25 C       -2.1730   -10.6390     0.2050 C.ar  1 <1>  -0.1500 
 26 H        0.4480    -0.9570     0.3650 H     1 <1>   0.3700 
 27 H        1.6950    -3.1860    -1.1750 H     1 <1>   0.0800 
 28 H        0.8570    -2.5740    -2.5680 H     1 <1>   0.0800 
 29 H       -0.3540     1.3810     1.4340 H     1 <1>   0.1500 
 30 H        0.1720    -4.6300    -0.2740 H     1 <1>   0.0800 
 31 H       -0.7610    -4.4910    -1.7480 H     1 <1>   0.0800 
 32 H       -1.5350    -2.2890    -2.4780 H     1 <1>   0.0800 
 33 H       -1.1520    -0.8750    -1.5310 H     1 <1>   0.0800 
 34 H        4.1780     0.1340    -0.1370 H     1 <1>   0.0800 
 35 H        4.8160     1.7280     0.1920 H     1 <1>   0.0800 
 36 H        3.9580     1.4250    -1.3010 H     1 <1>   0.0800 
 37 H       -1.7910    -4.0780     1.0800 H     1 <1>   0.0800 
 38 H       -3.4960    -1.5520    -1.2000 H     1 <1>   0.0800 
 39 H       -2.5910    -1.6350     0.2820 H     1 <1>   0.0800 
 40 H       -0.1670     4.1090     1.8920 H     1 <1>   0.0800 
 41 H        1.4700     4.6480     2.2270 H     1 <1>   0.0800 
 42 H        0.6850     3.5150     3.3130 H     1 <1>   0.0800 
 43 H       -3.9600    -3.6510     0.0950 H     1 <1>   0.0800 
 44 H       -3.3420    -3.9580    -1.5120 H     1 <1>   0.0800 
 45 H       -2.0740    -6.2780     1.9050 H     1 <1>   0.0800 
 46 H       -0.6030    -6.3160     0.9520 H     1 <1>   0.0800 
 47 H       -3.5350    -7.7260    -0.6610 H     1 <1>   0.1500 
 48 H       -0.5190   -10.7910     1.5250 H     1 <1>   0.1500 
 49 H       -3.8210   -10.1470    -1.0820 H     1 <1>   0.1500 
 50 H       -2.2460   -11.7020     0.0630 H     1 <1>   0.1500 
@<TRIPOS>BOND
  1   1   2  2   
  2   2   3  am  
  3   2   4  1   
  4   3   5  1   
  5   3  26  1   
  6   4   6  1   
  7   4  27  1   
  8   4  28  1   
  9   5   7  1   
 10   5   8  2   
 11   6   9  1   
 12   6  10  1   
 13   7  11  2   
 14   7  12  1   
 15   8  13  1   
 16   8  29  1   
 17   9  14  1   
 18   9  30  1   
 19   9  31  1   
 20  10  15  1   
 21  10  32  1   
 22  10  33  1   
 23  11  13  1   
 24  12  34  1   
 25  12  35  1   
 26  12  36  1   
 27  13  16  1   
 28  14  17  1   
 29  14  18  1   
 30  14  37  1   
 31  15  18  1   
 32  15  38  1   
 33  15  39  1   
 34  16  40  1   
 35  16  41  1   
 36  16  42  1   
 37  17  19  1   
 38  18  43  1   
 39  18  44  1   
 40  19  20  1   
 41  19  45  1   
 42  19  46  1   
 43  20  21  ar  
 44  20  22  ar  
 45  21  23  ar  
 46  22  24  ar  
 47  22  47  1   
 48  23  25  ar  
 49  23  48  1   
 50  24  25  ar  
 51  24  49  1   
 52  25  50  1   
@<TRIPOS>SUBSTRUCTURE
  1 ****   6 GROUP 4 **** **** 0

# MOE 2024.06 (io_trps.svl 2023.06)
