@<TRIPOS>MOLECULE
NONAME
40 41 1 0 0 
SMALL
USER_CHARGES


@<TRIPOS>ATOM
  1 O       -1.7960     0.1490     1.9420 O.2   1 <1>  -0.5700 
  2 C       -1.8270     0.7650     0.9050 C.2   1 <1>   0.5690 
  3 N       -2.1400     0.1600    -0.2700 N.am  1 <1>  -0.7300 
  4 C       -1.5260     2.2620     0.9210 C.3   1 <1>  -0.0190 
  5 C       -2.3850    -1.2960    -0.4280 C.3   1 <1>   0.1400 
  6 C       -2.7150     3.0950     0.4030 C.3   1 <1>  -0.1600 
  7 C       -0.2220     2.5990     0.1570 C.3   1 <1>  -0.1600 
  8 C       -3.7340    -1.6810     0.1790 C.3   1 <1>   0.0960 
  9 C       -2.4770     4.6110     0.5620 C.3   1 <1>   0.2000 
 10 C       -0.1450     4.0620    -0.3240 C.3   1 <1>  -0.1600 
 11 N       -3.9740    -3.1160    -0.0300 N.pl3 1 <1>   0.3140 
 12 O       -3.1170     5.2600    -0.5090 O.3   1 <1>  -0.5600 
 13 C       -0.9730     4.9930     0.5660 C.3   1 <1>   0.2000 
 14 N       -4.2360    -3.6200    -1.2510 N.2   1 <1>  -0.7070 
 15 C       -3.9550    -4.0860     0.9050 C.2   1 <1>  -0.3020 
 16 C       -4.4800     5.4920    -0.3310 C.3   1 <1>   0.0400 
 17 O       -0.8300     6.2790     0.0880 O.3   1 <1>  -0.6800 
 18 C       -4.3820    -4.8960    -1.0600 C.2   1 <1>   0.1390 
 19 C       -4.2170    -5.2500     0.2740 C.2   1 <1>  -0.1500 
 20 H       -2.1550     0.7130    -1.1300 H     1 <1>   0.3700 
 21 H       -1.3770     2.5320     1.9530 H     1 <1>   0.0800 
 22 H       -2.3700    -1.5480    -1.4750 H     1 <1>   0.0800 
 23 H       -1.6000    -1.8400     0.0720 H     1 <1>   0.0800 
 24 H       -3.6050     2.8200     0.9410 H     1 <1>   0.0800 
 25 H       -2.8660     2.8680    -0.6390 H     1 <1>   0.0800 
 26 H        0.6100     2.3950     0.8090 H     1 <1>   0.0800 
 27 H       -0.1120     1.9590    -0.7010 H     1 <1>   0.0800 
 28 H       -4.5250    -1.1360    -0.3000 H     1 <1>   0.0800 
 29 H       -3.7420    -1.4780     1.2330 H     1 <1>   0.0800 
 30 H       -2.9040     4.9600     1.4870 H     1 <1>   0.0800 
 31 H       -0.5300     4.1210    -1.3280 H     1 <1>   0.0800 
 32 H        0.8810     4.3850    -0.3370 H     1 <1>   0.0800 
 33 H       -0.5820     4.9680     1.5690 H     1 <1>   0.0800 
 34 H       -3.7610    -3.8980     1.9450 H     1 <1>   0.1500 
 35 H       -4.8520     5.9890    -1.2090 H     1 <1>   0.0800 
 36 H       -4.6230     6.1250     0.5290 H     1 <1>   0.0800 
 37 H       -4.9920     4.5550    -0.2020 H     1 <1>   0.0800 
 38 H       -1.5670     6.4110    -0.5510 H     1 <1>   0.4000 
 39 H       -4.6050    -5.5920    -1.8510 H     1 <1>   0.1500 
 40 H       -4.2870    -6.2420     0.6820 H     1 <1>   0.1500 
@<TRIPOS>BOND
  1   1   2  2   
  2   2   3  am  
  3   2   4  1   
  4   3   5  1   
  5   3  20  1   
  6   4   6  1   
  7   4   7  1   
  8   4  21  1   
  9   5   8  1   
 10   5  22  1   
 11   5  23  1   
 12   6   9  1   
 13   6  24  1   
 14   6  25  1   
 15   7  10  1   
 16   7  26  1   
 17   7  27  1   
 18   8  11  1   
 19   8  28  1   
 20   8  29  1   
 21   9  12  1   
 22   9  13  1   
 23   9  30  1   
 24  10  13  1   
 25  10  31  1   
 26  10  32  1   
 27  11  14  1   
 28  11  15  1   
 29  12  16  1   
 30  13  17  1   
 31  13  33  1   
 32  14  18  2   
 33  15  19  2   
 34  15  34  1   
 35  16  35  1   
 36  16  36  1   
 37  16  37  1   
 38  17  38  1   
 39  18  19  1   
 40  18  39  1   
 41  19  40  1   
@<TRIPOS>SUBSTRUCTURE
  1 ****   3 GROUP 4 **** **** 0

# MOE 2024.06 (io_trps.svl 2023.06)
