@<TRIPOS>MOLECULE
NONAME
49 51 1 0 0 
SMALL
USER_CHARGES


@<TRIPOS>ATOM
  1 O       -1.0410     0.5970     1.8670 O.2   1 <1>  -0.5700 
  2 C       -0.8460     1.3400     0.9250 C.2   1 <1>   0.5440 
  3 N       -1.8730     1.5340     0.0470 N.am  1 <1>  -0.7300 
  4 C        0.4470     1.9680     0.7160 C.ar  1 <1>   0.0860 
  5 C       -3.2580     1.0210     0.2080 C.3   1 <1>   0.2200 
  6 C        0.5770     3.1850     0.0420 C.ar  1 <1>  -0.1500 
  7 C        1.6170     1.3700     1.1840 C.ar  1 <1>  -0.1500 
  8 C       -3.3710    -0.4620    -0.2090 C.3   1 <1>   0.2000 
  9 C       -4.1940     1.9000    -0.6260 C.3   1 <1>  -0.1600 
 10 C        1.8140     3.7680    -0.1640 C.ar  1 <1>  -0.1500 
 11 C        2.8570     1.9470     0.9820 C.ar  1 <1>  -0.1500 
 12 O       -2.6320    -1.2560     0.6590 O.3   1 <1>  -0.6800 
 13 C       -4.8240    -0.9520    -0.1940 C.3   1 <1>   0.1400 
 14 C       -5.6360     1.4020    -0.5290 C.3   1 <1>   0.1400 
 15 C        2.9580     3.1480     0.3040 C.ar  1 <1>  -0.1500 
 16 N       -5.7130    -0.0210    -0.9630 N.am  1 <1>  -0.6600 
 17 C       -6.6480    -0.4180    -1.8950 C.2   1 <1>   0.5690 
 18 O       -7.1950     0.3940    -2.6080 O.2   1 <1>  -0.5700 
 19 C       -7.0080    -1.8730    -2.1310 C.3   1 <1>   0.1570 
 20 N       -7.4960    -2.5160    -0.9010 N.pl3 1 <1>   0.3140 
 21 N       -8.5520    -2.0430    -0.1920 N.2   1 <1>  -0.7070 
 22 C       -6.9520    -3.6120    -0.3020 C.2   1 <1>  -0.0680 
 23 C       -8.6350    -2.8240     0.8360 C.2   1 <1>   0.1080 
 24 N       -5.8650    -4.3610    -0.7770 N.pl3 1 <1>  -0.8840 
 25 C       -7.6640    -3.8190     0.8280 C.2   1 <1>  -0.1500 
 26 C       -9.6870    -2.6370     1.9030 C.3   1 <1>  -0.0590 
 27 H       -1.6770     1.9910    -0.8440 H     1 <1>   0.3700 
 28 H       -3.5470     1.1040     1.2430 H     1 <1>   0.0800 
 29 H       -0.3010     3.6910    -0.3180 H     1 <1>   0.1500 
 30 H        1.5480     0.4360     1.7160 H     1 <1>   0.1500 
 31 H       -2.9650    -0.5930    -1.1960 H     1 <1>   0.0800 
 32 H       -4.1530     2.9120    -0.2650 H     1 <1>   0.0800 
 33 H       -3.8980     1.8900    -1.6600 H     1 <1>   0.0800 
 34 H        1.8910     4.7060    -0.6870 H     1 <1>   0.1500 
 35 H        3.7440     1.4620     1.3530 H     1 <1>   0.1500 
 36 H       -1.9650    -0.6860     1.1280 H     1 <1>   0.4000 
 37 H       -5.1790    -1.0100     0.8210 H     1 <1>   0.0800 
 38 H       -4.8410    -1.9360    -0.6220 H     1 <1>   0.0800 
 39 H       -6.2720     2.0220    -1.1390 H     1 <1>   0.0800 
 40 H       -5.9860     1.4740     0.4870 H     1 <1>   0.0800 
 41 H        3.9230     3.5990     0.1450 H     1 <1>   0.1500 
 42 H       -6.1480    -2.3980    -2.4960 H     1 <1>   0.0800 
 43 H       -7.7870    -1.9280    -2.8650 H     1 <1>   0.0800 
 44 H       -6.1220    -5.0120    -1.5280 H     1 <1>   0.4000 
 45 H       -5.4120    -4.9130    -0.0380 H     1 <1>   0.4000 
 46 H       -7.5300    -4.5810     1.5710 H     1 <1>   0.1500 
 47 H       -9.6110    -3.4080     2.6470 H     1 <1>   0.0800 
 48 H      -10.6620    -2.6750     1.4540 H     1 <1>   0.0800 
 49 H       -9.5550    -1.6790     2.3700 H     1 <1>   0.0800 
@<TRIPOS>BOND
  1   1   2  2   
  2   2   3  am  
  3   2   4  1   
  4   3   5  1   
  5   3  27  1   
  6   4   6  ar  
  7   4   7  ar  
  8   5   8  1   
  9   5   9  1   
 10   5  28  1   
 11   6  10  ar  
 12   6  29  1   
 13   7  11  ar  
 14   7  30  1   
 15   8  12  1   
 16   8  13  1   
 17   8  31  1   
 18   9  14  1   
 19   9  32  1   
 20   9  33  1   
 21  10  15  ar  
 22  10  34  1   
 23  11  15  ar  
 24  11  35  1   
 25  12  36  1   
 26  13  16  1   
 27  13  37  1   
 28  13  38  1   
 29  14  16  1   
 30  14  39  1   
 31  14  40  1   
 32  15  41  1   
 33  16  17  am  
 34  17  18  2   
 35  17  19  1   
 36  19  20  1   
 37  19  42  1   
 38  19  43  1   
 39  20  21  1   
 40  20  22  1   
 41  21  23  2   
 42  22  24  1   
 43  22  25  2   
 44  23  25  1   
 45  23  26  1   
 46  24  44  1   
 47  24  45  1   
 48  25  46  1   
 49  26  47  1   
 50  26  48  1   
 51  26  49  1   
@<TRIPOS>SUBSTRUCTURE
  1 ****   8 GROUP 4 **** **** 0

# MOE 2024.06 (io_trps.svl 2023.06)
