@<TRIPOS>MOLECULE
NONAME
44 48 1 0 0 
SMALL
USER_CHARGES


@<TRIPOS>ATOM
  1 S       -0.5250     0.7120     1.7120 S.3   1 <1>  -0.0800 
  2 C       -0.2580     1.9590     0.5130 C.2   1 <1>  -0.1400 
  3 C        1.0330     1.0610     2.4490 C.2   1 <1>  -0.1100 
  4 C        0.9270     2.5630     0.6740 C.2   1 <1>  -0.1810 
  5 C       -1.2650     2.2880    -0.5550 C.3   1 <1>   0.0200 
  6 C        1.6670     2.0520     1.7920 C.2   1 <1>  -0.1500 
  7 C        1.3790     3.6780    -0.2730 C.3   1 <1>   0.4610 
  8 C       -0.9020     3.6740    -1.1120 C.3   1 <1>   0.1200 
  9 O        0.4800     3.7760    -1.3650 O.3   1 <1>  -0.5600 
 10 C        2.7460     3.3430    -0.8800 C.3   1 <1>  -0.1600 
 11 C        1.4360     5.0290     0.4530 C.3   1 <1>  -0.1600 
 12 C        3.2550     4.4700    -1.7780 C.3   1 <1>   0.1400 
 13 C        1.9550     6.1420    -0.4580 C.3   1 <1>   0.1400 
 14 N        3.2820     5.7420    -1.0030 N.am  1 <1>  -0.6600 
 15 C        4.4680     6.3760    -0.6890 C.2   1 <1>   0.5440 
 16 O        5.5100     5.7550    -0.7960 O.2   1 <1>  -0.5700 
 17 C        4.5100     7.7480    -0.2190 C.ar  1 <1>   0.0860 
 18 C        3.7810     8.7550    -0.8350 C.ar  1 <1>  -0.1500 
 19 C        5.3120     8.0920     0.8900 C.ar  1 <1>  -0.1500 
 20 C        3.8240    10.0540    -0.3470 C.ar  1 <1>   0.2270 
 21 C        5.3710     9.3760     1.3800 C.ar  1 <1>  -0.1500 
 22 N        3.1740    11.1660    -0.7900 N.2   1 <1>  -0.5650 
 23 C        4.6100    10.3600     0.7480 C.ar  1 <1>  -0.1520 
 24 C        3.5620    12.1000     0.0060 C.2   1 <1>   0.0360 
 25 N        4.4330    11.6860     0.9620 N.pl3 1 <1>   0.0330 
 26 H        1.3120     0.4780     3.3080 H     1 <1>   0.1500 
 27 H       -2.2580     2.3090    -0.1430 H     1 <1>   0.0800 
 28 H       -1.2270     1.5500    -1.3360 H     1 <1>   0.0800 
 29 H        2.6350     2.4460     2.0500 H     1 <1>   0.1500 
 30 H       -1.1790     4.4430    -0.4130 H     1 <1>   0.0800 
 31 H       -1.4190     3.8490    -2.0390 H     1 <1>   0.0800 
 32 H        2.6700     2.4310    -1.4420 H     1 <1>   0.0800 
 33 H        3.4660     3.1850    -0.0990 H     1 <1>   0.0800 
 34 H        2.0970     4.9460     1.2960 H     1 <1>   0.0800 
 35 H        0.4670     5.2860     0.8370 H     1 <1>   0.0800 
 36 H        2.6030     4.5880    -2.6260 H     1 <1>   0.0800 
 37 H        4.2370     4.2280    -2.1470 H     1 <1>   0.0800 
 38 H        2.0260     7.0530     0.1080 H     1 <1>   0.0800 
 39 H        1.2720     6.3020    -1.2750 H     1 <1>   0.0800 
 40 H        3.1730     8.5520    -1.6970 H     1 <1>   0.1500 
 41 H        5.8920     7.3100     1.3520 H     1 <1>   0.1500 
 42 H        5.9880     9.6230     2.2270 H     1 <1>   0.1500 
 43 H        3.2410    13.1250    -0.0590 H     1 <1>   0.1500 
 44 H        4.8700    12.2540     1.6910 H     1 <1>   0.2700 
@<TRIPOS>BOND
  1   1   2  1   
  2   1   3  1   
  3   2   4  2   
  4   2   5  1   
  5   3   6  2   
  6   3  26  1   
  7   4   6  1   
  8   4   7  1   
  9   5   8  1   
 10   5  27  1   
 11   5  28  1   
 12   6  29  1   
 13   7   9  1   
 14   7  10  1   
 15   7  11  1   
 16   8   9  1   
 17   8  30  1   
 18   8  31  1   
 19  10  12  1   
 20  10  32  1   
 21  10  33  1   
 22  11  13  1   
 23  11  34  1   
 24  11  35  1   
 25  12  14  1   
 26  12  36  1   
 27  12  37  1   
 28  13  14  1   
 29  13  38  1   
 30  13  39  1   
 31  14  15  am  
 32  15  16  2   
 33  15  17  1   
 34  17  18  ar  
 35  17  19  ar  
 36  18  20  ar  
 37  18  40  1   
 38  19  21  ar  
 39  19  41  1   
 40  20  22  1   
 41  20  23  ar  
 42  21  23  ar  
 43  21  42  1   
 44  22  24  2   
 45  23  25  1   
 46  24  25  1   
 47  24  43  1   
 48  25  44  1   
@<TRIPOS>SUBSTRUCTURE
  1 ****  13 GROUP 4 **** **** 0

# MOE 2024.06 (io_trps.svl 2023.06)
