@<TRIPOS>MOLECULE
NONAME
63 65 1 0 0 
SMALL
USER_CHARGES


@<TRIPOS>ATOM
  1 O       -0.8170     0.7020    -0.8150 O.2   1 <1>  -0.5700 
  2 C       -1.4790     1.1050     0.1080 C.2   1 <1>   0.5690 
  3 N       -1.0850     2.1080     0.9320 N.am  1 <1>  -0.7300 
  4 C       -2.8160     0.4510     0.3460 C.3   1 <1>  -0.0990 
  5 C        0.1910     2.8630     0.8600 C.3   1 <1>   0.2200 
  6 C       -2.6880    -1.0350     0.0190 C.3   1 <1>   0.3430 
  7 C        0.2340     3.6870    -0.4450 C.3   1 <1>  -0.1600 
  8 C        1.3730     1.8950     1.0280 C.3   1 <1>  -0.1600 
  9 N       -3.9980    -1.7340     0.1430 N.4   1 <1>  -0.9590 
 10 C        0.4110     5.1950    -0.2100 C.3   1 <1>  -0.1600 
 11 C        2.6210     2.5170     1.6770 C.3   1 <1>  -0.1600 
 12 C       -5.0110    -1.3910    -0.8950 C.3   1 <1>   0.3430 
 13 C       -3.8740    -3.2220     0.1020 C.3   1 <1>   0.3430 
 14 C        1.8690     5.6510    -0.0410 C.3   1 <1>  -0.1600 
 15 C        3.2530     3.6770     0.8920 C.3   1 <1>  -0.1600 
 16 C       -6.0240    -2.5280    -0.7880 C.3   1 <1>   0.2000 
 17 C       -5.1200    -3.7510    -0.6220 C.3   1 <1>  -0.0800 
 18 C        2.6120     5.0530     1.1640 C.3   1 <1>  -0.1600 
 19 O       -6.7420    -2.3450     0.3980 O.3   1 <1>  -0.5600 
 20 C       -5.7740    -4.9540     0.0870 C.3   1 <1>   0.0200 
 21 C       -8.0090    -1.7790     0.2450 C.3   1 <1>   0.0400 
 22 C       -4.8250    -6.1370     0.1260 C.2   1 <1>  -0.0400 
 23 O       -3.7120    -6.0590     0.8060 O.3   1 <1>  -0.0190 
 24 C       -4.8780    -7.3540    -0.4360 C.2   1 <1>  -0.1500 
 25 N       -3.0100    -7.1470     0.7160 N.2   1 <1>  -0.4100 
 26 C       -3.6900    -7.9510    -0.0210 C.2   1 <1>   0.1080 
 27 C       -3.2510    -9.3520    -0.3830 C.3   1 <1>  -0.0590 
 28 H       -1.7120     2.4490     1.6610 H     1 <1>   0.3700 
 29 H       -3.1060     0.5810     1.3710 H     1 <1>   0.0800 
 30 H       -3.5310     0.9250    -0.3000 H     1 <1>   0.0800 
 31 H        0.1980     3.5350     1.7010 H     1 <1>   0.0800 
 32 H       -1.9710    -1.4770     0.6940 H     1 <1>   0.0800 
 33 H       -2.3060    -1.1500    -0.9840 H     1 <1>   0.0800 
 34 H        1.0130     3.3310    -1.0960 H     1 <1>   0.0800 
 35 H       -0.6900     3.5530    -0.9790 H     1 <1>   0.0800 
 36 H        1.0660     1.0830     1.6630 H     1 <1>   0.0800 
 37 H        1.6370     1.4700     0.0750 H     1 <1>   0.0800 
 38 H       -4.4440    -1.5200     1.0490 H     1 <1>   0.4500 
 39 H        0.0150     5.7090    -1.0700 H     1 <1>   0.0800 
 40 H       -0.1740     5.5110     0.6360 H     1 <1>   0.0800 
 41 H        2.3950     2.8320     2.6810 H     1 <1>   0.0800 
 42 H        3.3580     1.7360     1.7570 H     1 <1>   0.0800 
 43 H       -5.4730    -0.4350    -0.7140 H     1 <1>   0.0800 
 44 H       -4.5560    -1.3990    -1.8720 H     1 <1>   0.0800 
 45 H       -2.9870    -3.5230    -0.4330 H     1 <1>   0.0800 
 46 H       -3.8230    -3.6150     1.1050 H     1 <1>   0.0800 
 47 H        2.4190     5.4550    -0.9460 H     1 <1>   0.0800 
 48 H        1.8530     6.7200     0.0820 H     1 <1>   0.0800 
 49 H        4.2830     3.7400     1.2000 H     1 <1>   0.0800 
 50 H        3.2680     3.4480    -0.1600 H     1 <1>   0.0800 
 51 H       -6.6900    -2.6060    -1.6320 H     1 <1>   0.0800 
 52 H       -4.8080    -4.0730    -1.6010 H     1 <1>   0.0800 
 53 H        1.9710     5.0290     2.0270 H     1 <1>   0.0800 
 54 H        3.4140     5.7310     1.4030 H     1 <1>   0.0800 
 55 H       -6.6690    -5.2400    -0.4380 H     1 <1>   0.0800 
 56 H       -6.0510    -4.7000     1.0960 H     1 <1>   0.0800 
 57 H       -8.4480    -1.6680     1.2220 H     1 <1>   0.0800 
 58 H       -8.6240    -2.4350    -0.3480 H     1 <1>   0.0800 
 59 H       -7.9230    -0.8140    -0.2230 H     1 <1>   0.0800 
 60 H       -5.6300    -7.7990    -1.0610 H     1 <1>   0.1500 
 61 H       -3.9750   -10.0630    -0.0310 H     1 <1>   0.0800 
 62 H       -2.3020    -9.5700     0.0740 H     1 <1>   0.0800 
 63 H       -3.1530    -9.4420    -1.4490 H     1 <1>   0.0800 
@<TRIPOS>BOND
  1   1   2  2   
  2   2   3  am  
  3   2   4  1   
  4   3   5  1   
  5   3  28  1   
  6   4   6  1   
  7   4  29  1   
  8   4  30  1   
  9   5   7  1   
 10   5   8  1   
 11   5  31  1   
 12   6   9  1   
 13   6  32  1   
 14   6  33  1   
 15   7  10  1   
 16   7  34  1   
 17   7  35  1   
 18   8  11  1   
 19   8  36  1   
 20   8  37  1   
 21   9  12  1   
 22   9  13  1   
 23   9  38  1   
 24  10  14  1   
 25  10  39  1   
 26  10  40  1   
 27  11  15  1   
 28  11  41  1   
 29  11  42  1   
 30  12  16  1   
 31  12  43  1   
 32  12  44  1   
 33  13  17  1   
 34  13  45  1   
 35  13  46  1   
 36  14  18  1   
 37  14  47  1   
 38  14  48  1   
 39  15  18  1   
 40  15  49  1   
 41  15  50  1   
 42  16  17  1   
 43  16  19  1   
 44  16  51  1   
 45  17  20  1   
 46  17  52  1   
 47  18  53  1   
 48  18  54  1   
 49  19  21  1   
 50  20  22  1   
 51  20  55  1   
 52  20  56  1   
 53  21  57  1   
 54  21  58  1   
 55  21  59  1   
 56  22  23  1   
 57  22  24  2   
 58  23  25  1   
 59  24  26  1   
 60  24  60  1   
 61  25  26  2   
 62  26  27  1   
 63  27  61  1   
 64  27  62  1   
 65  27  63  1   
@<TRIPOS>SUBSTRUCTURE
  1 ****   6 GROUP 4 **** **** 0

# MOE 2024.06 (io_trps.svl 2023.06)
