@<TRIPOS>MOLECULE
NONAME
39 42 1 0 0 
SMALL
USER_CHARGES


@<TRIPOS>ATOM
  1 S        0.0090     0.1270    -1.1740 S.o2  1 <1>   1.5000 
  2 O        0.9500    -0.5590    -2.0330 O.2   1 <1>  -0.6500 
  3 O       -0.8660     1.1300    -1.7430 O.2   1 <1>  -0.6500 
  4 N       -0.9880    -1.0570    -0.4800 N.am  1 <1>  -0.8490 
  5 C        0.9060     0.7780     0.2580 C.2   1 <1>  -0.0220 
  6 C       -1.5220    -1.9670    -1.4990 C.3   1 <1>   0.1960 
  7 C       -2.0790    -0.4640     0.3000 C.3   1 <1>   0.1960 
  8 S        0.5280     2.4070     0.8170 S.3   1 <1>  -0.0800 
  9 C        1.8500     0.2410     1.0600 C.2   1 <1>  -0.1500 
 10 C       -2.2670    -3.1200    -0.8260 C.3   1 <1>  -0.1600 
 11 C       -2.8340    -1.5610     1.0480 C.3   1 <1>  -0.1600 
 12 C        1.6860     2.2950     2.1290 C.2   1 <1>  -0.1100 
 13 C        2.2950     1.0970     2.1170 C.2   1 <1>  -0.1500 
 14 C       -3.3900    -2.6020     0.0730 C.3   1 <1>   0.4600 
 15 O       -4.3240    -1.9760    -0.7860 O.3   1 <1>  -0.5600 
 16 C       -4.0880    -3.7460     0.7990 C.2   1 <1>  -0.1400 
 17 C       -5.6440    -1.8080    -0.3220 C.3   1 <1>   0.1200 
 18 S       -3.2310    -4.8840     1.8270 S.3   1 <1>  -0.0800 
 19 C       -5.3960    -4.0330     0.7610 C.2   1 <1>  -0.1810 
 20 C       -6.3260    -3.1650    -0.0560 C.3   1 <1>   0.0210 
 21 C       -4.7250    -5.7490     2.1680 C.2   1 <1>  -0.1100 
 22 C       -5.7670    -5.1780     1.5340 C.2   1 <1>  -0.1500 
 23 H       -0.7160    -2.3780    -2.0840 H     1 <1>   0.0800 
 24 H       -2.1810    -1.4320    -2.1640 H     1 <1>   0.0800 
 25 H       -2.7540     0.0710    -0.3510 H     1 <1>   0.0800 
 26 H       -1.6810     0.2340     1.0170 H     1 <1>   0.0800 
 27 H        2.2580    -0.7490     0.9430 H     1 <1>   0.1500 
 28 H       -1.5640    -3.6860    -0.2430 H     1 <1>   0.0800 
 29 H       -2.6810    -3.7770    -1.5690 H     1 <1>   0.0800 
 30 H       -3.6280    -1.1370     1.6320 H     1 <1>   0.0800 
 31 H       -2.1550    -2.0400     1.7300 H     1 <1>   0.0800 
 32 H        1.7890     3.1490     2.7760 H     1 <1>   0.1500 
 33 H        3.0490     0.7710     2.8140 H     1 <1>   0.1500 
 34 H       -6.1880    -1.2620    -1.0730 H     1 <1>   0.0800 
 35 H       -5.6180    -1.2200     0.5780 H     1 <1>   0.0800 
 36 H       -6.5520    -3.6500    -0.9880 H     1 <1>   0.0800 
 37 H       -7.2450    -3.0030     0.4770 H     1 <1>   0.0800 
 38 H       -4.6620    -6.6050     2.8150 H     1 <1>   0.1500 
 39 H       -6.7880    -5.5150     1.5770 H     1 <1>   0.1500 
@<TRIPOS>BOND
  1   1   2  2   
  2   1   3  2   
  3   1   4  am  
  4   1   5  1   
  5   4   6  1   
  6   4   7  1   
  7   5   8  1   
  8   5   9  2   
  9   6  10  1   
 10   6  23  1   
 11   6  24  1   
 12   7  11  1   
 13   7  25  1   
 14   7  26  1   
 15   8  12  1   
 16   9  13  1   
 17   9  27  1   
 18  10  14  1   
 19  10  28  1   
 20  10  29  1   
 21  11  14  1   
 22  11  30  1   
 23  11  31  1   
 24  12  13  2   
 25  12  32  1   
 26  13  33  1   
 27  14  15  1   
 28  14  16  1   
 29  15  17  1   
 30  16  18  1   
 31  16  19  2   
 32  17  20  1   
 33  17  34  1   
 34  17  35  1   
 35  18  21  1   
 36  19  20  1   
 37  19  22  1   
 38  20  36  1   
 39  20  37  1   
 40  21  22  2   
 41  21  38  1   
 42  22  39  1   
@<TRIPOS>SUBSTRUCTURE
  1 ****   7 GROUP 4 **** **** 0

# MOE 2024.06 (io_trps.svl 2023.06)
