@<TRIPOS>MOLECULE
NONAME
52 54 1 0 0 
SMALL
USER_CHARGES


@<TRIPOS>ATOM
  1 O       -0.5810     0.2160     0.4400 O.2   1 <1>  -0.5700 
  2 C       -1.5000     0.8890     0.0150 C.2   1 <1>   0.5440 
  3 N       -2.6380     0.2590    -0.4540 N.am  1 <1>  -0.6600 
  4 C       -1.3830     2.3350     0.0280 C.ar  1 <1>   0.0860 
  5 C       -3.9160     1.0070    -0.6570 C.3   1 <1>   0.2200 
  6 C       -2.6500    -1.2250    -0.6290 C.3   1 <1>   0.0600 
  7 C       -1.4050     3.0780    -1.1480 C.ar  1 <1>  -0.1500 
  8 C       -1.2670     3.0370     1.2230 C.ar  1 <1>  -0.1500 
  9 C       -5.1300     0.3950     0.0370 C.3   1 <1>  -0.1600 
 10 C       -4.3300     1.1000    -2.1210 C.3   1 <1>  -0.1600 
 11 C       -1.3460     4.4590    -1.1330 C.ar  1 <1>  -0.1500 
 12 C       -1.2080     4.4180     1.2410 C.ar  1 <1>  -0.1500 
 13 C       -6.3270     1.0320    -0.6820 C.3   1 <1>  -0.0800 
 14 C       -5.8170     1.4750    -2.0670 C.3   1 <1>  -0.0800 
 15 C       -1.2530     5.1610     0.0660 C.ar  1 <1>  -0.1430 
 16 C       -6.8510     2.2970     0.0130 C.3   1 <1>  -0.1600 
 17 C       -6.0610     2.9890    -2.1560 C.3   1 <1>  -0.1600 
 18 C       -1.1920     6.7030     0.1380 C.3   1 <1>   0.1430 
 19 C       -7.1370     3.2700    -1.1190 C.3   1 <1>   0.2000 
 20 C       -1.2600     7.3770    -1.2430 C.3   1 <1>  -0.2400 
 21 C        0.1250     7.1350     0.8000 C.3   1 <1>  -0.2400 
 22 C       -2.3750     7.2260     0.9660 C.3   1 <1>  -0.2400 
 23 O       -7.0310     4.5670    -0.6680 O.3   1 <1>  -0.6800 
 24 H       -3.8180     2.0100    -0.2790 H     1 <1>   0.0800 
 25 H       -3.2860    -1.5090    -1.4470 H     1 <1>   0.0800 
 26 H       -3.0010    -1.6910     0.2750 H     1 <1>   0.0800 
 27 H       -1.6560    -1.5830    -0.8350 H     1 <1>   0.0800 
 28 H       -1.4700     2.5570    -2.0870 H     1 <1>   0.1500 
 29 H       -1.2260     2.4840     2.1450 H     1 <1>   0.1500 
 30 H       -5.1690    -0.6660    -0.1260 H     1 <1>   0.0800 
 31 H       -5.1280     0.5930     1.0940 H     1 <1>   0.0800 
 32 H       -3.7450     1.8220    -2.6610 H     1 <1>   0.0800 
 33 H       -4.2320     0.1410    -2.5960 H     1 <1>   0.0800 
 34 H       -1.3730     4.9670    -2.0780 H     1 <1>   0.1500 
 35 H       -1.1230     4.9120     2.1920 H     1 <1>   0.1500 
 36 H       -7.1290     0.3200    -0.7910 H     1 <1>   0.0800 
 37 H       -6.3660     0.9710    -2.8450 H     1 <1>   0.0800 
 38 H       -6.0940     2.7060     0.6610 H     1 <1>   0.0800 
 39 H       -7.7390     2.0920     0.5830 H     1 <1>   0.0800 
 40 H       -6.3850     3.2760    -3.1400 H     1 <1>   0.0800 
 41 H       -5.1640     3.5260    -1.9020 H     1 <1>   0.0800 
 42 H       -8.1220     3.1160    -1.5270 H     1 <1>   0.0800 
 43 H       -1.2180     8.4470    -1.1440 H     1 <1>   0.0800 
 44 H       -2.1780     7.1250    -1.7420 H     1 <1>   0.0800 
 45 H       -0.4310     7.0690    -1.8550 H     1 <1>   0.0800 
 46 H        0.2040     8.2070     0.8270 H     1 <1>   0.0800 
 47 H        0.9600     6.7440     0.2460 H     1 <1>   0.0800 
 48 H        0.1910     6.7700     1.8080 H     1 <1>   0.0800 
 49 H       -2.3700     8.3010     0.9990 H     1 <1>   0.0800 
 50 H       -2.3340     6.8620     1.9760 H     1 <1>   0.0800 
 51 H       -3.3020     6.9020     0.5280 H     1 <1>   0.0800 
 52 H       -6.1430     4.7170    -0.2960 H     1 <1>   0.4000 
@<TRIPOS>BOND
  1   1   2  2   
  2   2   3  am  
  3   2   4  1   
  4   3   5  1   
  5   3   6  1   
  6   4   7  ar  
  7   4   8  ar  
  8   5   9  1   
  9   5  10  1   
 10   5  24  1   
 11   6  25  1   
 12   6  26  1   
 13   6  27  1   
 14   7  11  ar  
 15   7  28  1   
 16   8  12  ar  
 17   8  29  1   
 18   9  13  1   
 19   9  30  1   
 20   9  31  1   
 21  10  14  1   
 22  10  32  1   
 23  10  33  1   
 24  11  15  ar  
 25  11  34  1   
 26  12  15  ar  
 27  12  35  1   
 28  13  14  1   
 29  13  16  1   
 30  13  36  1   
 31  14  17  1   
 32  14  37  1   
 33  15  18  1   
 34  16  19  1   
 35  16  38  1   
 36  16  39  1   
 37  17  19  1   
 38  17  40  1   
 39  17  41  1   
 40  18  20  1   
 41  18  21  1   
 42  18  22  1   
 43  19  23  1   
 44  19  42  1   
 45  20  43  1   
 46  20  44  1   
 47  20  45  1   
 48  21  46  1   
 49  21  47  1   
 50  21  48  1   
 51  22  49  1   
 52  22  50  1   
 53  22  51  1   
 54  23  52  1   
@<TRIPOS>SUBSTRUCTURE
  1 ****   7 GROUP 4 **** **** 0

# MOE 2024.06 (io_trps.svl 2023.06)
