@<TRIPOS>MOLECULE
NONAME
46 48 1 0 0 
SMALL
USER_CHARGES


@<TRIPOS>ATOM
  1 O       -0.3560     1.0490    -0.0860 O.3   1 <1>  -0.0190 
  2 N       -0.4500     1.6620     1.0570 N.2   1 <1>  -0.4100 
  3 C        0.8410     1.1530    -0.5980 C.2   1 <1>  -0.0400 
  4 C        0.7070     2.1690     1.2890 C.2   1 <1>   0.1080 
  5 C        1.5900     1.8760     0.2500 C.2   1 <1>  -0.1810 
  6 C        1.1330     0.5040    -1.9350 C.3   1 <1>  -0.0600 
  7 C        1.0350     2.9700     2.5310 C.3   1 <1>  -0.0590 
  8 C        3.0360     2.3040     0.1510 C.3   1 <1>   0.3900 
  9 N        3.0510     3.7180    -0.2640 N.pl3 1 <1>  -0.8690 
 10 C        4.1280     4.5230    -0.3320 C.ar  1 <1>   0.4100 
 11 N        5.2830     3.9910     0.0030 N.ar  1 <1>  -0.6200 
 12 C        3.9990     5.8700    -0.7570 C.ar  1 <1>  -0.1430 
 13 C        6.3620     4.7520    -0.0790 C.ar  1 <1>   0.7710 
 14 C        5.1360     6.6180    -0.8530 C.ar  1 <1>   0.2180 
 15 C        2.5980     6.4070    -1.0760 C.3   1 <1>  -0.0960 
 16 N        6.3000     6.0240    -0.4980 N.ar  1 <1>  -0.1790 
 17 N        7.5660     4.2340     0.2660 N.pl3 1 <1>  -0.8380 
 18 C        5.2280     8.0650    -1.3220 C.3   1 <1>  -0.0970 
 19 C        7.7100     2.8170     0.7040 C.3   1 <1>   0.2090 
 20 C        8.8910     4.9140     0.3130 C.3   1 <1>   0.2090 
 21 C        9.2090     2.5760     0.7990 C.3   1 <1>  -0.1600 
 22 C        9.8010     3.9540     1.0650 C.3   1 <1>  -0.1600 
 23 H        0.4680     0.8980    -2.6810 H     1 <1>   0.0800 
 24 H        0.9820    -0.5580    -1.8620 H     1 <1>   0.0800 
 25 H        2.1460     0.6930    -2.2380 H     1 <1>   0.0800 
 26 H        0.1360     3.1670     3.0870 H     1 <1>   0.0800 
 27 H        1.4870     3.9050     2.2600 H     1 <1>   0.0800 
 28 H        1.7110     2.4140     3.1540 H     1 <1>   0.0800 
 29 H        3.5550     1.7090    -0.5810 H     1 <1>   0.0800 
 30 H        3.5290     2.1900     1.1020 H     1 <1>   0.0800 
 31 H        2.1240     4.0430    -0.5510 H     1 <1>   0.4000 
 32 H        1.9150     6.1550    -0.2830 H     1 <1>   0.0800 
 33 H        2.2350     5.9680    -1.9900 H     1 <1>   0.0800 
 34 H        2.5710     7.4750    -1.1790 H     1 <1>   0.0800 
 35 H        7.1870     6.5060    -0.5380 H     1 <1>   0.4570 
 36 H        4.4090     8.3260    -1.9660 H     1 <1>   0.0800 
 37 H        6.1310     8.2270    -1.8840 H     1 <1>   0.0800 
 38 H        5.2240     8.7290    -0.4750 H     1 <1>   0.0800 
 39 H        7.2500     2.1400     0.0020 H     1 <1>   0.0800 
 40 H        7.2510     2.6950     1.6720 H     1 <1>   0.0800 
 41 H        8.8390     5.8610     0.8240 H     1 <1>   0.0800 
 42 H        9.2620     5.0490    -0.6900 H     1 <1>   0.0800 
 43 H        9.5640     2.1980    -0.1440 H     1 <1>   0.0800 
 44 H        9.4520     1.8680     1.5720 H     1 <1>   0.0800 
 45 H        9.7550     4.1730     2.1180 H     1 <1>   0.0800 
 46 H       10.8240     4.0290     0.7390 H     1 <1>   0.0800 
@<TRIPOS>BOND
  1   1   2  1   
  2   1   3  1   
  3   2   4  2   
  4   3   5  2   
  5   3   6  1   
  6   4   5  1   
  7   4   7  1   
  8   5   8  1   
  9   6  23  1   
 10   6  24  1   
 11   6  25  1   
 12   7  26  1   
 13   7  27  1   
 14   7  28  1   
 15   8   9  1   
 16   8  29  1   
 17   8  30  1   
 18   9  10  1   
 19   9  31  1   
 20  10  11  ar  
 21  10  12  ar  
 22  11  13  ar  
 23  12  14  ar  
 24  12  15  1   
 25  13  16  ar  
 26  13  17  1   
 27  14  16  ar  
 28  14  18  1   
 29  15  32  1   
 30  15  33  1   
 31  15  34  1   
 32  16  35  1   
 33  17  19  1   
 34  17  20  1   
 35  18  36  1   
 36  18  37  1   
 37  18  38  1   
 38  19  21  1   
 39  19  39  1   
 40  19  40  1   
 41  20  22  1   
 42  20  41  1   
 43  20  42  1   
 44  21  22  1   
 45  21  43  1   
 46  21  44  1   
 47  22  45  1   
 48  22  46  1   
@<TRIPOS>SUBSTRUCTURE
  1 ****  10 GROUP 4 **** **** 0

# MOE 2024.06 (io_trps.svl 2023.06)
