@<TRIPOS>MOLECULE
NONAME
27 27 1 0 0 
SMALL
USER_CHARGES


@<TRIPOS>ATOM
  1 O        0.8400    -0.7380    -1.4790 O.2   1 <1>  -0.5700 
  2 C        1.5070    -0.9110    -0.4910 C.2   1 <1>   0.6590 
  3 O        2.2120     0.0480     0.0970 O.3   1 <1>  -0.4300 
  4 C        1.5780    -2.2590     0.1760 C.3   1 <1>   0.0420 
  5 C        2.3690     1.3850    -0.3240 C.3   1 <1>   0.2800 
  6 C        2.3320    -3.2030    -0.6960 C.2   1 <1>   0.4480 
  7 C        0.2100    -2.9370     0.3010 C.3   1 <1>   0.1200 
  8 C        3.0280     1.4210    -1.7080 C.3   1 <1>  -0.2400 
  9 C        3.3030     2.0260     0.7020 C.3   1 <1>  -0.2400 
 10 C        1.0160     2.1030    -0.3050 C.3   1 <1>  -0.2400 
 11 O        3.4600    -3.0670    -1.0690 O.2   1 <1>  -0.5700 
 12 C        1.4380    -4.3830    -0.9740 C.3   1 <1>   0.1810 
 13 O        0.3930    -4.2770    -0.0490 O.3   1 <1>  -0.5600 
 14 H        2.0540    -2.1850     1.1350 H     1 <1>   0.0800 
 15 H       -0.5090    -2.5200    -0.3850 H     1 <1>   0.0800 
 16 H       -0.1790    -2.8870     1.3030 H     1 <1>   0.0800 
 17 H        3.9360     0.8460    -1.7050 H     1 <1>   0.0800 
 18 H        3.2680     2.4340    -1.9740 H     1 <1>   0.0800 
 19 H        2.3680     1.0350    -2.4620 H     1 <1>   0.0800 
 20 H        4.2480     1.5140     0.7170 H     1 <1>   0.0800 
 21 H        2.8660     1.9860     1.6830 H     1 <1>   0.0800 
 22 H        3.4800     3.0570     0.4530 H     1 <1>   0.0800 
 23 H        0.3580     1.7120    -1.0590 H     1 <1>   0.0800 
 24 H        1.1550     3.1500    -0.5080 H     1 <1>   0.0800 
 25 H        0.5510     2.0040     0.6590 H     1 <1>   0.0800 
 26 H        1.9500    -5.3160    -0.8240 H     1 <1>   0.0800 
 27 H        1.0300    -4.3260    -1.9680 H     1 <1>   0.0800 
@<TRIPOS>BOND
  1   1   2  2   
  2   2   3  1   
  3   2   4  1   
  4   3   5  1   
  5   4   6  1   
  6   4   7  1   
  7   4  14  1   
  8   5   8  1   
  9   5   9  1   
 10   5  10  1   
 11   6  11  2   
 12   6  12  1   
 13   7  13  1   
 14   7  15  1   
 15   7  16  1   
 16   8  17  1   
 17   8  18  1   
 18   8  19  1   
 19   9  20  1   
 20   9  21  1   
 21   9  22  1   
 22  10  23  1   
 23  10  24  1   
 24  10  25  1   
 25  12  13  1   
 26  12  26  1   
 27  12  27  1   
@<TRIPOS>SUBSTRUCTURE
  1 ****   2 GROUP 4 **** **** 0

# MOE 2024.06 (io_trps.svl 2023.06)
