@<TRIPOS>MOLECULE
NONAME
41 43 1 0 0 
SMALL
USER_CHARGES


@<TRIPOS>ATOM
  1 CL       1.5160     0.3320     1.7470 Cl    1 <1>  -0.1770 
  2 C        2.7030    -0.4560     0.7340 C.ar  1 <1>   0.1770 
  3 C        3.3330     0.2410    -0.2840 C.ar  1 <1>   0.0860 
  4 C        3.0080    -1.7830     0.9720 C.ar  1 <1>   0.1600 
  5 C        3.0750     1.6300    -0.5750 C.2   1 <1>   0.5440 
  6 C        4.2420    -0.5030    -1.0230 C.ar  1 <1>  -0.1500 
  7 N        3.8940    -2.4840     0.2780 N.ar  1 <1>  -0.6200 
  8 O        2.4110     1.8980    -1.5570 O.2   1 <1>  -0.5700 
  9 N        3.6030     2.6470     0.1940 N.am  1 <1>  -0.6600 
 10 C        4.4830    -1.8280    -0.7100 C.ar  1 <1>   0.1600 
 11 C        4.4480     2.4070     1.4030 C.3   1 <1>   0.1400 
 12 C        3.3900     4.0790    -0.1680 C.3   1 <1>   0.1400 
 13 C        5.9320     2.2700     1.0270 C.3   1 <1>   0.1100 
 14 C        4.6590     4.9340    -0.0400 C.3   1 <1>  -0.1600 
 15 N        6.5740     3.5510     0.6720 N.3   1 <1>  -0.8100 
 16 C        5.9470     4.2310    -0.4780 C.3   1 <1>   0.1100 
 17 C        8.0350     3.3710     0.4720 C.3   1 <1>   0.2900 
 18 C        8.8670     4.6570     0.4550 C.2   1 <1>   0.2980 
 19 O       10.1070     4.5830     0.0860 O.3   1 <1>  -0.2800 
 20 N        8.5320     5.8560     0.7620 N.2   1 <1>  -0.3380 
 21 C       10.5290     5.8020     0.1770 C.2   1 <1>   0.2980 
 22 N        9.6210     6.6040     0.5770 N.2   1 <1>  -0.3380 
 23 C       11.9600     6.1340    -0.1750 C.3   1 <1>  -0.0600 
 24 H        2.4990    -2.2900     1.7740 H     1 <1>   0.1500 
 25 H        4.7560    -0.0390    -1.8470 H     1 <1>   0.1500 
 26 H        5.1940    -2.3810    -1.3020 H     1 <1>   0.1500 
 27 H        4.1300     1.5060     1.8930 H     1 <1>   0.0800 
 28 H        4.3260     3.2090     2.1090 H     1 <1>   0.0800 
 29 H        2.6160     4.4870     0.4570 H     1 <1>   0.0800 
 30 H        3.0490     4.1430    -1.1870 H     1 <1>   0.0800 
 31 H        6.0360     1.5670     0.2190 H     1 <1>   0.0800 
 32 H        6.4420     1.8650     1.8840 H     1 <1>   0.0800 
 33 H        4.7690     5.2930     0.9680 H     1 <1>   0.0800 
 34 H        4.5200     5.8020    -0.6580 H     1 <1>   0.0800 
 35 H        6.6110     4.9910    -0.8530 H     1 <1>   0.0800 
 36 H        5.7560     3.5370    -1.2800 H     1 <1>   0.0800 
 37 H        8.2010     2.8460    -0.4530 H     1 <1>   0.0800 
 38 H        8.4240     2.7630     1.2680 H     1 <1>   0.0800 
 39 H       12.6260     5.5840     0.4630 H     1 <1>   0.0800 
 40 H       12.1330     7.1860    -0.0420 H     1 <1>   0.0800 
 41 H       12.1510     5.8720    -1.1990 H     1 <1>   0.0800 
@<TRIPOS>BOND
  1   1   2  1   
  2   2   3  ar  
  3   2   4  ar  
  4   3   5  1   
  5   3   6  ar  
  6   4   7  ar  
  7   4  24  1   
  8   5   8  2   
  9   5   9  am  
 10   6  10  ar  
 11   6  25  1   
 12   7  10  ar  
 13   9  11  1   
 14   9  12  1   
 15  10  26  1   
 16  11  13  1   
 17  11  27  1   
 18  11  28  1   
 19  12  14  1   
 20  12  29  1   
 21  12  30  1   
 22  13  15  1   
 23  13  31  1   
 24  13  32  1   
 25  14  16  1   
 26  14  33  1   
 27  14  34  1   
 28  15  16  1   
 29  15  17  1   
 30  16  35  1   
 31  16  36  1   
 32  17  18  1   
 33  17  37  1   
 34  17  38  1   
 35  18  19  1   
 36  18  20  2   
 37  19  21  1   
 38  20  22  1   
 39  21  22  2   
 40  21  23  1   
 41  23  39  1   
 42  23  40  1   
 43  23  41  1   
@<TRIPOS>SUBSTRUCTURE
  1 ****  13 GROUP 4 **** **** 0

# MOE 2024.06 (io_trps.svl 2023.06)
