@<TRIPOS>MOLECULE
NONAME
63 66 1 0 0 
SMALL
USER_CHARGES


@<TRIPOS>ATOM
  1 O        0.6310    -0.3850    -0.7960 O.2   1 <1>  -0.5700 
  2 C        1.2820    -1.3460    -0.4670 C.2   1 <1>   0.5690 
  3 N        0.7770    -2.3910     0.2570 N.am  1 <1>  -0.6600 
  4 C        2.7400    -1.4140    -0.8690 C.3   1 <1>  -0.0990 
  5 C        1.6530    -3.5020     0.6980 C.3   1 <1>   0.1400 
  6 C       -0.6370    -2.4270     0.7220 C.3   1 <1>   0.0600 
  7 C        3.0790    -2.8240    -1.3860 C.3   1 <1>  -0.0800 
  8 C        2.5900    -3.9500    -0.4460 C.3   1 <1>  -0.0800 
  9 C        4.5860    -3.0330    -1.5940 C.3   1 <1>  -0.1600 
 10 C        3.8570    -4.6510     0.0600 C.3   1 <1>  -0.1600 
 11 C        4.8750    -4.4310    -1.0580 C.3   1 <1>   0.4230 
 12 N        6.3130    -4.6430    -0.6910 N.4   1 <1>  -0.9590 
 13 C        6.7640    -4.2280     0.6790 C.3   1 <1>   0.4860 
 14 C        6.6920    -6.0670    -0.9340 C.3   1 <1>   0.2630 
 15 C        6.8080    -2.7170     0.7860 C.ar  1 <1>  -0.1440 
 16 C        7.6910    -1.9860     0.0010 C.ar  1 <1>  -0.1500 
 17 C        5.9620    -2.0470     1.6600 C.ar  1 <1>  -0.1500 
 18 C        7.7110    -0.6030     0.0630 C.ar  1 <1>   0.0820 
 19 C        5.9710    -0.6640     1.7200 C.ar  1 <1>  -0.1500 
 20 O        8.6030     0.0380    -0.7290 O.3   1 <1>  -0.3630 
 21 C        6.8230     0.0670     0.9110 C.ar  1 <1>   0.0820 
 22 C        9.6330     0.7540    -0.0770 C.3   1 <1>   0.0400 
 23 O        6.7540     1.4170     0.9920 O.3   1 <1>  -0.3630 
 24 C        6.4010     2.1340    -0.1780 C.3   1 <1>   0.2640 
 25 C        7.2950     3.3590    -0.3010 C.ar  1 <1>  -0.1440 
 26 C        8.0810     3.5420    -1.4290 C.ar  1 <1>  -0.1500 
 27 C        7.3330     4.3040     0.7120 C.ar  1 <1>  -0.1500 
 28 C        8.8930     4.6570    -1.5440 C.ar  1 <1>  -0.1500 
 29 C        8.1440     5.4200     0.6000 C.ar  1 <1>  -0.1500 
 30 C        8.9240     5.5970    -0.5290 C.ar  1 <1>  -0.1500 
 31 H        2.9320    -0.6820    -1.6330 H     1 <1>   0.0800 
 32 H        3.3320    -1.1660    -0.0070 H     1 <1>   0.0800 
 33 H        2.2260    -3.1520     1.5400 H     1 <1>   0.0800 
 34 H        1.0550    -4.3360     1.0250 H     1 <1>   0.0800 
 35 H       -1.1220    -3.3100     0.3470 H     1 <1>   0.0800 
 36 H       -1.1740    -1.5640     0.3670 H     1 <1>   0.0800 
 37 H       -0.6670    -2.4310     1.7980 H     1 <1>   0.0800 
 38 H        2.5750    -2.9480    -2.3310 H     1 <1>   0.0800 
 39 H        2.0390    -4.6530    -1.0500 H     1 <1>   0.0800 
 40 H        5.1250    -2.2780    -1.0580 H     1 <1>   0.0800 
 41 H        4.8360    -2.9610    -2.6380 H     1 <1>   0.0800 
 42 H        3.6780    -5.6960     0.2380 H     1 <1>   0.0800 
 43 H        4.1660    -4.1730     0.9680 H     1 <1>   0.0800 
 44 H        4.6200    -5.1140    -1.8540 H     1 <1>   0.0800 
 45 H        6.8490    -4.0520    -1.3410 H     1 <1>   0.4500 
 46 H        6.1140    -4.6390     1.4320 H     1 <1>   0.0800 
 47 H        7.7580    -4.6040     0.8610 H     1 <1>   0.0800 
 48 H        6.1470    -6.7190    -0.2700 H     1 <1>   0.0800 
 49 H        7.7480    -6.2110    -0.7680 H     1 <1>   0.0800 
 50 H        6.4670    -6.3470    -1.9510 H     1 <1>   0.0800 
 51 H        8.3830    -2.4670    -0.6670 H     1 <1>   0.1500 
 52 H        5.2860    -2.5830     2.3050 H     1 <1>   0.1500 
 53 H        5.3140    -0.1400     2.3930 H     1 <1>   0.1500 
 54 H       10.2640     1.1960    -0.8260 H     1 <1>   0.0800 
 55 H       10.2010     0.0730     0.5300 H     1 <1>   0.0800 
 56 H        9.2070     1.5280     0.5360 H     1 <1>   0.0800 
 57 H        6.5040     1.4980    -1.0390 H     1 <1>   0.0800 
 58 H        5.3720     2.4300    -0.0830 H     1 <1>   0.0800 
 59 H        8.0670     2.8150    -2.2230 H     1 <1>   0.1500 
 60 H        6.7310     4.1690     1.5950 H     1 <1>   0.1500 
 61 H        9.5000     4.7930    -2.4220 H     1 <1>   0.1500 
 62 H        8.1680     6.1490     1.3910 H     1 <1>   0.1500 
 63 H        9.5550     6.4650    -0.6170 H     1 <1>   0.1500 
@<TRIPOS>BOND
  1   1   2  2   
  2   2   3  am  
  3   2   4  1   
  4   3   5  1   
  5   3   6  1   
  6   4   7  1   
  7   4  31  1   
  8   4  32  1   
  9   5   8  1   
 10   5  33  1   
 11   5  34  1   
 12   6  35  1   
 13   6  36  1   
 14   6  37  1   
 15   7   8  1   
 16   7   9  1   
 17   7  38  1   
 18   8  10  1   
 19   8  39  1   
 20   9  11  1   
 21   9  40  1   
 22   9  41  1   
 23  10  11  1   
 24  10  42  1   
 25  10  43  1   
 26  11  12  1   
 27  11  44  1   
 28  12  13  1   
 29  12  14  1   
 30  12  45  1   
 31  13  15  1   
 32  13  46  1   
 33  13  47  1   
 34  14  48  1   
 35  14  49  1   
 36  14  50  1   
 37  15  16  ar  
 38  15  17  ar  
 39  16  18  ar  
 40  16  51  1   
 41  17  19  ar  
 42  17  52  1   
 43  18  20  1   
 44  18  21  ar  
 45  19  21  ar  
 46  19  53  1   
 47  20  22  1   
 48  21  23  1   
 49  22  54  1   
 50  22  55  1   
 51  22  56  1   
 52  23  24  1   
 53  24  25  1   
 54  24  57  1   
 55  24  58  1   
 56  25  26  ar  
 57  25  27  ar  
 58  26  28  ar  
 59  26  59  1   
 60  27  29  ar  
 61  27  60  1   
 62  28  30  ar  
 63  28  61  1   
 64  29  30  ar  
 65  29  62  1   
 66  30  63  1   
@<TRIPOS>SUBSTRUCTURE
  1 ****  21 GROUP 4 **** **** 0

# MOE 2024.06 (io_trps.svl 2023.06)
