@<TRIPOS>MOLECULE
NONAME
53 55 1 0 0 
SMALL
USER_CHARGES


@<TRIPOS>ATOM
  1 O        2.0460    -1.1570    -2.7240 O.2   1 <1>  -0.5700 
  2 C        1.7410    -1.3070    -1.5650 C.2   1 <1>   0.5690 
  3 N        1.6770    -0.2730    -0.6880 N.am  1 <1>  -0.7300 
  4 C        1.4170    -2.7140    -1.0530 C.3   1 <1>   0.1710 
  5 C        2.0110     1.1400    -0.9730 C.3   1 <1>   0.1400 
  6 N        0.4590    -2.7610     0.0910 N.3   1 <1>  -0.8100 
  7 C        3.0370     1.6710     0.0400 C.3   1 <1>  -0.0800 
  8 C       -0.8870    -2.2940    -0.2850 C.3   1 <1>   0.1100 
  9 C        0.3010    -4.1250     0.6310 C.3   1 <1>   0.1100 
 10 C        3.2840     3.1710    -0.2030 C.3   1 <1>  -0.1600 
 11 C        4.3660     0.8930    -0.0280 C.3   1 <1>  -0.1600 
 12 C       -1.8190    -2.9670     0.7150 C.3   1 <1>   0.2000 
 13 C       -1.2030    -4.3540     0.8700 C.3   1 <1>  -0.0800 
 14 C        4.3210     3.7390     0.7760 C.3   1 <1>  -0.1600 
 15 C        5.4070     1.4620     0.9460 C.3   1 <1>  -0.1600 
 16 O       -1.6880    -2.3070     1.9220 O.3   1 <1>  -0.6800 
 17 C       -1.8100    -5.3440    -0.1430 C.3   1 <1>  -0.0170 
 18 C        5.6380     2.9580     0.7010 C.3   1 <1>  -0.1600 
 19 C       -1.1680    -6.7200    -0.0460 C.ar  1 <1>  -0.1430 
 20 C       -0.3620    -7.2230    -1.0470 C.ar  1 <1>  -0.1500 
 21 C       -1.3570    -7.5350     1.0520 C.ar  1 <1>  -0.1500 
 22 C        0.2060    -8.4780    -0.9030 C.ar  1 <1>   0.1600 
 23 C       -0.7420    -8.7760     1.0980 C.ar  1 <1>   0.1600 
 24 N        0.0380    -9.2650     0.1470 N.ar  1 <1>  -0.6200 
 25 H        1.3670    -0.4990     0.2610 H     1 <1>   0.3700 
 26 H        2.3460    -3.1600    -0.7470 H     1 <1>   0.0800 
 27 H        1.0310    -3.2910    -1.8750 H     1 <1>   0.0800 
 28 H        2.4070     1.2240    -1.9720 H     1 <1>   0.0800 
 29 H        1.1090     1.7250    -0.9210 H     1 <1>   0.0800 
 30 H        2.6210     1.5600     1.0270 H     1 <1>   0.0800 
 31 H       -0.9650    -1.2210    -0.2430 H     1 <1>   0.0800 
 32 H       -1.1320    -2.6260    -1.2790 H     1 <1>   0.0800 
 33 H        0.7060    -4.8600    -0.0440 H     1 <1>   0.0800 
 34 H        0.8360    -4.1940     1.5630 H     1 <1>   0.0800 
 35 H        3.6360     3.3180    -1.2100 H     1 <1>   0.0800 
 36 H        2.3610     3.7140    -0.0930 H     1 <1>   0.0800 
 37 H        4.2000    -0.1440     0.2080 H     1 <1>   0.0800 
 38 H        4.7560     0.9400    -1.0310 H     1 <1>   0.0800 
 39 H       -2.8560    -2.9640     0.4260 H     1 <1>   0.0800 
 40 H       -1.3730    -4.7360     1.8620 H     1 <1>   0.0800 
 41 H        4.5030     4.7750     0.5460 H     1 <1>   0.0800 
 42 H        3.9320     3.6870     1.7790 H     1 <1>   0.0800 
 43 H        5.0650     1.3150     1.9560 H     1 <1>   0.0800 
 44 H        6.3350     0.9300     0.8310 H     1 <1>   0.0800 
 45 H       -0.7270    -2.1720     2.0630 H     1 <1>   0.4000 
 46 H       -1.6960    -4.9650    -1.1430 H     1 <1>   0.0800 
 47 H       -2.8650    -5.4430     0.0460 H     1 <1>   0.0800 
 48 H        6.3270     3.3410     1.4330 H     1 <1>   0.0800 
 49 H        6.0790     3.0950    -0.2710 H     1 <1>   0.0800 
 50 H       -0.1680    -6.6550    -1.9380 H     1 <1>   0.1500 
 51 H       -1.9750    -7.2190     1.8720 H     1 <1>   0.1500 
 52 H        0.8330    -8.8550    -1.6930 H     1 <1>   0.1500 
 53 H       -0.9000    -9.3980     1.9620 H     1 <1>   0.1500 
@<TRIPOS>BOND
  1   1   2  2   
  2   2   3  am  
  3   2   4  1   
  4   3   5  1   
  5   3  25  1   
  6   4   6  1   
  7   4  26  1   
  8   4  27  1   
  9   5   7  1   
 10   5  28  1   
 11   5  29  1   
 12   6   8  1   
 13   6   9  1   
 14   7  10  1   
 15   7  11  1   
 16   7  30  1   
 17   8  12  1   
 18   8  31  1   
 19   8  32  1   
 20   9  13  1   
 21   9  33  1   
 22   9  34  1   
 23  10  14  1   
 24  10  35  1   
 25  10  36  1   
 26  11  15  1   
 27  11  37  1   
 28  11  38  1   
 29  12  13  1   
 30  12  16  1   
 31  12  39  1   
 32  13  17  1   
 33  13  40  1   
 34  14  18  1   
 35  14  41  1   
 36  14  42  1   
 37  15  18  1   
 38  15  43  1   
 39  15  44  1   
 40  16  45  1   
 41  17  19  1   
 42  17  46  1   
 43  17  47  1   
 44  18  48  1   
 45  18  49  1   
 46  19  20  ar  
 47  19  21  ar  
 48  20  22  ar  
 49  20  50  1   
 50  21  23  ar  
 51  21  51  1   
 52  22  24  ar  
 53  22  52  1   
 54  23  24  ar  
 55  23  53  1   
@<TRIPOS>SUBSTRUCTURE
  1 ****   6 GROUP 4 **** **** 0

# MOE 2024.06 (io_trps.svl 2023.06)
