@<TRIPOS>MOLECULE
NONAME
56 57 1 0 0 
SMALL
USER_CHARGES


@<TRIPOS>ATOM
  1 F       -0.3860     2.3150     0.9350 F     1 <1>  -0.1900 
  2 C       -1.5630     2.0250     0.4440 C.ar  1 <1>   0.1900 
  3 C       -2.5410     3.0040     0.2330 C.ar  1 <1>   0.0830 
  4 C       -1.7920     0.6970     0.1380 C.ar  1 <1>  -0.1500 
  5 O       -2.4370     4.3400     0.4920 O.3   1 <1>  -0.3630 
  6 C       -3.7550     2.5960    -0.2950 C.ar  1 <1>  -0.1500 
  7 C       -3.0150     0.3250    -0.3880 C.ar  1 <1>  -0.1500 
  8 C       -1.2880     4.9250     1.0640 C.3   1 <1>   0.0400 
  9 C       -4.0240     1.2630    -0.6120 C.ar  1 <1>   0.0530 
 10 C       -5.2990     0.8900    -1.1700 C.2   1 <1>   0.0870 
 11 O       -5.8260     1.6390    -2.1050 O.3   1 <1>  -0.0190 
 12 C       -6.1650    -0.1400    -0.9490 C.2   1 <1>  -0.0860 
 13 N       -6.9710     1.1880    -2.5400 N.2   1 <1>  -0.4100 
 14 C       -7.1980     0.1180    -1.8640 C.2   1 <1>   0.3720 
 15 C       -6.1130    -1.2280    -0.0150 C.2   1 <1>   0.7160 
 16 N       -8.3460    -0.6680    -2.0550 N.pl3 1 <1>  -0.8210 
 17 O       -5.2180    -1.3240     0.8020 O.2   1 <1>  -0.5700 
 18 N       -7.0890    -2.1760    -0.0480 N.am  1 <1>  -0.7300 
 19 C       -8.2590    -1.5780    -3.2300 C.3   1 <1>   0.1290 
 20 C       -9.6230     0.0990    -2.0740 C.3   1 <1>   0.1290 
 21 C       -7.3430    -3.3670     0.7600 C.3   1 <1>   0.3000 
 22 C       -8.6200    -4.0200     0.1970 C.3   1 <1>  -0.1600 
 23 C       -6.1700    -4.3360     0.6020 C.3   1 <1>  -0.2400 
 24 C       -7.5170    -2.9640     2.2270 C.3   1 <1>  -0.2400 
 25 C       -9.8980    -3.1550     0.2840 C.3   1 <1>  -0.0990 
 26 C      -10.9960    -3.6950    -0.6070 C.2   1 <1>   0.5690 
 27 O      -11.0910    -3.2700    -1.7330 O.2   1 <1>  -0.5700 
 28 N      -11.8290    -4.6440    -0.1100 N.am  1 <1>  -0.7300 
 29 C      -12.9480    -5.2730    -0.8550 C.3   1 <1>   0.0600 
 30 H       -1.0230    -0.0330     0.3120 H     1 <1>   0.1500 
 31 H       -4.5160     3.3370    -0.4620 H     1 <1>   0.1500 
 32 H       -3.1920    -0.7090    -0.6280 H     1 <1>   0.1500 
 33 H       -1.4720     5.9770     1.1810 H     1 <1>   0.0800 
 34 H       -0.4510     4.7720     0.4050 H     1 <1>   0.0800 
 35 H       -1.1090     4.4770     2.0260 H     1 <1>   0.0800 
 36 H       -7.8320    -1.9640    -0.7290 H     1 <1>   0.3700 
 37 H       -7.3350    -2.1300    -3.2010 H     1 <1>   0.0800 
 38 H       -8.2940    -1.0070    -4.1430 H     1 <1>   0.0800 
 39 H       -9.0800    -2.2750    -3.2170 H     1 <1>   0.0800 
 40 H       -9.6620     0.7650    -1.2290 H     1 <1>   0.0800 
 41 H      -10.4590    -0.5770    -2.0220 H     1 <1>   0.0800 
 42 H       -9.6940     0.6810    -2.9770 H     1 <1>   0.0800 
 43 H       -8.8000    -4.9460     0.7140 H     1 <1>   0.0800 
 44 H       -8.4430    -4.2690    -0.8350 H     1 <1>   0.0800 
 45 H       -6.0170    -4.5770    -0.4340 H     1 <1>   0.0800 
 46 H       -6.3650    -5.2460     1.1390 H     1 <1>   0.0800 
 47 H       -5.2670    -3.9070     0.9960 H     1 <1>   0.0800 
 48 H       -8.2580    -2.1930     2.3300 H     1 <1>   0.0800 
 49 H       -6.5880    -2.5980     2.6270 H     1 <1>   0.0800 
 50 H       -7.8170    -3.8140     2.8120 H     1 <1>   0.0800 
 51 H       -9.6980    -2.1470    -0.0290 H     1 <1>   0.0800 
 52 H      -10.2520    -3.1130     1.2970 H     1 <1>   0.0800 
 53 H      -11.6960    -4.9690     0.8490 H     1 <1>   0.3700 
 54 H      -13.0090    -4.8690    -1.8520 H     1 <1>   0.0800 
 55 H      -13.8780    -5.0830    -0.3480 H     1 <1>   0.0800 
 56 H      -12.7910    -6.3360    -0.9220 H     1 <1>   0.0800 
@<TRIPOS>BOND
  1   1   2  1   
  2   2   3  ar  
  3   2   4  ar  
  4   3   5  1   
  5   3   6  ar  
  6   4   7  ar  
  7   4  30  1   
  8   5   8  1   
  9   6   9  ar  
 10   6  31  1   
 11   7   9  ar  
 12   7  32  1   
 13   8  33  1   
 14   8  34  1   
 15   8  35  1   
 16   9  10  1   
 17  10  11  1   
 18  10  12  2   
 19  11  13  1   
 20  12  14  1   
 21  12  15  1   
 22  13  14  2   
 23  14  16  1   
 24  15  17  2   
 25  15  18  am  
 26  16  19  1   
 27  16  20  1   
 28  18  21  1   
 29  18  36  1   
 30  19  37  1   
 31  19  38  1   
 32  19  39  1   
 33  20  40  1   
 34  20  41  1   
 35  20  42  1   
 36  21  22  1   
 37  21  23  1   
 38  21  24  1   
 39  22  25  1   
 40  22  43  1   
 41  22  44  1   
 42  23  45  1   
 43  23  46  1   
 44  23  47  1   
 45  24  48  1   
 46  24  49  1   
 47  24  50  1   
 48  25  26  1   
 49  25  51  1   
 50  25  52  1   
 51  26  27  2   
 52  26  28  am  
 53  28  29  1   
 54  28  53  1   
 55  29  54  1   
 56  29  55  1   
 57  29  56  1   
@<TRIPOS>SUBSTRUCTURE
  1 ****  12 GROUP 4 **** **** 0

# MOE 2024.06 (io_trps.svl 2023.06)
