@<TRIPOS>MOLECULE
NONAME
51 53 1 0 0 
SMALL
USER_CHARGES


@<TRIPOS>ATOM
  1 O       -0.4830    -0.0560    -0.6020 O.2   1 <1>  -0.5700 
  2 C       -1.4980     0.4830    -0.2010 C.2   1 <1>   0.5440 
  3 N       -1.5010     1.8570    -0.0370 N.am  1 <1>  -0.6600 
  4 C       -2.6590    -0.3300     0.0750 C.ar  1 <1>   0.0860 
  5 C       -0.2350     2.6410    -0.0680 C.3   1 <1>   0.0600 
  6 C       -2.7390     2.6850    -0.0370 C.3   1 <1>   0.0600 
  7 C       -3.0420    -1.3340    -0.8100 C.ar  1 <1>   0.1600 
  8 C       -3.4410    -0.1720     1.2160 C.ar  1 <1>  -0.1500 
  9 N       -4.0910    -2.1300    -0.6800 N.ar  1 <1>  -0.6200 
 10 C       -4.5320    -0.9920     1.3720 C.ar  1 <1>  -0.1500 
 11 C       -4.8290    -1.9520     0.4080 C.ar  1 <1>   0.4100 
 12 N       -5.9220    -2.7610     0.5730 N.pl3 1 <1>  -0.8690 
 13 C       -6.2200    -3.9020    -0.3160 C.3   1 <1>   0.2090 
 14 C       -7.5500    -4.5230     0.0970 C.3   1 <1>  -0.1600 
 15 C       -7.9180    -5.6760    -0.8330 C.3   1 <1>   0.2090 
 16 N       -9.1800    -6.2990    -0.3520 N.pl3 1 <1>  -0.8380 
 17 C       -9.1550    -7.6040     0.1790 C.ar  1 <1>   0.1000 
 18 C      -10.3960    -5.7890    -1.0500 C.3   1 <1>   0.2090 
 19 C      -10.2120    -8.4950    -0.0310 C.ar  1 <1>  -0.1430 
 20 C       -8.0790    -8.0420     0.9490 C.ar  1 <1>  -0.1500 
 21 C      -11.6480    -6.5540    -0.6270 C.3   1 <1>  -0.1600 
 22 C      -10.1630    -9.7810     0.4810 C.ar  1 <1>  -0.1500 
 23 C      -11.4350    -8.0550    -0.8150 C.3   1 <1>  -0.0170 
 24 C       -8.0320    -9.3260     1.4600 C.ar  1 <1>  -0.1500 
 25 C       -9.0740   -10.2020     1.2220 C.ar  1 <1>  -0.1500 
 26 H        0.6100     2.0030     0.1290 H     1 <1>   0.0800 
 27 H       -0.2620     3.4120     0.6810 H     1 <1>   0.0800 
 28 H       -0.1100     3.0890    -1.0390 H     1 <1>   0.0800 
 29 H       -3.5900     2.1050    -0.3480 H     1 <1>   0.0800 
 30 H       -2.6260     3.5080    -0.7210 H     1 <1>   0.0800 
 31 H       -2.9160     3.0720     0.9510 H     1 <1>   0.0800 
 32 H       -2.4300    -1.4790    -1.6840 H     1 <1>   0.1500 
 33 H       -3.1860     0.5720     1.9510 H     1 <1>   0.1500 
 34 H       -5.1660    -0.9040     2.2320 H     1 <1>   0.1500 
 35 H       -6.3380    -2.8190     1.5030 H     1 <1>   0.4000 
 36 H       -5.4260    -4.6260    -0.2420 H     1 <1>   0.0800 
 37 H       -6.2710    -3.5520    -1.3340 H     1 <1>   0.0800 
 38 H       -8.3210    -3.7750     0.0510 H     1 <1>   0.0800 
 39 H       -7.4750    -4.8950     1.1030 H     1 <1>   0.0800 
 40 H       -7.1290    -6.4080    -0.8540 H     1 <1>   0.0800 
 41 H       -8.0470    -5.3120    -1.8380 H     1 <1>   0.0800 
 42 H      -10.2600    -5.8940    -2.1130 H     1 <1>   0.0800 
 43 H      -10.5220    -4.7450    -0.8230 H     1 <1>   0.0800 
 44 H       -7.2710    -7.3710     1.1600 H     1 <1>   0.1500 
 45 H      -12.4880    -6.2240    -1.2090 H     1 <1>   0.0800 
 46 H      -11.8500    -6.3440     0.4090 H     1 <1>   0.0800 
 47 H      -10.9760   -10.4640     0.3070 H     1 <1>   0.1500 
 48 H      -12.3060    -8.5860    -0.4750 H     1 <1>   0.0800 
 49 H      -11.2820    -8.2780    -1.8560 H     1 <1>   0.0800 
 50 H       -7.1870    -9.6410     2.0460 H     1 <1>   0.1500 
 51 H       -9.0420   -11.2020     1.6160 H     1 <1>   0.1500 
@<TRIPOS>BOND
  1   1   2  2   
  2   2   3  am  
  3   2   4  1   
  4   3   5  1   
  5   3   6  1   
  6   4   7  ar  
  7   4   8  ar  
  8   5  26  1   
  9   5  27  1   
 10   5  28  1   
 11   6  29  1   
 12   6  30  1   
 13   6  31  1   
 14   7   9  ar  
 15   7  32  1   
 16   8  10  ar  
 17   8  33  1   
 18   9  11  ar  
 19  10  11  ar  
 20  10  34  1   
 21  11  12  1   
 22  12  13  1   
 23  12  35  1   
 24  13  14  1   
 25  13  36  1   
 26  13  37  1   
 27  14  15  1   
 28  14  38  1   
 29  14  39  1   
 30  15  16  1   
 31  15  40  1   
 32  15  41  1   
 33  16  17  1   
 34  16  18  1   
 35  17  19  ar  
 36  17  20  ar  
 37  18  21  1   
 38  18  42  1   
 39  18  43  1   
 40  19  22  ar  
 41  19  23  1   
 42  20  24  ar  
 43  20  44  1   
 44  21  23  1   
 45  21  45  1   
 46  21  46  1   
 47  22  25  ar  
 48  22  47  1   
 49  23  48  1   
 50  23  49  1   
 51  24  25  ar  
 52  24  50  1   
 53  25  51  1   
@<TRIPOS>SUBSTRUCTURE
  1 ****  13 GROUP 4 **** **** 0

# MOE 2024.06 (io_trps.svl 2023.06)
