@<TRIPOS>MOLECULE
NONAME
45 47 1 0 0 
SMALL
USER_CHARGES


@<TRIPOS>ATOM
  1 F       -0.7100    -1.0670    -1.0540 F     1 <1>  -0.1900 
  2 C       -1.8910    -1.5910    -0.8590 C.ar  1 <1>   0.1900 
  3 C       -2.2350    -2.0470     0.4050 C.ar  1 <1>  -0.1440 
  4 C       -2.7520    -1.6670    -1.9350 C.ar  1 <1>  -0.1500 
  5 C       -3.4980    -2.5930     0.5760 C.ar  1 <1>  -0.1500 
  6 C       -1.2560    -1.9550     1.5660 C.3   1 <1>  -0.0960 
  7 C       -4.0090    -2.2150    -1.7470 C.ar  1 <1>  -0.1500 
  8 C       -4.3880    -2.6730    -0.4900 C.ar  1 <1>  -0.1440 
  9 C       -5.7720    -3.2590    -0.2820 C.3   1 <1>   0.4870 
 10 N       -6.6070    -2.2700     0.4520 N.4   1 <1>  -0.9590 
 11 C       -7.9000    -2.8770     0.9350 C.3   1 <1>   0.3430 
 12 C       -6.7610    -1.0030    -0.3360 C.3   1 <1>   0.3430 
 13 C       -9.1160    -2.5130     0.0650 C.3   1 <1>   0.0000 
 14 C       -7.9560    -0.1980     0.1700 C.3   1 <1>  -0.1600 
 15 C      -10.3520    -3.2500     0.6060 C.3   1 <1>   0.2000 
 16 C       -9.2850    -0.9620     0.0140 C.3   1 <1>  -0.1600 
 17 C       -9.0640    -3.0830    -1.3680 C.3   1 <1>  -0.1600 
 18 O      -10.8310    -2.6830     1.7690 O.3   1 <1>  -0.6800 
 19 C      -11.3750    -3.1960    -0.5190 C.3   1 <1>  -0.1600 
 20 C      -10.5320    -3.2420    -1.8030 C.3   1 <1>  -0.1600 
 21 H       -2.4360    -1.3060    -2.8980 H     1 <1>   0.1500 
 22 H       -3.7770    -2.9600     1.5490 H     1 <1>   0.1500 
 23 H       -1.6770    -2.3600     2.4680 H     1 <1>   0.0800 
 24 H       -0.9910    -0.9270     1.7430 H     1 <1>   0.0800 
 25 H       -0.3600    -2.5030     1.3330 H     1 <1>   0.0800 
 26 H       -4.6780    -2.2790    -2.5890 H     1 <1>   0.1500 
 27 H       -5.6880    -4.1690     0.2880 H     1 <1>   0.0800 
 28 H       -6.2220    -3.4920    -1.2330 H     1 <1>   0.0800 
 29 H       -6.0660    -2.0150     1.2870 H     1 <1>   0.4500 
 30 H       -7.8070    -3.9490     0.9980 H     1 <1>   0.0800 
 31 H       -8.1050    -2.5130     1.9290 H     1 <1>   0.0800 
 32 H       -5.8610    -0.4140    -0.2610 H     1 <1>   0.0800 
 33 H       -6.9190    -1.2360    -1.3760 H     1 <1>   0.0800 
 34 H       -7.7960     0.0490     1.2050 H     1 <1>   0.0800 
 35 H       -8.0160     0.7300    -0.3710 H     1 <1>   0.0800 
 36 H      -10.1140    -4.2810     0.8140 H     1 <1>   0.0800 
 37 H       -9.7540    -0.6750    -0.9120 H     1 <1>   0.0800 
 38 H       -9.9400    -0.6170     0.7950 H     1 <1>   0.0800 
 39 H       -8.5250    -2.4570    -2.0570 H     1 <1>   0.0800 
 40 H       -8.6070    -4.0580    -1.3580 H     1 <1>   0.0800 
 41 H      -11.7180    -3.0390     1.9810 H     1 <1>   0.4000 
 42 H      -12.0600    -4.0250    -0.4710 H     1 <1>   0.0800 
 43 H      -11.9220    -2.2690    -0.4830 H     1 <1>   0.0800 
 44 H      -10.6720    -4.1740    -2.3240 H     1 <1>   0.0800 
 45 H      -10.8240    -2.4380    -2.4580 H     1 <1>   0.0800 
@<TRIPOS>BOND
  1   1   2  1   
  2   2   3  ar  
  3   2   4  ar  
  4   3   5  ar  
  5   3   6  1   
  6   4   7  ar  
  7   4  21  1   
  8   5   8  ar  
  9   5  22  1   
 10   6  23  1   
 11   6  24  1   
 12   6  25  1   
 13   7   8  ar  
 14   7  26  1   
 15   8   9  1   
 16   9  10  1   
 17   9  27  1   
 18   9  28  1   
 19  10  11  1   
 20  10  12  1   
 21  10  29  1   
 22  11  13  1   
 23  11  30  1   
 24  11  31  1   
 25  12  14  1   
 26  12  32  1   
 27  12  33  1   
 28  13  15  1   
 29  13  16  1   
 30  13  17  1   
 31  14  16  1   
 32  14  34  1   
 33  14  35  1   
 34  15  18  1   
 35  15  19  1   
 36  15  36  1   
 37  16  37  1   
 38  16  38  1   
 39  17  20  1   
 40  17  39  1   
 41  17  40  1   
 42  18  41  1   
 43  19  20  1   
 44  19  42  1   
 45  19  43  1   
 46  20  44  1   
 47  20  45  1   
@<TRIPOS>SUBSTRUCTURE
  1 ****  10 GROUP 4 **** **** 0

# MOE 2024.06 (io_trps.svl 2023.06)
