@<TRIPOS>MOLECULE
NONAME
53 57 1 0 0 
SMALL
USER_CHARGES


@<TRIPOS>ATOM
  1 O        0.4680    -1.4940     3.2330 O.2   1 <1>  -0.5700 
  2 C        0.3620    -2.0570     2.1670 C.2   1 <1>   0.5690 
  3 N        1.1490    -1.7480     1.0630 N.am  1 <1>  -0.4770 
  4 C       -0.7030    -3.1680     2.1030 C.3   1 <1>   0.1710 
  5 C        2.0160    -0.6170     0.9570 C.ar  1 <1>   0.1170 
  6 C        1.2870    -2.7890    -0.0080 C.3   1 <1>   0.1400 
  7 N       -1.7120    -3.0190     1.0180 N.3   1 <1>  -0.8100 
  8 C        3.1090    -0.6440     0.0760 C.ar  1 <1>   0.0820 
  9 C        1.8310     0.5510     1.6960 C.ar  1 <1>  -0.1500 
 10 C        2.1260    -2.3260    -1.2030 C.3   1 <1>   0.1200 
 11 C       -2.4840    -1.7620     1.1810 C.3   1 <1>   0.1100 
 12 C       -2.6130    -4.1760     0.9580 C.3   1 <1>   0.1100 
 13 O        3.3030    -1.6940    -0.7580 O.3   1 <1>  -0.3630 
 14 C        4.0050     0.4070    -0.0010 C.ar  1 <1>  -0.1500 
 15 C        2.7170     1.6120     1.6100 C.ar  1 <1>  -0.1500 
 16 C       -3.4170    -1.5190    -0.0210 C.3   1 <1>   0.1430 
 17 C       -3.5460    -4.0470    -0.2530 C.3   1 <1>  -0.1600 
 18 C        3.8120     1.5390     0.7690 C.ar  1 <1>  -0.1500 
 19 C       -4.1790    -0.2250     0.2030 C.ar  1 <1>   0.1670 
 20 C       -4.3480    -2.7360    -0.2080 C.3   1 <1>  -0.1600 
 21 C       -2.5980    -1.2000    -1.3020 C.3   1 <1>  -0.1600 
 22 N       -5.1910    -0.0620     1.0240 N.ar  1 <1>  -0.6200 
 23 C       -3.6720     0.7890    -0.5570 C.ar  1 <1>  -0.1440 
 24 C       -2.5070     0.3320    -1.3990 C.3   1 <1>  -0.0170 
 25 C       -5.6750     1.1700     1.0450 C.ar  1 <1>   0.7200 
 26 C       -4.2630     2.0250    -0.4540 C.ar  1 <1>   0.1600 
 27 N       -5.2820     2.2280     0.3500 N.ar  1 <1>  -0.6200 
 28 N       -6.7170     1.3660     1.8550 N.pl3 1 <1>  -0.9000 
 29 H       -1.2110    -3.1970     3.0520 H     1 <1>   0.0800 
 30 H       -0.1920    -4.1060     1.9860 H     1 <1>   0.0800 
 31 H        0.3200    -3.0690    -0.3810 H     1 <1>   0.0800 
 32 H        1.7490    -3.6620     0.4180 H     1 <1>   0.0800 
 33 H        0.9880     0.6480     2.3540 H     1 <1>   0.1500 
 34 H        1.5740    -1.6210    -1.7980 H     1 <1>   0.0800 
 35 H        2.4070    -3.1610    -1.8190 H     1 <1>   0.0800 
 36 H       -1.8140    -0.9240     1.2700 H     1 <1>   0.0800 
 37 H       -3.0730    -1.8110     2.0830 H     1 <1>   0.0800 
 38 H       -3.1950    -4.2350     1.8640 H     1 <1>   0.0800 
 39 H       -2.0360    -5.0810     0.8640 H     1 <1>   0.0800 
 40 H        4.8430     0.3380    -0.6700 H     1 <1>   0.1500 
 41 H        2.5530     2.4940     2.2040 H     1 <1>   0.1500 
 42 H       -4.2240    -4.8810    -0.2680 H     1 <1>   0.0800 
 43 H       -2.9560    -4.0890    -1.1520 H     1 <1>   0.0800 
 44 H        4.5070     2.3580     0.7100 H     1 <1>   0.1500 
 45 H       -4.9380    -2.6240    -1.1000 H     1 <1>   0.0800 
 46 H       -5.0270    -2.7790     0.6260 H     1 <1>   0.0800 
 47 H       -3.1310    -1.5600    -2.1640 H     1 <1>   0.0800 
 48 H       -1.6240    -1.6560    -1.2910 H     1 <1>   0.0800 
 49 H       -2.5880     0.6710    -2.4170 H     1 <1>   0.0800 
 50 H       -1.5870     0.6840    -0.9640 H     1 <1>   0.0800 
 51 H       -3.8960     2.8530    -1.0360 H     1 <1>   0.1500 
 52 H       -7.2790     2.1840     1.6400 H     1 <1>   0.4000 
 53 H       -7.2120     0.5230     2.1280 H     1 <1>   0.4000 
@<TRIPOS>BOND
  1   1   2  2   
  2   2   3  am  
  3   2   4  1   
  4   3   5  1   
  5   3   6  1   
  6   4   7  1   
  7   4  29  1   
  8   4  30  1   
  9   5   8  ar  
 10   5   9  ar  
 11   6  10  1   
 12   6  31  1   
 13   6  32  1   
 14   7  11  1   
 15   7  12  1   
 16   8  13  1   
 17   8  14  ar  
 18   9  15  ar  
 19   9  33  1   
 20  10  13  1   
 21  10  34  1   
 22  10  35  1   
 23  11  16  1   
 24  11  36  1   
 25  11  37  1   
 26  12  17  1   
 27  12  38  1   
 28  12  39  1   
 29  14  18  ar  
 30  14  40  1   
 31  15  18  ar  
 32  15  41  1   
 33  16  19  1   
 34  16  20  1   
 35  16  21  1   
 36  17  20  1   
 37  17  42  1   
 38  17  43  1   
 39  18  44  1   
 40  19  22  ar  
 41  19  23  ar  
 42  20  45  1   
 43  20  46  1   
 44  21  24  1   
 45  21  47  1   
 46  21  48  1   
 47  22  25  ar  
 48  23  24  1   
 49  23  26  ar  
 50  24  49  1   
 51  24  50  1   
 52  25  27  ar  
 53  25  28  1   
 54  26  27  ar  
 55  26  51  1   
 56  28  52  1   
 57  28  53  1   
@<TRIPOS>SUBSTRUCTURE
  1 ****  11 GROUP 4 **** **** 0

# MOE 2024.06 (io_trps.svl 2023.06)
