@<TRIPOS>MOLECULE
NONAME
43 46 1 0 0 
SMALL
USER_CHARGES


@<TRIPOS>ATOM
  1 S        0.0660     0.7700    -2.1510 S.3   1 <1>  -0.0800 
  2 C       -0.9610     1.1970    -0.7920 C.2   1 <1>  -0.1400 
  3 C       -1.0690    -0.4740    -2.6600 C.2   1 <1>  -0.1100 
  4 C       -2.0670     0.4410    -0.7780 C.2   1 <1>  -0.1810 
  5 C       -0.5980     2.2920     0.2070 C.3   1 <1>   0.4600 
  6 C       -2.1340    -0.5200    -1.8350 C.2   1 <1>  -0.1500 
  7 C       -3.1020     0.6540     0.3030 C.3   1 <1>   0.0210 
  8 O       -1.5490     2.2730     1.2570 O.3   1 <1>  -0.5600 
  9 C        0.7620     2.0140     0.8500 C.3   1 <1>  -0.1600 
 10 C       -0.6040     3.6760    -0.4540 C.3   1 <1>  -0.1600 
 11 C       -2.8990     2.0490     0.9250 C.3   1 <1>   0.1200 
 12 C        1.1640     3.1260     1.8180 C.3   1 <1>   0.2090 
 13 C       -0.2130     4.7690     0.5380 C.3   1 <1>   0.2090 
 14 N        1.1120     4.4450     1.1260 N.pl3 1 <1>  -0.8380 
 15 C        2.2580     5.0120     0.5960 C.ar  1 <1>   0.4100 
 16 N        3.2170     4.1880     0.1950 N.ar  1 <1>  -0.6200 
 17 C        2.3640     6.3930     0.4980 C.ar  1 <1>  -0.1500 
 18 C        4.2890     4.7550    -0.3220 C.ar  1 <1>   0.1600 
 19 C        3.4820     7.0020    -0.0450 C.ar  1 <1>   0.0860 
 20 C        4.4700     6.1150    -0.4640 C.ar  1 <1>  -0.1500 
 21 C        3.5790     8.4430    -0.1550 C.2   1 <1>   0.4230 
 22 O        2.6720     9.1840     0.1210 O.2   1 <1>  -0.5700 
 23 C        4.8640     9.0870    -0.6360 C.3   1 <1>  -0.1790 
 24 H       -0.8140    -1.0460    -3.5330 H     1 <1>   0.1500 
 25 H       -2.9680    -1.1930    -1.9270 H     1 <1>   0.1500 
 26 H       -2.9990    -0.1030     1.0600 H     1 <1>   0.0800 
 27 H       -4.0910     0.5900    -0.1130 H     1 <1>   0.0800 
 28 H        1.5160     1.9430     0.0880 H     1 <1>   0.0800 
 29 H        0.7290     1.0720     1.3650 H     1 <1>   0.0800 
 30 H       -1.5690     3.8830    -0.8760 H     1 <1>   0.0800 
 31 H        0.1060     3.6820    -1.2610 H     1 <1>   0.0800 
 32 H       -3.4770     2.1400     1.8280 H     1 <1>   0.0800 
 33 H       -3.2130     2.8150     0.2370 H     1 <1>   0.0800 
 34 H        2.1570     2.9450     2.1950 H     1 <1>   0.0800 
 35 H        0.4890     3.1440     2.6570 H     1 <1>   0.0800 
 36 H       -0.9430     4.8340     1.3270 H     1 <1>   0.0800 
 37 H       -0.1790     5.7170     0.0310 H     1 <1>   0.0800 
 38 H        1.5560     6.9980     0.8630 H     1 <1>   0.1500 
 39 H        5.0690     4.0900    -0.6520 H     1 <1>   0.1500 
 40 H        5.3820     6.4720    -0.9030 H     1 <1>   0.1500 
 41 H        5.6870     8.7740    -0.0210 H     1 <1>   0.0800 
 42 H        4.7800    10.1570    -0.5740 H     1 <1>   0.0800 
 43 H        5.0500     8.8170    -1.6590 H     1 <1>   0.0800 
@<TRIPOS>BOND
  1   1   2  1   
  2   1   3  1   
  3   2   4  2   
  4   2   5  1   
  5   3   6  2   
  6   3  24  1   
  7   4   6  1   
  8   4   7  1   
  9   5   8  1   
 10   5   9  1   
 11   5  10  1   
 12   6  25  1   
 13   7  11  1   
 14   7  26  1   
 15   7  27  1   
 16   8  11  1   
 17   9  12  1   
 18   9  28  1   
 19   9  29  1   
 20  10  13  1   
 21  10  30  1   
 22  10  31  1   
 23  11  32  1   
 24  11  33  1   
 25  12  14  1   
 26  12  34  1   
 27  12  35  1   
 28  13  14  1   
 29  13  36  1   
 30  13  37  1   
 31  14  15  1   
 32  15  16  ar  
 33  15  17  ar  
 34  16  18  ar  
 35  17  19  ar  
 36  17  38  1   
 37  18  20  ar  
 38  18  39  1   
 39  19  20  ar  
 40  19  21  1   
 41  20  40  1   
 42  21  22  2   
 43  21  23  1   
 44  23  41  1   
 45  23  42  1   
 46  23  43  1   
@<TRIPOS>SUBSTRUCTURE
  1 ****  14 GROUP 4 **** **** 0

# MOE 2024.06 (io_trps.svl 2023.06)
