@<TRIPOS>MOLECULE
NONAME
38 39 1 0 0 
SMALL
USER_CHARGES


@<TRIPOS>ATOM
  1 O        0.9480    -0.5700    -0.9990 O.2   1 <1>  -0.5700 
  2 C        1.9070    -0.9880    -0.3680 C.2   1 <1>   0.5440 
  3 N        2.6620    -0.0610     0.3400 N.am  1 <1>  -0.6600 
  4 C        2.1930    -2.4280    -0.4190 C.ar  1 <1>   0.3960 
  5 C        3.9330    -0.4330     1.0370 C.3   1 <1>   0.3210 
  6 C        2.1050     1.2920     0.6300 C.3   1 <1>   0.1400 
  7 N        2.6310    -3.0760     0.6760 N.ar  1 <1>  -0.6200 
  8 C        1.9820    -3.1070    -1.6220 C.ar  1 <1>  -0.1500 
  9 C        4.9650     0.6820     1.0170 C.2   1 <1>  -0.1810 
 10 C        2.4460     2.2640    -0.4990 C.3   1 <1>  -0.2400 
 11 C        2.8540    -4.3650     0.5520 C.ar  1 <1>   0.3930 
 12 C        2.2190    -4.4600    -1.7350 C.ar  1 <1>  -0.1500 
 13 C        5.2020     1.6050     2.0280 C.2   1 <1>   0.1390 
 14 C        5.8550     1.0020     0.0520 C.2   1 <1>  -0.3020 
 15 O        3.2930    -4.9740     1.6480 O.3   1 <1>  -0.5320 
 16 C        2.6690    -5.1030    -0.6070 C.ar  1 <1>  -0.1500 
 17 N        6.1510     2.4370     1.7240 N.2   1 <1>  -0.7070 
 18 N        6.5580     2.0620     0.4970 N.pl3 1 <1>   0.3140 
 19 C        7.6370     2.7690    -0.2200 C.3   1 <1>   0.0960 
 20 C        8.9650     2.0100    -0.1110 C.3   1 <1>  -0.2400 
 21 H        4.3780    -1.2830     0.5530 H     1 <1>   0.0800 
 22 H        3.7100    -0.7080     2.0530 H     1 <1>   0.0800 
 23 H        2.4870     1.6600     1.5660 H     1 <1>   0.0800 
 24 H        1.0330     1.2230     0.7230 H     1 <1>   0.0800 
 25 H        1.6230    -2.5540    -2.4730 H     1 <1>   0.1500 
 26 H        3.5080     2.3890    -0.5870 H     1 <1>   0.0800 
 27 H        2.0080     3.2230    -0.2920 H     1 <1>   0.0800 
 28 H        2.0490     1.9020    -1.4300 H     1 <1>   0.0800 
 29 H        2.0560    -4.9840    -2.6620 H     1 <1>   0.1500 
 30 H        4.6670     1.6390     2.9620 H     1 <1>   0.1500 
 31 H        6.0190     0.5460    -0.9060 H     1 <1>   0.1500 
 32 H        3.4140    -5.9290     1.5360 H     1 <1>   0.4500 
 33 H        2.8730    -6.1570    -0.6270 H     1 <1>   0.1500 
 34 H        7.7380     3.7490     0.2110 H     1 <1>   0.0800 
 35 H        7.3490     2.8750    -1.2500 H     1 <1>   0.0800 
 36 H        9.2460     1.9100     0.9230 H     1 <1>   0.0800 
 37 H        9.7390     2.5500    -0.6260 H     1 <1>   0.0800 
 38 H        8.8760     1.0320    -0.5510 H     1 <1>   0.0800 
@<TRIPOS>BOND
  1   1   2  2   
  2   2   3  am  
  3   2   4  1   
  4   3   5  1   
  5   3   6  1   
  6   4   7  ar  
  7   4   8  ar  
  8   5   9  1   
  9   5  21  1   
 10   5  22  1   
 11   6  10  1   
 12   6  23  1   
 13   6  24  1   
 14   7  11  ar  
 15   8  12  ar  
 16   8  25  1   
 17   9  13  1   
 18   9  14  2   
 19  10  26  1   
 20  10  27  1   
 21  10  28  1   
 22  11  15  1   
 23  11  16  ar  
 24  12  16  ar  
 25  12  29  1   
 26  13  17  2   
 27  13  30  1   
 28  14  18  1   
 29  14  31  1   
 30  15  32  1   
 31  16  33  1   
 32  17  18  1   
 33  18  19  1   
 34  19  20  1   
 35  19  34  1   
 36  19  35  1   
 37  20  36  1   
 38  20  37  1   
 39  20  38  1   
@<TRIPOS>SUBSTRUCTURE
  1 ****   5 GROUP 4 **** **** 0

# MOE 2024.06 (io_trps.svl 2023.06)
