@<TRIPOS>MOLECULE
NONAME
42 44 1 0 0 
SMALL
USER_CHARGES


@<TRIPOS>ATOM
  1 O       -1.8670    -3.8190    -1.3200 O.co2 1 <1>  -0.9000 
  2 C       -1.8410    -2.9900    -0.4090 C.2   1 <1>   0.9060 
  3 O       -1.8680    -1.7780    -0.6110 O.co2 1 <1>  -0.9000 
  4 C       -2.0900    -3.4720     0.9820 C.3   1 <1>  -0.2660 
  5 C       -3.3950    -4.2520     0.9950 C.3   1 <1>   0.3430 
  6 N       -4.5990    -3.3700     0.8510 N.4   1 <1>  -0.9590 
  7 C       -4.6570    -2.6490    -0.4640 C.3   1 <1>   0.3430 
  8 C       -5.8900    -4.1160     0.9670 C.3   1 <1>   0.3430 
  9 C       -6.1370    -2.5280    -0.8080 C.3   1 <1>   0.2000 
 10 C       -6.7040    -3.8570    -0.3180 C.3   1 <1>  -0.0800 
 11 O       -6.7200    -1.5180    -0.0440 O.3   1 <1>  -0.6800 
 12 C       -6.6040    -4.9650    -1.4030 C.3   1 <1>  -0.0170 
 13 C       -5.4760    -5.9710    -1.1910 C.ar  1 <1>  -0.1440 
 14 C       -5.6060    -7.0920    -0.3340 C.ar  1 <1>   0.0000 
 15 C       -4.2800    -5.8000    -1.8250 C.ar  1 <1>  -0.1500 
 16 C       -4.4740    -7.9260    -0.1670 C.ar  1 <1>   0.3100 
 17 C       -6.7840    -7.4290     0.3750 C.ar  1 <1>  -0.1500 
 18 C       -3.2170    -6.6780    -1.5820 C.ar  1 <1>   0.1600 
 19 N       -3.2890    -7.6970    -0.7840 N.ar  1 <1>  -0.6200 
 20 C       -4.5660    -9.0370     0.6860 C.ar  1 <1>  -0.1500 
 21 C       -6.8400    -8.5190     1.2000 C.ar  1 <1>  -0.1500 
 22 C       -5.7180    -9.3350     1.3600 C.ar  1 <1>  -0.1500 
 23 H       -1.2800    -4.1240     1.2430 H     1 <1>   0.0800 
 24 H       -2.1110    -2.6470     1.6680 H     1 <1>   0.0800 
 25 H       -3.4620    -4.7920     1.9240 H     1 <1>   0.0800 
 26 H       -3.3680    -4.9760     0.2000 H     1 <1>   0.0800 
 27 H       -4.5630    -2.6410     1.5720 H     1 <1>   0.4500 
 28 H       -4.1710    -1.6870    -0.4200 H     1 <1>   0.0800 
 29 H       -4.1700    -3.2400    -1.2200 H     1 <1>   0.0800 
 30 H       -5.7210    -5.1660     1.1280 H     1 <1>   0.0800 
 31 H       -6.4400    -3.7270     1.8080 H     1 <1>   0.0800 
 32 H       -6.3160    -2.3240    -1.8510 H     1 <1>   0.0800 
 33 H       -7.7450    -3.7370    -0.0720 H     1 <1>   0.0800 
 34 H       -6.4300    -0.6340    -0.3540 H     1 <1>   0.4000 
 35 H       -6.4860    -4.5160    -2.3740 H     1 <1>   0.0800 
 36 H       -7.5380    -5.4940    -1.4570 H     1 <1>   0.0800 
 37 H       -4.0890    -4.9860    -2.5030 H     1 <1>   0.1500 
 38 H       -7.6650    -6.8250     0.2660 H     1 <1>   0.1500 
 39 H       -2.2810    -6.4720    -2.0800 H     1 <1>   0.1500 
 40 H       -3.6900    -9.6510     0.7910 H     1 <1>   0.1500 
 41 H       -7.7440    -8.7690     1.7310 H     1 <1>   0.1500 
 42 H       -5.7740   -10.1930     2.0090 H     1 <1>   0.1500 
@<TRIPOS>BOND
  1   1   2  ar  
  2   2   3  ar  
  3   2   4  1   
  4   4   5  1   
  5   4  23  1   
  6   4  24  1   
  7   5   6  1   
  8   5  25  1   
  9   5  26  1   
 10   6   7  1   
 11   6   8  1   
 12   6  27  1   
 13   7   9  1   
 14   7  28  1   
 15   7  29  1   
 16   8  10  1   
 17   8  30  1   
 18   8  31  1   
 19   9  10  1   
 20   9  11  1   
 21   9  32  1   
 22  10  12  1   
 23  10  33  1   
 24  11  34  1   
 25  12  13  1   
 26  12  35  1   
 27  12  36  1   
 28  13  14  ar  
 29  13  15  ar  
 30  14  16  ar  
 31  14  17  ar  
 32  15  18  ar  
 33  15  37  1   
 34  16  19  ar  
 35  16  20  ar  
 36  17  21  ar  
 37  17  38  1   
 38  18  19  ar  
 39  18  39  1   
 40  20  22  ar  
 41  20  40  1   
 42  21  22  ar  
 43  21  41  1   
 44  22  42  1   
@<TRIPOS>SUBSTRUCTURE
  1 ****  13 GROUP 4 **** **** 0

# MOE 2024.06 (io_trps.svl 2023.06)
