@<TRIPOS>MOLECULE
NONAME
37 39 1 0 0 
SMALL
USER_CHARGES


@<TRIPOS>ATOM
  1 CL       0.5920     0.1870     0.7720 Cl    1 <1>  -0.1770 
  2 C        1.5650    -1.1650     0.2540 C.ar  1 <1>   0.1770 
  3 C        2.4600    -0.9980    -0.7860 C.ar  1 <1>  -0.1500 
  4 C        1.4280    -2.3830     0.8920 C.ar  1 <1>  -0.1500 
  5 C        3.2310    -2.0730    -1.1950 C.ar  1 <1>  -0.1500 
  6 C        2.2020    -3.4550     0.4790 C.ar  1 <1>  -0.1500 
  7 C        3.1040    -3.3050    -0.5660 C.ar  1 <1>  -0.1430 
  8 C        3.9590    -4.4830    -1.0120 C.3   1 <1>   0.1630 
  9 C        5.2660    -4.5320    -0.2410 C.2   1 <1>  -0.0400 
 10 O        6.1290    -5.4810    -0.4820 O.3   1 <1>  -0.2800 
 11 C        5.7830    -3.7510     0.7190 C.2   1 <1>   0.0770 
 12 C        7.1350    -5.2540     0.3270 C.2   1 <1>   0.2980 
 13 N        6.9950    -4.2260     1.0830 N.2   1 <1>  -0.5650 
 14 C        8.3300    -6.1870     0.3060 C.3   1 <1>   0.1000 
 15 C        9.2660    -5.8100     1.4650 C.3   1 <1>   0.3430 
 16 C        9.0700    -6.1120    -1.0430 C.3   1 <1>  -0.1600 
 17 N       10.5410    -6.6030     1.4430 N.4   1 <1>  -0.9060 
 18 C       10.3900    -6.9010    -1.0030 C.3   1 <1>  -0.1600 
 19 C       11.2840    -6.4620     0.1600 C.3   1 <1>   0.3430 
 20 H        2.5480    -0.0390    -1.2640 H     1 <1>   0.1500 
 21 H        0.7250    -2.4870     1.6990 H     1 <1>   0.1500 
 22 H        3.9310    -1.9430    -2.0030 H     1 <1>   0.1500 
 23 H        2.0980    -4.4040     0.9770 H     1 <1>   0.1500 
 24 H        4.1730    -4.4030    -2.0630 H     1 <1>   0.0800 
 25 H        3.4240    -5.4030    -0.8570 H     1 <1>   0.0800 
 26 H        5.3560    -2.8710     1.1730 H     1 <1>   0.1500 
 27 H        7.9660    -7.1860     0.4640 H     1 <1>   0.0800 
 28 H        8.7480    -5.9600     2.3990 H     1 <1>   0.0800 
 29 H        9.4960    -4.7590     1.3870 H     1 <1>   0.0800 
 30 H        9.2770    -5.0810    -1.2770 H     1 <1>   0.0800 
 31 H        8.4360    -6.4990    -1.8240 H     1 <1>   0.0800 
 32 H       10.3290    -7.5950     1.6030 H     1 <1>   0.4500 
 33 H       11.1400    -6.2990     2.2220 H     1 <1>   0.4500 
 34 H       10.9200    -6.7460    -1.9280 H     1 <1>   0.0800 
 35 H       10.1880    -7.9560    -0.9260 H     1 <1>   0.0800 
 36 H       12.1780    -7.0660     0.1800 H     1 <1>   0.0800 
 37 H       11.5750    -5.4330     0.0180 H     1 <1>   0.0800 
@<TRIPOS>BOND
  1   1   2  1   
  2   2   3  ar  
  3   2   4  ar  
  4   3   5  ar  
  5   3  20  1   
  6   4   6  ar  
  7   4  21  1   
  8   5   7  ar  
  9   5  22  1   
 10   6   7  ar  
 11   6  23  1   
 12   7   8  1   
 13   8   9  1   
 14   8  24  1   
 15   8  25  1   
 16   9  10  1   
 17   9  11  2   
 18  10  12  1   
 19  11  13  1   
 20  11  26  1   
 21  12  13  2   
 22  12  14  1   
 23  14  15  1   
 24  14  16  1   
 25  14  27  1   
 26  15  17  1   
 27  15  28  1   
 28  15  29  1   
 29  16  18  1   
 30  16  30  1   
 31  16  31  1   
 32  17  19  1   
 33  17  32  1   
 34  17  33  1   
 35  18  19  1   
 36  18  34  1   
 37  18  35  1   
 38  19  36  1   
 39  19  37  1   
@<TRIPOS>SUBSTRUCTURE
  1 ****   9 GROUP 4 **** **** 0

# MOE 2024.06 (io_trps.svl 2023.06)
