@<TRIPOS>MOLECULE
NONAME
53 55 1 0 0 
SMALL
USER_CHARGES


@<TRIPOS>ATOM
  1 O        0.2370    -0.0110     0.3930 O.2   1 <1>  -0.5700 
  2 C        1.1800    -0.7340     0.1390 C.2   1 <1>   0.5440 
  3 N        0.9070    -1.9750    -0.3550 N.am  1 <1>  -0.7300 
  4 C        2.5500    -0.2950     0.3660 C.ar  1 <1>   0.0860 
  5 C       -0.4630    -2.5210    -0.5660 C.3   1 <1>   0.2010 
  6 C        2.8260     0.7760     1.2180 C.ar  1 <1>  -0.1500 
  7 C        3.6410    -0.9150    -0.2490 C.ar  1 <1>  -0.1500 
  8 C       -0.4780    -4.0410    -0.7920 C.2   1 <1>   0.5690 
  9 C        4.1200     1.2040     1.4530 C.ar  1 <1>  -0.1500 
 10 C        4.9380    -0.4930    -0.0180 C.ar  1 <1>  -0.1500 
 11 O        0.5820    -4.6270    -0.8310 O.2   1 <1>  -0.5700 
 12 N       -1.6600    -4.7340    -0.9310 N.am  1 <1>  -0.6600 
 13 C        5.1810     0.5680     0.8350 C.ar  1 <1>  -0.1500 
 14 C       -1.6560    -6.2020    -1.1890 C.3   1 <1>   0.1400 
 15 C       -3.0140    -4.1720    -0.6660 C.3   1 <1>   0.1400 
 16 C       -2.2370    -6.9420     0.0360 C.3   1 <1>   0.4230 
 17 C       -3.5920    -4.8810     0.5650 C.3   1 <1>  -0.1600 
 18 N       -2.1260    -8.4600    -0.0490 N.4   1 <1>  -0.9590 
 19 C       -3.6610    -6.4310     0.4130 C.3   1 <1>   0.0000 
 20 C       -3.0270    -9.1930     0.9000 C.3   1 <1>   0.3430 
 21 C       -2.2520    -9.0440    -1.4250 C.3   1 <1>   0.2630 
 22 C       -4.0810    -7.0470     1.7800 C.3   1 <1>  -0.1600 
 23 C       -4.6810    -6.8220    -0.6940 C.3   1 <1>   0.1200 
 24 C       -3.3320    -8.3460     2.1340 C.3   1 <1>  -0.1600 
 25 O       -5.9020    -6.1950    -0.5100 O.3   1 <1>  -0.6800 
 26 H        1.6470    -2.6750    -0.4670 H     1 <1>   0.3700 
 27 H       -1.0590    -2.2870     0.2970 H     1 <1>   0.0800 
 28 H       -0.8980    -2.0360    -1.4210 H     1 <1>   0.0800 
 29 H        2.0060     1.2790     1.7020 H     1 <1>   0.1500 
 30 H        3.4790    -1.7350    -0.9250 H     1 <1>   0.1500 
 31 H        4.3010     2.0330     2.1160 H     1 <1>   0.1500 
 32 H        5.7610    -0.9890    -0.5030 H     1 <1>   0.1500 
 33 H        6.1890     0.8980     1.0170 H     1 <1>   0.1500 
 34 H       -2.2360    -6.3910    -2.0730 H     1 <1>   0.0800 
 35 H       -0.6530    -6.5470    -1.3690 H     1 <1>   0.0800 
 36 H       -2.9730    -3.1120    -0.4850 H     1 <1>   0.0800 
 37 H       -3.6470    -4.3280    -1.5250 H     1 <1>   0.0800 
 38 H       -1.6080    -6.6440     0.8590 H     1 <1>   0.0800 
 39 H       -2.9730    -4.6210     1.4060 H     1 <1>   0.0800 
 40 H       -4.5690    -4.4770     0.7690 H     1 <1>   0.0800 
 41 H       -1.1650    -8.6620     0.2660 H     1 <1>   0.4500 
 42 H       -3.9580    -9.4290     0.4100 H     1 <1>   0.0800 
 43 H       -2.5660   -10.1220     1.1980 H     1 <1>   0.0800 
 44 H       -3.2250    -8.8330    -1.8380 H     1 <1>   0.0800 
 45 H       -2.1200   -10.1130    -1.3900 H     1 <1>   0.0800 
 46 H       -1.5020    -8.6340    -2.0820 H     1 <1>   0.0800 
 47 H       -3.9050    -6.3480     2.5820 H     1 <1>   0.0800 
 48 H       -5.1390    -7.2420     1.7860 H     1 <1>   0.0800 
 49 H       -4.8640    -7.8810    -0.7090 H     1 <1>   0.0800 
 50 H       -4.3370    -6.5250    -1.6690 H     1 <1>   0.0800 
 51 H       -3.9310    -8.9220     2.8190 H     1 <1>   0.0800 
 52 H       -2.4100    -8.1180     2.6410 H     1 <1>   0.0800 
 53 H       -6.3410    -6.4710     0.3190 H     1 <1>   0.4000 
@<TRIPOS>BOND
  1   1   2  2   
  2   2   3  am  
  3   2   4  1   
  4   3   5  1   
  5   3  26  1   
  6   4   6  ar  
  7   4   7  ar  
  8   5   8  1   
  9   5  27  1   
 10   5  28  1   
 11   6   9  ar  
 12   6  29  1   
 13   7  10  ar  
 14   7  30  1   
 15   8  11  2   
 16   8  12  am  
 17   9  13  ar  
 18   9  31  1   
 19  10  13  ar  
 20  10  32  1   
 21  12  14  1   
 22  12  15  1   
 23  13  33  1   
 24  14  16  1   
 25  14  34  1   
 26  14  35  1   
 27  15  17  1   
 28  15  36  1   
 29  15  37  1   
 30  16  18  1   
 31  16  19  1   
 32  16  38  1   
 33  17  19  1   
 34  17  39  1   
 35  17  40  1   
 36  18  20  1   
 37  18  21  1   
 38  18  41  1   
 39  19  22  1   
 40  19  23  1   
 41  20  24  1   
 42  20  42  1   
 43  20  43  1   
 44  21  44  1   
 45  21  45  1   
 46  21  46  1   
 47  22  24  1   
 48  22  47  1   
 49  22  48  1   
 50  23  25  1   
 51  23  49  1   
 52  23  50  1   
 53  24  51  1   
 54  24  52  1   
 55  25  53  1   
@<TRIPOS>SUBSTRUCTURE
  1 ****   8 GROUP 4 **** **** 0

# MOE 2024.06 (io_trps.svl 2023.06)
