@<TRIPOS>MOLECULE
NONAME
53 56 1 0 0 
SMALL
USER_CHARGES


@<TRIPOS>ATOM
  1 F       -1.0960    -1.6380    -1.8720 F     1 <1>  -0.1900 
  2 C       -1.5950    -2.6910    -1.2830 C.ar  1 <1>   0.1900 
  3 C       -2.8950    -2.6420    -0.8180 C.ar  1 <1>  -0.1500 
  4 C       -0.8060    -3.8160    -1.1430 C.ar  1 <1>  -0.1500 
  5 C       -3.4210    -3.7610    -0.1960 C.ar  1 <1>  -0.1500 
  6 C       -1.3440    -4.9290    -0.5200 C.ar  1 <1>  -0.1500 
  7 C       -2.6560    -4.9210    -0.0450 C.ar  1 <1>  -0.0230 
  8 N       -3.2010    -6.0810     0.5810 N.pl3 1 <1>   0.5930 
  9 N       -2.4730    -6.9430     1.3340 N.2   1 <1>  -0.7070 
 10 C       -4.4790    -6.5340     0.4960 C.2   1 <1>  -0.3020 
 11 C       -3.2870    -7.8710     1.7150 C.2   1 <1>   0.1390 
 12 C       -4.5670    -7.6790     1.2100 C.2   1 <1>  -0.1810 
 13 C       -5.7480    -8.5950     1.4380 C.3   1 <1>   0.5240 
 14 N       -6.0260    -9.3050     0.1600 N.4   1 <1>  -0.9590 
 15 C       -7.3550   -10.0000     0.2210 C.3   1 <1>   0.3430 
 16 C       -4.9110   -10.2660    -0.1530 C.3   1 <1>   0.2630 
 17 C       -7.8440   -10.4940    -1.1500 C.3   1 <1>   0.0960 
 18 N       -8.8510   -11.5540    -0.9530 N.pl3 1 <1>   0.0480 
 19 C       -8.6280   -12.8070    -0.4780 C.2   1 <1>  -0.2370 
 20 C      -10.1760   -11.5170    -1.2140 C.2   1 <1>   0.0370 
 21 C       -7.4670   -13.4800    -0.0250 C.2   1 <1>   0.7150 
 22 C       -9.8280   -13.4230    -0.4920 C.2   1 <1>   0.2900 
 23 N      -10.8010   -12.6210    -0.9430 N.2   1 <1>  -0.5650 
 24 O       -6.4030   -12.8830     0.0570 O.2   1 <1>  -0.5700 
 25 N       -7.5880   -14.8040     0.3490 N.am  1 <1>  -0.4200 
 26 N       -9.9580   -14.7400    -0.0720 N.am  1 <1>  -0.4230 
 27 C       -8.8320   -15.4280     0.3440 C.2   1 <1>   0.6900 
 28 C       -6.3950   -15.5900     0.7820 C.3   1 <1>   0.0600 
 29 C      -11.3080   -15.3650    -0.1120 C.3   1 <1>   0.0600 
 30 O       -8.9190   -16.5860     0.7150 O.2   1 <1>  -0.5700 
 31 H       -3.4740    -1.7440    -0.9410 H     1 <1>   0.1500 
 32 H        0.2040    -3.8150    -1.5130 H     1 <1>   0.1500 
 33 H       -4.4300    -3.7220     0.1770 H     1 <1>   0.1500 
 34 H       -0.7380    -5.8120    -0.3980 H     1 <1>   0.1500 
 35 H       -5.2240    -6.0030    -0.0680 H     1 <1>   0.1500 
 36 H       -2.9770    -8.6890     2.3480 H     1 <1>   0.1500 
 37 H       -6.6000    -8.0030     1.7290 H     1 <1>   0.0800 
 38 H       -5.5320    -9.3000     2.2260 H     1 <1>   0.0800 
 39 H       -6.0330    -8.5740    -0.5650 H     1 <1>   0.4500 
 40 H       -8.0980    -9.3320     0.6270 H     1 <1>   0.0800 
 41 H       -7.2710   -10.8460     0.8860 H     1 <1>   0.0800 
 42 H       -4.8490   -11.0310     0.6050 H     1 <1>   0.0800 
 43 H       -3.9660    -9.7480    -0.1990 H     1 <1>   0.0800 
 44 H       -5.0770   -10.7490    -1.1020 H     1 <1>   0.0800 
 45 H       -7.0380   -10.9160    -1.7200 H     1 <1>   0.0800 
 46 H       -8.2850    -9.6860    -1.7050 H     1 <1>   0.0800 
 47 H      -10.6660   -10.6450    -1.6160 H     1 <1>   0.1500 
 48 H       -5.4810   -15.0690     0.5630 H     1 <1>   0.0800 
 49 H       -6.3810   -16.5370     0.2690 H     1 <1>   0.0800 
 50 H       -6.4530   -15.7740     1.8410 H     1 <1>   0.0800 
 51 H      -11.9850   -14.7910     0.4950 H     1 <1>   0.0800 
 52 H      -11.2800   -16.3750     0.2550 H     1 <1>   0.0800 
 53 H      -11.6680   -15.3700    -1.1260 H     1 <1>   0.0800 
@<TRIPOS>BOND
  1   1   2  1   
  2   2   3  ar  
  3   2   4  ar  
  4   3   5  ar  
  5   3  31  1   
  6   4   6  ar  
  7   4  32  1   
  8   5   7  ar  
  9   5  33  1   
 10   6   7  ar  
 11   6  34  1   
 12   7   8  1   
 13   8   9  1   
 14   8  10  1   
 15   9  11  2   
 16  10  12  2   
 17  10  35  1   
 18  11  12  1   
 19  11  36  1   
 20  12  13  1   
 21  13  14  1   
 22  13  37  1   
 23  13  38  1   
 24  14  15  1   
 25  14  16  1   
 26  14  39  1   
 27  15  17  1   
 28  15  40  1   
 29  15  41  1   
 30  16  42  1   
 31  16  43  1   
 32  16  44  1   
 33  17  18  1   
 34  17  45  1   
 35  17  46  1   
 36  18  19  1   
 37  18  20  1   
 38  19  21  1   
 39  19  22  2   
 40  20  23  2   
 41  20  47  1   
 42  21  24  2   
 43  21  25  am  
 44  22  23  1   
 45  22  26  1   
 46  25  27  am  
 47  25  28  1   
 48  26  27  am  
 49  26  29  1   
 50  27  30  2   
 51  28  48  1   
 52  28  49  1   
 53  28  50  1   
 54  29  51  1   
 55  29  52  1   
 56  29  53  1   
@<TRIPOS>SUBSTRUCTURE
  1 ****  14 GROUP 4 **** **** 0

# MOE 2024.06 (io_trps.svl 2023.06)
