@<TRIPOS>MOLECULE
NONAME
51 54 1 0 0 
SMALL
USER_CHARGES


@<TRIPOS>ATOM
  1 S        0.7450    -1.1940     0.4940 S.o2  1 <1>   1.5000 
  2 O        1.4870    -2.4340     0.4230 O.2   1 <1>  -0.6500 
  3 O       -0.1310    -1.0350     1.6350 O.2   1 <1>  -0.6500 
  4 N       -0.2730    -1.2270    -0.8750 N.am  1 <1>  -0.8490 
  5 C        1.8880     0.2130     0.2770 C.2   1 <1>   0.0780 
  6 C       -1.0980    -2.4400    -0.9320 C.3   1 <1>   0.1960 
  7 C       -1.0590    -0.0110    -1.1570 C.3   1 <1>   0.1960 
  8 O        1.4450     1.4630     0.3120 O.3   1 <1>  -0.2800 
  9 C        3.2230     0.2310     0.0560 C.2   1 <1>  -0.1500 
 10 C       -2.3130    -2.3750     0.0360 C.3   1 <1>   0.4230 
 11 C       -2.2930     0.1220    -0.2500 C.3   1 <1>  -0.1600 
 12 C        2.4530     2.3020     0.1110 C.2   1 <1>   0.1410 
 13 C        3.5900     1.5750    -0.0480 C.2   1 <1>  -0.1500 
 14 N       -3.0850    -3.6840     0.1600 N.4   1 <1>  -0.9590 
 15 C       -3.2090    -1.1350    -0.2490 C.3   1 <1>   0.0000 
 16 C        2.2280     3.7310     0.0820 C.2   1 <1>   0.2880 
 17 C       -4.4600    -3.5270     0.7380 C.3   1 <1>   0.3430 
 18 C       -3.1410    -4.5290    -1.0780 C.3   1 <1>   0.2630 
 19 C       -4.2600    -0.9920     0.8920 C.3   1 <1>  -0.1600 
 20 C       -3.9160    -1.2880    -1.6260 C.3   1 <1>   0.1200 
 21 N        1.0480     4.3070     0.1070 N.2   1 <1>  -0.7070 
 22 C        3.2400     4.6960     0.0180 C.2   1 <1>  -0.1500 
 23 C       -4.5350    -2.3050     1.6510 C.3   1 <1>  -0.1600 
 24 O       -4.5730    -0.1280    -1.9990 O.3   1 <1>  -0.6800 
 25 N        1.2930     5.6270     0.0620 N.pl3 1 <1>   0.3000 
 26 C        2.6120     5.8880     0.0070 C.2   1 <1>  -0.3020 
 27 H       -1.4340    -2.5630    -1.9450 H     1 <1>   0.0800 
 28 H       -0.4910    -3.2950    -0.6890 H     1 <1>   0.0800 
 29 H       -0.4450     0.8680    -1.0660 H     1 <1>   0.0800 
 30 H       -1.3860    -0.0450    -2.1830 H     1 <1>   0.0800 
 31 H        3.8880    -0.6110    -0.0290 H     1 <1>   0.1500 
 32 H       -1.8960    -2.1960     1.0120 H     1 <1>   0.0800 
 33 H       -1.9550     0.3450     0.7460 H     1 <1>   0.0800 
 34 H       -2.8460     0.9910    -0.5620 H     1 <1>   0.0800 
 35 H        4.5870     1.9360    -0.2260 H     1 <1>   0.1500 
 36 H       -2.5510    -4.2210     0.8610 H     1 <1>   0.4500 
 37 H       -5.1780    -3.4040    -0.0560 H     1 <1>   0.0800 
 38 H       -4.7270    -4.4140     1.2920 H     1 <1>   0.0800 
 39 H       -3.6530    -4.0080    -1.8700 H     1 <1>   0.0800 
 40 H       -3.6660    -5.4490    -0.8780 H     1 <1>   0.0800 
 41 H       -2.1460    -4.7780    -1.4140 H     1 <1>   0.0800 
 42 H       -3.9330    -0.2680     1.6200 H     1 <1>   0.0800 
 43 H       -5.1880    -0.6160     0.4970 H     1 <1>   0.0800 
 44 H       -4.6470    -2.0750    -1.6100 H     1 <1>   0.0800 
 45 H       -3.2110    -1.4960    -2.4100 H     1 <1>   0.0800 
 46 H        4.2950     4.4940    -0.0130 H     1 <1>   0.1500 
 47 H       -5.5130    -2.2550     2.0990 H     1 <1>   0.0800 
 48 H       -3.8270    -2.4210     2.4550 H     1 <1>   0.0800 
 49 H       -5.2650     0.1300    -1.3590 H     1 <1>   0.4000 
 50 H        0.5380     6.3240     0.0710 H     1 <1>   0.2700 
 51 H        3.0160     6.8840    -0.0350 H     1 <1>   0.1500 
@<TRIPOS>BOND
  1   1   2  2   
  2   1   3  2   
  3   1   4  am  
  4   1   5  1   
  5   4   6  1   
  6   4   7  1   
  7   5   8  1   
  8   5   9  2   
  9   6  10  1   
 10   6  27  1   
 11   6  28  1   
 12   7  11  1   
 13   7  29  1   
 14   7  30  1   
 15   8  12  1   
 16   9  13  1   
 17   9  31  1   
 18  10  14  1   
 19  10  15  1   
 20  10  32  1   
 21  11  15  1   
 22  11  33  1   
 23  11  34  1   
 24  12  13  2   
 25  12  16  1   
 26  13  35  1   
 27  14  17  1   
 28  14  18  1   
 29  14  36  1   
 30  15  19  1   
 31  15  20  1   
 32  16  21  2   
 33  16  22  1   
 34  17  23  1   
 35  17  37  1   
 36  17  38  1   
 37  18  39  1   
 38  18  40  1   
 39  18  41  1   
 40  19  23  1   
 41  19  42  1   
 42  19  43  1   
 43  20  24  1   
 44  20  44  1   
 45  20  45  1   
 46  21  25  1   
 47  22  26  2   
 48  22  46  1   
 49  23  47  1   
 50  23  48  1   
 51  24  49  1   
 52  25  26  1   
 53  25  50  1   
 54  26  51  1   
@<TRIPOS>SUBSTRUCTURE
  1 ****   7 GROUP 4 **** **** 0

# MOE 2024.06 (io_trps.svl 2023.06)
