@<TRIPOS>MOLECULE
NONAME
49 52 1 0 0 
SMALL
USER_CHARGES


@<TRIPOS>ATOM
  1 O       -0.2300     0.0480     1.4340 O.3   1 <1>  -0.5600 
  2 C        0.4110     1.2800     1.3170 C.3   1 <1>   0.1200 
  3 C       -1.5050     0.0800     0.8630 C.3   1 <1>   0.1200 
  4 C       -0.2700     1.9890     0.1550 C.3   1 <1>   0.2890 
  5 C       -1.6930     1.4730     0.2600 C.3   1 <1>  -0.0800 
  6 N       -0.2300     3.4730     0.2780 N.pl3 1 <1>  -0.8690 
  7 C       -2.4410     1.4790    -1.0820 C.3   1 <1>  -0.0170 
  8 C        0.5630     4.3760    -0.3400 C.ar  1 <1>   0.1000 
  9 C       -3.8440     0.9150    -0.9270 C.ar  1 <1>  -0.1440 
 10 C        0.3860     5.7780    -0.1130 C.ar  1 <1>   0.0000 
 11 C        1.5840     3.9830    -1.2090 C.ar  1 <1>  -0.1500 
 12 C       -4.1620    -0.3770    -1.2930 C.ar  1 <1>  -0.1500 
 13 C       -4.8760     1.6720    -0.4080 C.ar  1 <1>  -0.1500 
 14 C        1.2340     6.6990    -0.7640 C.ar  1 <1>   0.3610 
 15 C       -0.6060     6.3030     0.7380 C.ar  1 <1>  -0.1500 
 16 C        2.3890     4.9020    -1.8260 C.ar  1 <1>   0.2110 
 17 C       -5.4560    -0.8390    -1.1210 C.ar  1 <1>   0.1600 
 18 C       -6.1370     1.1130    -0.2780 C.ar  1 <1>   0.1600 
 19 N        2.2120     6.2170    -1.6050 N.ar  1 <1>  -0.1790 
 20 C        1.0830     8.0850    -0.5590 C.ar  1 <1>  -0.1440 
 21 C       -0.7510     7.6520     0.9340 C.ar  1 <1>  -0.1430 
 22 N       -6.4510    -0.1250    -0.6200 N.ar  1 <1>  -0.6200 
 23 C        0.0990     8.5420     0.2820 C.ar  1 <1>  -0.1500 
 24 C        1.9870     9.1070    -1.2490 C.3   1 <1>  -0.0970 
 25 C       -1.8260     8.2050     1.8550 C.3   1 <1>  -0.0970 
 26 H        0.2630     1.8150     2.2390 H     1 <1>   0.0800 
 27 H        1.4580     1.1150     1.1390 H     1 <1>   0.0800 
 28 H       -1.5400    -0.6900     0.1110 H     1 <1>   0.0800 
 29 H       -2.2360    -0.1290     1.6260 H     1 <1>   0.0800 
 30 H        0.1740     1.6580    -0.7670 H     1 <1>   0.0800 
 31 H       -2.2390     2.0600     0.9770 H     1 <1>   0.0800 
 32 H       -0.9250     3.8060     0.9560 H     1 <1>   0.4000 
 33 H       -1.8980     0.9000    -1.8100 H     1 <1>   0.0800 
 34 H       -2.5040     2.4870    -1.4520 H     1 <1>   0.0800 
 35 H        1.7510     2.9390    -1.3970 H     1 <1>   0.1500 
 36 H       -3.4190    -1.0320    -1.7100 H     1 <1>   0.1500 
 37 H       -4.7140     2.6890    -0.1030 H     1 <1>   0.1500 
 38 H       -1.2700     5.6300     1.2480 H     1 <1>   0.1500 
 39 H        3.1740     4.5860    -2.4950 H     1 <1>   0.1500 
 40 H       -5.6860    -1.8500    -1.4120 H     1 <1>   0.1500 
 41 H       -6.9290     1.7180     0.1290 H     1 <1>   0.1500 
 42 H        2.8080     6.9110    -2.0590 H     1 <1>   0.4570 
 43 H       -0.0370     9.5980     0.4560 H     1 <1>   0.1500 
 44 H        1.7130    10.1080    -0.9630 H     1 <1>   0.0800 
 45 H        1.8910     9.0400    -2.3180 H     1 <1>   0.0800 
 46 H        3.0140     8.9600    -0.9660 H     1 <1>   0.0800 
 47 H       -2.4740     8.8680     1.3090 H     1 <1>   0.0800 
 48 H       -1.3720     8.7530     2.6620 H     1 <1>   0.0800 
 49 H       -2.4230     7.4160     2.2750 H     1 <1>   0.0800 
@<TRIPOS>BOND
  1   1   2  1   
  2   1   3  1   
  3   2   4  1   
  4   2  26  1   
  5   2  27  1   
  6   3   5  1   
  7   3  28  1   
  8   3  29  1   
  9   4   5  1   
 10   4   6  1   
 11   4  30  1   
 12   5   7  1   
 13   5  31  1   
 14   6   8  1   
 15   6  32  1   
 16   7   9  1   
 17   7  33  1   
 18   7  34  1   
 19   8  10  ar  
 20   8  11  ar  
 21   9  12  ar  
 22   9  13  ar  
 23  10  14  ar  
 24  10  15  ar  
 25  11  16  ar  
 26  11  35  1   
 27  12  17  ar  
 28  12  36  1   
 29  13  18  ar  
 30  13  37  1   
 31  14  19  ar  
 32  14  20  ar  
 33  15  21  ar  
 34  15  38  1   
 35  16  19  ar  
 36  16  39  1   
 37  17  22  ar  
 38  17  40  1   
 39  18  22  ar  
 40  18  41  1   
 41  19  42  1   
 42  20  23  ar  
 43  20  24  1   
 44  21  23  ar  
 45  21  25  1   
 46  23  43  1   
 47  24  44  1   
 48  24  45  1   
 49  24  46  1   
 50  25  47  1   
 51  25  48  1   
 52  25  49  1   
@<TRIPOS>SUBSTRUCTURE
  1 ****   6 GROUP 4 **** **** 0

# MOE 2024.06 (io_trps.svl 2023.06)
