@<TRIPOS>MOLECULE
NONAME
49 51 1 0 0 
SMALL
USER_CHARGES


@<TRIPOS>ATOM
  1 O        3.7150     2.0790     1.4530 O.co2 1 <1>  -0.9000 
  2 C        3.4630     0.9640     0.9960 C.2   1 <1>   0.9060 
  3 O        4.0170     0.0060     1.5560 O.co2 1 <1>  -0.9000 
  4 C        2.7680     0.7770    -0.3650 C.3   1 <1>  -0.1060 
  5 C        3.3520    -0.5150    -0.9930 C.3   1 <1>   0.2000 
  6 C        3.1050     1.9640    -1.3300 C.3   1 <1>  -0.1600 
  7 C        1.2400     0.6260    -0.1210 C.3   1 <1>  -0.0160 
  8 O        2.7810    -0.7240    -2.2490 O.3   1 <1>  -0.6800 
  9 C        4.8920    -0.4360    -1.1610 C.3   1 <1>   0.2090 
 10 C        4.5060     1.9200    -1.9850 C.3   1 <1>   0.2090 
 11 C        0.4690     1.9410    -0.0300 C.ar  1 <1>  -0.1440 
 12 N        5.4160     0.9770    -1.2750 N.pl3 1 <1>  -0.8380 
 13 C       -0.3820     2.3210    -1.0580 C.ar  1 <1>  -0.1500 
 14 C        0.6010     2.7690     1.0750 C.ar  1 <1>  -0.1500 
 15 C        6.3860     1.4690    -0.4610 C.ar  1 <1>   0.4610 
 16 C       -1.0870     3.5100    -0.9850 C.ar  1 <1>  -0.1500 
 17 C       -0.1010     3.9590     1.1500 C.ar  1 <1>  -0.1500 
 18 N        6.3340     1.2600     0.8650 N.ar  1 <1>  -0.1790 
 19 C        7.4550     2.2380    -0.9490 C.ar  1 <1>  -0.1500 
 20 C       -0.9470     4.3310     0.1200 C.ar  1 <1>  -0.1500 
 21 C        7.2290     1.7670     1.7420 C.ar  1 <1>   0.2180 
 22 C        8.4110     2.7480    -0.1040 C.ar  1 <1>  -0.1430 
 23 C        8.2860     2.5020     1.2730 C.ar  1 <1>  -0.1500 
 24 C        6.9720     1.5020     3.2130 C.3   1 <1>  -0.0970 
 25 C        9.5800     3.5710    -0.6140 C.3   1 <1>  -0.0970 
 26 H        3.1070    -1.3750    -0.3920 H     1 <1>   0.0800 
 27 H        3.0090     2.8940    -0.7950 H     1 <1>   0.0800 
 28 H        2.3760     2.0090    -2.1190 H     1 <1>   0.0800 
 29 H        0.8000     0.0440    -0.9100 H     1 <1>   0.0800 
 30 H        1.0800     0.0670     0.7860 H     1 <1>   0.0800 
 31 H        2.8390     0.1020    -2.7620 H     1 <1>   0.4000 
 32 H        5.1840    -0.9990    -2.0310 H     1 <1>   0.0800 
 33 H        5.3500    -0.9160    -0.3140 H     1 <1>   0.0800 
 34 H        4.9260     2.9120    -1.9860 H     1 <1>   0.0800 
 35 H        4.4180     1.6010    -3.0100 H     1 <1>   0.0800 
 36 H       -0.5010     1.6910    -1.9210 H     1 <1>   0.1500 
 37 H        1.2590     2.4940     1.8820 H     1 <1>   0.1500 
 38 H       -1.7450     3.7960    -1.7860 H     1 <1>   0.1500 
 39 H        0.0170     4.5920     2.0110 H     1 <1>   0.1500 
 40 H        5.4660     0.8210     1.2400 H     1 <1>   0.4570 
 41 H        7.4990     2.4060    -2.0080 H     1 <1>   0.1500 
 42 H       -1.4920     5.2560     0.1800 H     1 <1>   0.1500 
 43 H        9.0180     2.9090     1.9480 H     1 <1>   0.1500 
 44 H        7.7140     1.9800     3.8250 H     1 <1>   0.0800 
 45 H        6.9860     0.4450     3.4070 H     1 <1>   0.0800 
 46 H        6.0020     1.8860     3.4830 H     1 <1>   0.0800 
 47 H       10.5090     3.0980    -0.3480 H     1 <1>   0.0800 
 48 H        9.5560     4.5550    -0.1800 H     1 <1>   0.0800 
 49 H        9.5430     3.6690    -1.6840 H     1 <1>   0.0800 
@<TRIPOS>BOND
  1   1   2  ar  
  2   2   3  ar  
  3   2   4  1   
  4   4   5  1   
  5   4   6  1   
  6   4   7  1   
  7   5   8  1   
  8   5   9  1   
  9   5  26  1   
 10   6  10  1   
 11   6  27  1   
 12   6  28  1   
 13   7  11  1   
 14   7  29  1   
 15   7  30  1   
 16   8  31  1   
 17   9  12  1   
 18   9  32  1   
 19   9  33  1   
 20  10  12  1   
 21  10  34  1   
 22  10  35  1   
 23  11  13  ar  
 24  11  14  ar  
 25  12  15  1   
 26  13  16  ar  
 27  13  36  1   
 28  14  17  ar  
 29  14  37  1   
 30  15  18  ar  
 31  15  19  ar  
 32  16  20  ar  
 33  16  38  1   
 34  17  20  ar  
 35  17  39  1   
 36  18  21  ar  
 37  18  40  1   
 38  19  22  ar  
 39  19  41  1   
 40  20  42  1   
 41  21  23  ar  
 42  21  24  1   
 43  22  23  ar  
 44  22  25  1   
 45  23  43  1   
 46  24  44  1   
 47  24  45  1   
 48  24  46  1   
 49  25  47  1   
 50  25  48  1   
 51  25  49  1   
@<TRIPOS>SUBSTRUCTURE
  1 ****   2 GROUP 4 **** **** 0

# MOE 2024.06 (io_trps.svl 2023.06)
