@<TRIPOS>MOLECULE
NONAME
44 46 1 0 0 
SMALL
USER_CHARGES


@<TRIPOS>ATOM
  1 S        0.3410     0.0930    -0.3590 S.o2  1 <1>   1.3330 
  2 O        0.3110    -1.3360    -0.1410 O.2   1 <1>  -0.6500 
  3 O        0.0640     0.6180    -1.6770 O.2   1 <1>  -0.6500 
  4 N       -0.7460     0.8060     0.7310 N.am  1 <1>  -0.8490 
  5 C        1.9180     0.7760     0.1510 C.3   1 <1>  -0.0550 
  6 C       -0.7920     0.1240     2.0300 C.3   1 <1>   0.1160 
  7 C       -2.0990     0.9040     0.1760 C.3   1 <1>   0.1160 
  8 C        3.1070     0.3050    -0.7230 C.3   1 <1>  -0.0800 
  9 C        4.4090     1.0640    -0.4790 C.3   1 <1>   0.2200 
 10 C        3.5380    -1.0980    -0.3030 C.3   1 <1>   0.1200 
 11 N        4.2150     2.5110    -0.2160 N.am  1 <1>  -0.7300 
 12 C        5.0370     0.3070     0.6980 C.3   1 <1>   0.1200 
 13 O        4.3350    -0.8970     0.8170 O.3   1 <1>  -0.5600 
 14 C        5.2120     3.3990     0.0630 C.2   1 <1>   0.7150 
 15 O        6.3450     2.9820     0.1960 O.2   1 <1>  -0.5700 
 16 C        4.9230     4.8050     0.1880 C.2   1 <1>  -0.0450 
 17 S        3.2480     5.3650    -0.0180 S.3   1 <1>  -0.0800 
 18 C        5.7140     5.8740     0.4480 C.2   1 <1>  -0.1500 
 19 C        3.6920     7.0510     0.2610 C.ar  1 <1>   0.0400 
 20 C        5.0550     7.1440     0.4950 C.ar  1 <1>   0.0000 
 21 C        2.8450     8.1430     0.2550 C.ar  1 <1>  -0.1500 
 22 C        5.5890     8.4080     0.7380 C.ar  1 <1>  -0.1500 
 23 C        3.3940     9.3890     0.4980 C.ar  1 <1>  -0.1500 
 24 C        4.7610     9.5180     0.7370 C.ar  1 <1>  -0.1500 
 25 H        1.8240     1.8410     0.0930 H     1 <1>   0.0800 
 26 H        2.1090     0.5260     1.1760 H     1 <1>   0.0800 
 27 H       -1.4290     0.6650     2.7090 H     1 <1>   0.0800 
 28 H        0.1940     0.0730     2.4600 H     1 <1>   0.0800 
 29 H       -1.1710    -0.8790     1.9170 H     1 <1>   0.0800 
 30 H       -2.7610     1.3730     0.8840 H     1 <1>   0.0800 
 31 H       -2.4760    -0.0760    -0.0680 H     1 <1>   0.0800 
 32 H       -2.0870     1.5020    -0.7200 H     1 <1>   0.0800 
 33 H        2.8410     0.3280    -1.7660 H     1 <1>   0.0800 
 34 H        5.0580     0.9520    -1.3320 H     1 <1>   0.0800 
 35 H        4.1440    -1.5620    -1.0630 H     1 <1>   0.0800 
 36 H        2.7260    -1.7540    -0.0440 H     1 <1>   0.0800 
 37 H        3.3120     2.9030    -0.4810 H     1 <1>   0.3700 
 38 H        4.9300     0.8460     1.6230 H     1 <1>   0.0800 
 39 H        6.0740     0.0880     0.5130 H     1 <1>   0.0800 
 40 H        6.7750     5.8100     0.6140 H     1 <1>   0.1500 
 41 H        1.7940     8.0190     0.0670 H     1 <1>   0.1500 
 42 H        6.6430     8.5120     0.9230 H     1 <1>   0.1500 
 43 H        2.7670    10.2640     0.5010 H     1 <1>   0.1500 
 44 H        5.1740    10.4930     0.9250 H     1 <1>   0.1500 
@<TRIPOS>BOND
  1   1   2  2   
  2   1   3  2   
  3   1   4  am  
  4   1   5  1   
  5   4   6  1   
  6   4   7  1   
  7   5   8  1   
  8   5  25  1   
  9   5  26  1   
 10   6  27  1   
 11   6  28  1   
 12   6  29  1   
 13   7  30  1   
 14   7  31  1   
 15   7  32  1   
 16   8   9  1   
 17   8  10  1   
 18   8  33  1   
 19   9  11  1   
 20   9  12  1   
 21   9  34  1   
 22  10  13  1   
 23  10  35  1   
 24  10  36  1   
 25  11  14  am  
 26  11  37  1   
 27  12  13  1   
 28  12  38  1   
 29  12  39  1   
 30  14  15  2   
 31  14  16  1   
 32  16  17  1   
 33  16  18  2   
 34  17  19  1   
 35  18  20  1   
 36  18  40  1   
 37  19  20  ar  
 38  19  21  ar  
 39  20  22  ar  
 40  21  23  ar  
 41  21  41  1   
 42  22  24  ar  
 43  22  42  1   
 44  23  24  ar  
 45  23  43  1   
 46  24  44  1   
@<TRIPOS>SUBSTRUCTURE
  1 ****  11 GROUP 4 **** **** 0

# MOE 2024.06 (io_trps.svl 2023.06)
