@<TRIPOS>MOLECULE
NONAME
50 54 1 0 0 
SMALL
USER_CHARGES


@<TRIPOS>ATOM
  1 S        0.9140    -0.8270     0.6060 S.3   1 <1>  -0.0800 
  2 C        0.2380    -1.6240    -0.8020 C.2   1 <1>  -0.0450 
  3 C        2.4390    -1.6180     0.3140 C.2   1 <1>   0.2280 
  4 C        1.2250    -2.3790    -1.3400 C.2   1 <1>   0.0460 
  5 C       -1.1280    -1.3680    -1.1860 C.2   1 <1>   0.7150 
  6 N        2.4490    -2.3790    -0.7050 N.2   1 <1>  -0.5650 
  7 C        1.1230    -3.2350    -2.5860 C.3   1 <1>  -0.0590 
  8 O       -1.3800    -1.1310    -2.3530 O.2   1 <1>  -0.5700 
  9 N       -2.1710    -1.3930    -0.2820 N.am  1 <1>  -0.6600 
 10 C       -3.5280    -0.8890    -0.6860 C.3   1 <1>   0.1400 
 11 C       -2.0640    -2.0500     1.0560 C.3   1 <1>   0.1400 
 12 C       -4.3620    -0.4380     0.5290 C.3   1 <1>   0.1430 
 13 C       -3.4070    -2.6530     1.4780 C.3   1 <1>  -0.1600 
 14 C       -5.6840     0.1160     0.0220 C.ar  1 <1>   0.1670 
 15 C       -4.5530    -1.6210     1.5170 C.3   1 <1>  -0.1600 
 16 C       -3.7240     0.8090     1.2090 C.3   1 <1>  -0.1600 
 17 N       -6.6740    -0.5970    -0.4600 N.ar  1 <1>  -0.6200 
 18 C       -5.7280     1.4730     0.1030 C.ar  1 <1>  -0.1440 
 19 C       -4.4530     2.0490     0.6630 C.3   1 <1>  -0.0170 
 20 C       -7.7540     0.0890    -0.8580 C.ar  1 <1>   0.6200 
 21 C       -6.8660     2.1040    -0.3260 C.ar  1 <1>   0.1600 
 22 N       -7.8830     1.4220    -0.8030 N.ar  1 <1>  -0.6200 
 23 C       -8.8730    -0.6750    -1.3930 C.ar  1 <1>   0.0000 
 24 C       -8.6840    -1.9010    -2.0370 C.ar  1 <1>  -0.1500 
 25 C      -10.1910    -0.2180    -1.2880 C.ar  1 <1>  -0.1500 
 26 C       -9.7440    -2.6300    -2.5460 C.ar  1 <1>  -0.1500 
 27 C      -11.2560    -0.9400    -1.7950 C.ar  1 <1>  -0.1500 
 28 C      -11.0350    -2.1500    -2.4260 C.ar  1 <1>  -0.1500 
 29 H        3.2430    -1.4120     0.9990 H     1 <1>   0.1500 
 30 H        0.1340    -3.1970    -3.0040 H     1 <1>   0.0800 
 31 H        1.3590    -4.2550    -2.3440 H     1 <1>   0.0800 
 32 H        1.8230    -2.8830    -3.3210 H     1 <1>   0.0800 
 33 H       -4.0510    -1.6770    -1.2020 H     1 <1>   0.0800 
 34 H       -3.4190    -0.0660    -1.3710 H     1 <1>   0.0800 
 35 H       -1.7550    -1.3200     1.7840 H     1 <1>   0.0800 
 36 H       -1.3220    -2.8300     1.0230 H     1 <1>   0.0800 
 37 H       -3.3080    -3.1170     2.4430 H     1 <1>   0.0800 
 38 H       -3.6560    -3.4310     0.7760 H     1 <1>   0.0800 
 39 H       -5.4610    -2.1460     1.2770 H     1 <1>   0.0800 
 40 H       -4.6770    -1.2520     2.5190 H     1 <1>   0.0800 
 41 H       -2.6640     0.8810     1.0380 H     1 <1>   0.0800 
 42 H       -3.8870     0.7760     2.2710 H     1 <1>   0.0800 
 43 H       -3.8850     2.5060    -0.1290 H     1 <1>   0.0800 
 44 H       -4.6470     2.7690     1.4390 H     1 <1>   0.0800 
 45 H       -6.9460     3.1770    -0.2800 H     1 <1>   0.1500 
 46 H       -7.6860    -2.2910    -2.1420 H     1 <1>   0.1500 
 47 H      -10.3820     0.7220    -0.7990 H     1 <1>   0.1500 
 48 H       -9.5630    -3.5700    -3.0360 H     1 <1>   0.1500 
 49 H      -12.2580    -0.5590    -1.6970 H     1 <1>   0.1500 
 50 H      -11.8620    -2.7140    -2.8210 H     1 <1>   0.1500 
@<TRIPOS>BOND
  1   1   2  1   
  2   1   3  1   
  3   2   4  2   
  4   2   5  1   
  5   3   6  2   
  6   3  29  1   
  7   4   6  1   
  8   4   7  1   
  9   5   8  2   
 10   5   9  am  
 11   7  30  1   
 12   7  31  1   
 13   7  32  1   
 14   9  10  1   
 15   9  11  1   
 16  10  12  1   
 17  10  33  1   
 18  10  34  1   
 19  11  13  1   
 20  11  35  1   
 21  11  36  1   
 22  12  14  1   
 23  12  15  1   
 24  12  16  1   
 25  13  15  1   
 26  13  37  1   
 27  13  38  1   
 28  14  17  ar  
 29  14  18  ar  
 30  15  39  1   
 31  15  40  1   
 32  16  19  1   
 33  16  41  1   
 34  16  42  1   
 35  17  20  ar  
 36  18  19  1   
 37  18  21  ar  
 38  19  43  1   
 39  19  44  1   
 40  20  22  ar  
 41  20  23  1   
 42  21  22  ar  
 43  21  45  1   
 44  23  24  ar  
 45  23  25  ar  
 46  24  26  ar  
 47  24  46  1   
 48  25  27  ar  
 49  25  47  1   
 50  26  28  ar  
 51  26  48  1   
 52  27  28  ar  
 53  27  49  1   
 54  28  50  1   
@<TRIPOS>SUBSTRUCTURE
  1 ****  10 GROUP 4 **** **** 0

# MOE 2024.06 (io_trps.svl 2023.06)
