@<TRIPOS>MOLECULE
NONAME
47 49 1 0 0 
SMALL
USER_CHARGES


@<TRIPOS>ATOM
  1 O       -0.8150     0.4710     1.0510 O.2   1 <1>  -0.5700 
  2 C       -1.8890     0.7550     0.5540 C.2   1 <1>   0.5440 
  3 N       -1.9490     1.8090    -0.3410 N.am  1 <1>  -0.6600 
  4 C       -3.0510    -0.0270     0.9050 C.ar  1 <1>   0.0860 
  5 C       -0.8150     2.7630    -0.4870 C.3   1 <1>   0.0600 
  6 C       -3.0200     1.9630    -1.3640 C.3   1 <1>   0.0600 
  7 C       -2.9680    -1.4150     0.9720 C.ar  1 <1>   0.1600 
  8 C       -4.2880     0.5410     1.1990 C.ar  1 <1>  -0.1500 
  9 N       -3.9600    -2.2420     1.2540 N.ar  1 <1>  -0.6200 
 10 C       -5.3290    -0.3020     1.5010 C.ar  1 <1>  -0.1500 
 11 C       -5.1340    -1.6790     1.5110 C.ar  1 <1>   0.4100 
 12 N       -6.1780    -2.5090     1.7990 N.pl3 1 <1>  -0.8690 
 13 C       -6.2160    -3.9450     1.3770 C.3   1 <1>   0.3530 
 14 C       -7.5980    -4.3990     0.8770 C.ar  1 <1>   0.4770 
 15 N       -7.6360    -5.5950     0.3140 N.ar  1 <1>  -0.6200 
 16 N       -8.6210    -3.5670     1.0490 N.ar  1 <1>  -0.6200 
 17 C       -8.8090    -5.9980    -0.1160 C.ar  1 <1>   0.1670 
 18 C       -9.7870    -3.9830     0.6120 C.ar  1 <1>   0.1670 
 19 C       -9.9440    -5.2200     0.0150 C.ar  1 <1>  -0.1430 
 20 C       -8.8390    -7.3810    -0.7530 C.3   1 <1>  -0.0170 
 21 C      -10.9410    -3.0170     0.8100 C.3   1 <1>  -0.0970 
 22 C      -11.3060    -5.7050    -0.4870 C.3   1 <1>  -0.0170 
 23 C      -10.1230    -7.6570    -1.5450 C.3   1 <1>  -0.1600 
 24 C      -11.3470    -7.2160    -0.7400 C.3   1 <1>  -0.1600 
 25 H       -0.1810     2.7330     0.3830 H     1 <1>   0.0800 
 26 H       -1.1890     3.7650    -0.6010 H     1 <1>   0.0800 
 27 H       -0.2290     2.4990    -1.3500 H     1 <1>   0.0800 
 28 H       -3.6240     1.0750    -1.4260 H     1 <1>   0.0800 
 29 H       -2.5780     2.1370    -2.3290 H     1 <1>   0.0800 
 30 H       -3.6470     2.8000    -1.1090 H     1 <1>   0.0800 
 31 H       -2.0080    -1.8620     0.7730 H     1 <1>   0.1500 
 32 H       -4.4110     1.6090     1.1920 H     1 <1>   0.1500 
 33 H       -6.3020     0.0860     1.7360 H     1 <1>   0.1500 
 34 H       -7.1280    -2.1220     1.7670 H     1 <1>   0.4000 
 35 H       -5.9360    -4.5590     2.2130 H     1 <1>   0.0800 
 36 H       -5.5070    -4.1160     0.5870 H     1 <1>   0.0800 
 37 H       -8.7410    -8.1070     0.0340 H     1 <1>   0.0800 
 38 H       -7.9900    -7.4890    -1.4050 H     1 <1>   0.0800 
 39 H      -10.5690    -2.0190     0.9580 H     1 <1>   0.0800 
 40 H      -11.5060    -3.3040     1.6770 H     1 <1>   0.0800 
 41 H      -11.5840    -3.0070    -0.0500 H     1 <1>   0.0800 
 42 H      -11.5290    -5.1910    -1.4060 H     1 <1>   0.0800 
 43 H      -12.0730    -5.4590     0.2260 H     1 <1>   0.0800 
 44 H      -10.1870    -8.7070    -1.7720 H     1 <1>   0.0800 
 45 H      -10.0910    -7.1150    -2.4750 H     1 <1>   0.0800 
 46 H      -12.2480    -7.4680    -1.2730 H     1 <1>   0.0800 
 47 H      -11.3620    -7.7370     0.2030 H     1 <1>   0.0800 
@<TRIPOS>BOND
  1   1   2  2   
  2   2   3  am  
  3   2   4  1   
  4   3   5  1   
  5   3   6  1   
  6   4   7  ar  
  7   4   8  ar  
  8   5  25  1   
  9   5  26  1   
 10   5  27  1   
 11   6  28  1   
 12   6  29  1   
 13   6  30  1   
 14   7   9  ar  
 15   7  31  1   
 16   8  10  ar  
 17   8  32  1   
 18   9  11  ar  
 19  10  11  ar  
 20  10  33  1   
 21  11  12  1   
 22  12  13  1   
 23  12  34  1   
 24  13  14  1   
 25  13  35  1   
 26  13  36  1   
 27  14  15  ar  
 28  14  16  ar  
 29  15  17  ar  
 30  16  18  ar  
 31  17  19  ar  
 32  17  20  1   
 33  18  19  ar  
 34  18  21  1   
 35  19  22  1   
 36  20  23  1   
 37  20  37  1   
 38  20  38  1   
 39  21  39  1   
 40  21  40  1   
 41  21  41  1   
 42  22  24  1   
 43  22  42  1   
 44  22  43  1   
 45  23  24  1   
 46  23  44  1   
 47  23  45  1   
 48  24  46  1   
 49  24  47  1   
@<TRIPOS>SUBSTRUCTURE
  1 ****  12 GROUP 4 **** **** 0

# MOE 2024.06 (io_trps.svl 2023.06)
