@<TRIPOS>MOLECULE
NONAME
48 50 1 0 0 
SMALL
USER_CHARGES


@<TRIPOS>ATOM
  1 O        0.1010    -0.0550    -0.6990 O.2   1 <1>  -0.5700 
  2 C        1.1790    -0.4100    -0.2530 C.2   1 <1>   0.7160 
  3 N        2.1960     0.4990    -0.0850 N.am  1 <1>  -0.4940 
  4 C        1.4210    -1.7950     0.0950 C.2   1 <1>   0.2030 
  5 C        2.3400     1.8690    -0.4030 C.2   1 <1>  -0.0880 
  6 N        2.5360    -2.2810     0.5550 N.2   1 <1>  -0.4100 
  7 C        0.5060    -2.8310    -0.0090 C.2   1 <1>  -0.1500 
  8 N        1.3930     2.8470    -0.4200 N.pl3 1 <1>   0.3140 
  9 C        3.5220     2.4640    -0.7270 C.2   1 <1>  -0.0540 
 10 O        2.4170    -3.5700     0.7630 O.3   1 <1>  -0.0190 
 11 C        1.1880    -3.8970     0.4200 C.2   1 <1>  -0.0400 
 12 N        1.9260     4.0430    -0.7500 N.2   1 <1>  -0.7070 
 13 C       -0.0280     2.7700    -0.0600 C.3   1 <1>   0.0160 
 14 C        4.8190     1.8410    -0.8500 C.ar  1 <1>   0.0540 
 15 C        3.1840     3.8060    -0.9270 C.2   1 <1>   0.1080 
 16 C        0.7810    -5.3550     0.5640 C.3   1 <1>   0.0200 
 17 C        5.8950     2.1620    -0.0130 C.ar  1 <1>   0.0830 
 18 C        5.0100     0.8700    -1.8290 C.ar  1 <1>  -0.1500 
 19 C        4.1570     4.8970    -1.3120 C.3   1 <1>  -0.0590 
 20 C       -0.6700    -5.6110     0.1330 C.3   1 <1>  -0.1600 
 21 O        5.6870     3.1060     0.9460 O.3   1 <1>  -0.3630 
 22 C        7.1190     1.5180    -0.1720 C.ar  1 <1>  -0.1500 
 23 C        6.2260     0.2310    -1.9820 C.ar  1 <1>  -0.1500 
 24 C       -1.0510    -7.0870     0.2880 C.3   1 <1>  -0.2400 
 25 C        6.6700     3.4320     1.9020 C.3   1 <1>   0.0400 
 26 C        7.2830     0.5560    -1.1520 C.ar  1 <1>  -0.1500 
 27 H        3.0660     0.0460     0.2130 H     1 <1>   0.3700 
 28 H       -0.5050    -2.7360    -0.3610 H     1 <1>   0.1500 
 29 H       -0.1510     2.0970     0.7670 H     1 <1>   0.0800 
 30 H       -0.5850     2.4190    -0.9070 H     1 <1>   0.0800 
 31 H       -0.3740     3.7480     0.2180 H     1 <1>   0.0800 
 32 H        0.9060    -5.6460     1.5930 H     1 <1>   0.0800 
 33 H        1.4440    -5.9560    -0.0330 H     1 <1>   0.0800 
 34 H        4.1900     0.6190    -2.4780 H     1 <1>   0.1500 
 35 H        4.9590     4.4920    -1.9010 H     1 <1>   0.0800 
 36 H        4.5610     5.3440    -0.4230 H     1 <1>   0.0800 
 37 H        3.6490     5.6510    -1.8840 H     1 <1>   0.0800 
 38 H       -0.7940    -5.3220    -0.8970 H     1 <1>   0.0800 
 39 H       -1.3340    -5.0110     0.7330 H     1 <1>   0.0800 
 40 H        7.9580     1.7490     0.4570 H     1 <1>   0.1500 
 41 H        6.3500    -0.5180    -2.7450 H     1 <1>   0.1500 
 42 H       -0.4160    -7.7080    -0.3200 H     1 <1>   0.0800 
 43 H       -2.0710    -7.2390    -0.0200 H     1 <1>   0.0800 
 44 H       -0.9570    -7.3960     1.3150 H     1 <1>   0.0800 
 45 H        6.2550     4.1680     2.5670 H     1 <1>   0.0800 
 46 H        7.5280     3.8380     1.3970 H     1 <1>   0.0800 
 47 H        6.9280     2.5460     2.4540 H     1 <1>   0.0800 
 48 H        8.2310     0.0590    -1.2690 H     1 <1>   0.1500 
@<TRIPOS>BOND
  1   1   2  2   
  2   2   3  am  
  3   2   4  1   
  4   3   5  1   
  5   3  27  1   
  6   4   6  2   
  7   4   7  1   
  8   5   8  1   
  9   5   9  2   
 10   6  10  1   
 11   7  11  2   
 12   7  28  1   
 13   8  12  1   
 14   8  13  1   
 15   9  14  1   
 16   9  15  1   
 17  10  11  1   
 18  11  16  1   
 19  12  15  2   
 20  13  29  1   
 21  13  30  1   
 22  13  31  1   
 23  14  17  ar  
 24  14  18  ar  
 25  15  19  1   
 26  16  20  1   
 27  16  32  1   
 28  16  33  1   
 29  17  21  1   
 30  17  22  ar  
 31  18  23  ar  
 32  18  34  1   
 33  19  35  1   
 34  19  36  1   
 35  19  37  1   
 36  20  24  1   
 37  20  38  1   
 38  20  39  1   
 39  21  25  1   
 40  22  26  ar  
 41  22  40  1   
 42  23  26  ar  
 43  23  41  1   
 44  24  42  1   
 45  24  43  1   
 46  24  44  1   
 47  25  45  1   
 48  25  46  1   
 49  25  47  1   
 50  26  48  1   
@<TRIPOS>SUBSTRUCTURE
  1 ****   3 GROUP 4 **** **** 0

# MOE 2024.06 (io_trps.svl 2023.06)
