@<TRIPOS>MOLECULE
NONAME
62 65 1 0 0 
SMALL
USER_CHARGES


@<TRIPOS>ATOM
  1 O       -2.0830     4.3950    -2.3360 O.2   1 <1>  -0.5700 
  2 C       -1.5180     3.6260    -1.5770 C.2   1 <1>   0.5440 
  3 N       -1.0270     2.4410    -2.0980 N.am  1 <1>  -0.6600 
  4 C       -1.4070     3.9960    -0.1720 C.ar  1 <1>   0.3960 
  5 C       -0.9410     2.1860    -3.5670 C.3   1 <1>   0.1400 
  6 C       -0.4610     1.3180    -1.2910 C.3   1 <1>   0.1400 
  7 N       -0.2160     3.9700     0.4470 N.ar  1 <1>  -0.6200 
  8 C       -2.5690     4.4010     0.4880 C.ar  1 <1>   0.1600 
  9 C        0.4880     1.7680    -3.9540 C.3   1 <1>   0.1200 
 10 C        0.9500     0.9690    -1.7910 C.3   1 <1>   0.1200 
 11 C       -0.2600     4.3660     1.7080 C.ar  1 <1>   0.4100 
 12 N       -2.6400     4.7810     1.7550 N.ar  1 <1>  -0.6200 
 13 O        0.9310     0.6980    -3.1640 O.3   1 <1>  -0.5600 
 14 N        0.9490     4.4070     2.3950 N.pl3 1 <1>  -0.8380 
 15 C       -1.4570     4.7510     2.3340 C.ar  1 <1>   0.1600 
 16 C        2.2290     4.6390     1.6600 C.3   1 <1>   0.2090 
 17 C        1.0900     3.5520     3.6080 C.3   1 <1>   0.1290 
 18 C        2.2180     5.9950     0.9260 C.3   1 <1>  -0.0800 
 19 C        3.5390     6.2360     0.1810 C.3   1 <1>  -0.1600 
 20 C        1.9360     7.1800     1.8670 C.3   1 <1>  -0.1600 
 21 C        3.5200     7.5730    -0.5600 C.3   1 <1>   0.3430 
 22 C        1.9320     8.5020     1.1040 C.3   1 <1>   0.3430 
 23 N        3.2330     8.6810     0.3990 N.4   1 <1>  -0.9590 
 24 C        3.3050    10.0090    -0.2670 C.3   1 <1>   0.4860 
 25 C        4.7240    10.2310    -0.7510 C.ar  1 <1>  -0.1440 
 26 C        5.0240    10.1360    -2.1030 C.ar  1 <1>  -0.1500 
 27 C        5.7360    10.5240     0.1540 C.ar  1 <1>  -0.1500 
 28 C        6.3230    10.3190    -2.5430 C.ar  1 <1>  -0.1500 
 29 C        7.0340    10.7060    -0.2890 C.ar  1 <1>  -0.1500 
 30 C        7.3280    10.6010    -1.6360 C.ar  1 <1>  -0.1500 
 31 H       -1.2150     3.0640    -4.1250 H     1 <1>   0.0800 
 32 H       -1.6270     1.4000    -3.8310 H     1 <1>   0.0800 
 33 H       -1.0920     0.4530    -1.4020 H     1 <1>   0.0800 
 34 H       -0.4220     1.5600    -0.2460 H     1 <1>   0.0800 
 35 H       -3.4870     4.4080    -0.0750 H     1 <1>   0.1500 
 36 H        1.1670     2.5920    -3.8290 H     1 <1>   0.0800 
 37 H        0.5150     1.4510    -4.9820 H     1 <1>   0.0800 
 38 H        1.3160     0.0920    -1.2880 H     1 <1>   0.0800 
 39 H        1.6280     1.7850    -1.6070 H     1 <1>   0.0800 
 40 H       -1.4010     5.0530     3.3630 H     1 <1>   0.1500 
 41 H        2.3800     3.8390     0.9540 H     1 <1>   0.0800 
 42 H        3.0470     4.6220     2.3600 H     1 <1>   0.0800 
 43 H        0.1270     3.2190     3.9560 H     1 <1>   0.0800 
 44 H        1.5670     4.1110     4.3940 H     1 <1>   0.0800 
 45 H        1.6860     2.6850     3.3800 H     1 <1>   0.0800 
 46 H        1.4390     5.9610     0.1840 H     1 <1>   0.0800 
 47 H        3.6940     5.4480    -0.5370 H     1 <1>   0.0800 
 48 H        4.3690     6.2170     0.8670 H     1 <1>   0.0800 
 49 H        2.6650     7.2130     2.6580 H     1 <1>   0.0800 
 50 H        0.9700     7.0550     2.3260 H     1 <1>   0.0800 
 51 H        2.7610     7.5470    -1.3260 H     1 <1>   0.0800 
 52 H        4.4760     7.7310    -1.0350 H     1 <1>   0.0800 
 53 H        1.7670     9.3130     1.7960 H     1 <1>   0.0800 
 54 H        1.1260     8.4960     0.3880 H     1 <1>   0.0800 
 55 H        3.9850     8.6650     1.0970 H     1 <1>   0.4500 
 56 H        3.0440    10.7900     0.4290 H     1 <1>   0.0800 
 57 H        2.6200    10.0490    -1.0990 H     1 <1>   0.0800 
 58 H        4.2580     9.9240    -2.8290 H     1 <1>   0.1500 
 59 H        5.5320    10.6200     1.2070 H     1 <1>   0.1500 
 60 H        6.5570    10.2460    -3.5920 H     1 <1>   0.1500 
 61 H        7.8200    10.9340     0.4120 H     1 <1>   0.1500 
 62 H        8.3390    10.7440    -1.9790 H     1 <1>   0.1500 
@<TRIPOS>BOND
  1   1   2  2   
  2   2   3  am  
  3   2   4  1   
  4   3   5  1   
  5   3   6  1   
  6   4   7  ar  
  7   4   8  ar  
  8   5   9  1   
  9   5  31  1   
 10   5  32  1   
 11   6  10  1   
 12   6  33  1   
 13   6  34  1   
 14   7  11  ar  
 15   8  12  ar  
 16   8  35  1   
 17   9  13  1   
 18   9  36  1   
 19   9  37  1   
 20  10  13  1   
 21  10  38  1   
 22  10  39  1   
 23  11  14  1   
 24  11  15  ar  
 25  12  15  ar  
 26  14  16  1   
 27  14  17  1   
 28  15  40  1   
 29  16  18  1   
 30  16  41  1   
 31  16  42  1   
 32  17  43  1   
 33  17  44  1   
 34  17  45  1   
 35  18  19  1   
 36  18  20  1   
 37  18  46  1   
 38  19  21  1   
 39  19  47  1   
 40  19  48  1   
 41  20  22  1   
 42  20  49  1   
 43  20  50  1   
 44  21  23  1   
 45  21  51  1   
 46  21  52  1   
 47  22  23  1   
 48  22  53  1   
 49  22  54  1   
 50  23  24  1   
 51  23  55  1   
 52  24  25  1   
 53  24  56  1   
 54  24  57  1   
 55  25  26  ar  
 56  25  27  ar  
 57  26  28  ar  
 58  26  58  1   
 59  27  29  ar  
 60  27  59  1   
 61  28  30  ar  
 62  28  60  1   
 63  29  30  ar  
 64  29  61  1   
 65  30  62  1   
@<TRIPOS>SUBSTRUCTURE
  1 ****  18 GROUP 4 **** **** 0

# MOE 2024.06 (io_trps.svl 2023.06)
