@<TRIPOS>MOLECULE
NONAME
49 51 1 0 0 
SMALL
USER_CHARGES


@<TRIPOS>ATOM
  1 O       -0.1990    -0.0020    -1.1110 O.2   1 <1>  -0.5700 
  2 C       -1.1890     0.6840    -0.9380 C.2   1 <1>   0.5440 
  3 N       -2.3800     0.0670    -0.6310 N.am  1 <1>  -0.6600 
  4 C       -1.0940     2.1270    -1.0420 C.ar  1 <1>   0.0860 
  5 C       -3.5810     0.7650    -0.1060 C.3   1 <1>   0.1400 
  6 C       -2.4960    -1.3990    -0.4250 C.3   1 <1>   0.1400 
  7 C       -0.2100     2.8410    -0.2350 C.ar  1 <1>  -0.1500 
  8 C       -1.8770     2.8490    -1.9410 C.ar  1 <1>  -0.1500 
  9 C       -4.5350    -0.3500     0.3210 C.3   1 <1>   0.2000 
 10 C       -3.6530    -1.5730     0.5580 C.3   1 <1>  -0.0800 
 11 C       -0.1130     4.2220    -0.2950 C.ar  1 <1>  -0.1440 
 12 C       -1.7940     4.2260    -2.0150 C.ar  1 <1>  -0.1500 
 13 O       -5.2190    -0.0190     1.4790 O.3   1 <1>  -0.6800 
 14 C       -4.4060    -2.9020     0.3950 C.3   1 <1>   0.0210 
 15 C       -0.9180     4.9100    -1.1930 C.ar  1 <1>  -0.1500 
 16 C        0.8690     4.9570     0.6140 C.3   1 <1>   0.0630 
 17 C       -3.4650    -4.0800     0.5440 C.2   1 <1>   0.1080 
 18 C        0.1320     5.9130     1.5580 C.3   1 <1>  -0.2400 
 19 C        1.9200     5.7070    -0.2100 C.3   1 <1>  -0.2400 
 20 N       -2.8390    -4.3440     1.6480 N.2   1 <1>  -0.7070 
 21 C       -3.1580    -4.9870    -0.4650 C.2   1 <1>  -0.1500 
 22 N       -2.1070    -5.4390     1.3710 N.pl3 1 <1>   0.3000 
 23 C       -2.2820    -5.8470     0.0960 C.2   1 <1>  -0.3320 
 24 C       -1.5900    -7.0510    -0.5160 C.3   1 <1>  -0.0600 
 25 H       -3.2990     1.3760     0.7350 H     1 <1>   0.0800 
 26 H       -4.0300     1.3710    -0.8720 H     1 <1>   0.0800 
 27 H       -2.7150    -1.8660    -1.3700 H     1 <1>   0.0800 
 28 H       -1.5840    -1.8140    -0.0280 H     1 <1>   0.0800 
 29 H        0.4090     2.2840     0.4460 H     1 <1>   0.1500 
 30 H       -2.5510     2.3170    -2.5880 H     1 <1>   0.1500 
 31 H       -5.2540    -0.5270    -0.4600 H     1 <1>   0.0800 
 32 H       -3.2310    -1.5290     1.5470 H     1 <1>   0.0800 
 33 H       -2.4080     4.7680    -2.7130 H     1 <1>   0.1500 
 34 H       -4.6060    -0.0090     2.2400 H     1 <1>   0.4000 
 35 H       -4.8810    -2.9440    -0.5680 H     1 <1>   0.0800 
 36 H       -5.1700    -2.9750     1.1490 H     1 <1>   0.0800 
 37 H       -0.8620     5.9830    -1.2590 H     1 <1>   0.1500 
 38 H        1.3870     4.2330     1.2210 H     1 <1>   0.0800 
 39 H       -0.3650     6.6900     1.0050 H     1 <1>   0.0800 
 40 H        0.8250     6.3670     2.2430 H     1 <1>   0.0800 
 41 H       -0.6040     5.3710     2.1250 H     1 <1>   0.0800 
 42 H        1.4640     6.4810    -0.8010 H     1 <1>   0.0800 
 43 H        2.4220     5.0230    -0.8700 H     1 <1>   0.0800 
 44 H        2.6510     6.1550     0.4380 H     1 <1>   0.0800 
 45 H       -3.5460    -4.9810    -1.4670 H     1 <1>   0.1500 
 46 H       -1.4990    -5.8810     2.0700 H     1 <1>   0.2700 
 47 H       -1.8920    -7.1690    -1.5420 H     1 <1>   0.0800 
 48 H       -1.8500    -7.9440     0.0230 H     1 <1>   0.0800 
 49 H       -0.5220    -6.9210    -0.4870 H     1 <1>   0.0800 
@<TRIPOS>BOND
  1   1   2  2   
  2   2   3  am  
  3   2   4  1   
  4   3   5  1   
  5   3   6  1   
  6   4   7  ar  
  7   4   8  ar  
  8   5   9  1   
  9   5  25  1   
 10   5  26  1   
 11   6  10  1   
 12   6  27  1   
 13   6  28  1   
 14   7  11  ar  
 15   7  29  1   
 16   8  12  ar  
 17   8  30  1   
 18   9  10  1   
 19   9  13  1   
 20   9  31  1   
 21  10  14  1   
 22  10  32  1   
 23  11  15  ar  
 24  11  16  1   
 25  12  15  ar  
 26  12  33  1   
 27  13  34  1   
 28  14  17  1   
 29  14  35  1   
 30  14  36  1   
 31  15  37  1   
 32  16  18  1   
 33  16  19  1   
 34  16  38  1   
 35  17  20  2   
 36  17  21  1   
 37  18  39  1   
 38  18  40  1   
 39  18  41  1   
 40  19  42  1   
 41  19  43  1   
 42  19  44  1   
 43  20  22  1   
 44  21  23  2   
 45  21  45  1   
 46  22  23  1   
 47  22  46  1   
 48  23  24  1   
 49  24  47  1   
 50  24  48  1   
 51  24  49  1   
@<TRIPOS>SUBSTRUCTURE
  1 ****   3 GROUP 4 **** **** 0

# MOE 2024.06 (io_trps.svl 2023.06)
