@<TRIPOS>MOLECULE
NONAME
53 55 1 0 0 
SMALL
USER_CHARGES


@<TRIPOS>ATOM
  1 O       -2.9710    -0.2010    -3.0670 O.co2 1 <1>  -0.9000 
  2 C       -3.6510    -0.5660    -2.1130 C.2   1 <1>   0.9060 
  3 O       -4.6520    -1.3000    -2.2130 O.co2 1 <1>  -0.9000 
  4 C       -3.3390    -0.0530    -0.7000 C.3   1 <1>   0.2370 
  5 N       -4.5480    -0.2580     0.1820 N.4   1 <1>  -0.9590 
  6 C       -4.3380    -0.7640     1.5700 C.3   1 <1>   0.3430 
  7 C       -5.6070     0.7630    -0.0150 C.3   1 <1>   0.3430 
  8 C       -5.5330    -1.6400     2.0180 C.3   1 <1>   0.2200 
  9 C       -7.0170     0.2110     0.2730 C.3   1 <1>  -0.0800 
 10 N       -6.2610    -2.2010     0.8130 N.am  1 <1>  -0.6600 
 11 C       -6.4590    -0.9050     3.0000 C.3   1 <1>   0.1200 
 12 C       -7.5540     0.6660     1.6360 C.3   1 <1>   0.1200 
 13 C       -7.1900    -1.3050     0.0390 C.3   1 <1>   0.1400 
 14 C       -5.8800    -3.4390     0.3370 C.2   1 <1>   0.5690 
 15 O       -6.6290     0.4330     2.6430 O.3   1 <1>  -0.5600 
 16 O       -5.0430    -4.0870     0.9230 O.2   1 <1>  -0.5700 
 17 C       -6.4540    -4.0410    -0.9430 C.3   1 <1>   0.0440 
 18 C       -7.9800    -4.1130    -0.9630 C.ar  1 <1>  -0.1430 
 19 C       -8.6690    -4.6930     0.0920 C.ar  1 <1>  -0.1500 
 20 C       -8.6890    -3.5890    -2.0340 C.ar  1 <1>  -0.1500 
 21 C      -10.0530    -4.7390     0.0920 C.ar  1 <1>   0.0830 
 22 C      -10.0730    -3.6450    -2.0510 C.ar  1 <1>  -0.1500 
 23 O      -10.6580    -5.2870     1.1750 O.3   1 <1>  -0.3620 
 24 C      -10.7620    -4.2300    -1.0020 C.ar  1 <1>   0.0830 
 25 C      -11.4610    -4.4280     1.9540 C.3   1 <1>   0.0400 
 26 O      -12.1130    -4.2840    -1.0960 O.3   1 <1>  -0.3630 
 27 C      -12.6750    -5.5720    -1.2290 C.3   1 <1>   0.0400 
 28 H       -3.0680     0.9850    -0.7560 H     1 <1>   0.0800 
 29 H       -2.5040    -0.6180    -0.3310 H     1 <1>   0.0800 
 30 H       -4.9600    -1.0830    -0.3180 H     1 <1>   0.4500 
 31 H       -3.4540    -1.3770     1.5890 H     1 <1>   0.0800 
 32 H       -4.1970     0.0550     2.2550 H     1 <1>   0.0800 
 33 H       -5.4120     1.6240     0.6020 H     1 <1>   0.0800 
 34 H       -5.5820     1.0760    -1.0470 H     1 <1>   0.0800 
 35 H       -5.1280    -2.4580     2.5870 H     1 <1>   0.0800 
 36 H       -7.6650     0.6830    -0.4440 H     1 <1>   0.0800 
 37 H       -6.0000    -0.9020     3.9730 H     1 <1>   0.0800 
 38 H       -7.4150    -1.3950     3.0820 H     1 <1>   0.0800 
 39 H       -8.4820     0.1770     1.8840 H     1 <1>   0.0800 
 40 H       -7.7310     1.7280     1.6190 H     1 <1>   0.0800 
 41 H       -7.0440    -1.4810    -1.0140 H     1 <1>   0.0800 
 42 H       -8.2040    -1.5870     0.2690 H     1 <1>   0.0800 
 43 H       -6.0900    -3.4710    -1.7770 H     1 <1>   0.0800 
 44 H       -6.0680    -5.0380    -1.0550 H     1 <1>   0.0800 
 45 H       -8.1380    -5.1090     0.9300 H     1 <1>   0.1500 
 46 H       -8.1680    -3.1370    -2.8620 H     1 <1>   0.1500 
 47 H      -10.6230    -3.2440    -2.8820 H     1 <1>   0.1500 
 48 H      -11.7810    -4.9680     2.8270 H     1 <1>   0.0800 
 49 H      -12.3170    -4.1210     1.3810 H     1 <1>   0.0800 
 50 H      -10.8770    -3.5730     2.2420 H     1 <1>   0.0800 
 51 H      -13.7330    -5.4630    -1.3870 H     1 <1>   0.0800 
 52 H      -12.4960    -6.1350    -0.3310 H     1 <1>   0.0800 
 53 H      -12.2230    -6.0620    -2.0730 H     1 <1>   0.0800 
@<TRIPOS>BOND
  1   1   2  ar  
  2   2   3  ar  
  3   2   4  1   
  4   4   5  1   
  5   4  28  1   
  6   4  29  1   
  7   5   6  1   
  8   5   7  1   
  9   5  30  1   
 10   6   8  1   
 11   6  31  1   
 12   6  32  1   
 13   7   9  1   
 14   7  33  1   
 15   7  34  1   
 16   8  10  1   
 17   8  11  1   
 18   8  35  1   
 19   9  12  1   
 20   9  13  1   
 21   9  36  1   
 22  10  13  1   
 23  10  14  am  
 24  11  15  1   
 25  11  37  1   
 26  11  38  1   
 27  12  15  1   
 28  12  39  1   
 29  12  40  1   
 30  13  41  1   
 31  13  42  1   
 32  14  16  2   
 33  14  17  1   
 34  17  18  1   
 35  17  43  1   
 36  17  44  1   
 37  18  19  ar  
 38  18  20  ar  
 39  19  21  ar  
 40  19  45  1   
 41  20  22  ar  
 42  20  46  1   
 43  21  23  1   
 44  21  24  ar  
 45  22  24  ar  
 46  22  47  1   
 47  23  25  1   
 48  24  26  1   
 49  25  48  1   
 50  25  49  1   
 51  25  50  1   
 52  26  27  1   
 53  27  51  1   
 54  27  52  1   
 55  27  53  1   
@<TRIPOS>SUBSTRUCTURE
  1 ****  13 GROUP 4 **** **** 0

# MOE 2024.06 (io_trps.svl 2023.06)
