@<TRIPOS>MOLECULE
NONAME
45 47 1 0 0 
SMALL
USER_CHARGES


@<TRIPOS>ATOM
  1 O        2.4480    -0.3960    -1.8390 O.2   1 <1>  -0.5700 
  2 C        1.9550    -0.7410    -0.7890 C.2   1 <1>   0.5690 
  3 N        1.7420     0.1390     0.2320 N.am  1 <1>  -0.4940 
  4 C        1.6250    -2.2440    -0.6230 C.3   1 <1>   0.2810 
  5 C        2.0940     1.4850     0.3620 C.2   1 <1>   0.2040 
  6 N        0.1880    -2.6870    -0.4870 N.am  1 <1>  -0.6600 
  7 C        2.4240    -2.9310     0.4960 C.3   1 <1>  -0.1600 
  8 O        1.3450     2.2550     1.1150 O.3   1 <1>  -0.0190 
  9 C        3.0960     2.2490    -0.1240 C.2   1 <1>  -0.1810 
 10 C       -0.7650    -2.0340     0.2510 C.2   1 <1>   0.6300 
 11 C        0.0540    -4.1380    -0.7860 C.3   1 <1>   0.1400 
 12 C        2.3010    -4.4640     0.3910 C.3   1 <1>  -0.1600 
 13 N        1.7780     3.4890     1.1440 N.2   1 <1>  -0.4100 
 14 C        2.8280     3.5120     0.4030 C.2   1 <1>   0.1080 
 15 C        4.2650     1.8740    -1.0210 C.3   1 <1>  -0.0590 
 16 O       -0.4860    -1.1420     1.0150 O.2   1 <1>  -0.5700 
 17 C       -2.2300    -2.4530     0.1440 C.3   1 <1>  -0.1000 
 18 C        0.8320    -4.9170     0.2850 C.3   1 <1>  -0.1600 
 19 C        3.6410     4.7730     0.1630 C.3   1 <1>   0.0210 
 20 C       -3.2480    -2.0770     1.1840 C.3   1 <1>  -0.2000 
 21 C       -2.8010    -3.4990     1.0610 C.3   1 <1>  -0.2000 
 22 C        4.7700     4.9120     1.1900 C.3   1 <1>  -0.2400 
 23 H        1.0200    -0.1740     0.8960 H     1 <1>   0.3700 
 24 H        1.9800    -2.6750    -1.5430 H     1 <1>   0.0800 
 25 H        2.0610    -2.5930     1.4510 H     1 <1>   0.0800 
 26 H        3.4600    -2.6520     0.4200 H     1 <1>   0.0800 
 27 H        0.4610    -4.3430    -1.7630 H     1 <1>   0.0800 
 28 H       -0.9750    -4.4490    -0.7900 H     1 <1>   0.0800 
 29 H        2.7620    -4.9250     1.2480 H     1 <1>   0.0800 
 30 H        2.8320    -4.7980    -0.4840 H     1 <1>   0.0800 
 31 H        4.5040     0.8330    -0.9060 H     1 <1>   0.0800 
 32 H        5.1380     2.4460    -0.7680 H     1 <1>   0.0800 
 33 H        4.0080     2.0570    -2.0490 H     1 <1>   0.0800 
 34 H       -2.5660    -2.4350    -0.8770 H     1 <1>   0.1000 
 35 H        0.7950    -5.9680     0.0590 H     1 <1>   0.0800 
 36 H        0.3460    -4.7740     1.2350 H     1 <1>   0.0800 
 37 H        2.9870     5.6240     0.2340 H     1 <1>   0.0800 
 38 H        4.0470     4.7540    -0.8320 H     1 <1>   0.0800 
 39 H       -4.2390    -1.8100     0.8600 H     1 <1>   0.1000 
 40 H       -2.9260    -1.5030     2.0370 H     1 <1>   0.1000 
 41 H       -2.1820    -3.9030     1.8430 H     1 <1>   0.1000 
 42 H       -3.4890    -4.2240     0.6600 H     1 <1>   0.1000 
 43 H        4.3560     4.9540     2.1820 H     1 <1>   0.0800 
 44 H        5.3280     5.8130     1.0080 H     1 <1>   0.0800 
 45 H        5.4360     4.0700     1.1310 H     1 <1>   0.0800 
@<TRIPOS>BOND
  1   1   2  2   
  2   2   3  am  
  3   2   4  1   
  4   3   5  1   
  5   3  23  1   
  6   4   6  1   
  7   4   7  1   
  8   4  24  1   
  9   5   8  1   
 10   5   9  2   
 11   6  10  am  
 12   6  11  1   
 13   7  12  1   
 14   7  25  1   
 15   7  26  1   
 16   8  13  1   
 17   9  14  1   
 18   9  15  1   
 19  10  16  2   
 20  10  17  1   
 21  11  18  1   
 22  11  27  1   
 23  11  28  1   
 24  12  18  1   
 25  12  29  1   
 26  12  30  1   
 27  13  14  2   
 28  14  19  1   
 29  15  31  1   
 30  15  32  1   
 31  15  33  1   
 32  17  20  1   
 33  17  21  1   
 34  17  34  1   
 35  18  35  1   
 36  18  36  1   
 37  19  22  1   
 38  19  37  1   
 39  19  38  1   
 40  20  21  1   
 41  20  39  1   
 42  20  40  1   
 43  21  41  1   
 44  21  42  1   
 45  22  43  1   
 46  22  44  1   
 47  22  45  1   
@<TRIPOS>SUBSTRUCTURE
  1 ****   3 GROUP 4 **** **** 0

# MOE 2024.06 (io_trps.svl 2023.06)
