@<TRIPOS>MOLECULE
NONAME
23 23 1 0 0 
SMALL
USER_CHARGES


@<TRIPOS>ATOM
  1 F        0.6400     1.3910    -1.2540 F     1 <1>  -0.3400 
  2 C        0.0020     1.7800    -0.1590 C.3   1 <1>   1.1640 
  3 F       -1.2640     1.4230    -0.3160 F     1 <1>  -0.3400 
  4 F        0.4820     1.0480     0.8390 F     1 <1>  -0.3400 
  5 C        0.1430     3.2830     0.0730 C.ar  1 <1>  -0.1440 
  6 C       -0.3220     4.1450    -0.9060 C.ar  1 <1>   0.1600 
  7 C        0.7130     3.8260     1.2130 C.ar  1 <1>  -0.1500 
  8 N       -0.2650     5.4690    -0.8430 N.ar  1 <1>  -0.6200 
  9 C        0.7760     5.2000     1.2990 C.ar  1 <1>  -0.1500 
 10 C        0.2780     5.9760     0.2630 C.ar  1 <1>   0.1660 
 11 C        0.3430     7.5060     0.3540 C.3   1 <1>   0.5670 
 12 N        0.4150     8.0430    -1.0130 N.4   1 <1>  -0.8530 
 13 C       -0.9170     8.0690     1.0040 C.3   1 <1>  -0.2400 
 14 H       -0.7680     3.7240    -1.7960 H     1 <1>   0.1500 
 15 H        1.0940     3.2060     2.0110 H     1 <1>   0.1500 
 16 H        1.2100     5.6520     2.1750 H     1 <1>   0.1500 
 17 H        1.2090     7.8060     0.9220 H     1 <1>   0.0800 
 18 H       -0.1470     7.3750    -1.5680 H     1 <1>   0.4500 
 19 H        1.3680     7.9940    -1.3800 H     1 <1>   0.4500 
 20 H        0.0250     8.9830    -1.0920 H     1 <1>   0.4500 
 21 H       -1.7960     7.7760     0.4570 H     1 <1>   0.0800 
 22 H       -0.8700     9.1410     1.0720 H     1 <1>   0.0800 
 23 H       -1.0070     7.6800     2.0030 H     1 <1>   0.0800 
@<TRIPOS>BOND
  1   1   2  1   
  2   2   3  1   
  3   2   4  1   
  4   2   5  1   
  5   5   6  ar  
  6   5   7  ar  
  7   6   8  ar  
  8   6  14  1   
  9   7   9  ar  
 10   7  15  1   
 11   8  10  ar  
 12   9  10  ar  
 13   9  16  1   
 14  10  11  1   
 15  11  12  1   
 16  11  13  1   
 17  11  17  1   
 18  12  18  1   
 19  12  19  1   
 20  12  20  1   
 21  13  21  1   
 22  13  22  1   
 23  13  23  1   
@<TRIPOS>SUBSTRUCTURE
  1 ****   6 GROUP 4 **** **** 0

# MOE 2024.06 (io_trps.svl 2023.06)
