@<TRIPOS>MOLECULE
NONAME
38 39 1 0 0 
SMALL
USER_CHARGES


@<TRIPOS>ATOM
  1 S        0.4740     0.3190    -1.1020 S.o2  1 <1>   1.0900 
  2 O        1.7470    -0.1820    -0.6390 O.2   1 <1>  -0.6500 
  3 O        0.0810     0.1350    -2.4770 O.2   1 <1>  -0.6500 
  4 C        0.4270     2.0750    -0.7530 C.3   1 <1>  -0.0550 
  5 C       -0.8060    -0.3710    -0.0710 C.3   1 <1>  -0.1350 
  6 C        0.9210     2.4340     0.6580 C.3   1 <1>  -0.0990 
  7 C        0.9530     3.9340     0.8310 C.2   1 <1>   0.5690 
  8 O       -0.0920     4.4910     1.0570 O.2   1 <1>  -0.5700 
  9 N        2.1550     4.5690     0.6920 N.am  1 <1>  -0.4940 
 10 C        2.4450     5.9550     0.7730 C.2   1 <1>  -0.0880 
 11 N        3.6430     6.5340     0.4710 N.pl3 1 <1>   0.3140 
 12 C        1.6260     6.9640     1.1560 C.2   1 <1>  -0.1500 
 13 N        3.6000     7.8770     0.6620 N.2   1 <1>  -0.7070 
 14 C        4.8700     5.8370    -0.0140 C.3   1 <1>   0.1760 
 15 C        2.3930     8.1170     1.0680 C.2   1 <1>   0.1390 
 16 C        6.0310     5.9000     0.9830 C.3   1 <1>  -0.1600 
 17 C        5.4480     6.4340    -1.2970 C.3   1 <1>  -0.1600 
 18 C        7.3090     5.7760     0.1420 C.3   1 <1>  -0.1600 
 19 C        6.8900     5.9290    -1.3250 C.3   1 <1>  -0.1600 
 20 H       -0.5710     2.4490    -0.8860 H     1 <1>   0.0800 
 21 H        1.0510     2.5790    -1.4670 H     1 <1>   0.0800 
 22 H       -0.8710    -1.4300    -0.2330 H     1 <1>   0.0800 
 23 H       -1.7580     0.0640    -0.3070 H     1 <1>   0.0800 
 24 H       -0.5930    -0.2040     0.9670 H     1 <1>   0.0800 
 25 H        1.9030     2.0280     0.8230 H     1 <1>   0.0800 
 26 H        0.2610     2.0210     1.3990 H     1 <1>   0.0800 
 27 H        2.9480     3.9560     0.5090 H     1 <1>   0.3700 
 28 H        0.5990     6.9100     1.4680 H     1 <1>   0.1500 
 29 H        4.6370     4.8070    -0.2030 H     1 <1>   0.0800 
 30 H        2.0340     9.1040     1.3070 H     1 <1>   0.1500 
 31 H        5.9620     5.1190     1.7190 H     1 <1>   0.0800 
 32 H        6.0310     6.8570     1.4780 H     1 <1>   0.0800 
 33 H        5.4550     7.5100    -1.2300 H     1 <1>   0.0800 
 34 H        4.8970     6.1300    -2.1690 H     1 <1>   0.0800 
 35 H        7.7810     4.8210     0.2970 H     1 <1>   0.0800 
 36 H        8.0030     6.5520     0.4180 H     1 <1>   0.0800 
 37 H        7.5350     6.6090    -1.8560 H     1 <1>   0.0800 
 38 H        6.9250     4.9680    -1.8090 H     1 <1>   0.0800 
@<TRIPOS>BOND
  1   1   2  2   
  2   1   3  2   
  3   1   4  1   
  4   1   5  1   
  5   4   6  1   
  6   4  20  1   
  7   4  21  1   
  8   5  22  1   
  9   5  23  1   
 10   5  24  1   
 11   6   7  1   
 12   6  25  1   
 13   6  26  1   
 14   7   8  2   
 15   7   9  am  
 16   9  10  1   
 17   9  27  1   
 18  10  11  1   
 19  10  12  2   
 20  11  13  1   
 21  11  14  1   
 22  12  15  1   
 23  12  28  1   
 24  13  15  2   
 25  14  16  1   
 26  14  17  1   
 27  14  29  1   
 28  15  30  1   
 29  16  18  1   
 30  16  31  1   
 31  16  32  1   
 32  17  19  1   
 33  17  33  1   
 34  17  34  1   
 35  18  19  1   
 36  18  35  1   
 37  18  36  1   
 38  19  37  1   
 39  19  38  1   
@<TRIPOS>SUBSTRUCTURE
  1 ****   9 GROUP 4 **** **** 0

# MOE 2024.06 (io_trps.svl 2023.06)
