@<TRIPOS>MOLECULE
NONAME
49 51 1 0 0 
SMALL
USER_CHARGES


@<TRIPOS>ATOM
  1 S       -0.2640     0.8450    -1.5690 S.o2  1 <1>   1.2040 
  2 O        0.7110     1.4510    -2.4390 O.2   1 <1>  -0.6500 
  3 O       -1.5670     0.4610    -2.0760 O.2   1 <1>  -0.6500 
  4 C        0.4650    -0.5230    -0.6400 C.ar  1 <1>  -0.0090 
  5 C       -0.5840     2.0270    -0.2680 C.3   1 <1>  -0.0550 
  6 C       -0.2600    -1.6790    -0.3730 C.ar  1 <1>  -0.1500 
  7 C        1.7590    -0.4330    -0.1380 C.ar  1 <1>  -0.1500 
  8 C       -1.6510     1.5270     0.7070 C.3   1 <1>   0.3430 
  9 C        0.2790    -2.7030     0.3870 C.ar  1 <1>  -0.1500 
 10 C        2.3040    -1.4520     0.6230 C.ar  1 <1>  -0.1500 
 11 N       -2.9930     1.3890     0.0620 N.4   1 <1>  -0.9590 
 12 C        1.5610    -2.5880     0.8890 C.ar  1 <1>  -0.1500 
 13 C       -3.6390     2.7060    -0.2370 C.3   1 <1>   0.3430 
 14 C       -3.8950     0.5250     0.8820 C.3   1 <1>   0.3430 
 15 C       -4.9320     2.4790    -1.0120 C.3   1 <1>  -0.1600 
 16 C       -5.1900     0.2700     0.1200 C.3   1 <1>  -0.1600 
 17 C       -5.8770     1.5920    -0.2040 C.3   1 <1>   0.4180 
 18 O       -6.1100     2.2090     1.0370 O.3   1 <1>  -0.5600 
 19 C       -7.1780     1.3260    -0.9490 C.2   1 <1>  -0.2880 
 20 C       -7.1300     3.1730     1.1000 C.3   1 <1>   0.1200 
 21 C       -8.3740     1.7400    -0.5260 C.2   1 <1>  -0.2760 
 22 C       -8.4900     2.5550     0.7470 C.3   1 <1>  -0.0220 
 23 C       -9.6850     1.4470    -1.2340 C.3   1 <1>  -0.1020 
 24 H       -0.8870     2.9650    -0.6910 H     1 <1>   0.0800 
 25 H        0.3230     2.2040     0.2760 H     1 <1>   0.0800 
 26 H       -1.2550    -1.7950    -0.7690 H     1 <1>   0.1500 
 27 H        2.3580     0.4380    -0.3480 H     1 <1>   0.1500 
 28 H       -1.7250     2.2100     1.5390 H     1 <1>   0.0800 
 29 H       -1.3410     0.5700     1.0970 H     1 <1>   0.0800 
 30 H       -0.2930    -3.5950     0.5830 H     1 <1>   0.1500 
 31 H        3.3090    -1.3680     1.0030 H     1 <1>   0.1500 
 32 H       -2.8580     0.9070    -0.8540 H     1 <1>   0.4500 
 33 H        1.9850    -3.3840     1.4790 H     1 <1>   0.1500 
 34 H       -2.9800     3.3240    -0.8240 H     1 <1>   0.0800 
 35 H       -3.8650     3.2200     0.6850 H     1 <1>   0.0800 
 36 H       -4.1250     1.0150     1.8150 H     1 <1>   0.0800 
 37 H       -3.4160    -0.4170     1.0970 H     1 <1>   0.0800 
 38 H       -4.7120     2.0170    -1.9580 H     1 <1>   0.0800 
 39 H       -5.4060     3.4200    -1.2210 H     1 <1>   0.0800 
 40 H       -5.8520    -0.3280     0.7210 H     1 <1>   0.0800 
 41 H       -4.9850    -0.2770    -0.7820 H     1 <1>   0.0800 
 42 H       -7.0430     0.7580    -1.8520 H     1 <1>   0.1500 
 43 H       -6.8960     3.9690     0.4160 H     1 <1>   0.0800 
 44 H       -7.1520     3.5700     2.1000 H     1 <1>   0.0800 
 45 H       -9.2020     3.3510     0.6170 H     1 <1>   0.0800 
 46 H       -8.8310     1.9300     1.5540 H     1 <1>   0.0800 
 47 H      -10.3450     0.9050    -0.5800 H     1 <1>   0.0800 
 48 H       -9.5160     0.8530    -2.1140 H     1 <1>   0.0800 
 49 H      -10.1630     2.3640    -1.5280 H     1 <1>   0.0800 
@<TRIPOS>BOND
  1   1   2  2   
  2   1   3  2   
  3   1   4  1   
  4   1   5  1   
  5   4   6  ar  
  6   4   7  ar  
  7   5   8  1   
  8   5  24  1   
  9   5  25  1   
 10   6   9  ar  
 11   6  26  1   
 12   7  10  ar  
 13   7  27  1   
 14   8  11  1   
 15   8  28  1   
 16   8  29  1   
 17   9  12  ar  
 18   9  30  1   
 19  10  12  ar  
 20  10  31  1   
 21  11  13  1   
 22  11  14  1   
 23  11  32  1   
 24  12  33  1   
 25  13  15  1   
 26  13  34  1   
 27  13  35  1   
 28  14  16  1   
 29  14  36  1   
 30  14  37  1   
 31  15  17  1   
 32  15  38  1   
 33  15  39  1   
 34  16  17  1   
 35  16  40  1   
 36  16  41  1   
 37  17  18  1   
 38  17  19  1   
 39  18  20  1   
 40  19  21  2   
 41  19  42  1   
 42  20  22  1   
 43  20  43  1   
 44  20  44  1   
 45  21  22  1   
 46  21  23  1   
 47  22  45  1   
 48  22  46  1   
 49  23  47  1   
 50  23  48  1   
 51  23  49  1   
@<TRIPOS>SUBSTRUCTURE
  1 ****  11 GROUP 4 **** **** 0

# MOE 2024.06 (io_trps.svl 2023.06)
