@<TRIPOS>MOLECULE
NONAME
45 48 1 0 0 
SMALL
USER_CHARGES


@<TRIPOS>ATOM
  1 O        2.0690     6.6960    -3.2820 O.co2 1 <1>  -0.9000 
  2 C        1.0910     5.9340    -3.1230 C.2   1 <1>   1.0330 
  3 O        0.2280     5.8450    -4.0110 O.co2 1 <1>  -0.9000 
  4 C        0.9240     5.2740    -1.8370 C.2   1 <1>  -0.0060 
  5 N        1.9570     4.8910    -1.0250 N.2   1 <1>  -0.5650 
  6 C       -0.2200     5.0680    -1.1570 C.2   1 <1>  -0.0100 
  7 C        1.3880     4.6650     0.1000 C.2   1 <1>   0.5620 
  8 O        0.0750     4.6920     0.0640 O.3   1 <1>  -0.2800 
  9 N        2.0710     4.6790     1.2950 N.pl3 1 <1>  -0.8220 
 10 C        1.9810     6.0050     1.9930 C.3   1 <1>   0.2890 
 11 C        3.4130     4.0070     1.3480 C.3   1 <1>   0.2090 
 12 C        2.5810     7.1600     1.1290 C.3   1 <1>   0.3430 
 13 C        2.6810     5.8980     3.3530 C.3   1 <1>  -0.1600 
 14 C        4.5230     4.9580     1.8500 C.3   1 <1>  -0.0800 
 15 N        3.6910     6.7290     0.2090 N.4   1 <1>  -0.9590 
 16 C        4.1720     5.5430     3.2330 C.3   1 <1>  -0.1600 
 17 C        4.8750     6.0680     0.8370 C.3   1 <1>   0.3430 
 18 C        3.9830     7.7250    -0.8720 C.3   1 <1>   0.4860 
 19 C        5.3100     7.4160    -1.5460 C.ar  1 <1>  -0.1440 
 20 C        5.3600     6.4850    -2.5720 C.ar  1 <1>  -0.1500 
 21 C        6.4780     8.0470    -1.1380 C.ar  1 <1>  -0.1500 
 22 C        6.5670     6.1750    -3.1740 C.ar  1 <1>  -0.1500 
 23 C        7.6850     7.7360    -1.7410 C.ar  1 <1>  -0.1500 
 24 C        7.7300     6.7980    -2.7570 C.ar  1 <1>  -0.1500 
 25 H       -1.2440     5.2150    -1.4530 H     1 <1>   0.1500 
 26 H        0.9430     6.2270     2.1760 H     1 <1>   0.0800 
 27 H        3.3360     3.1720     2.0230 H     1 <1>   0.0800 
 28 H        3.6750     3.6110     0.3800 H     1 <1>   0.0800 
 29 H        2.9200     7.9500     1.7760 H     1 <1>   0.0800 
 30 H        1.7790     7.5540     0.5260 H     1 <1>   0.0800 
 31 H        2.5670     6.8170     3.9010 H     1 <1>   0.0800 
 32 H        2.1790     5.1300     3.9180 H     1 <1>   0.0800 
 33 H        5.4190     4.3760     1.9710 H     1 <1>   0.0800 
 34 H        3.2440     5.9580    -0.3310 H     1 <1>   0.4500 
 35 H        4.4060     4.8160     3.9940 H     1 <1>   0.0800 
 36 H        4.7770     6.4110     3.4310 H     1 <1>   0.0800 
 37 H        5.4660     5.6210     0.0540 H     1 <1>   0.0800 
 38 H        5.4900     6.8100     1.3180 H     1 <1>   0.0800 
 39 H        3.1950     7.7050    -1.6100 H     1 <1>   0.0800 
 40 H        4.0270     8.7160    -0.4550 H     1 <1>   0.0800 
 41 H        4.4570     6.0010    -2.9140 H     1 <1>   0.1500 
 42 H        6.4590     8.7840    -0.3540 H     1 <1>   0.1500 
 43 H        6.5930     5.4530    -3.9720 H     1 <1>   0.1500 
 44 H        8.5900     8.2260    -1.4250 H     1 <1>   0.1500 
 45 H        8.6660     6.5570    -3.2290 H     1 <1>   0.1500 
@<TRIPOS>BOND
  1   1   2  ar  
  2   2   3  ar  
  3   2   4  1   
  4   4   5  1   
  5   4   6  2   
  6   5   7  2   
  7   6   8  1   
  8   6  25  1   
  9   7   8  1   
 10   7   9  1   
 11   9  10  1   
 12   9  11  1   
 13  10  12  1   
 14  10  13  1   
 15  10  26  1   
 16  11  14  1   
 17  11  27  1   
 18  11  28  1   
 19  12  15  1   
 20  12  29  1   
 21  12  30  1   
 22  13  16  1   
 23  13  31  1   
 24  13  32  1   
 25  14  16  1   
 26  14  17  1   
 27  14  33  1   
 28  15  17  1   
 29  15  18  1   
 30  15  34  1   
 31  16  35  1   
 32  16  36  1   
 33  17  37  1   
 34  17  38  1   
 35  18  19  1   
 36  18  39  1   
 37  18  40  1   
 38  19  20  ar  
 39  19  21  ar  
 40  20  22  ar  
 41  20  41  1   
 42  21  23  ar  
 43  21  42  1   
 44  22  24  ar  
 45  22  43  1   
 46  23  24  ar  
 47  23  44  1   
 48  24  45  1   
@<TRIPOS>SUBSTRUCTURE
  1 ****  15 GROUP 4 **** **** 0

# MOE 2024.06 (io_trps.svl 2023.06)
