@<TRIPOS>MOLECULE
NONAME
40 42 1 0 0 
SMALL
USER_CHARGES


@<TRIPOS>ATOM
  1 O        2.3490    -0.5510    -0.4300 O.2   1 <1>  -0.5700 
  2 C        1.4880    -1.0090     0.2770 C.2   1 <1>   0.5690 
  3 N        0.7410    -0.1990     1.0510 N.am  1 <1>  -0.8000 
  4 C        1.2370    -2.5220     0.3030 C.3   1 <1>   0.1710 
  5 N       -0.1700    -2.9150     0.6090 N.3   1 <1>  -0.8100 
  6 C       -1.0990    -2.5440    -0.4680 C.3   1 <1>   0.1100 
  7 C       -0.3070    -4.3730     0.7640 C.3   1 <1>   0.1100 
  8 C       -2.3120    -3.4340    -0.2300 C.3   1 <1>   0.2000 
  9 C       -1.6880    -4.7610     0.1970 C.3   1 <1>  -0.0800 
 10 O       -2.9970    -2.9240     0.8560 O.3   1 <1>  -0.6800 
 11 C       -1.5740    -5.7270    -0.9980 C.3   1 <1>  -0.0170 
 12 C       -0.9310    -7.0460    -0.6020 C.ar  1 <1>   0.1670 
 13 N        0.3190    -7.2190    -0.9040 N.ar  1 <1>  -0.6200 
 14 C       -1.7080    -8.0020     0.0720 C.ar  1 <1>  -0.1500 
 15 C        0.9000    -8.3930    -0.5450 C.ar  1 <1>   0.3100 
 16 C       -1.1510    -9.1870     0.4450 C.ar  1 <1>  -0.1500 
 17 C        0.2010    -9.4120     0.1380 C.ar  1 <1>   0.0000 
 18 C        2.2520    -8.6060    -0.8590 C.ar  1 <1>  -0.1500 
 19 C        0.8800   -10.5990     0.4780 C.ar  1 <1>  -0.1500 
 20 C        2.8940    -9.7670    -0.5200 C.ar  1 <1>  -0.1500 
 21 C        2.1990   -10.7740     0.1570 C.ar  1 <1>  -0.1500 
 22 H        0.8780     0.8100     1.0400 H     1 <1>   0.3700 
 23 H       -0.0320    -0.5790     1.6010 H     1 <1>   0.3700 
 24 H        1.8850    -2.9380     1.0530 H     1 <1>   0.0800 
 25 H        1.5320    -2.9310    -0.6470 H     1 <1>   0.0800 
 26 H       -1.3570    -1.4990    -0.4360 H     1 <1>   0.0800 
 27 H       -0.6680    -2.7760    -1.4270 H     1 <1>   0.0800 
 28 H        0.4790    -4.8810     0.2310 H     1 <1>   0.0800 
 29 H       -0.2360    -4.6350     1.8060 H     1 <1>   0.0800 
 30 H       -2.9840    -3.4980    -1.0690 H     1 <1>   0.0800 
 31 H       -2.2840    -5.2330     0.9580 H     1 <1>   0.0800 
 32 H       -2.3210    -2.7350     1.5410 H     1 <1>   0.4000 
 33 H       -0.9920    -5.2750    -1.7820 H     1 <1>   0.0800 
 34 H       -2.5530    -5.9260    -1.3960 H     1 <1>   0.0800 
 35 H       -2.7390    -7.7840     0.2860 H     1 <1>   0.1500 
 36 H       -1.7140    -9.9420     0.9630 H     1 <1>   0.1500 
 37 H        2.7680    -7.8200    -1.3800 H     1 <1>   0.1500 
 38 H        0.3400   -11.3700     0.9980 H     1 <1>   0.1500 
 39 H        3.9310    -9.9170    -0.7670 H     1 <1>   0.1500 
 40 H        2.7150   -11.6820     0.4170 H     1 <1>   0.1500 
@<TRIPOS>BOND
  1   1   2  2   
  2   2   3  am  
  3   2   4  1   
  4   3  22  1   
  5   3  23  1   
  6   4   5  1   
  7   4  24  1   
  8   4  25  1   
  9   5   6  1   
 10   5   7  1   
 11   6   8  1   
 12   6  26  1   
 13   6  27  1   
 14   7   9  1   
 15   7  28  1   
 16   7  29  1   
 17   8   9  1   
 18   8  10  1   
 19   8  30  1   
 20   9  11  1   
 21   9  31  1   
 22  10  32  1   
 23  11  12  1   
 24  11  33  1   
 25  11  34  1   
 26  12  13  ar  
 27  12  14  ar  
 28  13  15  ar  
 29  14  16  ar  
 30  14  35  1   
 31  15  17  ar  
 32  15  18  ar  
 33  16  17  ar  
 34  16  36  1   
 35  17  19  ar  
 36  18  20  ar  
 37  18  37  1   
 38  19  21  ar  
 39  19  38  1   
 40  20  21  ar  
 41  20  39  1   
 42  21  40  1   
@<TRIPOS>SUBSTRUCTURE
  1 ****   7 GROUP 4 **** **** 0

# MOE 2024.06 (io_trps.svl 2023.06)
