@<TRIPOS>MOLECULE
NONAME
45 47 1 0 0 
SMALL
USER_CHARGES


@<TRIPOS>ATOM
  1 F       -4.7290    -0.4010    -1.4810 F     1 <1>  -0.1900 
  2 C       -3.9470     0.3870    -0.7880 C.ar  1 <1>   0.1900 
  3 C       -3.1720    -0.1460     0.2340 C.ar  1 <1>  -0.1440 
  4 C       -3.9330     1.7310    -1.1090 C.ar  1 <1>  -0.1500 
  5 C       -2.3620     0.7210     0.9520 C.ar  1 <1>  -0.1500 
  6 C       -3.2040    -1.6300     0.5700 C.3   1 <1>  -0.0160 
  7 C       -3.1170     2.5800    -0.3820 C.ar  1 <1>  -0.1500 
  8 C       -2.3350     2.0740     0.6450 C.ar  1 <1>  -0.1500 
  9 C       -4.3870    -1.9460     1.4920 C.3   1 <1>  -0.0990 
 10 C       -4.5740    -3.4410     1.6440 C.2   1 <1>   0.5690 
 11 O       -4.0680    -3.9820     2.5970 O.2   1 <1>  -0.5700 
 12 N       -5.2820    -4.1510     0.7140 N.am  1 <1>  -0.6600 
 13 C       -5.9290    -3.6300    -0.5200 C.3   1 <1>   0.1400 
 14 C       -5.4480    -5.6220     0.8010 C.3   1 <1>   0.1400 
 15 C       -6.8570    -4.7600    -0.9640 C.3   1 <1>   0.2000 
 16 C       -6.1250    -6.0290    -0.5140 C.3   1 <1>  -0.0800 
 17 O       -8.0470    -4.6380    -0.2630 O.3   1 <1>  -0.6800 
 18 C       -7.0130    -7.2830    -0.3990 C.3   1 <1>   0.0200 
 19 C       -6.2270    -8.5470    -0.0930 C.2   1 <1>  -0.0400 
 20 O       -6.8860    -9.6490     0.1490 O.3   1 <1>  -0.0190 
 21 C       -4.9160    -8.8310    -0.0100 C.2   1 <1>  -0.1500 
 22 N       -6.0910   -10.6500     0.3940 N.2   1 <1>  -0.4100 
 23 C       -4.8970   -10.1860     0.3060 C.2   1 <1>   0.1080 
 24 C       -3.6460   -11.0100     0.5180 C.3   1 <1>  -0.0590 
 25 H       -4.5480     2.1010    -1.9090 H     1 <1>   0.1500 
 26 H       -1.7480     0.3490     1.7540 H     1 <1>   0.1500 
 27 H       -3.2810    -2.2000    -0.3390 H     1 <1>   0.0800 
 28 H       -2.2880    -1.9220     1.0530 H     1 <1>   0.0800 
 29 H       -3.0890     3.6310    -0.6130 H     1 <1>   0.1500 
 30 H       -1.7020     2.7360     1.2100 H     1 <1>   0.1500 
 31 H       -5.2880    -1.5040     1.1130 H     1 <1>   0.0800 
 32 H       -4.2040    -1.5180     2.4620 H     1 <1>   0.0800 
 33 H       -6.4750    -2.7190    -0.3460 H     1 <1>   0.0800 
 34 H       -5.1750    -3.4620    -1.2690 H     1 <1>   0.0800 
 35 H       -4.4930    -6.1030     0.9280 H     1 <1>   0.0800 
 36 H       -6.0740    -5.8530     1.6470 H     1 <1>   0.0800 
 37 H       -7.0760    -4.7390    -2.0180 H     1 <1>   0.0800 
 38 H       -5.3500    -6.2260    -1.2340 H     1 <1>   0.0800 
 39 H       -7.8430    -4.4900     0.6830 H     1 <1>   0.4000 
 40 H       -7.5440    -7.4290    -1.3220 H     1 <1>   0.0800 
 41 H       -7.7460    -7.1450     0.3770 H     1 <1>   0.0800 
 42 H       -4.0550    -8.2050    -0.1450 H     1 <1>   0.1500 
 43 H       -3.0730   -10.6000     1.3290 H     1 <1>   0.0800 
 44 H       -3.0510   -11.0080    -0.3760 H     1 <1>   0.0800 
 45 H       -3.9120   -12.0240     0.7570 H     1 <1>   0.0800 
@<TRIPOS>BOND
  1   1   2  1   
  2   2   3  ar  
  3   2   4  ar  
  4   3   5  ar  
  5   3   6  1   
  6   4   7  ar  
  7   4  25  1   
  8   5   8  ar  
  9   5  26  1   
 10   6   9  1   
 11   6  27  1   
 12   6  28  1   
 13   7   8  ar  
 14   7  29  1   
 15   8  30  1   
 16   9  10  1   
 17   9  31  1   
 18   9  32  1   
 19  10  11  2   
 20  10  12  am  
 21  12  13  1   
 22  12  14  1   
 23  13  15  1   
 24  13  33  1   
 25  13  34  1   
 26  14  16  1   
 27  14  35  1   
 28  14  36  1   
 29  15  16  1   
 30  15  17  1   
 31  15  37  1   
 32  16  18  1   
 33  16  38  1   
 34  17  39  1   
 35  18  19  1   
 36  18  40  1   
 37  18  41  1   
 38  19  20  1   
 39  19  21  2   
 40  20  22  1   
 41  21  23  1   
 42  21  42  1   
 43  22  23  2   
 44  23  24  1   
 45  24  43  1   
 46  24  44  1   
 47  24  45  1   
@<TRIPOS>SUBSTRUCTURE
  1 ****  12 GROUP 4 **** **** 0

# MOE 2024.06 (io_trps.svl 2023.06)
