@<TRIPOS>MOLECULE
NONAME
47 49 1 0 0 
SMALL
USER_CHARGES


@<TRIPOS>ATOM
  1 O       -0.9490    -0.8320     1.7210 O.2   1 <1>  -0.5700 
  2 C       -1.5980    -0.6930     0.6970 C.2   1 <1>   0.7160 
  3 N       -1.6290     0.5600     0.1270 N.am  1 <1>  -0.7300 
  4 C       -2.3280    -1.8000     0.0700 C.2   1 <1>   0.4300 
  5 C       -0.9560     1.7820     0.6380 C.3   1 <1>   0.0600 
  6 N       -2.9960    -1.7050    -1.0330 N.2   1 <1>  -0.4100 
  7 N       -2.3930    -3.0480     0.5650 N.2   1 <1>  -0.5650 
  8 O       -3.5200    -2.8600    -1.2870 O.3   1 <1>  -0.0190 
  9 C       -3.1320    -3.6200    -0.2950 C.2   1 <1>   0.2980 
 10 C       -3.5600    -5.0860    -0.2640 C.3   1 <1>   0.2900 
 11 N       -5.0160    -5.2730    -0.0370 N.3   1 <1>  -0.8100 
 12 C       -5.2700    -6.5520     0.6700 C.3   1 <1>   0.1100 
 13 C       -5.7850    -5.1540    -1.2890 C.3   1 <1>   0.1100 
 14 C       -6.7220    -6.7460     1.1350 C.3   1 <1>   0.2090 
 15 C       -7.2480    -4.8110    -0.9970 C.3   1 <1>  -0.1600 
 16 N       -7.6250    -7.0940     0.0040 N.pl3 1 <1>  -0.8380 
 17 C       -8.1670    -6.0310    -0.8760 C.3   1 <1>   0.2090 
 18 C       -7.7940    -8.4320    -0.3480 C.ar  1 <1>   0.1000 
 19 C       -8.7080    -9.2550     0.3140 C.ar  1 <1>  -0.1440 
 20 C       -7.0330    -8.9670    -1.3810 C.ar  1 <1>  -0.1500 
 21 C       -8.8350   -10.5830    -0.0600 C.ar  1 <1>  -0.1500 
 22 C       -9.5770    -8.7090     1.4380 C.3   1 <1>  -0.0970 
 23 C       -7.1650   -10.2910    -1.7510 C.ar  1 <1>  -0.1500 
 24 C       -8.0670   -11.1030    -1.0880 C.ar  1 <1>  -0.1500 
 25 H       -2.1770     0.6620    -0.7320 H     1 <1>   0.3700 
 26 H       -0.4120     1.5650     1.5420 H     1 <1>   0.0800 
 27 H       -1.6900     2.5400     0.8490 H     1 <1>   0.0800 
 28 H       -0.2660     2.1520    -0.1000 H     1 <1>   0.0800 
 29 H       -3.0120    -5.5460     0.5400 H     1 <1>   0.0800 
 30 H       -3.2630    -5.5690    -1.1780 H     1 <1>   0.0800 
 31 H       -4.6570    -6.5750     1.5540 H     1 <1>   0.0800 
 32 H       -4.9850    -7.3850     0.0510 H     1 <1>   0.0800 
 33 H       -5.7130    -6.0600    -1.8670 H     1 <1>   0.0800 
 34 H       -5.3810    -4.3540    -1.8820 H     1 <1>   0.0800 
 35 H       -7.0720    -5.8610     1.6360 H     1 <1>   0.0800 
 36 H       -6.7430    -7.5560     1.8420 H     1 <1>   0.0800 
 37 H       -7.6210    -4.2170    -1.8100 H     1 <1>   0.0800 
 38 H       -7.3140    -4.2030    -0.1130 H     1 <1>   0.0800 
 39 H       -8.3300    -6.4490    -1.8550 H     1 <1>   0.0800 
 40 H       -9.1220    -5.7200    -0.4920 H     1 <1>   0.0800 
 41 H       -6.3350    -8.3320    -1.8900 H     1 <1>   0.1500 
 42 H       -9.5350   -11.2230     0.4460 H     1 <1>   0.1500 
 43 H      -10.0470    -7.7950     1.1230 H     1 <1>   0.0800 
 44 H       -8.9700    -8.5060     2.3000 H     1 <1>   0.0800 
 45 H      -10.3440    -9.4100     1.7110 H     1 <1>   0.0800 
 46 H       -6.5680   -10.6910    -2.5520 H     1 <1>   0.1500 
 47 H       -8.1730   -12.1360    -1.3710 H     1 <1>   0.1500 
@<TRIPOS>BOND
  1   1   2  2   
  2   2   3  am  
  3   2   4  1   
  4   3   5  1   
  5   3  25  1   
  6   4   6  2   
  7   4   7  1   
  8   5  26  1   
  9   5  27  1   
 10   5  28  1   
 11   6   8  1   
 12   7   9  2   
 13   8   9  1   
 14   9  10  1   
 15  10  11  1   
 16  10  29  1   
 17  10  30  1   
 18  11  12  1   
 19  11  13  1   
 20  12  14  1   
 21  12  31  1   
 22  12  32  1   
 23  13  15  1   
 24  13  33  1   
 25  13  34  1   
 26  14  16  1   
 27  14  35  1   
 28  14  36  1   
 29  15  17  1   
 30  15  37  1   
 31  15  38  1   
 32  16  17  1   
 33  16  18  1   
 34  17  39  1   
 35  17  40  1   
 36  18  19  ar  
 37  18  20  ar  
 38  19  21  ar  
 39  19  22  1   
 40  20  23  ar  
 41  20  41  1   
 42  21  24  ar  
 43  21  42  1   
 44  22  43  1   
 45  22  44  1   
 46  22  45  1   
 47  23  24  ar  
 48  23  46  1   
 49  24  47  1   
@<TRIPOS>SUBSTRUCTURE
  1 ****  11 GROUP 4 **** **** 0

# MOE 2024.06 (io_trps.svl 2023.06)
