@<TRIPOS>MOLECULE
NONAME
53 55 1 0 0 
SMALL
USER_CHARGES


@<TRIPOS>ATOM
  1 O       -0.0110     0.4920     1.8270 O.2   1 <1>  -0.5700 
  2 C        0.0450     1.6250     1.3830 C.2   1 <1>   0.5440 
  3 N       -1.1300     2.3010     1.1270 N.am  1 <1>  -0.6600 
  4 C        1.3400     2.2310     1.1720 C.ar  1 <1>   0.0860 
  5 C       -2.4470     1.6720     1.4340 C.3   1 <1>   0.1400 
  6 C       -1.1580     3.6400     0.4660 C.3   1 <1>   0.1400 
  7 C        1.9310     2.2900    -0.0920 C.ar  1 <1>   0.0820 
  8 C        2.0430     2.7700     2.2490 C.ar  1 <1>  -0.1500 
  9 C       -3.5200     2.7410     1.6550 C.3   1 <1>  -0.1600 
 10 C       -2.4090     3.7500    -0.4020 C.3   1 <1>  -0.1600 
 11 O        1.2600     1.7890    -1.1550 O.3   1 <1>  -0.3620 
 12 C        3.1850     2.8780    -0.2770 C.ar  1 <1>   0.0820 
 13 C        3.2830     3.3530     2.0780 C.ar  1 <1>  -0.1500 
 14 C       -3.6960     3.6960     0.4490 C.3   1 <1>   0.2800 
 15 C        1.5170     0.4390    -1.4650 C.3   1 <1>   0.0400 
 16 O        3.7030     2.9010    -1.5390 O.3   1 <1>  -0.3630 
 17 C        3.8560     3.4100     0.8190 C.ar  1 <1>  -0.1500 
 18 O       -3.8920     4.9610     1.0270 O.3   1 <1>  -0.5600 
 19 C       -4.9160     3.2900    -0.4210 C.3   1 <1>  -0.1600 
 20 C        4.9380     3.5190    -1.8220 C.3   1 <1>   0.0400 
 21 C       -4.4740     5.9860     0.2600 C.3   1 <1>   0.1200 
 22 C       -6.1790     4.0930    -0.0900 C.3   1 <1>   0.2800 
 23 C       -5.8590     5.5970    -0.2890 C.3   1 <1>   0.2000 
 24 O       -7.1520     3.7360    -1.0050 O.3   1 <1>  -0.6800 
 25 C       -6.7640     3.7380     1.2870 C.3   1 <1>  -0.2400 
 26 O       -6.8480     6.4060     0.2680 O.3   1 <1>  -0.6800 
 27 H       -2.7250     1.0290     0.6170 H     1 <1>   0.0800 
 28 H       -2.3590     1.0660     2.3210 H     1 <1>   0.0800 
 29 H       -1.1640     4.4110     1.2190 H     1 <1>   0.0800 
 30 H       -0.2890     3.7730    -0.1540 H     1 <1>   0.0800 
 31 H        1.6010     2.7200     3.2300 H     1 <1>   0.1500 
 32 H       -3.2290     3.3050     2.5250 H     1 <1>   0.0800 
 33 H       -4.4440     2.2520     1.8950 H     1 <1>   0.0800 
 34 H       -2.3900     2.9280    -1.0970 H     1 <1>   0.0800 
 35 H       -2.3680     4.6510    -0.9830 H     1 <1>   0.0800 
 36 H        3.8060     3.7630     2.9260 H     1 <1>   0.1500 
 37 H        0.9270     0.1720    -2.3220 H     1 <1>   0.0800 
 38 H        1.2430    -0.1720    -0.6220 H     1 <1>   0.0800 
 39 H        2.5640     0.3280    -1.6870 H     1 <1>   0.0800 
 40 H        4.8210     3.8690     0.7190 H     1 <1>   0.1500 
 41 H       -4.6750     3.4720    -1.4530 H     1 <1>   0.0800 
 42 H       -5.0980     2.2350    -0.3290 H     1 <1>   0.0800 
 43 H        5.1210     3.4280    -2.8770 H     1 <1>   0.0800 
 44 H        5.7150     3.0160    -1.2730 H     1 <1>   0.0800 
 45 H        4.8800     4.5580    -1.5500 H     1 <1>   0.0800 
 46 H       -4.5560     6.8550     0.8900 H     1 <1>   0.0800 
 47 H       -3.8100     6.2180    -0.5510 H     1 <1>   0.0800 
 48 H       -5.8540     5.8090    -1.3440 H     1 <1>   0.0800 
 49 H       -7.4200     2.8120    -0.8480 H     1 <1>   0.4000 
 50 H       -6.1170     4.0970     2.0680 H     1 <1>   0.0800 
 51 H       -6.8710     2.6760     1.3980 H     1 <1>   0.0800 
 52 H       -7.7230     4.2050     1.4250 H     1 <1>   0.0800 
 53 H       -7.7160     6.0760    -0.0390 H     1 <1>   0.4000 
@<TRIPOS>BOND
  1   1   2  2   
  2   2   3  am  
  3   2   4  1   
  4   3   5  1   
  5   3   6  1   
  6   4   7  ar  
  7   4   8  ar  
  8   5   9  1   
  9   5  27  1   
 10   5  28  1   
 11   6  10  1   
 12   6  29  1   
 13   6  30  1   
 14   7  11  1   
 15   7  12  ar  
 16   8  13  ar  
 17   8  31  1   
 18   9  14  1   
 19   9  32  1   
 20   9  33  1   
 21  10  14  1   
 22  10  34  1   
 23  10  35  1   
 24  11  15  1   
 25  12  16  1   
 26  12  17  ar  
 27  13  17  ar  
 28  13  36  1   
 29  14  18  1   
 30  14  19  1   
 31  15  37  1   
 32  15  38  1   
 33  15  39  1   
 34  16  20  1   
 35  17  40  1   
 36  18  21  1   
 37  19  22  1   
 38  19  41  1   
 39  19  42  1   
 40  20  43  1   
 41  20  44  1   
 42  20  45  1   
 43  21  23  1   
 44  21  46  1   
 45  21  47  1   
 46  22  23  1   
 47  22  24  1   
 48  22  25  1   
 49  23  26  1   
 50  23  48  1   
 51  24  49  1   
 52  25  50  1   
 53  25  51  1   
 54  25  52  1   
 55  26  53  1   
@<TRIPOS>SUBSTRUCTURE
  1 ****   6 GROUP 4 **** **** 0

# MOE 2024.06 (io_trps.svl 2023.06)
