@<TRIPOS>MOLECULE
NONAME
46 48 1 0 0 
SMALL
USER_CHARGES


@<TRIPOS>ATOM
  1 CL      -1.0920    -1.4960     0.8800 Cl    1 <1>  -0.1770 
  2 C       -1.7600     0.0010     0.2650 C.ar  1 <1>   0.1770 
  3 C       -2.7460    -0.0160    -0.7050 C.ar  1 <1>  -0.1440 
  4 C       -1.2800     1.2030     0.7670 C.ar  1 <1>   0.1600 
  5 C       -3.1870     1.2330    -1.1030 C.ar  1 <1>   0.1770 
  6 C       -3.2920    -1.3140    -1.2740 C.3   1 <1>   0.2540 
  7 N       -1.7010     2.4020     0.3820 N.ar  1 <1>  -0.6200 
  8 CL      -4.4380     1.3910    -2.3150 Cl    1 <1>  -0.1770 
  9 C       -2.6490     2.3860    -0.5480 C.ar  1 <1>   0.1600 
 10 N       -4.2100    -1.9350    -0.3060 N.3   1 <1>  -0.8100 
 11 C       -4.4100    -3.3630    -0.5640 C.3   1 <1>   0.1100 
 12 C       -5.4910    -1.2100    -0.1920 C.3   1 <1>   0.1100 
 13 C       -5.3740    -3.8590     0.5280 C.3   1 <1>   0.4230 
 14 C       -6.4830    -1.9420     0.7450 C.3   1 <1>  -0.1600 
 15 N       -5.1410    -5.2460     1.0750 N.4   1 <1>  -0.9590 
 16 C       -6.8720    -3.4120     0.1890 C.3   1 <1>   0.0000 
 17 C       -5.1980    -6.2970     0.0510 C.3   1 <1>   0.3430 
 18 C       -3.8820    -5.3170     1.8790 C.3   1 <1>   0.2630 
 19 C       -7.2710    -4.8470    -0.4430 C.3   1 <1>  -0.1600 
 20 C       -8.3780    -2.9160    -0.0590 C.3   1 <1>   0.1200 
 21 C       -6.2550    -5.8990    -0.9580 C.3   1 <1>  -0.1600 
 22 O       -9.0310    -2.9140     1.1720 O.3   1 <1>  -0.6800 
 23 H       -0.5110     1.1700     1.5200 H     1 <1>   0.1500 
 24 H       -2.4630    -1.9760    -1.4620 H     1 <1>   0.0800 
 25 H       -3.7940    -1.1530    -2.2130 H     1 <1>   0.0800 
 26 H       -3.0220     3.3360    -0.8870 H     1 <1>   0.1500 
 27 H       -4.8280    -3.5030    -1.5450 H     1 <1>   0.0800 
 28 H       -3.4630    -3.8690    -0.4940 H     1 <1>   0.0800 
 29 H       -5.3050    -0.2230     0.2010 H     1 <1>   0.0800 
 30 H       -5.9360    -1.0990    -1.1680 H     1 <1>   0.0800 
 31 H       -5.0330    -3.2890     1.3700 H     1 <1>   0.0800 
 32 H       -6.1010    -1.9540     1.7540 H     1 <1>   0.0800 
 33 H       -7.2670    -1.2150     0.8850 H     1 <1>   0.0800 
 34 H       -5.9390    -5.4020     1.7080 H     1 <1>   0.4500 
 35 H       -4.2460    -6.4020    -0.4440 H     1 <1>   0.0800 
 36 H       -5.4560    -7.2390     0.5090 H     1 <1>   0.0800 
 37 H       -3.0240    -5.1400     1.2510 H     1 <1>   0.0800 
 38 H       -3.7820    -6.2880     2.3360 H     1 <1>   0.0800 
 39 H       -3.8940    -4.5710     2.6570 H     1 <1>   0.0800 
 40 H       -7.9250    -5.3500     0.2540 H     1 <1>   0.0800 
 41 H       -7.8150    -4.7290    -1.3670 H     1 <1>   0.0800 
 42 H       -9.0410    -3.4780    -0.6930 H     1 <1>   0.0800 
 43 H       -8.4420    -1.9320    -0.4980 H     1 <1>   0.0800 
 44 H       -5.7650    -5.5290    -1.8410 H     1 <1>   0.0800 
 45 H       -6.7820    -6.7880    -1.2630 H     1 <1>   0.0800 
 46 H       -9.9480    -2.5800     1.0860 H     1 <1>   0.4000 
@<TRIPOS>BOND
  1   1   2  1   
  2   2   3  ar  
  3   2   4  ar  
  4   3   5  ar  
  5   3   6  1   
  6   4   7  ar  
  7   4  23  1   
  8   5   8  1   
  9   5   9  ar  
 10   6  10  1   
 11   6  24  1   
 12   6  25  1   
 13   7   9  ar  
 14   9  26  1   
 15  10  11  1   
 16  10  12  1   
 17  11  13  1   
 18  11  27  1   
 19  11  28  1   
 20  12  14  1   
 21  12  29  1   
 22  12  30  1   
 23  13  15  1   
 24  13  16  1   
 25  13  31  1   
 26  14  16  1   
 27  14  32  1   
 28  14  33  1   
 29  15  17  1   
 30  15  18  1   
 31  15  34  1   
 32  16  19  1   
 33  16  20  1   
 34  17  21  1   
 35  17  35  1   
 36  17  36  1   
 37  18  37  1   
 38  18  38  1   
 39  18  39  1   
 40  19  21  1   
 41  19  40  1   
 42  19  41  1   
 43  20  22  1   
 44  20  42  1   
 45  20  43  1   
 46  21  44  1   
 47  21  45  1   
 48  22  46  1   
@<TRIPOS>SUBSTRUCTURE
  1 ****  10 GROUP 4 **** **** 0

# MOE 2024.06 (io_trps.svl 2023.06)
