@<TRIPOS>MOLECULE
NONAME
54 57 1 0 0 
SMALL
USER_CHARGES


@<TRIPOS>ATOM
  1 O       -1.4660     0.8050    -0.1510 O.2   1 <1>  -0.5700 
  2 C       -1.0570     1.8560     0.2740 C.2   1 <1>   0.5690 
  3 N       -1.8260     2.9650     0.2270 N.am  1 <1>  -0.7300 
  4 C        0.3640     1.9540     0.8380 C.3   1 <1>   0.1810 
  5 C       -1.3890     4.2910     0.7270 C.3   1 <1>   0.3640 
  6 O        0.5730     3.1090     1.6220 O.3   1 <1>  -0.5600 
  7 C       -1.7450     5.3490    -0.3160 C.ar  1 <1>  -0.1440 
  8 C        0.1330     4.3230     1.0300 C.3   1 <1>   0.2610 
  9 C       -1.5160     5.1380    -1.6710 C.ar  1 <1>  -0.1500 
 10 C       -2.2940     6.5570     0.0900 C.ar  1 <1>  -0.1500 
 11 C        0.5150     5.5310     1.9040 C.2   1 <1>   0.5690 
 12 C       -1.8320     6.1150    -2.5990 C.ar  1 <1>  -0.1500 
 13 C       -2.6090     7.5350    -0.8360 C.ar  1 <1>  -0.1500 
 14 O       -0.3430     6.0480     2.5880 O.2   1 <1>  -0.5700 
 15 N        1.8010     6.0260     1.8990 N.am  1 <1>  -0.6600 
 16 C       -2.3780     7.3150    -2.1820 C.ar  1 <1>  -0.1500 
 17 C        2.9740     5.3530     1.2800 C.3   1 <1>   0.1400 
 18 C        2.1410     7.3110     2.5660 C.3   1 <1>   0.1400 
 19 C        3.5810     6.2790     0.2230 C.3   1 <1>  -0.1600 
 20 C        2.7560     8.2680     1.5390 C.3   1 <1>  -0.1600 
 21 C        3.9690     7.6450     0.8180 C.3   1 <1>  -0.0800 
 22 C        4.5170     8.5600    -0.2930 C.3   1 <1>  -0.1600 
 23 C        5.0610     9.8960     0.2370 C.3   1 <1>   0.0960 
 24 N        5.6620    10.6850    -0.8550 N.pl3 1 <1>   0.3140 
 25 N        4.9570    11.6010    -1.5420 N.2   1 <1>  -0.7070 
 26 C        6.9310    10.6090    -1.3020 C.2   1 <1>  -0.3020 
 27 C        5.7940    12.0840    -2.4090 C.2   1 <1>   0.1390 
 28 C        7.0510    11.5010    -2.3070 C.2   1 <1>  -0.1500 
 29 H       -2.7710     2.9000    -0.1540 H     1 <1>   0.3700 
 30 H        1.0690     1.9620     0.0280 H     1 <1>   0.0800 
 31 H        0.5580     1.0990     1.4590 H     1 <1>   0.0800 
 32 H       -1.9340     4.4890     1.6340 H     1 <1>   0.0800 
 33 H        0.6480     4.4260     0.0930 H     1 <1>   0.0800 
 34 H       -1.0930     4.2100    -2.0160 H     1 <1>   0.1500 
 35 H       -2.4750     6.7480     1.1360 H     1 <1>   0.1500 
 36 H       -1.6530     5.9420    -3.6460 H     1 <1>   0.1500 
 37 H       -3.0320     8.4690    -0.5080 H     1 <1>   0.1500 
 38 H       -2.6230     8.0760    -2.9020 H     1 <1>   0.1500 
 39 H        3.7020     5.1500     2.0470 H     1 <1>   0.0800 
 40 H        2.7030     4.4140     0.8340 H     1 <1>   0.0800 
 41 H        1.2640     7.7630     2.9970 H     1 <1>   0.0800 
 42 H        2.8410     7.1200     3.3610 H     1 <1>   0.0800 
 43 H        4.4510     5.8050    -0.1960 H     1 <1>   0.0800 
 44 H        2.8660     6.4140    -0.5710 H     1 <1>   0.0800 
 45 H        1.9970     8.5300     0.8210 H     1 <1>   0.0800 
 46 H        3.0450     9.1670     2.0510 H     1 <1>   0.0800 
 47 H        4.7480     7.4820     1.5450 H     1 <1>   0.0800 
 48 H        3.7390     8.7630    -1.0100 H     1 <1>   0.0800 
 49 H        5.3140     8.0470    -0.8040 H     1 <1>   0.0800 
 50 H        5.8110     9.7270     0.9870 H     1 <1>   0.0800 
 51 H        4.2690    10.4830     0.6650 H     1 <1>   0.0800 
 52 H        7.6640     9.9400    -0.8890 H     1 <1>   0.1500 
 53 H        5.5320    12.8500    -3.1200 H     1 <1>   0.1500 
 54 H        7.9090    11.7330    -2.9120 H     1 <1>   0.1500 
@<TRIPOS>BOND
  1   1   2  2   
  2   2   3  am  
  3   2   4  1   
  4   3   5  1   
  5   3  29  1   
  6   4   6  1   
  7   4  30  1   
  8   4  31  1   
  9   5   7  1   
 10   5   8  1   
 11   5  32  1   
 12   6   8  1   
 13   7   9  ar  
 14   7  10  ar  
 15   8  11  1   
 16   8  33  1   
 17   9  12  ar  
 18   9  34  1   
 19  10  13  ar  
 20  10  35  1   
 21  11  14  2   
 22  11  15  am  
 23  12  16  ar  
 24  12  36  1   
 25  13  16  ar  
 26  13  37  1   
 27  15  17  1   
 28  15  18  1   
 29  16  38  1   
 30  17  19  1   
 31  17  39  1   
 32  17  40  1   
 33  18  20  1   
 34  18  41  1   
 35  18  42  1   
 36  19  21  1   
 37  19  43  1   
 38  19  44  1   
 39  20  21  1   
 40  20  45  1   
 41  20  46  1   
 42  21  22  1   
 43  21  47  1   
 44  22  23  1   
 45  22  48  1   
 46  22  49  1   
 47  23  24  1   
 48  23  50  1   
 49  23  51  1   
 50  24  25  1   
 51  24  26  1   
 52  25  27  2   
 53  26  28  2   
 54  26  52  1   
 55  27  28  1   
 56  27  53  1   
 57  28  54  1   
@<TRIPOS>SUBSTRUCTURE
  1 ****  15 GROUP 4 **** **** 0

# MOE 2024.06 (io_trps.svl 2023.06)
