@<TRIPOS>MOLECULE
NONAME
54 56 1 0 0 
SMALL
USER_CHARGES


@<TRIPOS>ATOM
  1 O        0.2580    -0.4270    -0.7200 O.3   1 <1>  -0.5600 
  2 C        1.5190    -1.0310    -0.8840 C.3   1 <1>   0.2000 
  3 C        0.1770     0.9130    -1.1010 C.3   1 <1>   0.1200 
  4 C        2.6280    -0.2280    -0.1510 C.3   1 <1>   0.5660 
  5 C        1.4460    -2.4650    -0.3340 C.3   1 <1>   0.1200 
  6 C        1.1580     1.7580    -0.2700 C.3   1 <1>   0.3430 
  7 N        2.5690     1.2540    -0.3980 N.4   1 <1>  -0.9590 
  8 C        4.0170    -0.7130    -0.5490 C.ar  1 <1>  -0.1430 
  9 O        1.4530    -2.4440     1.0590 O.3   1 <1>  -0.6800 
 10 C        3.5270     1.9690     0.4920 C.3   1 <1>   0.3430 
 11 C        4.8330    -1.2740     0.4230 C.ar  1 <1>  -0.1500 
 12 C        4.4910    -0.6020    -1.8520 C.ar  1 <1>  -0.1500 
 13 C        3.6690     3.4210     0.0490 C.3   1 <1>  -0.1600 
 14 C        6.1090    -1.7100     0.1130 C.ar  1 <1>   0.0830 
 15 C        5.7700    -1.0290    -2.1670 C.ar  1 <1>  -0.1500 
 16 C        4.8210     4.1300     0.7830 C.3   1 <1>   0.0960 
 17 O        6.8300    -2.2610     1.1180 O.3   1 <1>  -0.3630 
 18 C        6.5920    -1.5670    -1.1910 C.ar  1 <1>   0.0830 
 19 N        4.9050     5.5590     0.4040 N.pl3 1 <1>   0.3140 
 20 C        7.1830    -3.6220     0.9780 C.3   1 <1>   0.0400 
 21 O        7.8410    -1.9330    -1.5640 O.3   1 <1>  -0.3630 
 22 N        4.4670     6.0240    -0.7830 N.2   1 <1>  -0.7070 
 23 C        5.4130     6.5520     1.1580 C.2   1 <1>  -0.3020 
 24 C        8.9140    -1.2140    -0.9960 C.3   1 <1>   0.0400 
 25 C        4.7100     7.2990    -0.7520 C.2   1 <1>   0.1390 
 26 C        5.3030     7.6900     0.4420 C.2   1 <1>  -0.1500 
 27 H        1.7190    -1.0760    -1.9400 H     1 <1>   0.0800 
 28 H        0.3820     0.9930    -2.1540 H     1 <1>   0.0800 
 29 H       -0.8340     1.2400    -0.9220 H     1 <1>   0.0800 
 30 H        2.4990    -0.4020     0.9040 H     1 <1>   0.0800 
 31 H        2.2960    -3.0410    -0.6580 H     1 <1>   0.0800 
 32 H        0.5430    -2.9470    -0.6710 H     1 <1>   0.0800 
 33 H        0.8480     1.7190     0.7620 H     1 <1>   0.0800 
 34 H        1.1010     2.7830    -0.5950 H     1 <1>   0.0800 
 35 H        2.8820     1.3890    -1.3650 H     1 <1>   0.4500 
 36 H        1.1710    -3.3130     1.4190 H     1 <1>   0.4000 
 37 H        3.1920     1.9220     1.5160 H     1 <1>   0.0800 
 38 H        4.4950     1.4950     0.4330 H     1 <1>   0.0800 
 39 H        4.4900    -1.3930     1.4370 H     1 <1>   0.1500 
 40 H        3.8860    -0.1900    -2.6410 H     1 <1>   0.1500 
 41 H        2.7590     3.9590     0.2490 H     1 <1>   0.0800 
 42 H        3.8740     3.4500    -1.0080 H     1 <1>   0.0800 
 43 H        6.1460    -0.9460    -3.1720 H     1 <1>   0.1500 
 44 H        5.7610     3.6700     0.5390 H     1 <1>   0.0800 
 45 H        4.6750     4.0780     1.8470 H     1 <1>   0.0800 
 46 H        7.6400    -3.9470     1.8950 H     1 <1>   0.0800 
 47 H        7.8780    -3.7310     0.1660 H     1 <1>   0.0800 
 48 H        6.2930    -4.1950     0.7870 H     1 <1>   0.0800 
 49 H        5.8200     6.4050     2.1420 H     1 <1>   0.1500 
 50 H        9.8270    -1.5690    -1.4390 H     1 <1>   0.0800 
 51 H        8.9360    -1.3800     0.0650 H     1 <1>   0.0800 
 52 H        8.7840    -0.1680    -1.2100 H     1 <1>   0.0800 
 53 H        4.4770     7.9700    -1.5630 H     1 <1>   0.1500 
 54 H        5.5980     8.6910     0.7050 H     1 <1>   0.1500 
@<TRIPOS>BOND
  1   1   2  1   
  2   1   3  1   
  3   2   4  1   
  4   2   5  1   
  5   2  27  1   
  6   3   6  1   
  7   3  28  1   
  8   3  29  1   
  9   4   7  1   
 10   4   8  1   
 11   4  30  1   
 12   5   9  1   
 13   5  31  1   
 14   5  32  1   
 15   6   7  1   
 16   6  33  1   
 17   6  34  1   
 18   7  10  1   
 19   7  35  1   
 20   8  11  ar  
 21   8  12  ar  
 22   9  36  1   
 23  10  13  1   
 24  10  37  1   
 25  10  38  1   
 26  11  14  ar  
 27  11  39  1   
 28  12  15  ar  
 29  12  40  1   
 30  13  16  1   
 31  13  41  1   
 32  13  42  1   
 33  14  17  1   
 34  14  18  ar  
 35  15  18  ar  
 36  15  43  1   
 37  16  19  1   
 38  16  44  1   
 39  16  45  1   
 40  17  20  1   
 41  18  21  1   
 42  19  22  1   
 43  19  23  1   
 44  20  46  1   
 45  20  47  1   
 46  20  48  1   
 47  21  24  1   
 48  22  25  2   
 49  23  26  2   
 50  23  49  1   
 51  24  50  1   
 52  24  51  1   
 53  24  52  1   
 54  25  26  1   
 55  25  53  1   
 56  26  54  1   
@<TRIPOS>SUBSTRUCTURE
  1 ****  10 GROUP 4 **** **** 0

# MOE 2024.06 (io_trps.svl 2023.06)
