@<TRIPOS>MOLECULE
NONAME
49 50 1 0 0 
SMALL
USER_CHARGES


@<TRIPOS>ATOM
  1 O        1.6080     0.3090     1.1540 O.co2 1 <1>  -0.9000 
  2 C        2.1090     1.4070     0.8580 C.2   1 <1>   0.9060 
  3 O        1.7780     2.4350     1.4630 O.co2 1 <1>  -0.9000 
  4 C        3.1640     1.4750    -0.2740 C.3   1 <1>  -0.1060 
  5 C        4.1120     0.2510    -0.1800 C.3   1 <1>   0.2000 
  6 C        4.0720     2.7270    -0.1190 C.3   1 <1>  -0.1600 
  7 C        2.4720     1.4820    -1.6690 C.3   1 <1>  -0.1600 
  8 O        3.3900    -0.9300    -0.2270 O.3   1 <1>  -0.6800 
  9 C        4.9400     0.2680     1.1140 C.3   1 <1>   0.1100 
 10 C        4.8960     2.6850     1.1750 C.3   1 <1>   0.1100 
 11 C        1.5430     2.6810    -1.9240 C.3   1 <1>  -0.1600 
 12 N        5.7670     1.4930     1.1970 N.3   1 <1>  -0.8100 
 13 C        0.8350     2.5480    -3.2760 C.3   1 <1>  -0.2400 
 14 C        6.5880     1.4700     2.4440 C.3   1 <1>   0.1710 
 15 C        7.7280     2.4940     2.4650 C.2   1 <1>   0.5690 
 16 O        8.2260     2.8230     3.5160 O.2   1 <1>  -0.5700 
 17 N        8.1450     3.0050     1.2820 N.am  1 <1>  -0.7300 
 18 C        9.0680     4.1330     1.1020 C.3   1 <1>   0.2840 
 19 C        8.4860     5.0640     0.0520 C.ar  1 <1>  -0.1440 
 20 C        9.0870     5.1950    -1.1910 C.ar  1 <1>  -0.1500 
 21 C        7.3380     5.7910     0.3310 C.ar  1 <1>  -0.1500 
 22 C        8.5470     6.0450    -2.1420 C.ar  1 <1>  -0.1500 
 23 C        6.7960     6.6380    -0.6190 C.ar  1 <1>  -0.1500 
 24 C        7.4020     6.7670    -1.8560 C.ar  1 <1>  -0.1500 
 25 H        4.7880     0.2390    -1.0160 H     1 <1>   0.0800 
 26 H        3.4670     3.6150    -0.0910 H     1 <1>   0.0800 
 27 H        4.7420     2.8120    -0.9550 H     1 <1>   0.0800 
 28 H        3.2240     1.4510    -2.4370 H     1 <1>   0.0800 
 29 H        1.8870     0.5820    -1.7560 H     1 <1>   0.0800 
 30 H        2.5680    -0.7490     0.3250 H     1 <1>   0.4000 
 31 H        5.5820    -0.5950     1.1170 H     1 <1>   0.0800 
 32 H        4.2800     0.2150     1.9640 H     1 <1>   0.0800 
 33 H        4.2340     2.6750     2.0270 H     1 <1>   0.0800 
 34 H        5.4920     3.5780     1.2330 H     1 <1>   0.0800 
 35 H        0.8030     2.7380    -1.1430 H     1 <1>   0.0800 
 36 H        2.1050     3.5970    -1.9140 H     1 <1>   0.0800 
 37 H        0.2380     1.6540    -3.2950 H     1 <1>   0.0800 
 38 H        1.5550     2.5060    -4.0730 H     1 <1>   0.0800 
 39 H        0.1900     3.3940    -3.4350 H     1 <1>   0.0800 
 40 H        5.9560     1.6350     3.2990 H     1 <1>   0.0800 
 41 H        7.0390     0.5000     2.5500 H     1 <1>   0.0800 
 42 H        7.5860     2.7380     0.4640 H     1 <1>   0.3700 
 43 H        9.1930     4.6600     2.0330 H     1 <1>   0.0800 
 44 H       10.0270     3.7600     0.7880 H     1 <1>   0.0800 
 45 H        9.9750     4.6360    -1.4260 H     1 <1>   0.1500 
 46 H        6.8620     5.6930     1.2920 H     1 <1>   0.1500 
 47 H        9.0180     6.1440    -3.1040 H     1 <1>   0.1500 
 48 H        5.9030     7.1950    -0.3940 H     1 <1>   0.1500 
 49 H        6.9820     7.4270    -2.5960 H     1 <1>   0.1500 
@<TRIPOS>BOND
  1   1   2  ar  
  2   2   3  ar  
  3   2   4  1   
  4   4   5  1   
  5   4   6  1   
  6   4   7  1   
  7   5   8  1   
  8   5   9  1   
  9   5  25  1   
 10   6  10  1   
 11   6  26  1   
 12   6  27  1   
 13   7  11  1   
 14   7  28  1   
 15   7  29  1   
 16   8  30  1   
 17   9  12  1   
 18   9  31  1   
 19   9  32  1   
 20  10  12  1   
 21  10  33  1   
 22  10  34  1   
 23  11  13  1   
 24  11  35  1   
 25  11  36  1   
 26  12  14  1   
 27  13  37  1   
 28  13  38  1   
 29  13  39  1   
 30  14  15  1   
 31  14  40  1   
 32  14  41  1   
 33  15  16  2   
 34  15  17  am  
 35  17  18  1   
 36  17  42  1   
 37  18  19  1   
 38  18  43  1   
 39  18  44  1   
 40  19  20  ar  
 41  19  21  ar  
 42  20  22  ar  
 43  20  45  1   
 44  21  23  ar  
 45  21  46  1   
 46  22  24  ar  
 47  22  47  1   
 48  23  24  ar  
 49  23  48  1   
 50  24  49  1   
@<TRIPOS>SUBSTRUCTURE
  1 ****  10 GROUP 4 **** **** 0

# MOE 2024.06 (io_trps.svl 2023.06)
