@<TRIPOS>MOLECULE
NONAME
50 54 1 0 0 
SMALL
USER_CHARGES


@<TRIPOS>ATOM
  1 N        0.1380     0.1280     0.0960 N.ar  1 <1>  -0.6200 
  2 C       -0.9240     0.9000     0.3740 C.ar  1 <1>   0.6200 
  3 C        0.9100     0.5620    -0.8690 C.ar  1 <1>   0.1660 
  4 N       -1.2240     2.0500    -0.2440 N.ar  1 <1>  -0.6200 
  5 C       -1.8140     0.4560     1.4360 C.ar  1 <1>   0.0000 
  6 C        0.6830     1.7150    -1.5510 C.ar  1 <1>  -0.1430 
  7 C        2.1600    -0.1390    -1.3450 C.3   1 <1>   0.1440 
  8 C       -0.4210     2.4500    -1.2040 C.ar  1 <1>   0.1600 
  9 C       -2.0700    -0.9000     1.6580 C.ar  1 <1>  -0.1500 
 10 C       -2.4510     1.3670     2.2830 C.ar  1 <1>  -0.1500 
 11 C        1.7420     1.9650    -2.5960 C.3   1 <1>  -0.0160 
 12 C        3.0070    -0.5110    -0.1160 C.3   1 <1>   0.3430 
 13 C        1.7920    -1.4080    -2.1450 C.3   1 <1>  -0.1600 
 14 C        2.8350     0.9410    -2.2330 C.3   1 <1>  -0.1600 
 15 C       -2.9120    -1.3240     2.6700 C.ar  1 <1>  -0.1500 
 16 C       -3.2940     0.9500     3.2970 C.ar  1 <1>  -0.1500 
 17 N        4.2010    -1.3340    -0.4980 N.4   1 <1>  -0.9590 
 18 C        3.0250    -2.2830    -2.4440 C.3   1 <1>  -0.1600 
 19 C       -3.5260    -0.3990     3.4940 C.ar  1 <1>  -0.1500 
 20 C        3.8350    -2.6010    -1.1840 C.3   1 <1>   0.3430 
 21 C        5.1320    -1.4990     0.6470 C.3   1 <1>   0.5230 
 22 C        5.9750    -0.2310     0.7220 C.2   1 <1>   0.0060 
 23 N        6.0290     0.6440    -0.2390 N.2   1 <1>  -0.5650 
 24 N        6.7440     0.0950     1.7890 N.pl3 1 <1>   0.0330 
 25 C        6.8740     1.5850     0.2250 C.2   1 <1>   0.0770 
 26 C        7.3160     1.2660     1.4600 C.2   1 <1>  -0.3020 
 27 H       -0.6490     3.3710    -1.7130 H     1 <1>   0.1500 
 28 H       -1.6050    -1.6330     1.0230 H     1 <1>   0.1500 
 29 H       -2.2830     2.4210     2.1420 H     1 <1>   0.1500 
 30 H        2.1130     2.9750    -2.5550 H     1 <1>   0.0800 
 31 H        1.3390     1.7650    -3.5740 H     1 <1>   0.0800 
 32 H        2.3880    -1.0630     0.5720 H     1 <1>   0.0800 
 33 H        3.3240     0.3960     0.3730 H     1 <1>   0.0800 
 34 H        1.3000    -1.1350    -3.0630 H     1 <1>   0.0800 
 35 H        1.0890    -1.9880    -1.5700 H     1 <1>   0.0800 
 36 H        3.2930     0.5360    -3.1180 H     1 <1>   0.0800 
 37 H        3.5940     1.4550    -1.6670 H     1 <1>   0.0800 
 38 H       -3.0920    -2.3750     2.8170 H     1 <1>   0.1500 
 39 H       -3.7710     1.6750     3.9330 H     1 <1>   0.1500 
 40 H        4.7560    -0.7350    -1.1380 H     1 <1>   0.4500 
 41 H        3.6630    -1.7970    -3.1610 H     1 <1>   0.0800 
 42 H        2.6990    -3.2070    -2.8900 H     1 <1>   0.0800 
 43 H       -4.1820    -0.7260     4.2820 H     1 <1>   0.1500 
 44 H        3.2440    -3.2150    -0.5230 H     1 <1>   0.0800 
 45 H        4.7240    -3.1470    -1.4570 H     1 <1>   0.0800 
 46 H        5.7830    -2.3400     0.4770 H     1 <1>   0.0800 
 47 H        4.5840    -1.6520     1.5620 H     1 <1>   0.0800 
 48 H        6.8850    -0.4170     2.6670 H     1 <1>   0.2700 
 49 H        7.1270     2.4570    -0.3590 H     1 <1>   0.1500 
 50 H        7.9950     1.8000     2.1030 H     1 <1>   0.1500 
@<TRIPOS>BOND
  1   1   2  ar  
  2   1   3  ar  
  3   2   4  ar  
  4   2   5  1   
  5   3   6  ar  
  6   3   7  1   
  7   4   8  ar  
  8   5   9  ar  
  9   5  10  ar  
 10   6   8  ar  
 11   6  11  1   
 12   7  12  1   
 13   7  13  1   
 14   7  14  1   
 15   8  27  1   
 16   9  15  ar  
 17   9  28  1   
 18  10  16  ar  
 19  10  29  1   
 20  11  14  1   
 21  11  30  1   
 22  11  31  1   
 23  12  17  1   
 24  12  32  1   
 25  12  33  1   
 26  13  18  1   
 27  13  34  1   
 28  13  35  1   
 29  14  36  1   
 30  14  37  1   
 31  15  19  ar  
 32  15  38  1   
 33  16  19  ar  
 34  16  39  1   
 35  17  20  1   
 36  17  21  1   
 37  17  40  1   
 38  18  20  1   
 39  18  41  1   
 40  18  42  1   
 41  19  43  1   
 42  20  44  1   
 43  20  45  1   
 44  21  22  1   
 45  21  46  1   
 46  21  47  1   
 47  22  23  2   
 48  22  24  1   
 49  23  25  1   
 50  24  26  1   
 51  24  48  1   
 52  25  26  2   
 53  25  49  1   
 54  26  50  1   
@<TRIPOS>SUBSTRUCTURE
  1 ****   3 GROUP 4 **** **** 0

# MOE 2024.06 (io_trps.svl 2023.06)
