@<TRIPOS>MOLECULE
NONAME
46 48 1 0 0 
SMALL
USER_CHARGES


@<TRIPOS>ATOM
  1 F       -3.7990     3.8500    -2.1080 F     1 <1>  -0.3400 
  2 C       -3.8150     4.5860    -1.0040 C.3   1 <1>   1.1640 
  3 F       -3.1510     5.6980    -1.2900 F     1 <1>  -0.3400 
  4 F       -5.0790     4.9670    -0.8520 F     1 <1>  -0.3400 
  5 C       -3.2590     3.8040     0.2090 C.ar  1 <1>  -0.1440 
  6 C       -1.8920     3.6080     0.4870 C.ar  1 <1>  -0.1440 
  7 C       -4.1960     3.2430     1.0800 C.ar  1 <1>  -0.1500 
  8 C       -1.5370     2.8910     1.6260 C.ar  1 <1>  -0.1500 
  9 C       -0.6910     4.1190    -0.3310 C.3   1 <1>   0.4330 
 10 C       -3.8200     2.5260     2.1970 C.ar  1 <1>  -0.1500 
 11 C       -2.4820     2.3510     2.4740 C.ar  1 <1>  -0.1500 
 12 N       -0.5780     5.5750    -0.1980 N.pl3 1 <1>  -0.8690 
 13 C       -0.6850     3.7420    -1.8090 C.3   1 <1>  -0.2400 
 14 C       -0.0770     6.1630     0.9400 C.ar  1 <1>   0.4100 
 15 N        0.9690     5.5500     1.4930 N.ar  1 <1>  -0.6200 
 16 C       -0.6530     7.3380     1.4560 C.ar  1 <1>   0.0860 
 17 C        1.4530     6.0870     2.5950 C.ar  1 <1>   0.1600 
 18 C       -1.7740     7.9700     0.8100 C.2   1 <1>   0.5440 
 19 C       -0.1230     7.8670     2.6230 C.ar  1 <1>  -0.1500 
 20 C        0.9510     7.2270     3.1970 C.ar  1 <1>  -0.1500 
 21 O       -2.8450     8.0290     1.3850 O.2   1 <1>  -0.5700 
 22 N       -1.6690     8.5270    -0.4450 N.am  1 <1>  -0.6600 
 23 C       -2.8090     9.1670    -1.1380 C.3   1 <1>   0.1400 
 24 C       -0.4020     8.7570    -1.1750 C.3   1 <1>   0.1400 
 25 C       -2.1700    10.0260    -2.2230 C.3   1 <1>  -0.1600 
 26 C       -0.8300     9.3540    -2.5100 C.3   1 <1>  -0.1600 
 27 H       -5.2530     3.3570     0.9020 H     1 <1>   0.1500 
 28 H       -0.4980     2.7490     1.8750 H     1 <1>   0.1500 
 29 H        0.2030     3.6760     0.0770 H     1 <1>   0.0800 
 30 H       -4.5660     2.1080     2.8510 H     1 <1>   0.1500 
 31 H       -2.1760     1.8010     3.3470 H     1 <1>   0.1500 
 32 H       -1.3720     6.0640    -0.6270 H     1 <1>   0.4000 
 33 H       -1.3530     4.3460    -2.3880 H     1 <1>   0.0800 
 34 H       -0.9520     2.7070    -1.9210 H     1 <1>   0.0800 
 35 H        0.3080     3.8770    -2.1970 H     1 <1>   0.0800 
 36 H        2.2950     5.5930     3.0480 H     1 <1>   0.1500 
 37 H       -0.5510     8.7530     3.0590 H     1 <1>   0.1500 
 38 H        1.3960     7.6020     4.1020 H     1 <1>   0.1500 
 39 H       -3.3940     9.7590    -0.4540 H     1 <1>   0.0800 
 40 H       -3.4280     8.4020    -1.5720 H     1 <1>   0.0800 
 41 H        0.1490     7.8430    -1.3170 H     1 <1>   0.0800 
 42 H        0.1990     9.4610    -0.6240 H     1 <1>   0.0800 
 43 H       -2.0080    11.0150    -1.8330 H     1 <1>   0.0800 
 44 H       -2.7940    10.0920    -3.0970 H     1 <1>   0.0800 
 45 H       -0.9670     8.5560    -3.2190 H     1 <1>   0.0800 
 46 H       -0.0980    10.0420    -2.8950 H     1 <1>   0.0800 
@<TRIPOS>BOND
  1   1   2  1   
  2   2   3  1   
  3   2   4  1   
  4   2   5  1   
  5   5   6  ar  
  6   5   7  ar  
  7   6   8  ar  
  8   6   9  1   
  9   7  10  ar  
 10   7  27  1   
 11   8  11  ar  
 12   8  28  1   
 13   9  12  1   
 14   9  13  1   
 15   9  29  1   
 16  10  11  ar  
 17  10  30  1   
 18  11  31  1   
 19  12  14  1   
 20  12  32  1   
 21  13  33  1   
 22  13  34  1   
 23  13  35  1   
 24  14  15  ar  
 25  14  16  ar  
 26  15  17  ar  
 27  16  18  1   
 28  16  19  ar  
 29  17  20  ar  
 30  17  36  1   
 31  18  21  2   
 32  18  22  am  
 33  19  20  ar  
 34  19  37  1   
 35  20  38  1   
 36  22  23  1   
 37  22  24  1   
 38  23  25  1   
 39  23  39  1   
 40  23  40  1   
 41  24  26  1   
 42  24  41  1   
 43  24  42  1   
 44  25  26  1   
 45  25  43  1   
 46  25  44  1   
 47  26  45  1   
 48  26  46  1   
@<TRIPOS>SUBSTRUCTURE
  1 ****  12 GROUP 4 **** **** 0

# MOE 2024.06 (io_trps.svl 2023.06)
