@<TRIPOS>MOLECULE
NONAME
42 44 1 0 0 
SMALL
USER_CHARGES


@<TRIPOS>ATOM
  1 O       -0.0150    -0.1160    -0.3970 O.2   1 <1>  -0.5700 
  2 C        1.1300    -0.5150    -0.2880 C.2   1 <1>   0.7150 
  3 N        2.0770     0.2830     0.3170 N.am  1 <1>  -0.5090 
  4 C        1.4890    -1.8200    -0.7740 C.2   1 <1>  -0.2370 
  5 C        1.8860     1.7490     0.4550 C.3   1 <1>   0.0490 
  6 C        3.0770    -0.3240     1.2370 C.3   1 <1>   0.2840 
  7 N        0.9390    -3.0190    -0.3710 N.pl3 1 <1>   0.0480 
  8 C        2.4460    -2.0920    -1.7180 C.2   1 <1>  -0.1500 
  9 C        1.4180     2.5500    -0.7210 C.3   1 <1>  -0.2000 
 10 C        2.8320     2.6670    -0.2540 C.3   1 <1>  -0.2000 
 11 C        4.5090    -0.0430     0.8100 C.ar  1 <1>  -0.1440 
 12 C        1.5740    -4.0040    -1.0600 C.2   1 <1>  -0.3020 
 13 C       -0.1420    -3.3160     0.6180 C.3   1 <1>   0.1760 
 14 C        2.5020    -3.4690    -1.8940 C.2   1 <1>  -0.1500 
 15 C        5.1660     1.0930     1.2610 C.ar  1 <1>   0.1600 
 16 C        5.1920    -0.9190    -0.0100 C.ar  1 <1>  -0.1500 
 17 C       -1.5260    -3.0350     0.0240 C.3   1 <1>  -0.2400 
 18 C        0.0660    -2.5920     1.9550 C.3   1 <1>  -0.2400 
 19 N        6.4120     1.4230     0.9600 N.ar  1 <1>  -0.6200 
 20 C        6.4900    -0.5910    -0.3380 C.ar  1 <1>  -0.1500 
 21 C        7.0430     0.5740     0.1650 C.ar  1 <1>   0.1600 
 22 H        1.5040     2.0290     1.4230 H     1 <1>   0.1000 
 23 H        2.9320    -1.3890     1.2910 H     1 <1>   0.0800 
 24 H        2.9150     0.0660     2.2260 H     1 <1>   0.0800 
 25 H        3.0530    -1.3730    -2.2410 H     1 <1>   0.1500 
 26 H        0.7480     3.3730    -0.5470 H     1 <1>   0.1000 
 27 H        1.2140     2.0410    -1.6470 H     1 <1>   0.1000 
 28 H        3.6050     2.2490    -0.8760 H     1 <1>   0.1000 
 29 H        3.1340     3.5820     0.2240 H     1 <1>   0.1000 
 30 H        1.3350    -5.0450    -0.9320 H     1 <1>   0.1500 
 31 H       -0.0910    -4.3720     0.8200 H     1 <1>   0.0800 
 32 H        3.1580    -3.9880    -2.5710 H     1 <1>   0.1500 
 33 H        4.6370     1.7740     1.9050 H     1 <1>   0.1500 
 34 H        4.7400    -1.8230    -0.3790 H     1 <1>   0.1500 
 35 H       -1.6640    -1.9860    -0.1610 H     1 <1>   0.0800 
 36 H       -2.2910    -3.3580     0.7050 H     1 <1>   0.0800 
 37 H       -1.6470    -3.5700    -0.9010 H     1 <1>   0.0800 
 38 H       -0.1080    -1.5360     1.8590 H     1 <1>   0.0800 
 39 H        1.0600    -2.7660     2.3230 H     1 <1>   0.0800 
 40 H       -0.6320    -2.9720     2.6790 H     1 <1>   0.0800 
 41 H        7.0710    -1.2310    -0.9770 H     1 <1>   0.1500 
 42 H        8.0580     0.8200    -0.0980 H     1 <1>   0.1500 
@<TRIPOS>BOND
  1   1   2  2   
  2   2   3  am  
  3   2   4  1   
  4   3   5  1   
  5   3   6  1   
  6   4   7  1   
  7   4   8  2   
  8   5   9  1   
  9   5  10  1   
 10   5  22  1   
 11   6  11  1   
 12   6  23  1   
 13   6  24  1   
 14   7  12  1   
 15   7  13  1   
 16   8  14  1   
 17   8  25  1   
 18   9  10  1   
 19   9  26  1   
 20   9  27  1   
 21  10  28  1   
 22  10  29  1   
 23  11  15  ar  
 24  11  16  ar  
 25  12  14  2   
 26  12  30  1   
 27  13  17  1   
 28  13  18  1   
 29  13  31  1   
 30  14  32  1   
 31  15  19  ar  
 32  15  33  1   
 33  16  20  ar  
 34  16  34  1   
 35  17  35  1   
 36  17  36  1   
 37  17  37  1   
 38  18  38  1   
 39  18  39  1   
 40  18  40  1   
 41  19  21  ar  
 42  20  21  ar  
 43  20  41  1   
 44  21  42  1   
@<TRIPOS>SUBSTRUCTURE
  1 ****   3 GROUP 4 **** **** 0

# MOE 2024.06 (io_trps.svl 2023.06)
