@<TRIPOS>MOLECULE
NONAME
52 55 1 0 0 
SMALL
USER_CHARGES


@<TRIPOS>ATOM
  1 F       -2.1470    -2.0010    -0.3290 F     1 <1>  -0.1900 
  2 C       -2.1100    -0.7770    -0.7820 C.ar  1 <1>   0.1900 
  3 C       -3.0320     0.1550    -0.3130 C.ar  1 <1>   0.0860 
  4 C       -1.1390    -0.4730    -1.7190 C.ar  1 <1>  -0.1500 
  5 C       -4.0480    -0.1790     0.6590 C.2   1 <1>   0.5440 
  6 C       -2.9260     1.4480    -0.8260 C.ar  1 <1>  -0.1500 
  7 C       -1.0670     0.8160    -2.2150 C.ar  1 <1>  -0.1500 
  8 O       -3.9800     0.3200     1.7660 O.2   1 <1>  -0.5700 
  9 N       -5.1080    -1.0110     0.3580 N.am  1 <1>  -0.6600 
 10 C       -1.9620     1.7750    -1.7650 C.ar  1 <1>  -0.1500 
 11 C       -5.4210    -1.5090    -1.0110 C.3   1 <1>   0.1400 
 12 C       -6.0820    -1.4560     1.3930 C.3   1 <1>   0.1400 
 13 C       -5.4530    -3.0400    -0.9990 C.3   1 <1>  -0.1600 
 14 C       -6.1150    -2.9850     1.4270 C.3   1 <1>  -0.1600 
 15 C       -6.4380    -3.5830     0.0460 C.3   1 <1>   0.4240 
 16 O       -7.7020    -3.1070    -0.3560 O.3   1 <1>  -0.5600 
 17 C       -6.3960    -5.1260     0.0780 C.ar  1 <1>  -0.1430 
 18 C       -8.8250    -3.7780     0.1250 C.3   1 <1>   0.1200 
 19 C       -7.5320    -5.8850    -0.1680 C.ar  1 <1>  -0.1430 
 20 C       -5.2110    -5.7930     0.3660 C.ar  1 <1>  -0.1500 
 21 C       -8.8450    -5.1860    -0.4620 C.3   1 <1>  -0.0170 
 22 C       -7.4750    -7.2690    -0.1480 C.ar  1 <1>  -0.1500 
 23 C       -5.1370    -7.1750     0.4030 C.ar  1 <1>   0.0830 
 24 C       -6.2840    -7.9360     0.1260 C.ar  1 <1>   0.0830 
 25 O       -3.9040    -7.6690     0.7130 O.3   1 <1>  -0.3620 
 26 O       -6.2180    -9.3000     0.1130 O.3   1 <1>  -0.3620 
 27 C       -3.7490    -8.9050     1.3740 C.3   1 <1>   0.0400 
 28 C       -7.2490   -10.0930    -0.4350 C.3   1 <1>   0.0400 
 29 H       -0.4530    -1.2330    -2.0490 H     1 <1>   0.1500 
 30 H       -3.6130     2.2000    -0.4750 H     1 <1>   0.1500 
 31 H       -0.3180     1.0760    -2.9450 H     1 <1>   0.1500 
 32 H       -1.9030     2.7810    -2.1460 H     1 <1>   0.1500 
 33 H       -4.6960    -1.1680    -1.7270 H     1 <1>   0.0800 
 34 H       -6.3840    -1.1280    -1.3080 H     1 <1>   0.0800 
 35 H       -7.0560    -1.0680     1.1490 H     1 <1>   0.0800 
 36 H       -5.8060    -1.0820     2.3640 H     1 <1>   0.0800 
 37 H       -4.4620    -3.3960    -0.7940 H     1 <1>   0.0800 
 38 H       -5.7330    -3.4070    -1.9690 H     1 <1>   0.0800 
 39 H       -6.8290    -3.3220     2.1540 H     1 <1>   0.0800 
 40 H       -5.1510    -3.3300     1.7510 H     1 <1>   0.0800 
 41 H       -9.6960    -3.2280    -0.1840 H     1 <1>   0.0800 
 42 H       -8.7880    -3.8060     1.2000 H     1 <1>   0.0800 
 43 H       -4.3120    -5.2420     0.5720 H     1 <1>   0.1500 
 44 H       -8.9940    -5.1270    -1.5250 H     1 <1>   0.0800 
 45 H       -9.6640    -5.7350    -0.0340 H     1 <1>   0.0800 
 46 H       -8.3760    -7.8150    -0.3490 H     1 <1>   0.1500 
 47 H       -2.7670    -8.9310     1.8100 H     1 <1>   0.0800 
 48 H       -3.8480    -9.6980     0.6550 H     1 <1>   0.0800 
 49 H       -4.4970    -8.9890     2.1430 H     1 <1>   0.0800 
 50 H       -6.9140   -11.1140    -0.4450 H     1 <1>   0.0800 
 51 H       -7.4470    -9.7640    -1.4390 H     1 <1>   0.0800 
 52 H       -8.1250   -10.0040     0.1830 H     1 <1>   0.0800 
@<TRIPOS>BOND
  1   1   2  1   
  2   2   3  ar  
  3   2   4  ar  
  4   3   5  1   
  5   3   6  ar  
  6   4   7  ar  
  7   4  29  1   
  8   5   8  2   
  9   5   9  am  
 10   6  10  ar  
 11   6  30  1   
 12   7  10  ar  
 13   7  31  1   
 14   9  11  1   
 15   9  12  1   
 16  10  32  1   
 17  11  13  1   
 18  11  33  1   
 19  11  34  1   
 20  12  14  1   
 21  12  35  1   
 22  12  36  1   
 23  13  15  1   
 24  13  37  1   
 25  13  38  1   
 26  14  15  1   
 27  14  39  1   
 28  14  40  1   
 29  15  16  1   
 30  15  17  1   
 31  16  18  1   
 32  17  19  ar  
 33  17  20  ar  
 34  18  21  1   
 35  18  41  1   
 36  18  42  1   
 37  19  21  1   
 38  19  22  ar  
 39  20  23  ar  
 40  20  43  1   
 41  21  44  1   
 42  21  45  1   
 43  22  24  ar  
 44  22  46  1   
 45  23  24  ar  
 46  23  25  1   
 47  24  26  1   
 48  25  27  1   
 49  26  28  1   
 50  27  47  1   
 51  27  48  1   
 52  27  49  1   
 53  28  50  1   
 54  28  51  1   
 55  28  52  1   
@<TRIPOS>SUBSTRUCTURE
  1 ****  13 GROUP 4 **** **** 0

# MOE 2024.06 (io_trps.svl 2023.06)
