@<TRIPOS>MOLECULE
NONAME
46 49 1 0 0 
SMALL
USER_CHARGES


@<TRIPOS>ATOM
  1 S        1.0360     3.1690    -1.1840 S.3   1 <1>  -0.1570 
  2 C        2.5500     2.3500    -0.7520 C.2   1 <1>   0.2420 
  3 C        0.4450     1.6880    -1.9850 C.2   1 <1>  -0.0490 
  4 N        3.6040     2.7400    -0.1180 N.2   1 <1>  -0.5650 
  5 N        2.5370     1.0830    -1.2030 N.pl3 1 <1>   0.3340 
  6 C        1.3630     0.7110    -1.8920 C.2   1 <1>  -0.1810 
  7 C        4.3730     1.6150    -0.1490 C.2   1 <1>   0.0460 
  8 C        3.7360     0.6060    -0.8050 C.2   1 <1>  -0.3020 
  9 C        5.7700     1.6050     0.4940 C.3   1 <1>   0.4700 
 10 N        6.4000     2.9010     0.2010 N.pl3 1 <1>  -0.8690 
 11 C        6.6610     0.5020    -0.0720 C.3   1 <1>  -0.2400 
 12 C        7.1530     3.5460     1.1490 C.ar  1 <1>   0.4100 
 13 N        7.8020     2.8030     2.0350 N.ar  1 <1>  -0.6200 
 14 C        7.2080     4.9310     1.1290 C.ar  1 <1>  -0.1500 
 15 C        8.5180     3.4660     2.9260 C.ar  1 <1>   0.1600 
 16 C        7.9730     5.6290     2.0450 C.ar  1 <1>   0.0860 
 17 C        8.6340     4.8400     2.9760 C.ar  1 <1>  -0.1500 
 18 C        8.0790     7.0750     2.0520 C.2   1 <1>   0.5440 
 19 O        7.9750     7.6660     3.1110 O.2   1 <1>  -0.5700 
 20 N        8.3070     7.8000     0.9010 N.am  1 <1>  -0.6600 
 21 C        8.9420     7.2410    -0.3260 C.3   1 <1>   0.1400 
 22 C        8.0710     9.2690     0.8470 C.3   1 <1>   0.1400 
 23 C        8.0670     7.5490    -1.5460 C.3   1 <1>  -0.1600 
 24 C        7.1930     9.6020    -0.3650 C.3   1 <1>  -0.1600 
 25 C        7.7880     9.0540    -1.6710 C.3   1 <1>  -0.1600 
 26 H       -0.5340     1.7380    -2.4320 H     1 <1>   0.1500 
 27 H        1.2990    -0.2910    -2.2740 H     1 <1>   0.1500 
 28 H        4.0520    -0.3980    -1.0140 H     1 <1>   0.1500 
 29 H        5.6590     1.4850     1.5590 H     1 <1>   0.0800 
 30 H        5.6540     3.4830    -0.1950 H     1 <1>   0.4000 
 31 H        6.7530     0.6110    -1.1370 H     1 <1>   0.0800 
 32 H        6.2420    -0.4610     0.1510 H     1 <1>   0.0800 
 33 H        7.6370     0.5590     0.3750 H     1 <1>   0.0800 
 34 H        6.6450     5.4650     0.3890 H     1 <1>   0.1500 
 35 H        9.0430     2.8770     3.6590 H     1 <1>   0.1500 
 36 H        9.2330     5.3100     3.7340 H     1 <1>   0.1500 
 37 H        9.0930     6.1800    -0.2380 H     1 <1>   0.0800 
 38 H        9.9080     7.6990    -0.4520 H     1 <1>   0.0800 
 39 H        9.0180     9.7750     0.7690 H     1 <1>   0.0800 
 40 H        7.5830     9.6080     1.7450 H     1 <1>   0.0800 
 41 H        7.1380     7.0140    -1.4580 H     1 <1>   0.0800 
 42 H        8.5620     7.1990    -2.4350 H     1 <1>   0.0800 
 43 H        7.0810    10.6690    -0.4380 H     1 <1>   0.0800 
 44 H        6.2150     9.1810    -0.2070 H     1 <1>   0.0800 
 45 H        7.1070     9.2320    -2.4850 H     1 <1>   0.0800 
 46 H        8.7080     9.5700    -1.8860 H     1 <1>   0.0800 
@<TRIPOS>BOND
  1   1   2  1   
  2   1   3  1   
  3   2   4  2   
  4   2   5  1   
  5   3   6  2   
  6   3  26  1   
  7   4   7  1   
  8   5   6  1   
  9   5   8  1   
 10   6  27  1   
 11   7   8  2   
 12   7   9  1   
 13   8  28  1   
 14   9  10  1   
 15   9  11  1   
 16   9  29  1   
 17  10  12  1   
 18  10  30  1   
 19  11  31  1   
 20  11  32  1   
 21  11  33  1   
 22  12  13  ar  
 23  12  14  ar  
 24  13  15  ar  
 25  14  16  ar  
 26  14  34  1   
 27  15  17  ar  
 28  15  35  1   
 29  16  17  ar  
 30  16  18  1   
 31  17  36  1   
 32  18  19  2   
 33  18  20  am  
 34  20  21  1   
 35  20  22  1   
 36  21  23  1   
 37  21  37  1   
 38  21  38  1   
 39  22  24  1   
 40  22  39  1   
 41  22  40  1   
 42  23  25  1   
 43  23  41  1   
 44  23  42  1   
 45  24  25  1   
 46  24  43  1   
 47  24  44  1   
 48  25  45  1   
 49  25  46  1   
@<TRIPOS>SUBSTRUCTURE
  1 ****  10 GROUP 4 **** **** 0

# MOE 2024.06 (io_trps.svl 2023.06)
