@<TRIPOS>MOLECULE
NONAME
54 56 1 0 0 
SMALL
USER_CHARGES


@<TRIPOS>ATOM
  1 F       -0.5410    -0.0400     0.8530 F     1 <1>  -0.1900 
  2 C       -1.7670     0.3630     0.6340 C.ar  1 <1>   0.1900 
  3 C       -2.0470     1.5390    -0.0720 C.ar  1 <1>   0.0830 
  4 C       -2.7750    -0.4340     1.1410 C.ar  1 <1>  -0.1500 
  5 O       -1.1450     2.4040    -0.6180 O.3   1 <1>  -0.3630 
  6 C       -3.3780     1.8800    -0.2480 C.ar  1 <1>  -0.1500 
  7 C       -4.0930    -0.0620     0.9480 C.ar  1 <1>  -0.1500 
  8 C        0.2490     2.1910    -0.5750 C.3   1 <1>   0.0400 
  9 C       -4.4240     1.0990     0.2470 C.ar  1 <1>   0.0530 
 10 C       -5.7930     1.5030     0.0470 C.2   1 <1>   0.0870 
 11 O       -6.1130     2.7620     0.2050 O.3   1 <1>  -0.0190 
 12 C       -6.9360     0.8400    -0.2870 C.2   1 <1>  -0.0860 
 13 N       -7.3820     2.9960     0.0140 N.2   1 <1>  -0.4100 
 14 C       -7.9020     1.8580    -0.2810 C.2   1 <1>   0.3720 
 15 C       -7.1630    -0.5410    -0.5960 C.2   1 <1>   0.7160 
 16 N       -9.2670     1.7030    -0.5750 N.pl3 1 <1>  -0.8210 
 17 O       -6.2410    -1.3230    -0.7330 O.2   1 <1>  -0.5700 
 18 N       -8.4330    -1.0100    -0.7400 N.am  1 <1>  -0.7300 
 19 C       -9.5840     2.0290    -1.9920 C.3   1 <1>   0.1290 
 20 C      -10.1730     2.4220     0.3650 C.3   1 <1>   0.1290 
 21 C       -8.8530    -2.3820    -1.0910 C.3   1 <1>   0.1400 
 22 C       -9.5700    -3.0030     0.1080 C.3   1 <1>  -0.1600 
 23 C      -10.0130    -4.4500    -0.1460 C.3   1 <1>   0.2800 
 24 O      -10.8470    -4.4720    -1.2400 O.3   1 <1>  -0.6800 
 25 C       -8.8850    -5.4440    -0.4110 C.3   1 <1>  -0.1600 
 26 C      -10.7720    -5.0800     1.0170 C.3   1 <1>  -0.1600 
 27 C       -9.4670    -6.8300    -0.1030 C.3   1 <1>  -0.1600 
 28 C      -10.6860    -6.5960     0.7990 C.3   1 <1>  -0.1600 
 29 H       -2.5300    -1.3320     1.6790 H     1 <1>   0.1500 
 30 H       -3.6080     2.7810    -0.7880 H     1 <1>   0.1500 
 31 H       -4.8780    -0.6810     1.3450 H     1 <1>   0.1500 
 32 H        0.7270     3.0000    -1.0960 H     1 <1>   0.0800 
 33 H        0.4760     1.2590    -1.0640 H     1 <1>   0.0800 
 34 H        0.5700     2.1780     0.4510 H     1 <1>   0.0800 
 35 H       -9.1710    -0.2960    -0.6530 H     1 <1>   0.3700 
 36 H       -8.9360     1.4740    -2.6490 H     1 <1>   0.0800 
 37 H       -9.4390     3.0820    -2.1700 H     1 <1>   0.0800 
 38 H      -10.6050     1.7680    -2.2120 H     1 <1>   0.0800 
 39 H       -9.8700     2.2330     1.3810 H     1 <1>   0.0800 
 40 H      -11.1850     2.0780     0.2360 H     1 <1>   0.0800 
 41 H      -10.1310     3.4830     0.1850 H     1 <1>   0.0800 
 42 H       -7.9900    -2.9710    -1.3550 H     1 <1>   0.0800 
 43 H       -9.5110    -2.3460    -1.9420 H     1 <1>   0.0800 
 44 H      -10.4370    -2.4160     0.3510 H     1 <1>   0.0800 
 45 H       -8.9070    -2.9880     0.9530 H     1 <1>   0.0800 
 46 H      -11.1400    -5.3910    -1.3750 H     1 <1>   0.4000 
 47 H       -8.0810    -5.2480     0.2770 H     1 <1>   0.0800 
 48 H       -8.5010    -5.3710    -1.4140 H     1 <1>   0.0800 
 49 H      -11.7860    -4.7240     1.0820 H     1 <1>   0.0800 
 50 H      -10.2660    -4.8370     1.9350 H     1 <1>   0.0800 
 51 H       -8.7330    -7.4510     0.3820 H     1 <1>   0.0800 
 52 H       -9.7760    -7.3110    -1.0160 H     1 <1>   0.0800 
 53 H      -11.5770    -6.9470     0.3060 H     1 <1>   0.0800 
 54 H      -10.5860    -7.1130     1.7380 H     1 <1>   0.0800 
@<TRIPOS>BOND
  1   1   2  1   
  2   2   3  ar  
  3   2   4  ar  
  4   3   5  1   
  5   3   6  ar  
  6   4   7  ar  
  7   4  29  1   
  8   5   8  1   
  9   6   9  ar  
 10   6  30  1   
 11   7   9  ar  
 12   7  31  1   
 13   8  32  1   
 14   8  33  1   
 15   8  34  1   
 16   9  10  1   
 17  10  11  1   
 18  10  12  2   
 19  11  13  1   
 20  12  14  1   
 21  12  15  1   
 22  13  14  2   
 23  14  16  1   
 24  15  17  2   
 25  15  18  am  
 26  16  19  1   
 27  16  20  1   
 28  18  21  1   
 29  18  35  1   
 30  19  36  1   
 31  19  37  1   
 32  19  38  1   
 33  20  39  1   
 34  20  40  1   
 35  20  41  1   
 36  21  22  1   
 37  21  42  1   
 38  21  43  1   
 39  22  23  1   
 40  22  44  1   
 41  22  45  1   
 42  23  24  1   
 43  23  25  1   
 44  23  26  1   
 45  24  46  1   
 46  25  27  1   
 47  25  47  1   
 48  25  48  1   
 49  26  28  1   
 50  26  49  1   
 51  26  50  1   
 52  27  28  1   
 53  27  51  1   
 54  27  52  1   
 55  28  53  1   
 56  28  54  1   
@<TRIPOS>SUBSTRUCTURE
  1 ****  15 GROUP 4 **** **** 0

# MOE 2024.06 (io_trps.svl 2023.06)
