@<TRIPOS>MOLECULE
NONAME
47 49 1 0 0 
SMALL
USER_CHARGES


@<TRIPOS>ATOM
  1 O       -0.7410     0.3400    -1.0690 O.2   1 <1>  -0.5700 
  2 C       -1.6000     0.8550    -0.3790 C.2   1 <1>   0.5440 
  3 N       -2.4160    -0.0060     0.3480 N.am  1 <1>  -0.6600 
  4 C       -1.7160     2.3140    -0.3750 C.ar  1 <1>   0.3960 
  5 C       -3.3740     0.4010     1.4230 C.3   1 <1>   0.1400 
  6 C       -2.4640    -1.4710     0.0520 C.3   1 <1>   0.1400 
  7 N       -2.9210     2.9080    -0.3060 N.ar  1 <1>  -0.6200 
  8 C       -0.5420     3.0700    -0.4660 C.ar  1 <1>   0.1600 
  9 C       -4.8220    -0.0090     1.0660 C.3   1 <1>   0.4230 
 10 C       -3.8980    -1.8900    -0.3210 C.3   1 <1>   0.3430 
 11 C       -2.8510     4.2280    -0.3360 C.ar  1 <1>   0.1600 
 12 N       -0.4760     4.3910    -0.4800 N.ar  1 <1>  -0.6200 
 13 N       -4.9190    -1.4900     0.7250 N.4   1 <1>  -0.9590 
 14 C       -5.3850     0.8620    -0.0810 C.3   1 <1>   0.1200 
 15 C       -1.6660     4.9540    -0.4180 C.ar  1 <1>   0.1670 
 16 C       -6.3350    -1.8110     0.3280 C.3   1 <1>   0.4230 
 17 O       -6.6950     0.4730    -0.3890 O.3   1 <1>  -0.5600 
 18 C       -1.6840     6.4700    -0.4430 C.3   1 <1>  -0.0970 
 19 C       -6.8400    -0.8610    -0.7850 C.3   1 <1>   0.1200 
 20 C       -6.4690    -3.2960    -0.0460 C.3   1 <1>  -0.1600 
 21 C       -7.9340    -3.7590    -0.0890 C.3   1 <1>  -0.1600 
 22 C       -8.0240    -5.2590    -0.3810 C.3   1 <1>  -0.2400 
 23 H       -3.0900    -0.0870     2.3380 H     1 <1>   0.0800 
 24 H       -3.3280     1.4560     1.6150 H     1 <1>   0.0800 
 25 H       -1.8100    -1.7220    -0.7660 H     1 <1>   0.0800 
 26 H       -2.1280    -2.0220     0.9130 H     1 <1>   0.0800 
 27 H        0.3930     2.5400    -0.5320 H     1 <1>   0.1500 
 28 H       -5.4340     0.1890     1.9300 H     1 <1>   0.0800 
 29 H       -3.9170    -2.9580    -0.4640 H     1 <1>   0.0800 
 30 H       -4.1450    -1.4290    -1.2630 H     1 <1>   0.0800 
 31 H       -3.7800     4.7700    -0.2940 H     1 <1>   0.1500 
 32 H       -4.7110    -2.0160     1.5810 H     1 <1>   0.4500 
 33 H       -4.7800     0.7900    -0.9680 H     1 <1>   0.0800 
 34 H       -5.4190     1.8940     0.2210 H     1 <1>   0.0800 
 35 H       -6.9680    -1.6430     1.1850 H     1 <1>   0.0800 
 36 H       -2.6860     6.8510    -0.3890 H     1 <1>   0.0800 
 37 H       -1.2270     6.8190    -1.3510 H     1 <1>   0.0800 
 38 H       -1.1210     6.8490     0.3910 H     1 <1>   0.0800 
 39 H       -7.8870    -1.0230    -0.9700 H     1 <1>   0.0800 
 40 H       -6.3060    -1.0100    -1.7070 H     1 <1>   0.0800 
 41 H       -6.0260    -3.4820    -1.0090 H     1 <1>   0.0800 
 42 H       -5.9570    -3.8920     0.6900 H     1 <1>   0.0800 
 43 H       -8.4140    -3.5600     0.8560 H     1 <1>   0.0800 
 44 H       -8.4770    -3.2310    -0.8550 H     1 <1>   0.0800 
 45 H       -7.5260    -5.8290     0.3840 H     1 <1>   0.0800 
 46 H       -7.5770    -5.4920    -1.3330 H     1 <1>   0.0800 
 47 H       -9.0550    -5.5670    -0.4100 H     1 <1>   0.0800 
@<TRIPOS>BOND
  1   1   2  2   
  2   2   3  am  
  3   2   4  1   
  4   3   5  1   
  5   3   6  1   
  6   4   7  ar  
  7   4   8  ar  
  8   5   9  1   
  9   5  23  1   
 10   5  24  1   
 11   6  10  1   
 12   6  25  1   
 13   6  26  1   
 14   7  11  ar  
 15   8  12  ar  
 16   8  27  1   
 17   9  13  1   
 18   9  14  1   
 19   9  28  1   
 20  10  13  1   
 21  10  29  1   
 22  10  30  1   
 23  11  15  ar  
 24  11  31  1   
 25  12  15  ar  
 26  13  16  1   
 27  13  32  1   
 28  14  17  1   
 29  14  33  1   
 30  14  34  1   
 31  15  18  1   
 32  16  19  1   
 33  16  20  1   
 34  16  35  1   
 35  17  19  1   
 36  18  36  1   
 37  18  37  1   
 38  18  38  1   
 39  19  39  1   
 40  19  40  1   
 41  20  21  1   
 42  20  41  1   
 43  20  42  1   
 44  21  22  1   
 45  21  43  1   
 46  21  44  1   
 47  22  45  1   
 48  22  46  1   
 49  22  47  1   
@<TRIPOS>SUBSTRUCTURE
  1 ****   3 GROUP 4 **** **** 0

# MOE 2024.06 (io_trps.svl 2023.06)
