@<TRIPOS>MOLECULE
NONAME
43 45 1 0 0 
SMALL
USER_CHARGES


@<TRIPOS>ATOM
  1 O        1.7860    -0.2250     2.4080 O.2   1 <1>  -0.5700 
  2 C        1.8080    -0.7180     1.2910 C.2   1 <1>   0.6300 
  3 N        2.1010     0.0710     0.2000 N.am  1 <1>  -0.4940 
  4 C        1.5380    -2.1350     1.0770 C.2   1 <1>   0.4360 
  5 C        2.5260     1.4160     0.0710 C.2   1 <1>  -0.0880 
  6 N        1.5800    -2.6350    -0.1380 N.2   1 <1>  -0.5760 
  7 C        1.2290    -2.9760     2.2010 C.2   1 <1>  -0.1360 
  8 N        2.1440     2.4920     0.8160 N.pl3 1 <1>   0.3140 
  9 C        3.3920     1.8880    -0.8580 C.2   1 <1>  -0.1810 
 10 C        1.3160    -3.9740    -0.2800 C.2   1 <1>  -0.0260 
 11 C        0.9700    -4.3010     2.0530 C.2   1 <1>  -0.1690 
 12 N        2.7400     3.6240     0.3860 N.2   1 <1>  -0.7070 
 13 C        1.1460     2.5660     1.8910 C.3   1 <1>   0.0160 
 14 C        3.4840     3.2550    -0.6080 C.2   1 <1>   0.1080 
 15 C        4.1240     1.1200    -1.9460 C.3   1 <1>  -0.0590 
 16 N        1.0160    -4.8170     0.7660 N.pl3 1 <1>   0.6010 
 17 C        1.2850    -4.7500    -1.3950 C.2   1 <1>  -0.1500 
 18 C        0.6380    -5.2440     3.2020 C.3   1 <1>  -0.1020 
 19 C        4.3360     4.2450    -1.3810 C.3   1 <1>   0.0210 
 20 N        0.8010    -6.0790     0.3420 N.2   1 <1>  -0.7070 
 21 C        0.9660    -6.0200    -0.9490 C.2   1 <1>   0.1080 
 22 C        3.5690     4.8210    -2.5770 C.3   1 <1>  -0.2400 
 23 C        0.8130    -7.2410    -1.8250 C.3   1 <1>  -0.0590 
 24 H        2.1430    -0.4760    -0.6650 H     1 <1>   0.3700 
 25 H        1.2110    -2.5140     3.1730 H     1 <1>   0.1500 
 26 H        0.3480     1.8800     1.6850 H     1 <1>   0.0800 
 27 H        0.7590     3.5670     1.9430 H     1 <1>   0.0800 
 28 H        1.6180     2.3140     2.8210 H     1 <1>   0.0800 
 29 H        3.8800     0.0750    -1.9090 H     1 <1>   0.0800 
 30 H        5.1860     1.2260    -1.8140 H     1 <1>   0.0800 
 31 H        3.8510     1.5050    -2.9110 H     1 <1>   0.0800 
 32 H        1.4690    -4.4420    -2.4070 H     1 <1>   0.1500 
 33 H        1.3640    -6.0360     3.2480 H     1 <1>   0.0800 
 34 H       -0.3330    -5.6820     3.0470 H     1 <1>   0.0800 
 35 H        0.6360    -4.7220     4.1420 H     1 <1>   0.0800 
 36 H        5.2350     3.7630    -1.7180 H     1 <1>   0.0800 
 37 H        4.6180     5.0440    -0.7190 H     1 <1>   0.0800 
 38 H        3.2860     4.0340    -3.2510 H     1 <1>   0.0800 
 39 H        4.1800     5.5320    -3.1020 H     1 <1>   0.0800 
 40 H        2.6780     5.3140    -2.2300 H     1 <1>   0.0800 
 41 H        0.9870    -6.9920    -2.8550 H     1 <1>   0.0800 
 42 H       -0.1810    -7.6350    -1.7200 H     1 <1>   0.0800 
 43 H        1.5180    -7.9920    -1.5190 H     1 <1>   0.0800 
@<TRIPOS>BOND
  1   1   2  2   
  2   2   3  am  
  3   2   4  1   
  4   3   5  1   
  5   3  24  1   
  6   4   6  2   
  7   4   7  1   
  8   5   8  1   
  9   5   9  2   
 10   6  10  1   
 11   7  11  2   
 12   7  25  1   
 13   8  12  1   
 14   8  13  1   
 15   9  14  1   
 16   9  15  1   
 17  10  16  1   
 18  10  17  2   
 19  11  16  1   
 20  11  18  1   
 21  12  14  2   
 22  13  26  1   
 23  13  27  1   
 24  13  28  1   
 25  14  19  1   
 26  15  29  1   
 27  15  30  1   
 28  15  31  1   
 29  16  20  1   
 30  17  21  1   
 31  17  32  1   
 32  18  33  1   
 33  18  34  1   
 34  18  35  1   
 35  19  22  1   
 36  19  36  1   
 37  19  37  1   
 38  20  21  2   
 39  21  23  1   
 40  22  38  1   
 41  22  39  1   
 42  22  40  1   
 43  23  41  1   
 44  23  42  1   
 45  23  43  1   
@<TRIPOS>SUBSTRUCTURE
  1 ****   2 GROUP 4 **** **** 0

# MOE 2024.06 (io_trps.svl 2023.06)
