@<TRIPOS>MOLECULE
NONAME
51 55 1 0 0 
SMALL
USER_CHARGES


@<TRIPOS>ATOM
  1 O       -1.2570     1.2070     2.5430 O.2   1 <1>  -0.5700 
  2 C       -2.0880     1.4860     1.6990 C.2   1 <1>   0.5440 
  3 N       -3.2650     0.7640     1.6480 N.am  1 <1>  -0.6600 
  4 C       -1.8300     2.5990     0.8190 C.ar  1 <1>   0.0860 
  5 C       -3.5210    -0.3990     2.5440 C.3   1 <1>   0.1400 
  6 C       -4.3700     1.0200     0.6850 C.3   1 <1>   0.1400 
  7 C       -1.5340     2.4190    -0.5380 C.ar  1 <1>   0.3920 
  8 C       -1.8650     3.8990     1.3020 C.ar  1 <1>  -0.1500 
  9 C       -3.6940    -1.6530     1.6880 C.3   1 <1>  -0.1600 
 10 C       -4.5530    -0.2140    -0.1990 C.3   1 <1>  -0.1600 
 11 O       -1.4720     1.1570    -1.0120 O.3   1 <1>  -0.3630 
 12 N       -1.3110     3.4100    -1.4040 N.ar  1 <1>  -0.6200 
 13 C       -1.6260     4.9280     0.4190 C.ar  1 <1>  -0.1500 
 14 C       -4.7960    -1.4770     0.6390 C.3   1 <1>   0.4600 
 15 C       -1.1310     0.8780    -2.3560 C.3   1 <1>   0.0400 
 16 C       -1.3600     4.6320    -0.9060 C.ar  1 <1>   0.1600 
 17 O       -6.0060    -1.3300     1.3540 O.3   1 <1>  -0.5600 
 18 C       -4.8820    -2.7140    -0.2460 C.2   1 <1>  -0.3320 
 19 C       -7.2120    -1.6020     0.6810 C.3   1 <1>   0.1200 
 20 N       -3.8610    -3.2600    -0.9740 N.pl3 1 <1>   0.0330 
 21 C       -5.9990    -3.4460    -0.4270 C.2   1 <1>  -0.1810 
 22 C       -7.2940    -3.0770     0.2520 C.3   1 <1>   0.0210 
 23 C       -4.3500    -4.3660    -1.6260 C.ar  1 <1>  -0.1520 
 24 C       -5.6960    -4.5120    -1.2990 C.ar  1 <1>   0.0000 
 25 C       -3.7200    -5.2690    -2.4860 C.ar  1 <1>  -0.1500 
 26 C       -6.4280    -5.5750    -1.8370 C.ar  1 <1>  -0.1500 
 27 C       -4.4520    -6.3100    -3.0100 C.ar  1 <1>  -0.1500 
 28 C       -5.8060    -6.4630    -2.6850 C.ar  1 <1>  -0.1500 
 29 H       -4.4150    -0.2150     3.1150 H     1 <1>   0.0800 
 30 H       -2.7080    -0.5410     3.2350 H     1 <1>   0.0800 
 31 H       -4.1630     1.8790     0.0720 H     1 <1>   0.0800 
 32 H       -5.2760     1.2130     1.2340 H     1 <1>   0.0800 
 33 H       -2.0720     4.0840     2.3420 H     1 <1>   0.1500 
 34 H       -3.9320    -2.4940     2.3130 H     1 <1>   0.0800 
 35 H       -2.7580    -1.8600     1.2040 H     1 <1>   0.0800 
 36 H       -3.6640    -0.3490    -0.7850 H     1 <1>   0.0800 
 37 H       -5.3630    -0.0630    -0.8860 H     1 <1>   0.0800 
 38 H       -1.6440     5.9510     0.7510 H     1 <1>   0.1500 
 39 H       -1.1290    -0.1870    -2.4920 H     1 <1>   0.0800 
 40 H       -0.1520     1.2780    -2.5550 H     1 <1>   0.0800 
 41 H       -1.8600     1.3340    -3.0020 H     1 <1>   0.0800 
 42 H       -1.1760     5.4450    -1.5890 H     1 <1>   0.1500 
 43 H       -7.2770    -0.9600    -0.1790 H     1 <1>   0.0800 
 44 H       -8.0210    -1.3650     1.3490 H     1 <1>   0.0800 
 45 H       -2.8940    -2.9250    -1.0170 H     1 <1>   0.2700 
 46 H       -8.1190    -3.2140    -0.4220 H     1 <1>   0.0800 
 47 H       -7.4430    -3.7020     1.1130 H     1 <1>   0.0800 
 48 H       -2.6800    -5.1450    -2.7290 H     1 <1>   0.1500 
 49 H       -7.4640    -5.6800    -1.5780 H     1 <1>   0.1500 
 50 H       -3.9910    -7.0190    -3.6740 H     1 <1>   0.1500 
 51 H       -6.3560    -7.2860    -3.1070 H     1 <1>   0.1500 
@<TRIPOS>BOND
  1   1   2  2   
  2   2   3  am  
  3   2   4  1   
  4   3   5  1   
  5   3   6  1   
  6   4   7  ar  
  7   4   8  ar  
  8   5   9  1   
  9   5  29  1   
 10   5  30  1   
 11   6  10  1   
 12   6  31  1   
 13   6  32  1   
 14   7  11  1   
 15   7  12  ar  
 16   8  13  ar  
 17   8  33  1   
 18   9  14  1   
 19   9  34  1   
 20   9  35  1   
 21  10  14  1   
 22  10  36  1   
 23  10  37  1   
 24  11  15  1   
 25  12  16  ar  
 26  13  16  ar  
 27  13  38  1   
 28  14  17  1   
 29  14  18  1   
 30  15  39  1   
 31  15  40  1   
 32  15  41  1   
 33  16  42  1   
 34  17  19  1   
 35  18  20  1   
 36  18  21  2   
 37  19  22  1   
 38  19  43  1   
 39  19  44  1   
 40  20  23  1   
 41  20  45  1   
 42  21  22  1   
 43  21  24  1   
 44  22  46  1   
 45  22  47  1   
 46  23  24  ar  
 47  23  25  ar  
 48  24  26  ar  
 49  25  27  ar  
 50  25  48  1   
 51  26  28  ar  
 52  26  49  1   
 53  27  28  ar  
 54  27  50  1   
 55  28  51  1   
@<TRIPOS>SUBSTRUCTURE
  1 ****  10 GROUP 4 **** **** 0

# MOE 2024.06 (io_trps.svl 2023.06)
