@<TRIPOS>MOLECULE
NONAME
42 44 1 0 0 
SMALL
USER_CHARGES


@<TRIPOS>ATOM
  1 S       -0.5710    -0.2490    -0.6150 S.o2  1 <1>   1.0900 
  2 O       -0.0380     0.7420     0.2880 O.2   1 <1>  -0.6500 
  3 O        0.1800    -0.7330    -1.7500 O.2   1 <1>  -0.6500 
  4 C       -1.1530    -1.6620     0.2770 C.3   1 <1>  -0.0550 
  5 C       -2.1920     0.2310    -1.1940 C.3   1 <1>  -0.0550 
  6 C       -2.3200    -2.1760    -0.5610 C.3   1 <1>   0.1760 
  7 C       -3.1570    -0.9490    -0.9800 C.3   1 <1>  -0.1600 
  8 N       -3.1260    -3.1690     0.1930 N.pl3 1 <1>   0.3140 
  9 N       -3.6200    -2.8760     1.4100 N.2   1 <1>  -0.7070 
 10 C       -3.4480    -4.4330    -0.1830 C.2   1 <1>  -0.3320 
 11 C       -4.2350    -3.9520     1.7910 C.2   1 <1>   0.1080 
 12 C       -4.1590    -4.9680     0.8330 C.2   1 <1>   0.0630 
 13 C       -3.0420    -5.0720    -1.5050 C.3   1 <1>  -0.0600 
 14 C       -4.9430    -4.0250     3.1260 C.3   1 <1>  -0.0590 
 15 N       -4.7030    -6.2770     0.8530 N.am  1 <1>  -0.4930 
 16 C       -4.7310    -7.1980     1.8580 C.2   1 <1>   0.5690 
 17 O       -4.3000    -6.9860     2.9660 O.2   1 <1>  -0.5700 
 18 C       -5.3390    -8.5650     1.5830 C.3   1 <1>   0.0810 
 19 C       -5.6600    -8.8060     0.1130 C.2   1 <1>  -0.1400 
 20 S       -4.3070    -9.0570    -0.9820 S.3   1 <1>  -0.0800 
 21 C       -6.8260    -8.8680    -0.5570 C.2   1 <1>  -0.1500 
 22 C       -5.3910    -9.2360    -2.3490 C.2   1 <1>  -0.1100 
 23 C       -6.6720    -9.1110    -1.9590 C.2   1 <1>  -0.1500 
 24 H       -1.5030    -1.3580     1.2450 H     1 <1>   0.0800 
 25 H       -0.3860    -2.4050     0.3840 H     1 <1>   0.0800 
 26 H       -2.1450     0.4960    -2.2340 H     1 <1>   0.0800 
 27 H       -2.5430     1.0840    -0.6430 H     1 <1>   0.0800 
 28 H       -1.9230    -2.6450    -1.4430 H     1 <1>   0.0800 
 29 H       -3.7190    -1.1570    -1.8740 H     1 <1>   0.0800 
 30 H       -3.8430    -0.6920    -0.1900 H     1 <1>   0.0800 
 31 H       -3.4430    -4.5100    -2.3300 H     1 <1>   0.0800 
 32 H       -3.4110    -6.0790    -1.5710 H     1 <1>   0.0800 
 33 H       -1.9700    -5.1030    -1.5880 H     1 <1>   0.0800 
 34 H       -5.2440    -3.0410     3.4330 H     1 <1>   0.0800 
 35 H       -4.2750    -4.4330     3.8620 H     1 <1>   0.0800 
 36 H       -5.8120    -4.6500     3.0520 H     1 <1>   0.0800 
 37 H       -5.0040    -6.6230    -0.0590 H     1 <1>   0.3700 
 38 H       -6.2400    -8.6460     2.1610 H     1 <1>   0.0800 
 39 H       -4.6580    -9.3200     1.9290 H     1 <1>   0.0800 
 40 H       -7.8060    -8.7520    -0.1260 H     1 <1>   0.1500 
 41 H       -4.9480    -9.4220    -3.3120 H     1 <1>   0.1500 
 42 H       -7.5310    -9.1820    -2.6040 H     1 <1>   0.1500 
@<TRIPOS>BOND
  1   1   2  2   
  2   1   3  2   
  3   1   4  1   
  4   1   5  1   
  5   4   6  1   
  6   4  24  1   
  7   4  25  1   
  8   5   7  1   
  9   5  26  1   
 10   5  27  1   
 11   6   7  1   
 12   6   8  1   
 13   6  28  1   
 14   7  29  1   
 15   7  30  1   
 16   8   9  1   
 17   8  10  1   
 18   9  11  2   
 19  10  12  2   
 20  10  13  1   
 21  11  12  1   
 22  11  14  1   
 23  12  15  1   
 24  13  31  1   
 25  13  32  1   
 26  13  33  1   
 27  14  34  1   
 28  14  35  1   
 29  14  36  1   
 30  15  16  am  
 31  15  37  1   
 32  16  17  2   
 33  16  18  1   
 34  18  19  1   
 35  18  38  1   
 36  18  39  1   
 37  19  20  1   
 38  19  21  2   
 39  20  22  1   
 40  21  23  1   
 41  21  40  1   
 42  22  23  2   
 43  22  41  1   
 44  23  42  1   
@<TRIPOS>SUBSTRUCTURE
  1 ****  10 GROUP 4 **** **** 0

# MOE 2024.06 (io_trps.svl 2023.06)
