@<TRIPOS>MOLECULE
NONAME
46 47 1 0 0 
SMALL
USER_CHARGES


@<TRIPOS>ATOM
  1 O        0.7870     0.6160    -0.5250 O.3   1 <1>  -0.5600 
  2 C        0.8640     1.8710     0.0570 C.3   1 <1>   0.2000 
  3 C       -0.1340    -0.1780     0.1520 C.3   1 <1>   0.1200 
  4 C       -0.5580     2.1560     0.5190 C.3   1 <1>  -0.1600 
  5 C        1.4210     2.8550    -0.9760 C.3   1 <1>  -0.1600 
  6 C       -1.0760     0.7760     0.8840 C.3   1 <1>  -0.1600 
  7 C        1.5410     4.2830    -0.4200 C.3   1 <1>  -0.1600 
  8 C        2.1840     5.2250    -1.4390 C.3   1 <1>   0.2090 
  9 N        2.2640     6.5970    -0.8690 N.pl3 1 <1>  -0.8380 
 10 C        3.4300     7.0630    -0.2710 C.ar  1 <1>   0.4100 
 11 C        1.0670     7.4570    -1.0730 C.3   1 <1>   0.1290 
 12 N        4.2860     6.1610     0.1790 N.ar  1 <1>  -0.6200 
 13 C        3.7060     8.4060    -0.1380 C.ar  1 <1>  -0.1500 
 14 C        5.3760     6.6360     0.7460 C.ar  1 <1>   0.4700 
 15 C        4.8750     8.7860     0.4760 C.ar  1 <1>   0.4100 
 16 N        5.7320     7.8910     0.9280 N.ar  1 <1>  -0.6200 
 17 N        5.1790    10.1220     0.6500 N.pl3 1 <1>  -0.8380 
 18 C        6.5940    10.5620     0.5430 C.3   1 <1>   0.2090 
 19 C        4.3320    10.9050     1.5900 C.3   1 <1>   0.1290 
 20 C        6.6620    11.8600    -0.2550 C.3   1 <1>  -0.2400 
 21 H        1.5260     1.7940     0.9040 H     1 <1>   0.0800 
 22 H        0.4050    -0.8060     0.8410 H     1 <1>   0.0800 
 23 H       -0.6530    -0.7840    -0.5710 H     1 <1>   0.0800 
 24 H       -1.1310     2.5620    -0.2960 H     1 <1>   0.0800 
 25 H       -0.5800     2.8400     1.3480 H     1 <1>   0.0800 
 26 H        0.7820     2.8570    -1.8420 H     1 <1>   0.0800 
 27 H        2.3960     2.5110    -1.2740 H     1 <1>   0.0800 
 28 H       -1.0060     0.6060     1.9440 H     1 <1>   0.0800 
 29 H       -2.0950     0.6360     0.5720 H     1 <1>   0.0800 
 30 H        2.1520     4.2710     0.4660 H     1 <1>   0.0800 
 31 H        0.5680     4.6560    -0.1590 H     1 <1>   0.0800 
 32 H        1.6030     5.2450    -2.3450 H     1 <1>   0.0800 
 33 H        3.1710     4.8730    -1.6900 H     1 <1>   0.0800 
 34 H        0.1760     6.8550    -1.0870 H     1 <1>   0.0800 
 35 H        1.1530     7.9800    -2.0090 H     1 <1>   0.0800 
 36 H        0.9800     8.1690    -0.2710 H     1 <1>   0.0800 
 37 H        3.0440     9.1560    -0.5090 H     1 <1>   0.1500 
 38 H        6.0690     5.8980     1.1110 H     1 <1>   0.1500 
 39 H        7.1720     9.8090     0.0340 H     1 <1>   0.0800 
 40 H        7.0100    10.6970     1.5270 H     1 <1>   0.0800 
 41 H        3.4550    10.3430     1.8620 H     1 <1>   0.0800 
 42 H        4.0250    11.8240     1.1220 H     1 <1>   0.0800 
 43 H        4.8860    11.1290     2.4850 H     1 <1>   0.0800 
 44 H        6.2140    11.7170    -1.2210 H     1 <1>   0.0800 
 45 H        7.6890    12.1440    -0.3920 H     1 <1>   0.0800 
 46 H        6.1560    12.6520     0.2640 H     1 <1>   0.0800 
@<TRIPOS>BOND
  1   1   2  1   
  2   1   3  1   
  3   2   4  1   
  4   2   5  1   
  5   2  21  1   
  6   3   6  1   
  7   3  22  1   
  8   3  23  1   
  9   4   6  1   
 10   4  24  1   
 11   4  25  1   
 12   5   7  1   
 13   5  26  1   
 14   5  27  1   
 15   6  28  1   
 16   6  29  1   
 17   7   8  1   
 18   7  30  1   
 19   7  31  1   
 20   8   9  1   
 21   8  32  1   
 22   8  33  1   
 23   9  10  1   
 24   9  11  1   
 25  10  12  ar  
 26  10  13  ar  
 27  11  34  1   
 28  11  35  1   
 29  11  36  1   
 30  12  14  ar  
 31  13  15  ar  
 32  13  37  1   
 33  14  16  ar  
 34  14  38  1   
 35  15  16  ar  
 36  15  17  1   
 37  17  18  1   
 38  17  19  1   
 39  18  20  1   
 40  18  39  1   
 41  18  40  1   
 42  19  41  1   
 43  19  42  1   
 44  19  43  1   
 45  20  44  1   
 46  20  45  1   
 47  20  46  1   
@<TRIPOS>SUBSTRUCTURE
  1 ****  10 GROUP 4 **** **** 0

# MOE 2024.06 (io_trps.svl 2023.06)
