@<TRIPOS>MOLECULE
NONAME
43 45 1 0 0 
SMALL
USER_CHARGES


@<TRIPOS>ATOM
  1 S        0.4370     0.5270     1.0370 S.o2  1 <1>   1.4470 
  2 O        0.5980    -0.6410     1.8730 O.2   1 <1>  -0.6500 
  3 O        0.7560     1.8300     1.5810 O.2   1 <1>  -0.6500 
  4 N        1.4540     0.3100    -0.2960 N.am  1 <1>  -0.8490 
  5 C       -1.2210     0.5680     0.2990 C.ar  1 <1>  -0.0090 
  6 C        2.8950     0.4320     0.0550 C.3   1 <1>   0.3370 
  7 C        1.2530    -0.9590    -0.9890 C.3   1 <1>   0.1960 
  8 C       -2.2430    -0.2480     0.7810 C.ar  1 <1>  -0.1500 
  9 C       -1.5030     1.4230    -0.7660 C.ar  1 <1>  -0.1500 
 10 C        3.4950     1.8280    -0.2910 C.2   1 <1>   0.5690 
 11 C        3.5860    -0.7500    -0.6490 C.3   1 <1>  -0.1600 
 12 C        2.5750    -1.2400    -1.6730 C.3   1 <1>  -0.1600 
 13 C       -3.5100    -0.2210     0.2190 C.ar  1 <1>  -0.1500 
 14 C       -2.7620     1.4640    -1.3420 C.ar  1 <1>  -0.1500 
 15 O        4.4670     1.9290    -1.0050 O.2   1 <1>  -0.5700 
 16 N        2.9340     2.9500     0.2420 N.am  1 <1>  -0.7300 
 17 C       -3.7450     0.6370    -0.8360 C.ar  1 <1>   0.1900 
 18 C        3.3320     4.3420    -0.0820 C.3   1 <1>   0.1400 
 19 F       -4.9340     0.6680    -1.3720 F     1 <1>  -0.1900 
 20 C        4.6720     4.6780     0.5740 C.3   1 <1>   0.0960 
 21 N        5.0950     6.0310     0.1800 N.pl3 1 <1>   0.3140 
 22 N        4.4810     7.1290     0.6000 N.2   1 <1>  -0.7070 
 23 C        6.1060     6.3880    -0.6170 C.2   1 <1>   0.0370 
 24 C        5.1650     8.0650     0.0300 C.2   1 <1>   0.3660 
 25 N        6.1860     7.6640    -0.7380 N.2   1 <1>  -0.5650 
 26 H        3.0240     0.2940     1.1150 H     1 <1>   0.0800 
 27 H        0.4440    -0.8920    -1.6970 H     1 <1>   0.0800 
 28 H        1.0490    -1.7510    -0.2860 H     1 <1>   0.0800 
 29 H       -2.0460    -0.9130     1.6070 H     1 <1>   0.1500 
 30 H       -0.7240     2.0620    -1.1490 H     1 <1>   0.1500 
 31 H        3.7650    -1.5220     0.0780 H     1 <1>   0.0800 
 32 H        4.5270    -0.5000    -1.1040 H     1 <1>   0.0800 
 33 H        2.6440    -0.6560    -2.5750 H     1 <1>   0.0800 
 34 H        2.6970    -2.2820    -1.9100 H     1 <1>   0.0800 
 35 H       -4.3000    -0.8500     0.5890 H     1 <1>   0.1500 
 36 H       -2.9820     2.1220    -2.1640 H     1 <1>   0.1500 
 37 H        2.0900     2.8390     0.8290 H     1 <1>   0.3700 
 38 H        2.5710     5.0190     0.2690 H     1 <1>   0.0800 
 39 H        3.4180     4.4380    -1.1510 H     1 <1>   0.0800 
 40 H        5.4240     3.9780     0.2620 H     1 <1>   0.0800 
 41 H        4.5750     4.6500     1.6430 H     1 <1>   0.0800 
 42 H        6.7600     5.6770    -1.0900 H     1 <1>   0.1500 
 43 H        4.9460     9.1140     0.1500 H     1 <1>   0.1500 
@<TRIPOS>BOND
  1   1   2  2   
  2   1   3  2   
  3   1   4  am  
  4   1   5  1   
  5   4   6  1   
  6   4   7  1   
  7   5   8  ar  
  8   5   9  ar  
  9   6  10  1   
 10   6  11  1   
 11   6  26  1   
 12   7  12  1   
 13   7  27  1   
 14   7  28  1   
 15   8  13  ar  
 16   8  29  1   
 17   9  14  ar  
 18   9  30  1   
 19  10  15  2   
 20  10  16  am  
 21  11  12  1   
 22  11  31  1   
 23  11  32  1   
 24  12  33  1   
 25  12  34  1   
 26  13  17  ar  
 27  13  35  1   
 28  14  17  ar  
 29  14  36  1   
 30  16  18  1   
 31  16  37  1   
 32  17  19  1   
 33  18  20  1   
 34  18  38  1   
 35  18  39  1   
 36  20  21  1   
 37  20  40  1   
 38  20  41  1   
 39  21  22  1   
 40  21  23  1   
 41  22  24  2   
 42  23  25  2   
 43  23  42  1   
 44  24  25  1   
 45  24  43  1   
@<TRIPOS>SUBSTRUCTURE
  1 ****  16 GROUP 4 **** **** 0

# MOE 2024.06 (io_trps.svl 2023.06)
