@<TRIPOS>MOLECULE
NONAME
49 52 1 0 0 
SMALL
USER_CHARGES


@<TRIPOS>ATOM
  1 S        0.9500     0.5610     1.4860 S.3   1 <1>  -0.0800 
  2 C       -0.5210     1.0870     0.6820 C.2   1 <1>  -0.1400 
  3 C        0.1330    -0.8640     2.1160 C.2   1 <1>  -0.1100 
  4 C       -1.5220     0.2270     0.9130 C.2   1 <1>  -0.1810 
  5 C       -0.5950     2.3610    -0.1530 C.3   1 <1>   0.4600 
  6 C       -1.1560    -0.8930     1.7250 C.2   1 <1>  -0.1500 
  7 C       -2.8880     0.4980     0.3260 C.3   1 <1>   0.0210 
  8 O       -1.8600     2.4110    -0.7860 O.3   1 <1>  -0.5600 
  9 C       -0.4220     3.6140     0.7180 C.3   1 <1>  -0.1600 
 10 C        0.4450     2.3330    -1.2810 C.3   1 <1>  -0.1600 
 11 C       -2.9870     1.9900    -0.0520 C.3   1 <1>   0.1200 
 12 C       -0.4300     4.8880    -0.1270 C.3   1 <1>   0.1400 
 13 C        0.4410     3.6310    -2.0900 C.3   1 <1>   0.1400 
 14 N        0.6320     4.7770    -1.1600 N.am  1 <1>  -0.6600 
 15 C        1.7480     5.5910    -1.2030 C.2   1 <1>   0.5440 
 16 O        2.6110     5.3680    -2.0360 O.2   1 <1>  -0.5700 
 17 C        1.9400     6.6610    -0.2540 C.ar  1 <1>   0.0860 
 18 C        1.5770     7.9700    -0.6010 C.ar  1 <1>   0.0830 
 19 C        2.4480     6.4390     1.0390 C.ar  1 <1>   0.0830 
 20 O        1.0740     8.1740    -1.8440 O.3   1 <1>  -0.3630 
 21 C        1.7170     9.0120     0.3110 C.ar  1 <1>  -0.1500 
 22 O        2.8290     5.2290     1.5130 O.3   1 <1>  -0.3630 
 23 C        2.5660     7.4860     1.9380 C.ar  1 <1>  -0.1500 
 24 C        0.8320     9.4590    -2.3720 C.3   1 <1>   0.0400 
 25 C        2.2080     8.7700     1.5790 C.ar  1 <1>  -0.1500 
 26 C        3.6450     4.3690     0.7430 C.3   1 <1>   0.0400 
 27 H        0.7130    -1.5380     2.7190 H     1 <1>   0.1500 
 28 H       -1.8700    -1.6580     1.9750 H     1 <1>   0.1500 
 29 H       -3.6530     0.2610     1.0430 H     1 <1>   0.0800 
 30 H       -3.0370    -0.1110    -0.5470 H     1 <1>   0.0800 
 31 H        0.5180     3.5570     1.2370 H     1 <1>   0.0800 
 32 H       -1.1910     3.6580     1.4640 H     1 <1>   0.0800 
 33 H        0.2460     1.4980    -1.9260 H     1 <1>   0.0800 
 34 H        1.4260     2.1970    -0.8670 H     1 <1>   0.0800 
 35 H       -3.0630     2.5950     0.8340 H     1 <1>   0.0800 
 36 H       -3.8560     2.1610    -0.6610 H     1 <1>   0.0800 
 37 H       -0.2740     5.7450     0.5040 H     1 <1>   0.0800 
 38 H       -1.3830     5.0020    -0.6150 H     1 <1>   0.0800 
 39 H       -0.4990     3.7460    -2.6010 H     1 <1>   0.0800 
 40 H        1.2210     3.6030    -2.8310 H     1 <1>   0.0800 
 41 H        1.4430    10.0180     0.0560 H     1 <1>   0.1500 
 42 H        2.9460     7.2870     2.9240 H     1 <1>   0.1500 
 43 H        0.5120     9.3440    -3.3920 H     1 <1>   0.0800 
 44 H        1.7440    10.0280    -2.3380 H     1 <1>   0.0800 
 45 H        0.0570     9.9340    -1.7980 H     1 <1>   0.0800 
 46 H        2.3100     9.5760     2.2850 H     1 <1>   0.1500 
 47 H        4.2180     3.7580     1.4160 H     1 <1>   0.0800 
 48 H        4.3030     4.9570     0.1270 H     1 <1>   0.0800 
 49 H        3.0180     3.7430     0.1340 H     1 <1>   0.0800 
@<TRIPOS>BOND
  1   1   2  1   
  2   1   3  1   
  3   2   4  2   
  4   2   5  1   
  5   3   6  2   
  6   3  27  1   
  7   4   6  1   
  8   4   7  1   
  9   5   8  1   
 10   5   9  1   
 11   5  10  1   
 12   6  28  1   
 13   7  11  1   
 14   7  29  1   
 15   7  30  1   
 16   8  11  1   
 17   9  12  1   
 18   9  31  1   
 19   9  32  1   
 20  10  13  1   
 21  10  33  1   
 22  10  34  1   
 23  11  35  1   
 24  11  36  1   
 25  12  14  1   
 26  12  37  1   
 27  12  38  1   
 28  13  14  1   
 29  13  39  1   
 30  13  40  1   
 31  14  15  am  
 32  15  16  2   
 33  15  17  1   
 34  17  18  ar  
 35  17  19  ar  
 36  18  20  1   
 37  18  21  ar  
 38  19  22  1   
 39  19  23  ar  
 40  20  24  1   
 41  21  25  ar  
 42  21  41  1   
 43  22  26  1   
 44  23  25  ar  
 45  23  42  1   
 46  24  43  1   
 47  24  44  1   
 48  24  45  1   
 49  25  46  1   
 50  26  47  1   
 51  26  48  1   
 52  26  49  1   
@<TRIPOS>SUBSTRUCTURE
  1 ****  12 GROUP 4 **** **** 0

# MOE 2024.06 (io_trps.svl 2023.06)
