@<TRIPOS>MOLECULE
NONAME
47 49 1 0 0 
SMALL
USER_CHARGES


@<TRIPOS>ATOM
  1 O        0.5770     1.4330     0.8930 O.co2 1 <1>  -0.9000 
  2 C        1.4090     0.5340     0.7830 C.2   1 <1>   0.9060 
  3 O        1.5150    -0.3570     1.6440 O.co2 1 <1>  -0.9000 
  4 C        2.3460     0.5040    -0.4410 C.3   1 <1>  -0.1060 
  5 C        3.6880    -0.1290    -0.0300 C.3   1 <1>   0.4230 
  6 C        2.6550     1.9380    -0.9400 C.3   1 <1>  -0.1600 
  7 C        1.7160    -0.3090    -1.5970 C.3   1 <1>  -0.1600 
  8 N        3.4790    -1.5630     0.3710 N.4   1 <1>  -0.9590 
  9 C        4.3760     0.7440     1.0510 C.3   1 <1>   0.1100 
 10 C        3.3680     2.7680     0.1340 C.3   1 <1>   0.1100 
 11 C        1.6010    -1.7970    -1.2320 C.3   1 <1>  -0.1600 
 12 C        2.9300    -2.3790    -0.7420 C.3   1 <1>   0.3430 
 13 C        4.6220    -2.2240     1.0510 C.3   1 <1>   0.2630 
 14 N        4.6290     2.1120     0.5480 N.3   1 <1>  -0.8100 
 15 C        5.3030     2.9200     1.5770 C.3   1 <1>   0.2530 
 16 C        5.8210     4.2180     0.9860 C.ar  1 <1>  -0.1430 
 17 C        6.5470     4.2340    -0.1820 C.ar  1 <1>   0.1600 
 18 C        5.5900     5.4320     1.5910 C.ar  1 <1>   0.1600 
 19 N        7.0150     5.3440    -0.7070 N.ar  1 <1>  -0.6200 
 20 N        6.0390     6.5610     1.0960 N.ar  1 <1>  -0.6200 
 21 C        6.7290     6.4560    -0.0310 C.ar  1 <1>   0.7030 
 22 O        7.1780     7.6240    -0.5200 O.3   1 <1>  -0.3630 
 23 C        7.9340     7.6990    -1.7120 C.3   1 <1>   0.0400 
 24 H        4.3340    -0.1170    -0.8900 H     1 <1>   0.0800 
 25 H        1.7350     2.4340    -1.2000 H     1 <1>   0.0800 
 26 H        3.2710     1.9150    -1.8220 H     1 <1>   0.0800 
 27 H        0.7370     0.0840    -1.8150 H     1 <1>   0.0800 
 28 H        2.3170    -0.2090    -2.4840 H     1 <1>   0.0800 
 29 H        2.6900    -1.4500     1.0640 H     1 <1>   0.4500 
 30 H        5.3220     0.3060     1.3100 H     1 <1>   0.0800 
 31 H        3.7630     0.7910     1.9370 H     1 <1>   0.0800 
 32 H        2.7170     2.8980     0.9850 H     1 <1>   0.0800 
 33 H        3.5760     3.7440    -0.2720 H     1 <1>   0.0800 
 34 H        1.2670    -2.3510    -2.0910 H     1 <1>   0.0800 
 35 H        0.8580    -1.9260    -0.4620 H     1 <1>   0.0800 
 36 H        3.6350    -2.3990    -1.5570 H     1 <1>   0.0800 
 37 H        2.7660    -3.3900    -0.4060 H     1 <1>   0.0800 
 38 H        5.4780    -2.2570     0.3970 H     1 <1>   0.0800 
 39 H        4.3540    -3.2300     1.3290 H     1 <1>   0.0800 
 40 H        4.8830    -1.6850     1.9460 H     1 <1>   0.0800 
 41 H        4.6230     3.1190     2.3890 H     1 <1>   0.0800 
 42 H        6.1430     2.3720     1.9700 H     1 <1>   0.0800 
 43 H        6.7430     3.3090    -0.6970 H     1 <1>   0.1500 
 44 H        5.0200     5.4810     2.5030 H     1 <1>   0.1500 
 45 H        8.1750     8.7300    -1.8940 H     1 <1>   0.0800 
 46 H        7.3450     7.3070    -2.5230 H     1 <1>   0.0800 
 47 H        8.8350     7.1240    -1.5900 H     1 <1>   0.0800 
@<TRIPOS>BOND
  1   1   2  ar  
  2   2   3  ar  
  3   2   4  1   
  4   4   5  1   
  5   4   6  1   
  6   4   7  1   
  7   5   8  1   
  8   5   9  1   
  9   5  24  1   
 10   6  10  1   
 11   6  25  1   
 12   6  26  1   
 13   7  11  1   
 14   7  27  1   
 15   7  28  1   
 16   8  12  1   
 17   8  13  1   
 18   8  29  1   
 19   9  14  1   
 20   9  30  1   
 21   9  31  1   
 22  10  14  1   
 23  10  32  1   
 24  10  33  1   
 25  11  12  1   
 26  11  34  1   
 27  11  35  1   
 28  12  36  1   
 29  12  37  1   
 30  13  38  1   
 31  13  39  1   
 32  13  40  1   
 33  14  15  1   
 34  15  16  1   
 35  15  41  1   
 36  15  42  1   
 37  16  17  ar  
 38  16  18  ar  
 39  17  19  ar  
 40  17  43  1   
 41  18  20  ar  
 42  18  44  1   
 43  19  21  ar  
 44  20  21  ar  
 45  21  22  1   
 46  22  23  1   
 47  23  45  1   
 48  23  46  1   
 49  23  47  1   
@<TRIPOS>SUBSTRUCTURE
  1 ****  14 GROUP 4 **** **** 0

# MOE 2024.06 (io_trps.svl 2023.06)
