@<TRIPOS>MOLECULE
NONAME
44 46 1 0 0 
SMALL
USER_CHARGES


@<TRIPOS>ATOM
  1 N       -0.1690    -0.6190    -0.6390 N.ar  1 <1>  -0.6200 
  2 C       -0.5240    -1.8850    -0.6030 C.ar  1 <1>   0.7710 
  3 C        0.7790    -0.2180     0.1890 C.ar  1 <1>   0.4100 
  4 N        0.0180    -2.7630     0.2520 N.ar  1 <1>  -0.1790 
  5 N       -1.4680    -2.2410    -1.4870 N.pl3 1 <1>  -0.8690 
  6 N        1.1580     1.0810     0.0790 N.pl3 1 <1>  -0.8380 
  7 C        1.3630    -1.0940     1.1430 C.ar  1 <1>  -0.1430 
  8 C        0.9560    -2.3880     1.1470 C.ar  1 <1>   0.2110 
  9 C       -2.0800    -3.5300    -1.9140 C.3   1 <1>   0.2890 
 10 C        2.5630     1.4870    -0.2010 C.3   1 <1>   0.1290 
 11 C        0.1600     2.1630    -0.1580 C.3   1 <1>   0.1290 
 12 C        2.3840    -0.6080     2.1690 C.3   1 <1>  -0.0970 
 13 C       -2.9110    -4.1590    -0.7780 C.3   1 <1>  -0.0170 
 14 C       -0.9880    -4.4640    -2.4850 C.3   1 <1>  -0.1600 
 15 C       -1.9970    -4.8060     0.2480 C.ar  1 <1>  -0.1430 
 16 C       -0.7840    -5.7800    -1.7100 C.3   1 <1>  -0.0170 
 17 C       -0.9350    -5.5700    -0.2120 C.ar  1 <1>  -0.1430 
 18 C       -2.1710    -4.6060     1.6080 C.ar  1 <1>  -0.1500 
 19 C       -0.0400    -6.1200     0.6900 C.ar  1 <1>  -0.1500 
 20 C       -1.2740    -5.1560     2.5060 C.ar  1 <1>  -0.1500 
 21 C       -0.2080    -5.9090     2.0480 C.ar  1 <1>  -0.1500 
 22 H       -0.3720    -3.7100     0.2380 H     1 <1>   0.4570 
 23 H       -1.7780    -1.4450    -2.0560 H     1 <1>   0.4000 
 24 H        1.3340    -3.1260     1.8360 H     1 <1>   0.1500 
 25 H       -2.7650    -3.3000    -2.7150 H     1 <1>   0.0800 
 26 H        3.1830     0.6200    -0.3500 H     1 <1>   0.0800 
 27 H        2.9480     2.0630     0.6230 H     1 <1>   0.0800 
 28 H        2.6020     2.0850    -1.0950 H     1 <1>   0.0800 
 29 H       -0.8220     1.8380     0.1420 H     1 <1>   0.0800 
 30 H        0.1370     2.4170    -1.2030 H     1 <1>   0.0800 
 31 H        0.4210     3.0360     0.4150 H     1 <1>   0.0800 
 32 H        2.0660     0.3310     2.5890 H     1 <1>   0.0800 
 33 H        3.3460    -0.4710     1.7080 H     1 <1>   0.0800 
 34 H        2.4940    -1.3110     2.9750 H     1 <1>   0.0800 
 35 H       -3.5500    -4.9200    -1.1900 H     1 <1>   0.0800 
 36 H       -3.5420    -3.4130    -0.3290 H     1 <1>   0.0800 
 37 H       -0.0490    -3.9430    -2.5450 H     1 <1>   0.0800 
 38 H       -1.2570    -4.7210    -3.4950 H     1 <1>   0.0800 
 39 H        0.1800    -6.1970    -1.9460 H     1 <1>   0.0800 
 40 H       -1.5270    -6.4950    -2.0210 H     1 <1>   0.0800 
 41 H       -3.0030    -4.0270     1.9750 H     1 <1>   0.1500 
 42 H        0.7830    -6.7260     0.3450 H     1 <1>   0.1500 
 43 H       -1.4130    -5.0080     3.5650 H     1 <1>   0.1500 
 44 H        0.4820    -6.3480     2.7500 H     1 <1>   0.1500 
@<TRIPOS>BOND
  1   1   2  ar  
  2   1   3  ar  
  3   2   4  ar  
  4   2   5  1   
  5   3   6  1   
  6   3   7  ar  
  7   4   8  ar  
  8   4  22  1   
  9   5   9  1   
 10   5  23  1   
 11   6  10  1   
 12   6  11  1   
 13   7   8  ar  
 14   7  12  1   
 15   8  24  1   
 16   9  13  1   
 17   9  14  1   
 18   9  25  1   
 19  10  26  1   
 20  10  27  1   
 21  10  28  1   
 22  11  29  1   
 23  11  30  1   
 24  11  31  1   
 25  12  32  1   
 26  12  33  1   
 27  12  34  1   
 28  13  15  1   
 29  13  35  1   
 30  13  36  1   
 31  14  16  1   
 32  14  37  1   
 33  14  38  1   
 34  15  17  ar  
 35  15  18  ar  
 36  16  17  1   
 37  16  39  1   
 38  16  40  1   
 39  17  19  ar  
 40  18  20  ar  
 41  18  41  1   
 42  19  21  ar  
 43  19  42  1   
 44  20  21  ar  
 45  20  43  1   
 46  21  44  1   
@<TRIPOS>SUBSTRUCTURE
  1 ****   4 GROUP 4 **** **** 0

# MOE 2024.06 (io_trps.svl 2023.06)
