@<TRIPOS>MOLECULE
NONAME
45 48 1 0 0 
SMALL
USER_CHARGES


@<TRIPOS>ATOM
  1 O       -2.5950     0.1070     0.6410 O.2   1 <1>  -0.5700 
  2 C       -2.5520     0.9900    -0.2000 C.2   1 <1>   0.5440 
  3 N       -3.4010     0.8440    -1.2690 N.am  1 <1>  -0.6600 
  4 C       -1.6990     2.1590    -0.0440 C.ar  1 <1>   0.0860 
  5 C       -4.7930     1.3650    -1.0980 C.3   1 <1>   0.1400 
  6 C       -3.3680    -0.4590    -2.0130 C.3   1 <1>   0.1400 
  7 C       -0.9740     2.3640     1.1310 C.ar  1 <1>  -0.1500 
  8 C       -1.5730     3.1190    -1.0530 C.ar  1 <1>  -0.1500 
  9 C       -5.6750     0.3640    -0.2990 C.3   1 <1>   0.4230 
 10 C       -4.4630    -1.4410    -1.5270 C.3   1 <1>   0.3430 
 11 C       -0.1730     3.4810     1.2880 C.ar  1 <1>   0.0830 
 12 C       -0.7720     4.2370    -0.8960 C.ar  1 <1>  -0.1500 
 13 N       -5.0340    -1.0020    -0.2080 N.4   1 <1>  -0.9590 
 14 C       -7.1020     0.2680    -0.8890 C.3   1 <1>   0.1200 
 15 O        0.5170     3.6670     2.4220 O.3   1 <1>  -0.5320 
 16 C       -0.0700     4.4210     0.2800 C.ar  1 <1>  -0.1500 
 17 C       -5.9330    -1.9690     0.4850 C.3   1 <1>   0.5180 
 18 O       -7.8710    -0.6630    -0.1800 O.3   1 <1>  -0.5600 
 19 C       -5.3000    -3.3660     0.4870 C.3   1 <1>  -0.1950 
 20 C       -7.3480    -1.9660    -0.1360 C.3   1 <1>   0.1200 
 21 C       -5.3720    -4.2190     1.7160 C.3   1 <1>  -0.2000 
 22 C       -4.0550    -3.6570     1.2690 C.3   1 <1>  -0.2000 
 23 H       -4.7690     2.3090    -0.5790 H     1 <1>   0.0800 
 24 H       -5.2180     1.5470    -2.0700 H     1 <1>   0.0800 
 25 H       -3.4820    -0.2790    -3.0680 H     1 <1>   0.0800 
 26 H       -2.4040    -0.9200    -1.8720 H     1 <1>   0.0800 
 27 H       -1.0410     1.6420     1.9240 H     1 <1>   0.1500 
 28 H       -2.1040     2.9950    -1.9790 H     1 <1>   0.1500 
 29 H       -5.7750     0.7560     0.7000 H     1 <1>   0.0800 
 30 H       -4.0250    -2.4220    -1.4380 H     1 <1>   0.0800 
 31 H       -5.2460    -1.4960    -2.2640 H     1 <1>   0.0800 
 32 H       -0.6900     4.9640    -1.6860 H     1 <1>   0.1500 
 33 H       -4.1930    -0.8580     0.3900 H     1 <1>   0.4500 
 34 H       -7.0790    -0.0240    -1.9240 H     1 <1>   0.0800 
 35 H       -7.5990     1.2200    -0.8130 H     1 <1>   0.0800 
 36 H        0.4150     2.9460     3.0690 H     1 <1>   0.4500 
 37 H        0.5580     5.2830     0.4210 H     1 <1>   0.1500 
 38 H       -6.0340    -1.6570     1.5110 H     1 <1>   0.0800 
 39 H       -5.4420    -3.8890    -0.4430 H     1 <1>   0.1000 
 40 H       -8.0110    -2.5640     0.4640 H     1 <1>   0.0800 
 41 H       -7.3360    -2.3670    -1.1340 H     1 <1>   0.0800 
 42 H       -5.8020    -3.8320     2.6260 H     1 <1>   0.1000 
 43 H       -5.5330    -5.2790     1.6120 H     1 <1>   0.1000 
 44 H       -3.3250    -4.3390     0.8660 H     1 <1>   0.1000 
 45 H       -3.6010    -2.8890     1.8740 H     1 <1>   0.1000 
@<TRIPOS>BOND
  1   1   2  2   
  2   2   3  am  
  3   2   4  1   
  4   3   5  1   
  5   3   6  1   
  6   4   7  ar  
  7   4   8  ar  
  8   5   9  1   
  9   5  23  1   
 10   5  24  1   
 11   6  10  1   
 12   6  25  1   
 13   6  26  1   
 14   7  11  ar  
 15   7  27  1   
 16   8  12  ar  
 17   8  28  1   
 18   9  13  1   
 19   9  14  1   
 20   9  29  1   
 21  10  13  1   
 22  10  30  1   
 23  10  31  1   
 24  11  15  1   
 25  11  16  ar  
 26  12  16  ar  
 27  12  32  1   
 28  13  17  1   
 29  13  33  1   
 30  14  18  1   
 31  14  34  1   
 32  14  35  1   
 33  15  36  1   
 34  16  37  1   
 35  17  19  1   
 36  17  20  1   
 37  17  38  1   
 38  18  20  1   
 39  19  21  1   
 40  19  22  1   
 41  19  39  1   
 42  20  40  1   
 43  20  41  1   
 44  21  22  1   
 45  21  42  1   
 46  21  43  1   
 47  22  44  1   
 48  22  45  1   
@<TRIPOS>SUBSTRUCTURE
  1 ****   2 GROUP 4 **** **** 0

# MOE 2024.06 (io_trps.svl 2023.06)
