@<TRIPOS>MOLECULE
NONAME
58 60 1 0 0 
SMALL
USER_CHARGES


@<TRIPOS>ATOM
  1 O       -1.1270     1.1660     1.9470 O.2   1 <1>  -0.5700 
  2 C       -0.7930     2.2760     1.6210 C.2   1 <1>   0.5690 
  3 N       -1.7070     3.2610     1.4860 N.am  1 <1>  -0.7300 
  4 C        0.6730     2.5870     1.3230 C.3   1 <1>   0.1810 
  5 C       -1.3830     4.6450     1.0590 C.3   1 <1>   0.3640 
  6 O        0.9640     3.9610     1.4580 O.3   1 <1>  -0.5600 
  7 C       -2.2820     4.9980    -0.1200 C.ar  1 <1>  -0.1440 
  8 C        0.1200     4.8290     0.7050 C.3   1 <1>   0.2610 
  9 C       -2.4610     4.1150    -1.1780 C.ar  1 <1>   0.1600 
 10 C       -2.9330     6.2160    -0.1650 C.ar  1 <1>  -0.1500 
 11 C        0.5320     6.2880     0.9420 C.2   1 <1>   0.5690 
 12 N       -3.2090     4.3450    -2.2440 N.ar  1 <1>  -0.6200 
 13 C       -3.7200     6.4710    -1.2670 C.ar  1 <1>  -0.1500 
 14 O       -0.0010     7.1750     0.3180 O.2   1 <1>  -0.5700 
 15 N        1.5040     6.5610     1.8550 N.am  1 <1>  -0.7300 
 16 C       -3.8220     5.5170    -2.2640 C.ar  1 <1>   0.1600 
 17 C        1.9300     7.9090     2.2920 C.3   1 <1>   0.1400 
 18 C        3.1980     8.3570     1.5430 C.3   1 <1>  -0.0800 
 19 C        3.6580     9.7310     2.0610 C.3   1 <1>  -0.1600 
 20 C        2.9730     8.4280     0.0200 C.3   1 <1>  -0.1600 
 21 C        4.8520    10.2740     1.2750 C.3   1 <1>   0.3430 
 22 C        4.1750     9.0050    -0.7220 C.3   1 <1>   0.3430 
 23 N        4.5050    10.3510    -0.1750 N.4   1 <1>  -0.9590 
 24 C        5.5790    10.9890    -0.9840 C.3   1 <1>   0.3430 
 25 C        5.6440    12.4910    -0.7010 C.3   1 <1>  -0.1600 
 26 C        6.6680    13.1710    -1.6180 C.3   1 <1>  -0.1600 
 27 C        6.7350    14.6760    -1.3430 C.3   1 <1>  -0.2400 
 28 H       -2.6880     3.0420     1.6720 H     1 <1>   0.3700 
 29 H        0.9130     2.2810     0.3210 H     1 <1>   0.0800 
 30 H        1.2980     2.0480     2.0110 H     1 <1>   0.0800 
 31 H       -1.6180     5.3000     1.8810 H     1 <1>   0.0800 
 32 H        0.2740     4.6070    -0.3350 H     1 <1>   0.0800 
 33 H       -1.9640     3.1600    -1.1510 H     1 <1>   0.1500 
 34 H       -2.8300     6.9500     0.6170 H     1 <1>   0.1500 
 35 H       -4.2480     7.4030    -1.3580 H     1 <1>   0.1500 
 36 H        1.9250     5.7540     2.3310 H     1 <1>   0.3700 
 37 H       -4.4370     5.7290    -3.1220 H     1 <1>   0.1500 
 38 H        1.1310     8.6090     2.1090 H     1 <1>   0.0800 
 39 H        2.1130     7.8870     3.3540 H     1 <1>   0.0800 
 40 H        3.9770     7.6410     1.7480 H     1 <1>   0.0800 
 41 H        3.9370     9.6470     3.0970 H     1 <1>   0.0800 
 42 H        2.8490    10.4390     2.0040 H     1 <1>   0.0800 
 43 H        2.1000     9.0190    -0.2000 H     1 <1>   0.0800 
 44 H        2.7890     7.4400    -0.3640 H     1 <1>   0.0800 
 45 H        5.7020     9.6260     1.4130 H     1 <1>   0.0800 
 46 H        5.1070    11.2520     1.6500 H     1 <1>   0.0800 
 47 H        3.9430     9.0790    -1.7720 H     1 <1>   0.0800 
 48 H        5.0200     8.3460    -0.6060 H     1 <1>   0.0800 
 49 H        3.6570    10.9270    -0.2630 H     1 <1>   0.4500 
 50 H        6.5310    10.5310    -0.7670 H     1 <1>   0.0800 
 51 H        5.3710    10.8470    -2.0330 H     1 <1>   0.0800 
 52 H        4.6780    12.9330    -0.8740 H     1 <1>   0.0800 
 53 H        5.9310    12.6670     0.3200 H     1 <1>   0.0800 
 54 H        7.6460    12.7450    -1.4620 H     1 <1>   0.0800 
 55 H        6.3990    13.0180    -2.6510 H     1 <1>   0.0800 
 56 H        7.0320    14.8650    -0.3260 H     1 <1>   0.0800 
 57 H        5.7800    15.1390    -1.5180 H     1 <1>   0.0800 
 58 H        7.4570    15.1360    -1.9950 H     1 <1>   0.0800 
@<TRIPOS>BOND
  1   1   2  2   
  2   2   3  am  
  3   2   4  1   
  4   3   5  1   
  5   3  28  1   
  6   4   6  1   
  7   4  29  1   
  8   4  30  1   
  9   5   7  1   
 10   5   8  1   
 11   5  31  1   
 12   6   8  1   
 13   7   9  ar  
 14   7  10  ar  
 15   8  11  1   
 16   8  32  1   
 17   9  12  ar  
 18   9  33  1   
 19  10  13  ar  
 20  10  34  1   
 21  11  14  2   
 22  11  15  am  
 23  12  16  ar  
 24  13  16  ar  
 25  13  35  1   
 26  15  17  1   
 27  15  36  1   
 28  16  37  1   
 29  17  18  1   
 30  17  38  1   
 31  17  39  1   
 32  18  19  1   
 33  18  20  1   
 34  18  40  1   
 35  19  21  1   
 36  19  41  1   
 37  19  42  1   
 38  20  22  1   
 39  20  43  1   
 40  20  44  1   
 41  21  23  1   
 42  21  45  1   
 43  21  46  1   
 44  22  23  1   
 45  22  47  1   
 46  22  48  1   
 47  23  24  1   
 48  23  49  1   
 49  24  25  1   
 50  24  50  1   
 51  24  51  1   
 52  25  26  1   
 53  25  52  1   
 54  25  53  1   
 55  26  27  1   
 56  26  54  1   
 57  26  55  1   
 58  27  56  1   
 59  27  57  1   
 60  27  58  1   
@<TRIPOS>SUBSTRUCTURE
  1 ****  14 GROUP 4 **** **** 0

# MOE 2024.06 (io_trps.svl 2023.06)
