@<TRIPOS>MOLECULE
Untitled Document
39 43 1 0 0 
SMALL
USER_CHARGES


@<TRIPOS>ATOM
  1 O        0.4350     0.8900    -1.4460 O.2   1 <1>  -0.5700 
  2 C        0.5100     1.8650    -0.7210 C.2   1 <1>   0.5440 
  3 N        1.7410     2.1940    -0.1910 N.am  1 <1>  -0.6600 
  4 C       -0.7030     2.6190    -0.4310 C.ar  1 <1>   0.0860 
  5 C        1.9150     3.3080     0.7580 C.3   1 <1>   0.3200 
  6 C        3.0090     1.5490    -0.6400 C.3   1 <1>   0.0600 
  7 C       -0.7480     4.0220    -0.3360 C.ar  1 <1>  -0.0230 
  8 C       -1.8990     1.9210    -0.2510 C.ar  1 <1>  -0.1500 
  9 C        1.6480     4.5780    -0.0120 C.2   1 <1>  -0.3320 
 10 N        0.4180     4.8070    -0.5130 N.pl3 1 <1>   0.3260 
 11 C       -1.9540     4.6610    -0.0550 C.ar  1 <1>  -0.1500 
 12 C       -3.0900     2.5630     0.0230 C.ar  1 <1>  -0.1500 
 13 C        2.4620     5.6190    -0.3530 C.2   1 <1>   0.2270 
 14 C        0.5490     6.0030    -1.1390 C.2   1 <1>   0.0360 
 15 C       -3.1180     3.9410     0.1240 C.ar  1 <1>  -0.1500 
 16 N        1.7260     6.5200    -1.0660 N.2   1 <1>  -0.5650 
 17 C        3.8840     5.8130    -0.0620 C.2   1 <1>   0.5160 
 18 N        4.6650     4.9280     0.4540 N.2   1 <1>  -0.4100 
 19 N        4.5350     6.9570    -0.3030 N.2   1 <1>  -0.5650 
 20 O        5.8480     5.4530     0.5620 O.3   1 <1>  -0.0190 
 21 C        5.7020     6.6640     0.0920 C.2   1 <1>   0.3930 
 22 C        6.9150     7.5820     0.0710 C.3   1 <1>  -0.0150 
 23 C        7.0510     8.6820    -0.9380 C.3   1 <1>  -0.2000 
 24 C        7.9320     7.4720    -1.0250 C.3   1 <1>  -0.2000 
 25 H        2.9070     3.2900     1.1730 H     1 <1>   0.0800 
 26 H        1.2160     3.2060     1.5700 H     1 <1>   0.0800 
 27 H        2.8240     0.8410    -1.4300 H     1 <1>   0.0800 
 28 H        3.4650     1.0310     0.1850 H     1 <1>   0.0800 
 29 H        3.6880     2.2980    -1.0080 H     1 <1>   0.0800 
 30 H       -1.8870     0.8470    -0.3320 H     1 <1>   0.1500 
 31 H       -1.9910     5.7340     0.0310 H     1 <1>   0.1500 
 32 H       -3.9940     1.9930     0.1570 H     1 <1>   0.1500 
 33 H       -0.2820     6.4580    -1.6480 H     1 <1>   0.1500 
 34 H       -4.0440     4.4460     0.3390 H     1 <1>   0.1500 
 35 H        7.2760     7.7840     1.0640 H     1 <1>   0.1000 
 36 H        7.4770     9.6190    -0.6230 H     1 <1>   0.1000 
 37 H        6.2660     8.8090    -1.6650 H     1 <1>   0.1000 
 38 H        7.7610     6.7720    -1.8250 H     1 <1>   0.1000 
 39 H        8.9740     7.5680    -0.7750 H     1 <1>   0.1000 
@<TRIPOS>BOND
  1   1   2  2   
  2   2   3  am  
  3   2   4  1   
  4   3   5  1   
  5   3   6  1   
  6   4   7  ar  
  7   4   8  ar  
  8   5   9  1   
  9   5  25  1   
 10   5  26  1   
 11   6  27  1   
 12   6  28  1   
 13   6  29  1   
 14   7  10  1   
 15   7  11  ar  
 16   8  12  ar  
 17   8  30  1   
 18   9  10  1   
 19   9  13  2   
 20  10  14  1   
 21  11  15  ar  
 22  11  31  1   
 23  12  15  ar  
 24  12  32  1   
 25  13  16  1   
 26  13  17  1   
 27  14  16  2   
 28  14  33  1   
 29  15  34  1   
 30  17  18  2   
 31  17  19  1   
 32  18  20  1   
 33  19  21  2   
 34  20  21  1   
 35  21  22  1   
 36  22  23  1   
 37  22  24  1   
 38  22  35  1   
 39  23  24  1   
 40  23  36  1   
 41  23  37  1   
 42  24  38  1   
 43  24  39  1   
@<TRIPOS>SUBSTRUCTURE
  1 ****   9 GROUP 4 **** **** 0

# MOE 2024.06 (io_trps.svl 2023.06)
