@<TRIPOS>MOLECULE
NONAME
48 50 1 0 0 
SMALL
USER_CHARGES


@<TRIPOS>ATOM
  1 F       -1.9340    -0.9750     1.1320 F     1 <1>  -0.1900 
  2 C       -1.9220    -2.2360     0.7790 C.ar  1 <1>   0.1900 
  3 C       -1.0810    -2.7160    -0.2310 C.ar  1 <1>   0.0830 
  4 C       -2.7840    -3.0740     1.4590 C.ar  1 <1>  -0.1500 
  5 O       -0.1940    -1.9930    -0.9730 O.3   1 <1>  -0.3630 
  6 C       -1.1400    -4.0680    -0.5270 C.ar  1 <1>  -0.1500 
  7 C       -2.8160    -4.4180     1.1370 C.ar  1 <1>  -0.1500 
  8 C       -0.0510    -0.5950    -0.8550 C.3   1 <1>   0.0400 
  9 C       -1.9980    -4.9500     0.1370 C.ar  1 <1>   0.0530 
 10 C       -2.0260    -6.3550    -0.2070 C.2   1 <1>   0.0870 
 11 O       -1.0940    -6.8640    -0.9830 O.3   1 <1>  -0.0190 
 12 C       -2.8700    -7.3760     0.0920 C.2   1 <1>  -0.2330 
 13 N       -1.2640    -8.1400    -1.2220 N.2   1 <1>  -0.4100 
 14 C       -2.3150    -8.4660    -0.5660 C.2   1 <1>   0.3720 
 15 C       -4.1150    -7.4760     0.7730 C.2   1 <1>   1.0330 
 16 N       -2.8740    -9.7370    -0.5500 N.pl3 1 <1>  -0.8520 
 17 O       -5.0360    -6.6830     0.5370 O.co2 1 <1>  -0.9000 
 18 O       -4.4150    -8.5120     1.4000 O.co2 1 <1>  -0.9000 
 19 C       -3.6770   -10.0560    -1.7590 C.3   1 <1>   0.2090 
 20 C       -5.0330    -9.3080    -1.8130 C.3   1 <1>   0.3430 
 21 N       -5.9220    -9.5290    -0.6250 N.4   1 <1>  -0.9590 
 22 C       -6.2760   -10.9430    -0.3480 C.3   1 <1>   0.3430 
 23 C       -7.0840    -8.6000    -0.6440 C.3   1 <1>   0.3430 
 24 C       -7.0150   -11.0370     0.9870 C.3   1 <1>  -0.1600 
 25 C       -7.8450    -8.6890     0.6790 C.3   1 <1>  -0.1600 
 26 C       -8.2500   -10.1290     1.0200 C.3   1 <1>  -0.1600 
 27 H       -3.4220    -2.6800     2.2290 H     1 <1>   0.1500 
 28 H       -0.4960    -4.4410    -1.3020 H     1 <1>   0.1500 
 29 H       -3.4930    -5.0570     1.6750 H     1 <1>   0.1500 
 30 H        0.6810    -0.2720    -1.5730 H     1 <1>   0.0800 
 31 H        0.2860    -0.3600     0.1390 H     1 <1>   0.0800 
 32 H       -0.9970    -0.1270    -1.0640 H     1 <1>   0.0800 
 33 H       -3.4520    -9.7790     0.3120 H     1 <1>   0.4000 
 34 H       -3.8410   -11.1180    -1.8000 H     1 <1>   0.0800 
 35 H       -3.1020    -9.7910    -2.6310 H     1 <1>   0.0800 
 36 H       -5.5550    -9.6040    -2.7070 H     1 <1>   0.0800 
 37 H       -4.8220    -8.2540    -1.8950 H     1 <1>   0.0800 
 38 H       -5.3940    -9.1930     0.2210 H     1 <1>   0.4500 
 39 H       -5.3820   -11.5410    -0.2960 H     1 <1>   0.0800 
 40 H       -6.9030   -11.3230    -1.1370 H     1 <1>   0.0800 
 41 H       -7.7410    -8.8480    -1.4600 H     1 <1>   0.0800 
 42 H       -6.7350    -7.5870    -0.7740 H     1 <1>   0.0800 
 43 H       -6.3380   -10.7560     1.7780 H     1 <1>   0.0800 
 44 H       -7.3110   -12.0570     1.1590 H     1 <1>   0.0800 
 45 H       -8.7190    -8.0660     0.6260 H     1 <1>   0.0800 
 46 H       -7.2170    -8.2900     1.4590 H     1 <1>   0.0800 
 47 H       -8.6960   -10.1560     2.0000 H     1 <1>   0.0800 
 48 H       -8.9810   -10.4780     0.3110 H     1 <1>   0.0800 
@<TRIPOS>BOND
  1   1   2  1   
  2   2   3  ar  
  3   2   4  ar  
  4   3   5  1   
  5   3   6  ar  
  6   4   7  ar  
  7   4  27  1   
  8   5   8  1   
  9   6   9  ar  
 10   6  28  1   
 11   7   9  ar  
 12   7  29  1   
 13   8  30  1   
 14   8  31  1   
 15   8  32  1   
 16   9  10  1   
 17  10  11  1   
 18  10  12  2   
 19  11  13  1   
 20  12  14  1   
 21  12  15  1   
 22  13  14  2   
 23  14  16  1   
 24  15  17  ar  
 25  15  18  ar  
 26  16  19  1   
 27  16  33  1   
 28  19  20  1   
 29  19  34  1   
 30  19  35  1   
 31  20  21  1   
 32  20  36  1   
 33  20  37  1   
 34  21  22  1   
 35  21  23  1   
 36  21  38  1   
 37  22  24  1   
 38  22  39  1   
 39  22  40  1   
 40  23  25  1   
 41  23  41  1   
 42  23  42  1   
 43  24  26  1   
 44  24  43  1   
 45  24  44  1   
 46  25  26  1   
 47  25  45  1   
 48  25  46  1   
 49  26  47  1   
 50  26  48  1   
@<TRIPOS>SUBSTRUCTURE
  1 ****  12 GROUP 4 **** **** 0

# MOE 2024.06 (io_trps.svl 2023.06)
