@<TRIPOS>MOLECULE
NONAME
44 46 1 0 0 
SMALL
USER_CHARGES


@<TRIPOS>ATOM
  1 CL      -0.2960    -1.4410    -1.2940 Cl    1 <1>  -0.1770 
  2 C       -1.7470    -1.6410    -0.3420 C.ar  1 <1>   0.1770 
  3 C       -2.5980    -0.5680    -0.1220 C.ar  1 <1>  -0.1440 
  4 C       -2.0150    -2.8950     0.1750 C.ar  1 <1>  -0.1500 
  5 C       -3.7370    -0.7760     0.6400 C.ar  1 <1>  -0.1500 
  6 C       -2.2940     0.8090    -0.6940 C.3   1 <1>  -0.0960 
  7 C       -3.1620    -3.0990     0.9280 C.ar  1 <1>  -0.1430 
  8 C       -4.0160    -2.0290     1.1610 C.ar  1 <1>  -0.1500 
  9 C       -3.4860    -4.4700     1.4900 C.3   1 <1>   0.4870 
 10 N       -3.9260    -5.3550     0.3740 N.4   1 <1>  -0.9590 
 11 C       -5.2370    -4.8840    -0.1820 C.3   1 <1>   0.3430 
 12 C       -4.1410    -6.7520     0.8680 C.3   1 <1>   0.3430 
 13 C       -6.3030    -5.7600     0.4800 C.3   1 <1>   0.2000 
 14 C       -5.6100    -7.1130     0.5970 C.3   1 <1>  -0.0800 
 15 O       -6.5320    -5.2780     1.7650 O.3   1 <1>  -0.6800 
 16 C       -5.7660    -7.9520    -0.6880 C.3   1 <1>  -0.0170 
 17 C       -4.8840    -9.1900    -0.6390 C.ar  1 <1>  -0.1430 
 18 C       -5.1100   -10.2100     0.2640 C.ar  1 <1>  -0.1500 
 19 C       -3.8110    -9.3580    -1.4930 C.ar  1 <1>  -0.1500 
 20 C       -4.2630   -11.3060     0.2850 C.ar  1 <1>   0.1600 
 21 C       -3.0260   -10.4950    -1.3910 C.ar  1 <1>   0.1600 
 22 N       -3.2220   -11.4640    -0.5140 N.ar  1 <1>  -0.6200 
 23 H       -1.3150    -3.6880    -0.0190 H     1 <1>   0.1500 
 24 H       -4.4130     0.0410     0.8330 H     1 <1>   0.1500 
 25 H       -3.0570     1.5180    -0.4260 H     1 <1>   0.0800 
 26 H       -2.2380     0.7580    -1.7670 H     1 <1>   0.0800 
 27 H       -1.3520     1.1640    -0.3150 H     1 <1>   0.0800 
 28 H       -4.9080    -2.1570     1.7530 H     1 <1>   0.1500 
 29 H       -4.2670    -4.3900     2.2300 H     1 <1>   0.0800 
 30 H       -2.6070    -4.8770     1.9630 H     1 <1>   0.0800 
 31 H       -3.2050    -5.3170    -0.3560 H     1 <1>   0.4500 
 32 H       -5.4180    -3.8390     0.0080 H     1 <1>   0.0800 
 33 H       -5.2550    -5.0530    -1.2460 H     1 <1>   0.0800 
 34 H       -3.4730    -7.4450     0.3820 H     1 <1>   0.0800 
 35 H       -3.9640    -6.7960     1.9310 H     1 <1>   0.0800 
 36 H       -7.2350    -5.7740    -0.0620 H     1 <1>   0.0800 
 37 H       -6.0070    -7.6820     1.4200 H     1 <1>   0.0800 
 38 H       -7.3410    -5.6740     2.1550 H     1 <1>   0.4000 
 39 H       -5.5120    -7.3710    -1.5570 H     1 <1>   0.0800 
 40 H       -6.7920    -8.2610    -0.7970 H     1 <1>   0.0800 
 41 H       -5.9350   -10.1730     0.9520 H     1 <1>   0.1500 
 42 H       -3.5720    -8.6270    -2.2440 H     1 <1>   0.1500 
 43 H       -4.4510   -12.0940     0.9960 H     1 <1>   0.1500 
 44 H       -2.1940   -10.6160    -2.0650 H     1 <1>   0.1500 
@<TRIPOS>BOND
  1   1   2  1   
  2   2   3  ar  
  3   2   4  ar  
  4   3   5  ar  
  5   3   6  1   
  6   4   7  ar  
  7   4  23  1   
  8   5   8  ar  
  9   5  24  1   
 10   6  25  1   
 11   6  26  1   
 12   6  27  1   
 13   7   8  ar  
 14   7   9  1   
 15   8  28  1   
 16   9  10  1   
 17   9  29  1   
 18   9  30  1   
 19  10  11  1   
 20  10  12  1   
 21  10  31  1   
 22  11  13  1   
 23  11  32  1   
 24  11  33  1   
 25  12  14  1   
 26  12  34  1   
 27  12  35  1   
 28  13  14  1   
 29  13  15  1   
 30  13  36  1   
 31  14  16  1   
 32  14  37  1   
 33  15  38  1   
 34  16  17  1   
 35  16  39  1   
 36  16  40  1   
 37  17  18  ar  
 38  17  19  ar  
 39  18  20  ar  
 40  18  41  1   
 41  19  21  ar  
 42  19  42  1   
 43  20  22  ar  
 44  20  43  1   
 45  21  22  ar  
 46  21  44  1   
@<TRIPOS>SUBSTRUCTURE
  1 ****  10 GROUP 4 **** **** 0

# MOE 2024.06 (io_trps.svl 2023.06)
