@<TRIPOS>MOLECULE
NONAME
32 33 1 0 0 
SMALL
USER_CHARGES


@<TRIPOS>ATOM
  1 F       -0.7270    -0.0650    -0.9100 F     1 <1>  -0.1900 
  2 C       -1.7450    -0.8140    -0.5480 C.ar  1 <1>   0.1900 
  3 C       -2.9680    -0.2990    -0.1320 C.ar  1 <1>   0.3920 
  4 C       -1.5900    -2.1730    -0.5830 C.ar  1 <1>   0.1600 
  5 O       -3.2830     1.0140    -0.0350 O.3   1 <1>  -0.3630 
  6 N       -3.9450    -1.1070     0.2150 N.ar  1 <1>  -0.6200 
  7 N       -2.5620    -2.9890    -0.2360 N.ar  1 <1>  -0.6200 
  8 C       -2.3980     2.0760    -0.3140 C.3   1 <1>   0.0400 
  9 C       -3.7040    -2.4140     0.1490 C.ar  1 <1>   0.7200 
 10 N       -4.7300    -3.2530     0.5180 N.pl3 1 <1>  -0.8380 
 11 C       -4.7190    -4.7010     0.1640 C.3   1 <1>   0.3900 
 12 C       -5.8720    -2.7780     1.3570 C.3   1 <1>   0.1290 
 13 C       -6.1040    -5.1700    -0.2460 C.2   1 <1>  -0.1810 
 14 C       -6.8590    -4.6450    -1.2870 C.2   1 <1>   0.1390 
 15 C       -6.8780    -6.1490     0.2730 C.2   1 <1>  -0.3020 
 16 N       -8.0050    -5.2430    -1.4140 N.2   1 <1>  -0.7070 
 17 N       -8.0160    -6.1730    -0.4470 N.pl3 1 <1>   0.3140 
 18 C       -9.1610    -7.0700    -0.2640 C.3   1 <1>   0.0160 
 19 H       -0.6530    -2.5970    -0.9010 H     1 <1>   0.1500 
 20 H       -2.9180     2.9990    -0.1330 H     1 <1>   0.0800 
 21 H       -2.1010     2.0240    -1.3470 H     1 <1>   0.0800 
 22 H       -1.5460     2.0050     0.3380 H     1 <1>   0.0800 
 23 H       -4.3800    -5.2660     1.0140 H     1 <1>   0.0800 
 24 H       -4.0470    -4.8900    -0.6550 H     1 <1>   0.0800 
 25 H       -5.5810    -1.9280     1.9500 H     1 <1>   0.0800 
 26 H       -6.1960    -3.5590     2.0220 H     1 <1>   0.0800 
 27 H       -6.6930    -2.4940     0.7210 H     1 <1>   0.0800 
 28 H       -6.5350    -3.8310    -1.9160 H     1 <1>   0.1500 
 29 H       -6.6860    -6.8150     1.0930 H     1 <1>   0.1500 
 30 H       -9.0600    -7.6000     0.6640 H     1 <1>   0.0800 
 31 H       -9.1920    -7.7640    -1.0820 H     1 <1>   0.0800 
 32 H      -10.0610    -6.4850    -0.2540 H     1 <1>   0.0800 
@<TRIPOS>BOND
  1   1   2  1   
  2   2   3  ar  
  3   2   4  ar  
  4   3   5  1   
  5   3   6  ar  
  6   4   7  ar  
  7   4  19  1   
  8   5   8  1   
  9   6   9  ar  
 10   7   9  ar  
 11   8  20  1   
 12   8  21  1   
 13   8  22  1   
 14   9  10  1   
 15  10  11  1   
 16  10  12  1   
 17  11  13  1   
 18  11  23  1   
 19  11  24  1   
 20  12  25  1   
 21  12  26  1   
 22  12  27  1   
 23  13  14  1   
 24  13  15  2   
 25  14  16  2   
 26  14  28  1   
 27  15  17  1   
 28  15  29  1   
 29  16  17  1   
 30  17  18  1   
 31  18  30  1   
 32  18  31  1   
 33  18  32  1   
@<TRIPOS>SUBSTRUCTURE
  1 ****  10 GROUP 4 **** **** 0

# MOE 2024.06 (io_trps.svl 2023.06)
