@<TRIPOS>MOLECULE
NONAME
46 48 1 0 0 
SMALL
USER_CHARGES


@<TRIPOS>ATOM
  1 O       -0.7860     1.0960     0.3090 O.2   1 <1>  -0.5700 
  2 C       -0.4940     2.1910    -0.0980 C.2   1 <1>   0.5690 
  3 N       -0.5070     3.2590     0.7340 N.am  1 <1>  -0.7300 
  4 C       -0.1250     2.3900    -1.5750 C.3   1 <1>   0.1810 
  5 C       -0.0660     4.6080     0.3160 C.3   1 <1>   0.3640 
  6 O        0.5260     3.6190    -1.8290 O.3   1 <1>  -0.5600 
  7 C       -0.9120     5.6570     1.0190 C.ar  1 <1>  -0.1440 
  8 C       -0.1030     4.7380    -1.2250 C.3   1 <1>   0.2610 
  9 C       -2.2980     5.6400     0.9390 C.ar  1 <1>   0.1600 
 10 C       -0.3050     6.6540     1.7600 C.ar  1 <1>  -0.1500 
 11 C        0.4890     6.0790    -1.6750 C.2   1 <1>   0.5690 
 12 N       -3.1020     6.5140     1.5220 N.ar  1 <1>  -0.6200 
 13 C       -1.1290     7.5660     2.3820 C.ar  1 <1>  -0.1500 
 14 O       -0.2660     6.8320    -2.2490 O.2   1 <1>  -0.5700 
 15 N        1.7820     6.4600    -1.4040 N.am  1 <1>  -0.6600 
 16 C       -2.5000     7.4530     2.2330 C.ar  1 <1>   0.1600 
 17 C        2.1890     7.8890    -1.5440 C.3   1 <1>   0.3200 
 18 C        2.8840     5.5690    -0.9360 C.3   1 <1>   0.0600 
 19 C        2.2050     8.5740    -0.1810 C.2   1 <1>   0.0060 
 20 N        3.2130     8.5070     0.6340 N.2   1 <1>  -0.5650 
 21 N        1.1730     9.3220     0.2940 N.pl3 1 <1>   0.0480 
 22 C        2.8310     9.2510     1.6860 C.2   1 <1>   0.0770 
 23 C        1.5930     9.7550     1.4970 C.2   1 <1>  -0.3020 
 24 C       -0.1410     9.6310    -0.3140 C.3   1 <1>   0.0960 
 25 C       -0.0390    10.8480    -1.2390 C.3   1 <1>  -0.2400 
 26 H       -0.7290     3.1130     1.7210 H     1 <1>   0.3700 
 27 H       -1.0180     2.3510    -2.1730 H     1 <1>   0.0800 
 28 H        0.5330     1.6000    -1.8880 H     1 <1>   0.0800 
 29 H        0.9510     4.7290     0.6440 H     1 <1>   0.0800 
 30 H       -1.1300     4.7310    -1.5450 H     1 <1>   0.0800 
 31 H       -2.7770     4.8630     0.3660 H     1 <1>   0.1500 
 32 H        0.7670     6.7290     1.8550 H     1 <1>   0.1500 
 33 H       -0.7120     8.3580     2.9770 H     1 <1>   0.1500 
 34 H       -3.1350     8.1720     2.7230 H     1 <1>   0.1500 
 35 H        3.1770     7.9370    -1.9670 H     1 <1>   0.0800 
 36 H        1.5320     8.4110    -2.2150 H     1 <1>   0.0800 
 37 H        3.7620     5.7320    -1.5370 H     1 <1>   0.0800 
 38 H        2.6180     4.5310    -1.0160 H     1 <1>   0.0800 
 39 H        3.1250     5.7940     0.0890 H     1 <1>   0.0800 
 40 H        3.4780     9.3910     2.5360 H     1 <1>   0.1500 
 41 H        1.0070    10.3880     2.1370 H     1 <1>   0.1500 
 42 H       -0.4930     8.7770    -0.8570 H     1 <1>   0.0800 
 43 H       -0.8440     9.8320     0.4730 H     1 <1>   0.0800 
 44 H        0.6460    10.6550    -2.0450 H     1 <1>   0.0800 
 45 H        0.2940    11.7090    -0.6870 H     1 <1>   0.0800 
 46 H       -1.0050    11.0630    -1.6600 H     1 <1>   0.0800 
@<TRIPOS>BOND
  1   1   2  2   
  2   2   3  am  
  3   2   4  1   
  4   3   5  1   
  5   3  26  1   
  6   4   6  1   
  7   4  27  1   
  8   4  28  1   
  9   5   7  1   
 10   5   8  1   
 11   5  29  1   
 12   6   8  1   
 13   7   9  ar  
 14   7  10  ar  
 15   8  11  1   
 16   8  30  1   
 17   9  12  ar  
 18   9  31  1   
 19  10  13  ar  
 20  10  32  1   
 21  11  14  2   
 22  11  15  am  
 23  12  16  ar  
 24  13  16  ar  
 25  13  33  1   
 26  15  17  1   
 27  15  18  1   
 28  16  34  1   
 29  17  19  1   
 30  17  35  1   
 31  17  36  1   
 32  18  37  1   
 33  18  38  1   
 34  18  39  1   
 35  19  20  2   
 36  19  21  1   
 37  20  22  1   
 38  21  23  1   
 39  21  24  1   
 40  22  23  2   
 41  22  40  1   
 42  23  41  1   
 43  24  25  1   
 44  24  42  1   
 45  24  43  1   
 46  25  44  1   
 47  25  45  1   
 48  25  46  1   
@<TRIPOS>SUBSTRUCTURE
  1 ****   7 GROUP 4 **** **** 0

# MOE 2024.06 (io_trps.svl 2023.06)
