@<TRIPOS>MOLECULE
NONAME
61 64 1 0 0 
SMALL
USER_CHARGES


@<TRIPOS>ATOM
  1 O       -0.6250    -0.1740     1.0150 O.2   1 <1>  -0.5700 
  2 C       -1.5660     0.5650     1.1810 C.2   1 <1>   0.5690 
  3 N       -2.7910     0.1040     1.5740 N.am  1 <1>  -0.6600 
  4 C       -1.3450     2.0380     0.9210 C.3   1 <1>  -0.0990 
  5 C       -4.0620     0.8580     1.5570 C.3   1 <1>   0.1400 
  6 C       -3.0850    -1.3220     1.8090 C.3   1 <1>   0.1400 
  7 C       -1.6280     2.3560    -0.5490 C.3   1 <1>   0.0960 
  8 C       -5.1040    -0.1460     1.0520 C.3   1 <1>  -0.0800 
  9 C       -4.4560    -1.5520     1.1630 C.3   1 <1>  -0.0800 
 10 N       -1.5500     3.8110    -0.7750 N.pl3 1 <1>   0.3140 
 11 C       -5.6680     0.2190    -0.3410 C.3   1 <1>   0.4240 
 12 C       -4.3080    -2.2980    -0.1790 C.3   1 <1>  -0.1600 
 13 N       -2.6220     4.5770    -0.5380 N.2   1 <1>  -0.7070 
 14 C       -0.4980     4.5490    -1.1810 C.2   1 <1>  -0.3320 
 15 O       -4.6160     0.4380    -1.2120 O.3   1 <1>  -0.6800 
 16 C       -6.5290     1.4990    -0.2550 C.ar  1 <1>  -0.1440 
 17 C       -6.4310    -0.9910    -0.9070 C.3   1 <1>  -0.1600 
 18 C       -5.5880    -2.2810    -1.0350 C.3   1 <1>  -0.1600 
 19 C       -2.2410     5.7820    -0.7990 C.2   1 <1>   0.1080 
 20 C       -0.8980     5.8610    -1.2000 C.2   1 <1>  -0.0860 
 21 C        0.8450     3.9240    -1.5490 C.3   1 <1>  -0.0600 
 22 C       -6.0530     2.7340    -0.6890 C.ar  1 <1>  -0.1500 
 23 C       -7.8090     1.4550     0.2930 C.ar  1 <1>  -0.1500 
 24 C       -3.1960     6.9480    -0.6550 C.3   1 <1>  -0.0590 
 25 C       -0.2060     7.0880    -1.5130 C.2   1 <1>   0.5950 
 26 C       -6.8260     3.8770    -0.5880 C.ar  1 <1>  -0.1500 
 27 C       -8.5870     2.5960     0.3920 C.ar  1 <1>  -0.1500 
 28 O       -0.7480     8.0760    -1.9420 O.2   1 <1>  -0.5700 
 29 C        1.2830     7.1990    -1.2720 C.3   1 <1>  -0.1790 
 30 C       -8.0960     3.8100    -0.0490 C.ar  1 <1>  -0.1500 
 31 H       -1.9810     2.6220     1.5600 H     1 <1>   0.0800 
 32 H       -0.3240     2.2780     1.1520 H     1 <1>   0.0800 
 33 H       -4.3010     1.1660     2.5600 H     1 <1>   0.0800 
 34 H       -4.0080     1.7310     0.9310 H     1 <1>   0.0800 
 35 H       -2.3230    -1.9570     1.3890 H     1 <1>   0.0800 
 36 H       -3.1380    -1.4940     2.8710 H     1 <1>   0.0800 
 37 H       -2.6170     2.0350    -0.8180 H     1 <1>   0.0800 
 38 H       -0.9260     1.8500    -1.1850 H     1 <1>   0.0800 
 39 H       -5.9300    -0.1150     1.7390 H     1 <1>   0.0800 
 40 H       -5.0500    -2.1670     1.8170 H     1 <1>   0.0800 
 41 H       -3.5010    -1.8600    -0.7400 H     1 <1>   0.0800 
 42 H       -4.0230    -3.3200     0.0090 H     1 <1>   0.0800 
 43 H       -4.0980    -0.3860    -1.2440 H     1 <1>   0.4000 
 44 H       -7.2520    -1.2120    -0.2520 H     1 <1>   0.0800 
 45 H       -6.8560    -0.7290    -1.8600 H     1 <1>   0.0800 
 46 H       -6.2070    -3.1190    -0.7620 H     1 <1>   0.0800 
 47 H       -5.3100    -2.4210    -2.0670 H     1 <1>   0.0800 
 48 H        1.4850     4.6280    -2.0430 H     1 <1>   0.0800 
 49 H        0.6980     3.1000    -2.2240 H     1 <1>   0.0800 
 50 H        1.3410     3.5640    -0.6650 H     1 <1>   0.0800 
 51 H       -5.0670     2.8320    -1.1120 H     1 <1>   0.1500 
 52 H       -8.2210     0.5320     0.6570 H     1 <1>   0.1500 
 53 H       -2.7650     7.7020    -0.0230 H     1 <1>   0.0800 
 54 H       -4.1210     6.6150    -0.2200 H     1 <1>   0.0800 
 55 H       -3.3980     7.3710    -1.6220 H     1 <1>   0.0800 
 56 H       -6.4290     4.8170    -0.9320 H     1 <1>   0.1500 
 57 H       -9.5750     2.5400     0.8150 H     1 <1>   0.1500 
 58 H        1.5880     6.5220    -0.4960 H     1 <1>   0.0800 
 59 H        1.5210     8.2010    -0.9650 H     1 <1>   0.0800 
 60 H        1.8120     6.9810    -2.1800 H     1 <1>   0.0800 
 61 H       -8.6980     4.6990     0.0270 H     1 <1>   0.1500 
@<TRIPOS>BOND
  1   1   2  2   
  2   2   3  am  
  3   2   4  1   
  4   3   5  1   
  5   3   6  1   
  6   4   7  1   
  7   4  31  1   
  8   4  32  1   
  9   5   8  1   
 10   5  33  1   
 11   5  34  1   
 12   6   9  1   
 13   6  35  1   
 14   6  36  1   
 15   7  10  1   
 16   7  37  1   
 17   7  38  1   
 18   8   9  1   
 19   8  11  1   
 20   8  39  1   
 21   9  12  1   
 22   9  40  1   
 23  10  13  1   
 24  10  14  1   
 25  11  15  1   
 26  11  16  1   
 27  11  17  1   
 28  12  18  1   
 29  12  41  1   
 30  12  42  1   
 31  13  19  2   
 32  14  20  2   
 33  14  21  1   
 34  15  43  1   
 35  16  22  ar  
 36  16  23  ar  
 37  17  18  1   
 38  17  44  1   
 39  17  45  1   
 40  18  46  1   
 41  18  47  1   
 42  19  20  1   
 43  19  24  1   
 44  20  25  1   
 45  21  48  1   
 46  21  49  1   
 47  21  50  1   
 48  22  26  ar  
 49  22  51  1   
 50  23  27  ar  
 51  23  52  1   
 52  24  53  1   
 53  24  54  1   
 54  24  55  1   
 55  25  28  2   
 56  25  29  1   
 57  26  30  ar  
 58  26  56  1   
 59  27  30  ar  
 60  27  57  1   
 61  29  58  1   
 62  29  59  1   
 63  29  60  1   
 64  30  61  1   
@<TRIPOS>SUBSTRUCTURE
  1 ****   7 GROUP 4 **** **** 0

# MOE 2024.06 (io_trps.svl 2023.06)
