@<TRIPOS>MOLECULE
NONAME
61 64 1 0 0 
SMALL
USER_CHARGES


@<TRIPOS>ATOM
  1 S       -0.0520     0.7020    -1.2550 S.3   1 <1>  -0.3320 
  2 C        0.0540     2.4000    -0.6860 C.ar  1 <1>   0.1020 
  3 C       -1.8320     0.3540    -1.6110 C.3   1 <1>  -0.0100 
  4 C        1.3000     2.8710    -0.3620 C.ar  1 <1>  -0.1500 
  5 C       -1.0690     3.2170    -0.5720 C.ar  1 <1>  -0.1500 
  6 C        1.4580     4.1830     0.0880 C.ar  1 <1>   0.3610 
  7 C       -0.9230     4.5100    -0.1300 C.ar  1 <1>  -0.1500 
  8 N        2.7070     4.6710     0.4200 N.ar  1 <1>  -0.1790 
  9 C        0.3400     5.0290     0.2110 C.ar  1 <1>   0.0000 
 10 C        2.9600     5.9060     0.8620 C.ar  1 <1>   0.4610 
 11 C        0.5670     6.3600     0.6730 C.ar  1 <1>  -0.1430 
 12 N        4.2350     6.2610     1.1580 N.pl3 1 <1>  -0.8380 
 13 C        1.8330     6.7640     0.9780 C.ar  1 <1>  -0.1500 
 14 C       -0.6020     7.3280     0.8200 C.3   1 <1>  -0.0970 
 15 C        4.6360     7.5850     1.7450 C.3   1 <1>   0.2090 
 16 C        5.4670     5.4490     0.8800 C.3   1 <1>   0.2090 
 17 C        5.4270     8.3900     0.7020 C.3   1 <1>  -0.0800 
 18 C        6.2990     6.1690    -0.1850 C.3   1 <1>  -0.1600 
 19 C        6.6710     7.5940     0.2520 C.3   1 <1>  -0.1600 
 20 C        5.8060     9.7650     1.2840 C.3   1 <1>   0.1100 
 21 N        6.6260    10.5610     0.3510 N.3   1 <1>  -0.8100 
 22 C        7.3650    11.6240     1.0620 C.3   1 <1>   0.1100 
 23 C        5.8460    11.1140    -0.7790 C.3   1 <1>   0.1100 
 24 C        8.2830    12.4140     0.1050 C.3   1 <1>   0.3430 
 25 C        6.7450    11.9010    -1.7550 C.3   1 <1>   0.3430 
 26 N        7.5170    12.9870    -1.0560 N.4   1 <1>  -0.9590 
 27 C        8.4250    13.7000    -2.0030 C.3   1 <1>   0.2630 
 28 H       -1.9010    -0.6640    -1.9530 H     1 <1>   0.0800 
 29 H       -2.1590     1.0340    -2.3770 H     1 <1>   0.0800 
 30 H       -2.3880     0.4860    -0.7010 H     1 <1>   0.0800 
 31 H        2.1440     2.2130    -0.4610 H     1 <1>   0.1500 
 32 H       -2.0450     2.8460    -0.8260 H     1 <1>   0.1500 
 33 H       -1.7980     5.1300    -0.0480 H     1 <1>   0.1500 
 34 H        3.4980     4.0460     0.3400 H     1 <1>   0.4570 
 35 H        1.9860     7.7690     1.3110 H     1 <1>   0.1500 
 36 H       -1.3210     6.9400     1.5210 H     1 <1>   0.0800 
 37 H       -1.0860     7.4760    -0.1300 H     1 <1>   0.0800 
 38 H       -0.2740     8.2870     1.1790 H     1 <1>   0.0800 
 39 H        5.2580     7.4100     2.6080 H     1 <1>   0.0800 
 40 H        3.7910     8.1520     2.0860 H     1 <1>   0.0800 
 41 H        5.2360     4.4580     0.5370 H     1 <1>   0.0800 
 42 H        6.0450     5.3540     1.7860 H     1 <1>   0.0800 
 43 H        4.7770     8.5400    -0.1410 H     1 <1>   0.0800 
 44 H        5.7410     6.2060    -1.1040 H     1 <1>   0.0800 
 45 H        7.1990     5.6090    -0.3720 H     1 <1>   0.0800 
 46 H        7.3740     7.5420     1.0660 H     1 <1>   0.0800 
 47 H        7.1570     8.0990    -0.5650 H     1 <1>   0.0800 
 48 H        6.3710     9.5960     2.1870 H     1 <1>   0.0800 
 49 H        4.9190    10.3150     1.5520 H     1 <1>   0.0800 
 50 H        7.9780    11.1770     1.8270 H     1 <1>   0.0800 
 51 H        6.6750    12.2970     1.5420 H     1 <1>   0.0800 
 52 H        5.0640    11.7560    -0.4090 H     1 <1>   0.0800 
 53 H        5.3850    10.3110    -1.3260 H     1 <1>   0.0800 
 54 H        9.0450    11.7450    -0.2580 H     1 <1>   0.0800 
 55 H        8.7680    13.2050     0.6530 H     1 <1>   0.0800 
 56 H        6.1340    12.3270    -2.5330 H     1 <1>   0.0800 
 57 H        7.4310    11.2080    -2.2130 H     1 <1>   0.0800 
 58 H        6.8330    13.6540    -0.6740 H     1 <1>   0.4500 
 59 H        9.1490    13.0150    -2.4130 H     1 <1>   0.0800 
 60 H        8.9500    14.4920    -1.4940 H     1 <1>   0.0800 
 61 H        7.8590    14.1300    -2.8130 H     1 <1>   0.0800 
@<TRIPOS>BOND
  1   1   2  1   
  2   1   3  1   
  3   2   4  ar  
  4   2   5  ar  
  5   3  28  1   
  6   3  29  1   
  7   3  30  1   
  8   4   6  ar  
  9   4  31  1   
 10   5   7  ar  
 11   5  32  1   
 12   6   8  ar  
 13   6   9  ar  
 14   7   9  ar  
 15   7  33  1   
 16   8  10  ar  
 17   8  34  1   
 18   9  11  ar  
 19  10  12  1   
 20  10  13  ar  
 21  11  13  ar  
 22  11  14  1   
 23  12  15  1   
 24  12  16  1   
 25  13  35  1   
 26  14  36  1   
 27  14  37  1   
 28  14  38  1   
 29  15  17  1   
 30  15  39  1   
 31  15  40  1   
 32  16  18  1   
 33  16  41  1   
 34  16  42  1   
 35  17  19  1   
 36  17  20  1   
 37  17  43  1   
 38  18  19  1   
 39  18  44  1   
 40  18  45  1   
 41  19  46  1   
 42  19  47  1   
 43  20  21  1   
 44  20  48  1   
 45  20  49  1   
 46  21  22  1   
 47  21  23  1   
 48  22  24  1   
 49  22  50  1   
 50  22  51  1   
 51  23  25  1   
 52  23  52  1   
 53  23  53  1   
 54  24  26  1   
 55  24  54  1   
 56  24  55  1   
 57  25  26  1   
 58  25  56  1   
 59  25  57  1   
 60  26  27  1   
 61  26  58  1   
 62  27  59  1   
 63  27  60  1   
 64  27  61  1   
@<TRIPOS>SUBSTRUCTURE
  1 ****  12 GROUP 4 **** **** 0

# MOE 2024.06 (io_trps.svl 2023.06)
