@<TRIPOS>MOLECULE
NONAME
53 57 1 0 0 
SMALL
USER_CHARGES


@<TRIPOS>ATOM
  1 S        1.9190     0.5280     1.3270 S.3   1 <1>  -0.0800 
  2 C        0.2000     0.6630     1.6260 C.ar  1 <1>   0.0400 
  3 C        1.6610    -1.0790     0.6510 C.2   1 <1>   0.1980 
  4 C       -0.4020    -0.5030     1.1900 C.ar  1 <1>   0.2270 
  5 C       -0.4950     1.7150     2.1930 C.ar  1 <1>  -0.1500 
  6 N        0.4480    -1.4620     0.6420 N.2   1 <1>  -0.5650 
  7 C        2.8980    -1.8020     0.1440 C.3   1 <1>   0.1000 
  8 C       -1.7770    -0.6220     1.3270 C.ar  1 <1>  -0.1500 
  9 C       -1.8670     1.5790     2.3230 C.ar  1 <1>  -0.1500 
 10 C        3.1230    -1.4330    -1.3310 C.3   1 <1>   0.1400 
 11 C        2.7930    -3.3270     0.3160 C.3   1 <1>  -0.1600 
 12 C       -2.5030     0.4160     1.8920 C.ar  1 <1>  -0.1500 
 13 N        4.3050    -2.1610    -1.9080 N.am  1 <1>  -0.6600 
 14 C        4.0220    -4.0220    -0.2870 C.3   1 <1>  -0.1600 
 15 C        5.3420    -1.5970    -2.6190 C.2   1 <1>   0.5690 
 16 C        4.2160    -3.6460    -1.7600 C.3   1 <1>   0.1400 
 17 O        6.2300    -2.2630    -3.0910 O.2   1 <1>  -0.5700 
 18 C        5.4560    -0.1020    -2.8200 C.3   1 <1>  -0.0990 
 19 C        6.3210     0.5430    -1.7270 C.3   1 <1>   0.2810 
 20 N        5.8330     0.0930    -0.3990 N.am  1 <1>  -0.7300 
 21 C        6.3370     2.0780    -1.8380 C.2   1 <1>   0.5690 
 22 C        6.3080     0.4210     0.8260 C.2   1 <1>   0.5440 
 23 O        5.8320     2.6340    -2.7820 O.2   1 <1>  -0.5700 
 24 N        6.9370     2.8380    -0.8840 N.am  1 <1>  -0.5470 
 25 O        5.7940    -0.1910     1.7400 O.2   1 <1>  -0.5700 
 26 C        7.3780     1.3700     1.0740 C.ar  1 <1>   0.0860 
 27 C        7.6530     2.4920     0.2670 C.ar  1 <1>   0.1170 
 28 C        8.1850     1.1730     2.1990 C.ar  1 <1>  -0.1500 
 29 C        8.6910     3.3520     0.6170 C.ar  1 <1>  -0.1500 
 30 C        9.2140     2.0300     2.5300 C.ar  1 <1>  -0.1500 
 31 C        9.4690     3.1290     1.7330 C.ar  1 <1>  -0.1500 
 32 H        0.0190     2.6010     2.5180 H     1 <1>   0.1500 
 33 H        3.7360    -1.4590     0.7230 H     1 <1>   0.0800 
 34 H       -2.2570    -1.5230     0.9930 H     1 <1>   0.1500 
 35 H       -2.4470     2.3740     2.7590 H     1 <1>   0.1500 
 36 H        3.2410    -0.3690    -1.3960 H     1 <1>   0.0800 
 37 H        2.2450    -1.7000    -1.8950 H     1 <1>   0.0800 
 38 H        1.9030    -3.6840    -0.1740 H     1 <1>   0.0800 
 39 H        2.7140    -3.5660     1.3630 H     1 <1>   0.0800 
 40 H       -3.5700     0.3230     1.9990 H     1 <1>   0.1500 
 41 H        3.9060    -5.0890    -0.2090 H     1 <1>   0.0800 
 42 H        4.9070    -3.7490     0.2620 H     1 <1>   0.0800 
 43 H        5.1060    -4.1230    -2.1330 H     1 <1>   0.0800 
 44 H        3.3830    -4.0040    -2.3410 H     1 <1>   0.0800 
 45 H        4.4930     0.3640    -2.8760 H     1 <1>   0.0800 
 46 H        5.9280     0.0710    -3.7700 H     1 <1>   0.0800 
 47 H        7.3310     0.1910    -1.8470 H     1 <1>   0.0800 
 48 H        5.2750    -0.7650    -0.4200 H     1 <1>   0.3700 
 49 H        6.9040     3.8320    -1.1170 H     1 <1>   0.3700 
 50 H        7.9950     0.3230     2.8340 H     1 <1>   0.1500 
 51 H        8.8990     4.2100     0.0030 H     1 <1>   0.1500 
 52 H        9.8150     1.8460     3.4050 H     1 <1>   0.1500 
 53 H       10.2690     3.8050     1.9860 H     1 <1>   0.1500 
@<TRIPOS>BOND
  1   1   2  1   
  2   1   3  1   
  3   2   4  ar  
  4   2   5  ar  
  5   3   6  2   
  6   3   7  1   
  7   4   6  1   
  8   4   8  ar  
  9   5   9  ar  
 10   5  32  1   
 11   7  10  1   
 12   7  11  1   
 13   7  33  1   
 14   8  12  ar  
 15   8  34  1   
 16   9  12  ar  
 17   9  35  1   
 18  10  13  1   
 19  10  36  1   
 20  10  37  1   
 21  11  14  1   
 22  11  38  1   
 23  11  39  1   
 24  12  40  1   
 25  13  15  am  
 26  13  16  1   
 27  14  16  1   
 28  14  41  1   
 29  14  42  1   
 30  15  17  2   
 31  15  18  1   
 32  16  43  1   
 33  16  44  1   
 34  18  19  1   
 35  18  45  1   
 36  18  46  1   
 37  19  20  1   
 38  19  21  1   
 39  19  47  1   
 40  20  22  am  
 41  20  48  1   
 42  21  23  2   
 43  21  24  am  
 44  22  25  2   
 45  22  26  1   
 46  24  27  1   
 47  24  49  1   
 48  26  27  ar  
 49  26  28  ar  
 50  27  29  ar  
 51  28  30  ar  
 52  28  50  1   
 53  29  31  ar  
 54  29  51  1   
 55  30  31  ar  
 56  30  52  1   
 57  31  53  1   
@<TRIPOS>SUBSTRUCTURE
  1 ****  20 GROUP 4 **** **** 0

# MOE 2024.06 (io_trps.svl 2023.06)
