@<TRIPOS>MOLECULE
NONAME
50 52 1 0 0 
SMALL
USER_CHARGES


@<TRIPOS>ATOM
  1 O        0.8890    -0.5310     1.9070 O.2   1 <1>  -0.5700 
  2 C        0.8350    -1.7330     1.7460 C.2   1 <1>   0.5440 
  3 N        0.4630    -2.4530     2.8260 N.am  1 <1>  -0.8000 
  4 C        1.1690    -2.3420     0.4760 C.ar  1 <1>   0.0860 
  5 C        0.6370    -3.5780     0.0420 C.ar  1 <1>   0.4100 
  6 C        2.0610    -1.6980    -0.3740 C.ar  1 <1>  -0.1500 
  7 N        0.9700    -4.1600    -1.1120 N.ar  1 <1>  -0.6200 
  8 N       -0.3180    -4.2710     0.7700 N.pl3 1 <1>  -0.8380 
  9 C        2.3920    -2.2980    -1.5650 C.ar  1 <1>  -0.1500 
 10 C        1.8270    -3.5190    -1.8790 C.ar  1 <1>   0.1600 
 11 C       -0.2770    -5.7740     0.8020 C.3   1 <1>   0.2090 
 12 C       -1.7220    -3.7540     0.6990 C.3   1 <1>   0.2090 
 13 C       -1.1940    -6.4080    -0.2660 C.3   1 <1>   0.3430 
 14 C       -2.5420    -4.4810    -0.3960 C.3   1 <1>   0.2000 
 15 O       -2.4880    -5.8690    -0.1770 O.3   1 <1>  -0.5600 
 16 C       -1.2610    -7.9220    -0.0850 C.ar  1 <1>  -0.1430 
 17 C       -4.0330    -4.0350    -0.4970 C.3   1 <1>   0.0000 
 18 C       -0.3860    -8.7360    -0.7900 C.ar  1 <1>  -0.1500 
 19 C       -2.1720    -8.5060     0.7850 C.ar  1 <1>  -0.1500 
 20 C       -4.7080    -4.7740    -1.6680 C.3   1 <1>  -0.2400 
 21 C       -4.1370    -2.5250    -0.7800 C.3   1 <1>  -0.2400 
 22 C       -4.8220    -4.3460     0.7890 C.3   1 <1>  -0.2400 
 23 C       -0.4190   -10.1110    -0.6280 C.ar  1 <1>  -0.1500 
 24 C       -2.2060    -9.8800     0.9490 C.ar  1 <1>  -0.1500 
 25 C       -1.3290   -10.6840     0.2430 C.ar  1 <1>  -0.1500 
 26 H        0.1850    -1.9810     3.6850 H     1 <1>   0.3700 
 27 H        0.1910    -3.4340     2.6990 H     1 <1>   0.3700 
 28 H        2.4840    -0.7470    -0.0960 H     1 <1>   0.1500 
 29 H        3.0820    -1.8290    -2.2440 H     1 <1>   0.1500 
 30 H        2.0950    -3.9870    -2.8110 H     1 <1>   0.1500 
 31 H        0.7310    -6.1160     0.6440 H     1 <1>   0.0800 
 32 H       -0.5870    -6.1170     1.7720 H     1 <1>   0.0800 
 33 H       -2.1930    -3.8900     1.6550 H     1 <1>   0.0800 
 34 H       -1.7000    -2.7000     0.4890 H     1 <1>   0.0800 
 35 H       -0.8120    -6.1860    -1.2470 H     1 <1>   0.0800 
 36 H       -2.0730    -4.2850    -1.3450 H     1 <1>   0.0800 
 37 H        0.3270    -8.3030    -1.4700 H     1 <1>   0.1500 
 38 H       -2.8610    -7.8880     1.3340 H     1 <1>   0.1500 
 39 H       -5.7310    -4.4600    -1.7810 H     1 <1>   0.0800 
 40 H       -4.7030    -5.8370    -1.4970 H     1 <1>   0.0800 
 41 H       -4.1880    -4.5800    -2.5880 H     1 <1>   0.0800 
 42 H       -5.1620    -2.2460    -0.9540 H     1 <1>   0.0800 
 43 H       -3.5660    -2.2650    -1.6540 H     1 <1>   0.0800 
 44 H       -3.7780    -1.9440     0.0500 H     1 <1>   0.0800 
 45 H       -5.8590    -4.0880     0.6650 H     1 <1>   0.0800 
 46 H       -4.4400    -3.7930     1.6260 H     1 <1>   0.0800 
 47 H       -4.7640    -5.3960     1.0190 H     1 <1>   0.0800 
 48 H        0.2620   -10.7340    -1.1800 H     1 <1>   0.1500 
 49 H       -2.9170   -10.3220     1.6250 H     1 <1>   0.1500 
 50 H       -1.3560   -11.7520     0.3690 H     1 <1>   0.1500 
@<TRIPOS>BOND
  1   1   2  2   
  2   2   3  am  
  3   2   4  1   
  4   3  26  1   
  5   3  27  1   
  6   4   5  ar  
  7   4   6  ar  
  8   5   7  ar  
  9   5   8  1   
 10   6   9  ar  
 11   6  28  1   
 12   7  10  ar  
 13   8  11  1   
 14   8  12  1   
 15   9  10  ar  
 16   9  29  1   
 17  10  30  1   
 18  11  13  1   
 19  11  31  1   
 20  11  32  1   
 21  12  14  1   
 22  12  33  1   
 23  12  34  1   
 24  13  15  1   
 25  13  16  1   
 26  13  35  1   
 27  14  15  1   
 28  14  17  1   
 29  14  36  1   
 30  16  18  ar  
 31  16  19  ar  
 32  17  20  1   
 33  17  21  1   
 34  17  22  1   
 35  18  23  ar  
 36  18  37  1   
 37  19  24  ar  
 38  19  38  1   
 39  20  39  1   
 40  20  40  1   
 41  20  41  1   
 42  21  42  1   
 43  21  43  1   
 44  21  44  1   
 45  22  45  1   
 46  22  46  1   
 47  22  47  1   
 48  23  25  ar  
 49  23  48  1   
 50  24  25  ar  
 51  24  49  1   
 52  25  50  1   
@<TRIPOS>SUBSTRUCTURE
  1 ****   8 GROUP 4 **** **** 0

# MOE 2024.06 (io_trps.svl 2023.06)
