@<TRIPOS>MOLECULE
NONAME
34 35 1 0 0 
SMALL
USER_CHARGES


@<TRIPOS>ATOM
  1 S       -0.2170     0.7660     0.6490 S.3   1 <1>  -0.0800 
  2 C        1.3330     0.8610    -0.1690 C.2   1 <1>  -0.1100 
  3 C        0.2440     2.0470     1.7540 C.2   1 <1>  -0.1100 
  4 C        2.1180     1.8080     0.3850 C.2   1 <1>  -0.1810 
  5 C        1.4880     2.4820     1.4850 C.2   1 <1>  -0.1500 
  6 C        3.5290     2.2070    -0.0290 C.3   1 <1>   0.4700 
  7 N        3.4490     3.5800    -0.5340 N.pl3 1 <1>  -0.8690 
  8 C        4.0980     1.3370    -1.1440 C.3   1 <1>  -0.2400 
  9 C        4.2590     4.6040    -0.1180 C.ar  1 <1>   0.4100 
 10 N        5.3980     4.2750     0.4540 N.ar  1 <1>  -0.6200 
 11 C        3.8910     5.9330    -0.2960 C.ar  1 <1>  -0.1430 
 12 C        6.1610     5.2740     0.8430 C.ar  1 <1>   0.4770 
 13 C        4.7790     6.8780     0.1590 C.ar  1 <1>   0.1600 
 14 C        2.5590     6.2820    -0.9700 C.3   1 <1>  -0.0170 
 15 N        5.9220     6.5650     0.7350 N.ar  1 <1>  -0.6200 
 16 C        7.4710     4.9030     1.4960 C.3   1 <1>  -0.0970 
 17 C        2.2780     7.7810    -1.1310 C.3   1 <1>  -0.2400 
 18 H        1.4910     0.1850    -0.9900 H     1 <1>   0.1500 
 19 H       -0.4750     2.3400     2.4990 H     1 <1>   0.1500 
 20 H        2.0040     3.2620     2.0190 H     1 <1>   0.1500 
 21 H        4.1740     2.1520     0.8320 H     1 <1>   0.0800 
 22 H        2.4970     3.8140    -0.8080 H     1 <1>   0.4000 
 23 H        3.4810     1.3960    -2.0220 H     1 <1>   0.0800 
 24 H        4.1530     0.3150    -0.8170 H     1 <1>   0.0800 
 25 H        5.0910     1.6720    -1.3850 H     1 <1>   0.0800 
 26 H        4.5700     7.9270     0.0600 H     1 <1>   0.1500 
 27 H        1.7600     5.8470    -0.3930 H     1 <1>   0.0800 
 28 H        2.5430     5.8270    -1.9460 H     1 <1>   0.0800 
 29 H        7.6240     3.8400     1.4600 H     1 <1>   0.0800 
 30 H        7.4610     5.2240     2.5200 H     1 <1>   0.0800 
 31 H        8.2770     5.3900     0.9810 H     1 <1>   0.0800 
 32 H        2.2400     8.2640    -0.1710 H     1 <1>   0.0800 
 33 H        1.3290     7.9220    -1.6170 H     1 <1>   0.0800 
 34 H        3.0380     8.2440    -1.7350 H     1 <1>   0.0800 
@<TRIPOS>BOND
  1   1   2  1   
  2   1   3  1   
  3   2   4  2   
  4   2  18  1   
  5   3   5  2   
  6   3  19  1   
  7   4   5  1   
  8   4   6  1   
  9   5  20  1   
 10   6   7  1   
 11   6   8  1   
 12   6  21  1   
 13   7   9  1   
 14   7  22  1   
 15   8  23  1   
 16   8  24  1   
 17   8  25  1   
 18   9  10  ar  
 19   9  11  ar  
 20  10  12  ar  
 21  11  13  ar  
 22  11  14  1   
 23  12  15  ar  
 24  12  16  1   
 25  13  15  ar  
 26  13  26  1   
 27  14  17  1   
 28  14  27  1   
 29  14  28  1   
 30  16  29  1   
 31  16  30  1   
 32  16  31  1   
 33  17  32  1   
 34  17  33  1   
 35  17  34  1   
@<TRIPOS>SUBSTRUCTURE
  1 ****   7 GROUP 4 **** **** 0

# MOE 2024.06 (io_trps.svl 2023.06)
