@<TRIPOS>MOLECULE
NONAME
46 49 1 0 0 
SMALL
USER_CHARGES


@<TRIPOS>ATOM
  1 S       -1.5090    -0.1790     1.2540 S.3   1 <1>  -0.0800 
  2 C       -2.1890     0.8640     0.0270 C.2   1 <1>  -0.1400 
  3 C       -0.7730     1.1850     2.0540 C.2   1 <1>  -0.1100 
  4 C       -1.8590     2.1590     0.2380 C.2   1 <1>  -0.0540 
  5 C       -3.0270     0.1980    -1.0470 C.3   1 <1>  -0.0600 
  6 C       -1.0180     2.3460     1.4010 C.2   1 <1>  -0.0860 
  7 C       -2.3090     3.2670    -0.5720 C.ar  1 <1>   0.0540 
  8 C       -0.5290     3.6460     1.8020 C.2   1 <1>   0.7160 
  9 C       -3.5760     3.8080    -0.3790 C.ar  1 <1>  -0.1500 
 10 C       -1.5070     3.8140    -1.5670 C.ar  1 <1>  -0.1500 
 11 O       -1.2070     4.3240     2.5550 O.2   1 <1>  -0.5700 
 12 N        0.6810     4.1370     1.3630 N.am  1 <1>  -0.5090 
 13 C       -4.0290     4.8610    -1.1530 C.ar  1 <1>  -0.1500 
 14 C       -1.9510     4.8710    -2.3410 C.ar  1 <1>  -0.1500 
 15 C        1.5700     3.4250     0.4130 C.3   1 <1>   0.0490 
 16 C        1.0540     5.5620     1.5930 C.3   1 <1>   0.3200 
 17 C       -3.2150     5.3960    -2.1360 C.ar  1 <1>  -0.1500 
 18 C        2.1260     2.0750     0.7490 C.3   1 <1>  -0.2000 
 19 C        3.0170     3.2720     0.7680 C.3   1 <1>  -0.2000 
 20 C        0.8310     6.3980     0.3390 C.2   1 <1>   0.0070 
 21 N        1.7750     6.6790    -0.5070 N.2   1 <1>  -0.5650 
 22 N       -0.3720     6.9280     0.0030 N.pl3 1 <1>   0.0480 
 23 C        1.1600     7.4240    -1.4410 C.2   1 <1>   0.0770 
 24 C       -0.1470     7.5870    -1.1470 C.2   1 <1>  -0.3020 
 25 C       -1.6610     6.8400     0.7130 C.3   1 <1>   0.0160 
 26 H       -0.2120     0.9890     2.9500 H     1 <1>   0.1500 
 27 H       -2.4340    -0.5230    -1.5790 H     1 <1>   0.0800 
 28 H       -3.3920     0.9300    -1.7450 H     1 <1>   0.0800 
 29 H       -3.8660    -0.3010    -0.5980 H     1 <1>   0.0800 
 30 H       -4.2060     3.3920     0.3880 H     1 <1>   0.1500 
 31 H       -0.5300     3.4030    -1.7390 H     1 <1>   0.1500 
 32 H       -5.0140     5.2630    -0.9910 H     1 <1>   0.1500 
 33 H       -1.3100     5.2840    -3.1010 H     1 <1>   0.1500 
 34 H        1.3600     3.6800    -0.6130 H     1 <1>   0.1000 
 35 H        2.0940     5.6140     1.8590 H     1 <1>   0.0800 
 36 H        0.4970     5.9790     2.4120 H     1 <1>   0.0800 
 37 H       -3.5620     6.2160    -2.7410 H     1 <1>   0.1500 
 38 H        2.2440     1.3580    -0.0440 H     1 <1>   0.1000 
 39 H        1.9050     1.6150     1.6940 H     1 <1>   0.1000 
 40 H        3.3730     3.6250     1.7190 H     1 <1>   0.1000 
 41 H        3.7480     3.3810    -0.0140 H     1 <1>   0.1000 
 42 H        1.6990     7.8120    -2.2900 H     1 <1>   0.1500 
 43 H       -0.9100     8.1220    -1.6810 H     1 <1>   0.1500 
 44 H       -1.5220     7.0860     1.7500 H     1 <1>   0.0800 
 45 H       -2.0420     5.8410     0.6320 H     1 <1>   0.0800 
 46 H       -2.3630     7.5230     0.2740 H     1 <1>   0.0800 
@<TRIPOS>BOND
  1   1   2  1   
  2   1   3  1   
  3   2   4  2   
  4   2   5  1   
  5   3   6  2   
  6   3  26  1   
  7   4   6  1   
  8   4   7  1   
  9   5  27  1   
 10   5  28  1   
 11   5  29  1   
 12   6   8  1   
 13   7   9  ar  
 14   7  10  ar  
 15   8  11  2   
 16   8  12  am  
 17   9  13  ar  
 18   9  30  1   
 19  10  14  ar  
 20  10  31  1   
 21  12  15  1   
 22  12  16  1   
 23  13  17  ar  
 24  13  32  1   
 25  14  17  ar  
 26  14  33  1   
 27  15  18  1   
 28  15  19  1   
 29  15  34  1   
 30  16  20  1   
 31  16  35  1   
 32  16  36  1   
 33  17  37  1   
 34  18  19  1   
 35  18  38  1   
 36  18  39  1   
 37  19  40  1   
 38  19  41  1   
 39  20  21  2   
 40  20  22  1   
 41  21  23  1   
 42  22  24  1   
 43  22  25  1   
 44  23  24  2   
 45  23  42  1   
 46  24  43  1   
 47  25  44  1   
 48  25  45  1   
 49  25  46  1   
@<TRIPOS>SUBSTRUCTURE
  1 ****   8 GROUP 4 **** **** 0

# MOE 2024.06 (io_trps.svl 2023.06)
