@<TRIPOS>MOLECULE
NONAME
56 58 1 0 0 
SMALL
USER_CHARGES


@<TRIPOS>ATOM
  1 O       -0.8200    -0.3410     1.1720 O.2   1 <1>  -0.5740 
  2 C       -1.9570    -0.2840     0.7660 C.2   1 <1>   0.6870 
  3 N       -2.7680    -1.4050     0.6790 N.am  1 <1>  -0.4410 
  4 N       -2.4520     0.9300     0.3860 N.am  1 <1>  -0.4940 
  5 C       -4.0640    -1.2260     0.2170 C.2   1 <1>   0.4210 
  6 C       -2.2640    -2.7530     1.0770 C.3   1 <1>   0.0530 
  7 C       -3.7230     1.1210    -0.0750 C.2   1 <1>   0.7000 
  8 N       -5.0280    -2.1710     0.0630 N.pl3 1 <1>  -0.7030 
  9 C       -4.5730    -0.0320    -0.1580 C.2   1 <1>   0.2710 
 10 O       -4.0730     2.2410    -0.3910 O.2   1 <1>  -0.5740 
 11 C       -6.1380    -1.5820    -0.3890 C.cat 1 <1>   1.0690 
 12 N       -5.9030    -0.2700    -0.5600 N.pl3 1 <1>  -0.7670 
 13 N       -7.2860    -2.2580    -0.6090 N.pl3 1 <1>  -0.5960 
 14 C       -6.7220     0.7970    -1.2080 C.3   1 <1>   0.2680 
 15 C       -8.6560    -1.6510    -0.5400 C.3   1 <1>   0.1610 
 16 C       -7.3430    -3.7400    -0.8380 C.3   1 <1>   0.1610 
 17 C       -9.5870    -2.4520     0.4000 C.3   1 <1>   0.1940 
 18 C       -8.3130    -4.4200     0.1470 C.3   1 <1>   0.1940 
 19 O       -9.5570    -3.8040     0.0480 O.3   1 <1>  -0.5640 
 20 C      -11.0580    -1.9800     0.3830 C.3   1 <1>  -0.0870 
 21 C       -8.5220    -5.9090    -0.1500 C.3   1 <1>  -0.1660 
 22 C      -11.7360    -2.1020    -0.9930 C.3   1 <1>  -0.2460 
 23 C      -11.2060    -0.5410     0.9020 C.3   1 <1>  -0.2460 
 24 C       -7.2470    -6.7460     0.0450 C.3   1 <1>  -0.1660 
 25 C       -7.5370    -8.2360    -0.1660 C.3   1 <1>  -0.1660 
 26 C       -6.2720    -9.0770     0.0230 C.3   1 <1>  -0.2460 
 27 H       -1.8300     1.7330     0.4590 H     1 <1>   0.3650 
 28 H       -2.7540    -3.0740     1.9790 H     1 <1>   0.0730 
 29 H       -1.2020    -2.7270     1.2580 H     1 <1>   0.0730 
 30 H       -2.4510    -3.4640     0.2920 H     1 <1>   0.0730 
 31 H       -4.9510    -3.1540     0.3020 H     1 <1>   0.4450 
 32 H       -6.0930     1.4460    -1.7940 H     1 <1>   0.0730 
 33 H       -7.2190     1.3880    -0.4570 H     1 <1>   0.0730 
 34 H       -7.4560     0.3680    -1.8690 H     1 <1>   0.0730 
 35 H       -8.6040    -0.6450    -0.1670 H     1 <1>   0.0730 
 36 H       -9.0780    -1.6270    -1.5290 H     1 <1>   0.0730 
 37 H       -7.6910    -3.9250    -1.8400 H     1 <1>   0.0730 
 38 H       -6.3690    -4.1830    -0.7500 H     1 <1>   0.0730 
 39 H       -9.2250    -2.3740     1.4110 H     1 <1>   0.0730 
 40 H       -7.9640    -4.3100     1.1600 H     1 <1>   0.0730 
 41 H      -11.5930    -2.6190     1.0670 H     1 <1>   0.0730 
 42 H       -9.2810    -6.2790     0.5170 H     1 <1>   0.0730 
 43 H       -8.8800    -6.0270    -1.1580 H     1 <1>   0.0730 
 44 H      -11.3090    -1.4230    -1.7080 H     1 <1>   0.0730 
 45 H      -12.7850    -1.8800    -0.9050 H     1 <1>   0.0730 
 46 H      -11.6430    -3.1060    -1.3690 H     1 <1>   0.0730 
 47 H      -10.7630     0.1680     0.2270 H     1 <1>   0.0730 
 48 H      -10.7470    -0.4400     1.8690 H     1 <1>   0.0730 
 49 H      -12.2500    -0.2970     1.0040 H     1 <1>   0.0730 
 50 H       -6.4900    -6.4430    -0.6560 H     1 <1>   0.0730 
 51 H       -6.8690    -6.6020     1.0430 H     1 <1>   0.0730 
 52 H       -8.2850    -8.5630     0.5360 H     1 <1>   0.0730 
 53 H       -7.9220    -8.3940    -1.1590 H     1 <1>   0.0730 
 54 H       -5.8810    -8.9530     1.0170 H     1 <1>   0.0730 
 55 H       -5.5170    -8.7890    -0.6880 H     1 <1>   0.0730 
 56 H       -6.4990   -10.1180    -0.1260 H     1 <1>   0.0730 
@<TRIPOS>BOND
  1   1   2  2   
  2   2   3  am  
  3   2   4  am  
  4   3   5  1   
  5   3   6  1   
  6   4   7  am  
  7   4  27  1   
  8   5   8  1   
  9   5   9  2   
 10   6  28  1   
 11   6  29  1   
 12   6  30  1   
 13   7   9  1   
 14   7  10  2   
 15   8  11  ar  
 16   8  31  1   
 17   9  12  1   
 18  11  12  ar  
 19  11  13  ar  
 20  12  14  1   
 21  13  15  1   
 22  13  16  1   
 23  14  32  1   
 24  14  33  1   
 25  14  34  1   
 26  15  17  1   
 27  15  35  1   
 28  15  36  1   
 29  16  18  1   
 30  16  37  1   
 31  16  38  1   
 32  17  19  1   
 33  17  20  1   
 34  17  39  1   
 35  18  19  1   
 36  18  21  1   
 37  18  40  1   
 38  20  22  1   
 39  20  23  1   
 40  20  41  1   
 41  21  24  1   
 42  21  42  1   
 43  21  43  1   
 44  22  44  1   
 45  22  45  1   
 46  22  46  1   
 47  23  47  1   
 48  23  48  1   
 49  23  49  1   
 50  24  25  1   
 51  24  50  1   
 52  24  51  1   
 53  25  26  1   
 54  25  52  1   
 55  25  53  1   
 56  26  54  1   
 57  26  55  1   
 58  26  56  1   
@<TRIPOS>SUBSTRUCTURE
  1 ****  11 GROUP 4 **** **** 0

# MOE 2024.06 (io_trps.svl 2023.06)
