@<TRIPOS>MOLECULE
NONAME
23 23 1 0 0 
SMALL
USER_CHARGES


@<TRIPOS>ATOM
  1 O        6.7940     2.9530     0.1980 O.co2 1 <1>  -0.9000 
  2 C        5.8760     2.1820    -0.0800 C.2   1 <1>   0.9060 
  3 O        4.8170     2.5280    -0.6290 O.co2 1 <1>  -0.9000 
  4 C        5.9670     0.6770     0.2520 C.3   1 <1>   0.3170 
  5 N        4.8560    -0.0440    -0.4510 N.4   1 <1>  -0.9060 
  6 C        7.3120     0.0300    -0.1070 C.3   1 <1>  -0.1600 
  7 C        4.3410    -1.1940     0.3020 C.3   1 <1>   0.3430 
  8 C        7.4190    -1.4670     0.2460 C.3   1 <1>  -0.1600 
  9 C        5.0560    -2.4820    -0.1250 C.3   1 <1>  -0.1600 
 10 C        6.5150    -2.3660    -0.6140 C.3   1 <1>  -0.1600 
 11 H        5.8220     0.6050     1.3140 H     1 <1>   0.0800 
 12 H        4.1740     0.7390    -0.5820 H     1 <1>   0.4500 
 13 H        5.1660    -0.2850    -1.3930 H     1 <1>   0.4500 
 14 H        7.5190     0.1880    -1.1510 H     1 <1>   0.0800 
 15 H        8.0770     0.5600     0.4370 H     1 <1>   0.0800 
 16 H        4.4930    -1.0250     1.3550 H     1 <1>   0.0800 
 17 H        3.2820    -1.3010     0.1300 H     1 <1>   0.0800 
 18 H        8.4400    -1.7640     0.0730 H     1 <1>   0.0800 
 19 H        7.2200    -1.6230     1.2930 H     1 <1>   0.0800 
 20 H        5.0260    -3.1560     0.7130 H     1 <1>   0.0800 
 21 H        4.4760    -2.9450    -0.9040 H     1 <1>   0.0800 
 22 H        6.9350    -3.3580    -0.6190 H     1 <1>   0.0800 
 23 H        6.5380    -2.0230    -1.6340 H     1 <1>   0.0800 
@<TRIPOS>BOND
  1   1   2  ar  
  2   2   3  ar  
  3   2   4  1   
  4   4   5  1   
  5   4   6  1   
  6   4  11  1   
  7   5   7  1   
  8   5  12  1   
  9   5  13  1   
 10   6   8  1   
 11   6  14  1   
 12   6  15  1   
 13   7   9  1   
 14   7  16  1   
 15   7  17  1   
 16   8  10  1   
 17   8  18  1   
 18   8  19  1   
 19   9  10  1   
 20   9  20  1   
 21   9  21  1   
 22  10  22  1   
 23  10  23  1   
@<TRIPOS>SUBSTRUCTURE
  1 ****   4 GROUP 4 **** **** 0

# MOE 2024.06 (io_trps.svl 2023.06)
