@<TRIPOS>MOLECULE
NONAME
42 44 1 0 0 
SMALL
USER_CHARGES


@<TRIPOS>ATOM
  1 CL       2.9150     1.7910    -2.1020 Cl    1 <1>  -0.1770 
  2 C        2.5990     0.4190    -1.0680 C.ar  1 <1>   0.1770 
  3 C        3.0710     0.4160     0.2420 C.ar  1 <1>   0.0860 
  4 C        1.9000    -0.6500    -1.5980 C.ar  1 <1>  -0.1500 
  5 C        3.7940     1.5430     0.7800 C.2   1 <1>   0.5440 
  6 C        2.8210    -0.7190     1.0120 C.ar  1 <1>  -0.1500 
  7 C        1.6620    -1.7640    -0.8130 C.ar  1 <1>  -0.1500 
  8 O        3.2030     2.5490     1.1250 O.2   1 <1>  -0.5700 
  9 N        5.1650     1.5540     0.8700 N.am  1 <1>  -0.6600 
 10 C        2.1260    -1.7970     0.4920 C.ar  1 <1>  -0.1500 
 11 C        5.8560     2.4770     1.8470 C.3   1 <1>   0.1400 
 12 C        6.0150     1.0200    -0.2380 C.3   1 <1>   0.1400 
 13 C        6.2820     3.8250     1.2090 C.3   1 <1>   0.4230 
 14 C        6.6360     2.1170    -1.1440 C.3   1 <1>  -0.0800 
 15 N        5.4090     4.0700     0.0030 N.4   1 <1>  -0.9590 
 16 C        7.8140     3.8650     0.9610 C.3   1 <1>   0.1200 
 17 C        8.1190     2.3700    -0.8330 C.3   1 <1>   0.1200 
 18 C        5.8830     3.4580    -1.2760 C.3   1 <1>   0.3430 
 19 C        5.1430     5.5550    -0.1930 C.3   1 <1>   0.2370 
 20 O        8.3110     2.6340     0.5150 O.3   1 <1>  -0.5600 
 21 C        6.3960     6.4060    -0.4040 C.2   1 <1>   0.9060 
 22 O        6.9330     6.8920     0.5960 O.co2 1 <1>  -0.9000 
 23 O        6.9050     6.4230    -1.5280 O.co2 1 <1>  -0.9000 
 24 H        1.5470    -0.6110    -2.6140 H     1 <1>   0.1500 
 25 H        3.1750    -0.7510     2.0280 H     1 <1>   0.1500 
 26 H        1.1170    -2.6030    -1.2140 H     1 <1>   0.1500 
 27 H        1.9400    -2.6640     1.1040 H     1 <1>   0.1500 
 28 H        5.1820     2.6930     2.6580 H     1 <1>   0.0800 
 29 H        6.7040     1.9770     2.2810 H     1 <1>   0.0800 
 30 H        6.7970     0.4140     0.1880 H     1 <1>   0.0800 
 31 H        5.4220     0.3690    -0.8560 H     1 <1>   0.0800 
 32 H        6.0770     4.6050     1.9250 H     1 <1>   0.0800 
 33 H        6.6470     1.7070    -2.1370 H     1 <1>   0.0800 
 34 H        4.5160     3.6010     0.2540 H     1 <1>   0.4500 
 35 H        8.3000     4.0650     1.8990 H     1 <1>   0.0800 
 36 H        8.1070     4.6430     0.2780 H     1 <1>   0.0800 
 37 H        8.5150     3.1910    -1.4100 H     1 <1>   0.0800 
 38 H        8.6960     1.4910    -1.0610 H     1 <1>   0.0800 
 39 H        5.0300     3.3150    -1.9170 H     1 <1>   0.0800 
 40 H        6.5360     4.1560    -1.7760 H     1 <1>   0.0800 
 41 H        4.5080     5.7020    -1.0470 H     1 <1>   0.0800 
 42 H        4.6400     5.9480     0.6710 H     1 <1>   0.0800 
@<TRIPOS>BOND
  1   1   2  1   
  2   2   3  ar  
  3   2   4  ar  
  4   3   5  1   
  5   3   6  ar  
  6   4   7  ar  
  7   4  24  1   
  8   5   8  2   
  9   5   9  am  
 10   6  10  ar  
 11   6  25  1   
 12   7  10  ar  
 13   7  26  1   
 14   9  11  1   
 15   9  12  1   
 16  10  27  1   
 17  11  13  1   
 18  11  28  1   
 19  11  29  1   
 20  12  14  1   
 21  12  30  1   
 22  12  31  1   
 23  13  15  1   
 24  13  16  1   
 25  13  32  1   
 26  14  17  1   
 27  14  18  1   
 28  14  33  1   
 29  15  18  1   
 30  15  19  1   
 31  15  34  1   
 32  16  20  1   
 33  16  35  1   
 34  16  36  1   
 35  17  20  1   
 36  17  37  1   
 37  17  38  1   
 38  18  39  1   
 39  18  40  1   
 40  19  21  1   
 41  19  41  1   
 42  19  42  1   
 43  21  22  ar  
 44  21  23  ar  
@<TRIPOS>SUBSTRUCTURE
  1 ****   9 GROUP 4 **** **** 0

# MOE 2024.06 (io_trps.svl 2023.06)
