@<TRIPOS>MOLECULE
NONAME
57 60 1 0 0 
SMALL
USER_CHARGES


@<TRIPOS>ATOM
  1 O        0.4110    -0.2520     0.9690 O.co2 1 <1>  -0.9000 
  2 C        1.6080    -0.4690     0.7860 C.2   1 <1>   0.9060 
  3 O        2.1580    -1.4910     1.2270 O.co2 1 <1>  -0.9000 
  4 C        2.4150     0.5180    -0.0780 C.3   1 <1>  -0.1060 
  5 C        3.8980     0.1060    -0.1180 C.3   1 <1>   0.4230 
  6 C        2.2710     1.9450     0.5400 C.3   1 <1>  -0.1600 
  7 C        1.9060     0.4770    -1.5370 C.3   1 <1>  -0.1600 
  8 N        4.0420    -1.3110    -0.5950 N.4   1 <1>  -0.9590 
  9 C        4.5580     0.4970     1.2190 C.3   1 <1>   0.2090 
 10 C        3.5710     2.7610     0.6120 C.3   1 <1>   0.2090 
 11 C        2.1090    -0.9280    -2.1360 C.3   1 <1>  -0.1600 
 12 C        3.5440    -1.4540    -1.9900 C.3   1 <1>   0.3430 
 13 C        5.3940    -1.8960    -0.4050 C.3   1 <1>   0.2630 
 14 N        4.6900     1.9940     1.2520 N.pl3 1 <1>  -0.8380 
 15 C        5.9480     2.5030     1.0260 C.ar  1 <1>   0.4100 
 16 N        6.5970     2.0630    -0.0470 N.ar  1 <1>  -0.6200 
 17 C        6.4690     3.4470     1.9030 C.ar  1 <1>  -0.1500 
 18 C        7.7970     2.5810    -0.2440 C.ar  1 <1>   0.1600 
 19 C        7.7170     3.9800     1.6840 C.ar  1 <1>  -0.1500 
 20 C        8.3980     3.5340     0.5650 C.ar  1 <1>  -0.1430 
 21 C        9.7730     4.0730     0.2250 C.3   1 <1>   0.4860 
 22 N        9.6410     5.4820    -0.2330 N.4   1 <1>  -0.9590 
 23 C        8.8250     5.6430    -1.4620 C.3   1 <1>   0.3430 
 24 C       10.9350     6.1500    -0.5040 C.3   1 <1>   0.3430 
 25 C        9.2020     7.0210    -1.9850 C.3   1 <1>  -0.1600 
 26 C       10.5640     7.3510    -1.3640 C.3   1 <1>  -0.1600 
 27 H        4.3860     0.7250    -0.8520 H     1 <1>   0.0800 
 28 H        1.9110     1.8560     1.5520 H     1 <1>   0.0800 
 29 H        1.5200     2.5040     0.0110 H     1 <1>   0.0800 
 30 H        0.8560     0.7220    -1.5580 H     1 <1>   0.0800 
 31 H        2.4300     1.2070    -2.1300 H     1 <1>   0.0800 
 32 H        3.3610    -1.8040     0.0450 H     1 <1>   0.4500 
 33 H        5.5340     0.0590     1.3110 H     1 <1>   0.0800 
 34 H        3.9590     0.1690     2.0510 H     1 <1>   0.0800 
 35 H        3.3940     3.6590     1.1790 H     1 <1>   0.0800 
 36 H        3.8640     3.0500    -0.3830 H     1 <1>   0.0800 
 37 H        1.8460    -0.9120    -3.1790 H     1 <1>   0.0800 
 38 H        1.4390    -1.6220    -1.6560 H     1 <1>   0.0800 
 39 H        4.1890    -0.9000    -2.6520 H     1 <1>   0.0800 
 40 H        3.5710    -2.4910    -2.2810 H     1 <1>   0.0800 
 41 H        6.1290    -1.3150    -0.9370 H     1 <1>   0.0800 
 42 H        5.4120    -2.9100    -0.7700 H     1 <1>   0.0800 
 43 H        5.6470    -1.9090     0.6420 H     1 <1>   0.0800 
 44 H        5.8760     3.7370     2.7500 H     1 <1>   0.1500 
 45 H        8.3260     2.2180    -1.1100 H     1 <1>   0.1500 
 46 H        8.1270     4.7050     2.3670 H     1 <1>   0.1500 
 47 H       10.2260     3.4730    -0.5470 H     1 <1>   0.0800 
 48 H       10.3990     4.0270     1.1020 H     1 <1>   0.0800 
 49 H        9.1600     6.0090     0.5070 H     1 <1>   0.4500 
 50 H        9.1020     4.8950    -2.1880 H     1 <1>   0.0800 
 51 H        7.7690     5.5670    -1.2550 H     1 <1>   0.0800 
 52 H       11.4330     6.4490     0.4060 H     1 <1>   0.0800 
 53 H       11.5780     5.4920    -1.0670 H     1 <1>   0.0800 
 54 H        9.2440     7.0160    -3.0610 H     1 <1>   0.0800 
 55 H        8.4640     7.7430    -1.6780 H     1 <1>   0.0800 
 56 H       10.4920     8.2320    -0.7490 H     1 <1>   0.0800 
 57 H       11.3160     7.5220    -2.1150 H     1 <1>   0.0800 
@<TRIPOS>BOND
  1   1   2  ar  
  2   2   3  ar  
  3   2   4  1   
  4   4   5  1   
  5   4   6  1   
  6   4   7  1   
  7   5   8  1   
  8   5   9  1   
  9   5  27  1   
 10   6  10  1   
 11   6  28  1   
 12   6  29  1   
 13   7  11  1   
 14   7  30  1   
 15   7  31  1   
 16   8  12  1   
 17   8  13  1   
 18   8  32  1   
 19   9  14  1   
 20   9  33  1   
 21   9  34  1   
 22  10  14  1   
 23  10  35  1   
 24  10  36  1   
 25  11  12  1   
 26  11  37  1   
 27  11  38  1   
 28  12  39  1   
 29  12  40  1   
 30  13  41  1   
 31  13  42  1   
 32  13  43  1   
 33  14  15  1   
 34  15  16  ar  
 35  15  17  ar  
 36  16  18  ar  
 37  17  19  ar  
 38  17  44  1   
 39  18  20  ar  
 40  18  45  1   
 41  19  20  ar  
 42  19  46  1   
 43  20  21  1   
 44  21  22  1   
 45  21  47  1   
 46  21  48  1   
 47  22  23  1   
 48  22  24  1   
 49  22  49  1   
 50  23  25  1   
 51  23  50  1   
 52  23  51  1   
 53  24  26  1   
 54  24  52  1   
 55  24  53  1   
 56  25  26  1   
 57  25  54  1   
 58  25  55  1   
 59  26  56  1   
 60  26  57  1   
@<TRIPOS>SUBSTRUCTURE
  1 ****  16 GROUP 4 **** **** 0

# MOE 2024.06 (io_trps.svl 2023.06)
