@<TRIPOS>MOLECULE
NONAME
52 53 1 0 0 
SMALL
USER_CHARGES


@<TRIPOS>ATOM
  1 O       -0.6700    -0.8970    -0.9480 O.2   1 <1>  -0.5700 
  2 C       -0.6900    -2.0800    -0.7060 C.2   1 <1>   0.5690 
  3 N        0.4010    -2.7500    -0.2120 N.am  1 <1>  -0.6600 
  4 C       -1.9850    -2.8260    -0.9850 C.3   1 <1>  -0.0990 
  5 C        0.3850    -4.1940     0.1820 C.3   1 <1>   0.1400 
  6 C        1.6950    -2.0580     0.0400 C.3   1 <1>   0.0600 
  7 C       -2.1210    -4.1330    -0.1910 C.3   1 <1>  -0.1600 
  8 C       -0.8440    -4.9590    -0.3410 C.3   1 <1>   0.2200 
  9 N       -1.0130    -6.2250     0.4000 N.am  1 <1>  -0.7300 
 10 C       -0.2540    -7.3290     0.1990 C.2   1 <1>   0.5690 
 11 O        0.6770    -7.3310    -0.5670 O.2   1 <1>  -0.5700 
 12 C       -0.5830    -8.5910     0.9720 C.3   1 <1>  -0.0990 
 13 C       -1.9370    -9.1890     0.5570 C.3   1 <1>  -0.1600 
 14 C       -2.2330   -10.4970     1.2990 C.3   1 <1>  -0.0170 
 15 C       -3.6010   -11.0240     0.9010 C.ar  1 <1>  -0.1440 
 16 C       -4.7190   -10.7180     1.6600 C.ar  1 <1>  -0.1500 
 17 C       -3.7430   -11.8120    -0.2290 C.ar  1 <1>  -0.1500 
 18 C       -5.9720   -11.1880     1.3010 C.ar  1 <1>  -0.1440 
 19 C       -4.9880   -12.2870    -0.5980 C.ar  1 <1>  -0.1500 
 20 C       -6.1120   -11.9780     0.1640 C.ar  1 <1>   0.0820 
 21 C       -7.1850   -10.8380     2.1520 C.3   1 <1>  -0.0970 
 22 O       -7.3610   -12.4150    -0.1500 O.3   1 <1>  -0.3620 
 23 C       -7.6000   -13.2330    -1.2700 C.3   1 <1>   0.1200 
 24 C       -9.0930   -13.5430    -1.3170 C.3   1 <1>  -0.2400 
 25 H       -2.0150    -3.0380    -2.0380 H     1 <1>   0.0800 
 26 H       -2.8110    -2.1780    -0.7570 H     1 <1>   0.0800 
 27 H        0.4010    -4.2450     1.2560 H     1 <1>   0.0800 
 28 H        1.2720    -4.6740    -0.1950 H     1 <1>   0.0800 
 29 H        1.6440    -1.0260    -0.2640 H     1 <1>   0.0800 
 30 H        2.4800    -2.5400    -0.5170 H     1 <1>   0.0800 
 31 H        1.9290    -2.0950     1.0890 H     1 <1>   0.0800 
 32 H       -2.9670    -4.6860    -0.5590 H     1 <1>   0.0800 
 33 H       -2.2780    -3.8960     0.8480 H     1 <1>   0.0800 
 34 H       -0.6850    -5.1890    -1.3820 H     1 <1>   0.0800 
 35 H       -1.8020    -6.2620     1.0460 H     1 <1>   0.3700 
 36 H       -0.5840    -8.3620     2.0210 H     1 <1>   0.0800 
 37 H        0.1970    -9.3090     0.7910 H     1 <1>   0.0800 
 38 H       -1.9320    -9.3790    -0.5030 H     1 <1>   0.0800 
 39 H       -2.7250    -8.4850     0.7600 H     1 <1>   0.0800 
 40 H       -2.2060   -10.3320     2.3620 H     1 <1>   0.0800 
 41 H       -1.4820   -11.2310     1.0630 H     1 <1>   0.0800 
 42 H       -4.6120   -10.1070     2.5390 H     1 <1>   0.1500 
 43 H       -2.8840   -12.0560    -0.8280 H     1 <1>   0.1500 
 44 H       -5.0610   -12.8930    -1.4800 H     1 <1>   0.1500 
 45 H       -6.9110   -10.2210     2.9880 H     1 <1>   0.0800 
 46 H       -7.6390   -11.7390     2.5230 H     1 <1>   0.0800 
 47 H       -7.9060   -10.3100     1.5550 H     1 <1>   0.0800 
 48 H       -7.0260   -14.1370    -1.1600 H     1 <1>   0.0800 
 49 H       -7.2940   -12.6990    -2.1530 H     1 <1>   0.0800 
 50 H       -9.3900   -14.0610    -0.4220 H     1 <1>   0.0800 
 51 H       -9.3090   -14.1680    -2.1640 H     1 <1>   0.0800 
 52 H       -9.6560   -12.6320    -1.4080 H     1 <1>   0.0800 
@<TRIPOS>BOND
  1   1   2  2   
  2   2   3  am  
  3   2   4  1   
  4   3   5  1   
  5   3   6  1   
  6   4   7  1   
  7   4  25  1   
  8   4  26  1   
  9   5   8  1   
 10   5  27  1   
 11   5  28  1   
 12   6  29  1   
 13   6  30  1   
 14   6  31  1   
 15   7   8  1   
 16   7  32  1   
 17   7  33  1   
 18   8   9  1   
 19   8  34  1   
 20   9  10  am  
 21   9  35  1   
 22  10  11  2   
 23  10  12  1   
 24  12  13  1   
 25  12  36  1   
 26  12  37  1   
 27  13  14  1   
 28  13  38  1   
 29  13  39  1   
 30  14  15  1   
 31  14  40  1   
 32  14  41  1   
 33  15  16  ar  
 34  15  17  ar  
 35  16  18  ar  
 36  16  42  1   
 37  17  19  ar  
 38  17  43  1   
 39  18  20  ar  
 40  18  21  1   
 41  19  20  ar  
 42  19  44  1   
 43  20  22  1   
 44  21  45  1   
 45  21  46  1   
 46  21  47  1   
 47  22  23  1   
 48  23  24  1   
 49  23  48  1   
 50  23  49  1   
 51  24  50  1   
 52  24  51  1   
 53  24  52  1   
@<TRIPOS>SUBSTRUCTURE
  1 ****  13 GROUP 4 **** **** 0

# MOE 2024.06 (io_trps.svl 2023.06)
