@<TRIPOS>MOLECULE
NONAME
50 51 1 0 0 
SMALL
USER_CHARGES


@<TRIPOS>ATOM
  1 O       -2.0160    -0.1270    -1.7950 O.2   1 <1>  -0.5700 
  2 C       -2.0820     0.6430    -0.8590 C.2   1 <1>   0.5440 
  3 N       -2.5720     0.1640     0.3400 N.am  1 <1>  -0.6600 
  4 C       -1.7170     2.0360    -1.0630 C.ar  1 <1>   0.0860 
  5 C       -2.4600    -1.3030     0.6400 C.3   1 <1>   0.3210 
  6 C       -3.0440     1.0400     1.4670 C.3   1 <1>   0.1400 
  7 C       -0.7440     2.7150    -0.3100 C.ar  1 <1>  -0.1440 
  8 C       -2.3830     2.7420    -2.0640 C.ar  1 <1>  -0.1500 
  9 C       -3.7640    -2.0640     0.4010 C.2   1 <1>   0.0460 
 10 C       -4.5740     1.0000     1.6470 C.3   1 <1>   0.3430 
 11 C       -0.5350     4.0790    -0.5050 C.ar  1 <1>  -0.1440 
 12 C        0.1180     1.9640     0.7080 C.3   1 <1>  -0.0970 
 13 C       -2.1630     4.0880    -2.2690 C.ar  1 <1>  -0.1500 
 14 N       -4.7610    -2.0630     1.3150 N.2   1 <1>  -0.5650 
 15 C       -4.0890    -2.8480    -0.6550 C.2   1 <1>  -0.3320 
 16 N       -5.2730     0.9660     0.3270 N.4   1 <1>  -0.9590 
 17 C       -1.2490     4.7560    -1.4800 C.ar  1 <1>  -0.1500 
 18 C        0.4800     4.8710     0.3120 C.3   1 <1>  -0.0970 
 19 C       -5.6430    -2.8680     0.8150 C.2   1 <1>   0.0360 
 20 N       -5.2980    -3.3700    -0.3870 N.pl3 1 <1>   0.0330 
 21 C       -3.3240    -3.1830    -1.9260 C.3   1 <1>  -0.0600 
 22 C       -5.2400     2.2750    -0.3870 C.3   1 <1>   0.2630 
 23 C       -6.6620     0.4490     0.4690 C.3   1 <1>   0.2630 
 24 H       -2.1590    -1.4430     1.6630 H     1 <1>   0.0800 
 25 H       -1.6890    -1.7360     0.0270 H     1 <1>   0.0800 
 26 H       -2.7570     2.0610     1.2910 H     1 <1>   0.0800 
 27 H       -2.5720     0.7350     2.3850 H     1 <1>   0.0800 
 28 H       -3.0810     2.2190    -2.6950 H     1 <1>   0.1500 
 29 H       -4.9010     1.8460     2.2280 H     1 <1>   0.0800 
 30 H       -4.8190     0.1100     2.2020 H     1 <1>   0.0800 
 31 H        0.0950     0.9020     0.5490 H     1 <1>   0.0800 
 32 H       -0.2160     2.1740     1.7080 H     1 <1>   0.0800 
 33 H        1.1460     2.2640     0.6200 H     1 <1>   0.0800 
 34 H       -2.6910     4.6160    -3.0450 H     1 <1>   0.1500 
 35 H       -4.7250     0.2600    -0.2090 H     1 <1>   0.4500 
 36 H       -1.0860     5.8080    -1.6430 H     1 <1>   0.1500 
 37 H        0.3590     4.6710     1.3620 H     1 <1>   0.0800 
 38 H        0.3570     5.9280     0.1610 H     1 <1>   0.0800 
 39 H        1.4780     4.6040     0.0160 H     1 <1>   0.0800 
 40 H       -6.5690    -3.1330     1.2950 H     1 <1>   0.1500 
 41 H       -5.8290    -4.0350    -0.9600 H     1 <1>   0.2700 
 42 H       -2.3510    -2.7270    -1.9240 H     1 <1>   0.0800 
 43 H       -3.8590    -2.8220    -2.7870 H     1 <1>   0.0800 
 44 H       -3.1960    -4.2470    -2.0160 H     1 <1>   0.0800 
 45 H       -5.8480     2.9990     0.1300 H     1 <1>   0.0800 
 46 H       -5.6150     2.1610    -1.3920 H     1 <1>   0.0800 
 47 H       -4.2310     2.6490    -0.4370 H     1 <1>   0.0800 
 48 H       -7.2650     1.1410     1.0330 H     1 <1>   0.0800 
 49 H       -6.6530    -0.4990     0.9820 H     1 <1>   0.0800 
 50 H       -7.1080     0.3080    -0.5020 H     1 <1>   0.0800 
@<TRIPOS>BOND
  1   1   2  2   
  2   2   3  am  
  3   2   4  1   
  4   3   5  1   
  5   3   6  1   
  6   4   7  ar  
  7   4   8  ar  
  8   5   9  1   
  9   5  24  1   
 10   5  25  1   
 11   6  10  1   
 12   6  26  1   
 13   6  27  1   
 14   7  11  ar  
 15   7  12  1   
 16   8  13  ar  
 17   8  28  1   
 18   9  14  1   
 19   9  15  2   
 20  10  16  1   
 21  10  29  1   
 22  10  30  1   
 23  11  17  ar  
 24  11  18  1   
 25  12  31  1   
 26  12  32  1   
 27  12  33  1   
 28  13  17  ar  
 29  13  34  1   
 30  14  19  2   
 31  15  20  1   
 32  15  21  1   
 33  16  22  1   
 34  16  23  1   
 35  16  35  1   
 36  17  36  1   
 37  18  37  1   
 38  18  38  1   
 39  18  39  1   
 40  19  20  1   
 41  19  40  1   
 42  20  41  1   
 43  21  42  1   
 44  21  43  1   
 45  21  44  1   
 46  22  45  1   
 47  22  46  1   
 48  22  47  1   
 49  23  48  1   
 50  23  49  1   
 51  23  50  1   
@<TRIPOS>SUBSTRUCTURE
  1 ****   3 GROUP 4 **** **** 0

# MOE 2024.06 (io_trps.svl 2023.06)
