@<TRIPOS>MOLECULE
NONAME
52 55 1 0 0 
SMALL
USER_CHARGES


@<TRIPOS>ATOM
  1 CL       0.7690    -0.9290     2.6950 Cl    1 <1>  -0.1770 
  2 C        1.8250    -1.6860     1.5350 C.ar  1 <1>   0.1770 
  3 C        1.7390    -3.0480     1.3040 C.ar  1 <1>   0.1600 
  4 C        2.7450    -0.9300     0.8480 C.ar  1 <1>  -0.1500 
  5 N        2.5020    -3.7140     0.4460 N.ar  1 <1>  -0.6200 
  6 C        3.5400    -1.6080    -0.0510 C.ar  1 <1>  -0.1500 
  7 C        3.4130    -2.9880    -0.2410 C.ar  1 <1>   0.3960 
  8 C        4.2790    -3.6490    -1.2240 C.2   1 <1>   0.5440 
  9 O        4.5320    -3.0730    -2.2660 O.2   1 <1>  -0.5700 
 10 N        4.8130    -4.9210    -1.0610 N.am  1 <1>  -0.6600 
 11 C        4.8410    -5.6260     0.2770 C.3   1 <1>   0.2200 
 12 C        5.3520    -5.6480    -2.2580 C.3   1 <1>   0.1400 
 13 C        6.1860    -6.3150     0.5650 C.3   1 <1>   0.1200 
 14 C        3.6670    -6.6290     0.3880 C.3   1 <1>   0.3430 
 15 C        5.3180    -7.1860    -2.1570 C.3   1 <1>  -0.0800 
 16 O        6.1990    -7.6130     0.0550 O.3   1 <1>  -0.5600 
 17 N        3.0700    -6.9340    -0.9560 N.4   1 <1>  -0.9590 
 18 C        6.4710    -7.7320    -1.3010 C.3   1 <1>   0.1200 
 19 C        3.9610    -7.8170    -1.7750 C.3   1 <1>   0.3430 
 20 C        1.6930    -7.5100    -0.8240 C.3   1 <1>   0.5240 
 21 C        1.6740    -8.7580     0.0600 C.2   1 <1>   0.1080 
 22 N        2.3310    -9.8470    -0.2150 N.2   1 <1>  -0.7070 
 23 C        0.9680    -8.8660     1.2530 C.2   1 <1>  -0.1500 
 24 N        2.0630   -10.6860     0.8050 N.pl3 1 <1>   0.3140 
 25 C        1.2410   -10.1080     1.7020 C.2   1 <1>  -0.3020 
 26 C        2.6340   -12.0480     0.8790 C.3   1 <1>   0.0960 
 27 C        3.9710   -12.0450     1.6300 C.3   1 <1>  -0.2400 
 28 H        1.0020    -3.6010     1.8610 H     1 <1>   0.1500 
 29 H        2.8280     0.1320     1.0080 H     1 <1>   0.1500 
 30 H        4.2730    -1.0680    -0.6270 H     1 <1>   0.1500 
 31 H        4.7260    -4.8910     1.0540 H     1 <1>   0.0800 
 32 H        4.7820    -5.3560    -3.1240 H     1 <1>   0.0800 
 33 H        6.3640    -5.3180    -2.4290 H     1 <1>   0.0800 
 34 H        6.3110    -6.4090     1.6300 H     1 <1>   0.0800 
 35 H        7.0180    -5.7510     0.1770 H     1 <1>   0.0800 
 36 H        2.9140    -6.1880     1.0190 H     1 <1>   0.0800 
 37 H        3.9970    -7.5390     0.8640 H     1 <1>   0.0800 
 38 H        5.5370    -7.5430    -3.1480 H     1 <1>   0.0800 
 39 H        3.0220    -6.0230    -1.4340 H     1 <1>   0.4500 
 40 H        7.4020    -7.2340    -1.5170 H     1 <1>   0.0800 
 41 H        6.6040    -8.7830    -1.4970 H     1 <1>   0.0800 
 42 H        4.1450    -8.7370    -1.2430 H     1 <1>   0.0800 
 43 H        3.4430    -8.0740    -2.6840 H     1 <1>   0.0800 
 44 H        1.0350    -6.7740    -0.3960 H     1 <1>   0.0800 
 45 H        1.3140    -7.7730    -1.7970 H     1 <1>   0.0800 
 46 H        0.3420    -8.1200     1.7120 H     1 <1>   0.1500 
 47 H        0.9030   -10.6070     2.5930 H     1 <1>   0.1500 
 48 H        1.9290   -12.6880     1.3770 H     1 <1>   0.0800 
 49 H        2.7750   -12.4090    -0.1230 H     1 <1>   0.0800 
 50 H        3.8360   -11.6990     2.6390 H     1 <1>   0.0800 
 51 H        4.6780   -11.4080     1.1260 H     1 <1>   0.0800 
 52 H        4.3730   -13.0410     1.6610 H     1 <1>   0.0800 
@<TRIPOS>BOND
  1   1   2  1   
  2   2   3  ar  
  3   2   4  ar  
  4   3   5  ar  
  5   3  28  1   
  6   4   6  ar  
  7   4  29  1   
  8   5   7  ar  
  9   6   7  ar  
 10   6  30  1   
 11   7   8  1   
 12   8   9  2   
 13   8  10  am  
 14  10  11  1   
 15  10  12  1   
 16  11  13  1   
 17  11  14  1   
 18  11  31  1   
 19  12  15  1   
 20  12  32  1   
 21  12  33  1   
 22  13  16  1   
 23  13  34  1   
 24  13  35  1   
 25  14  17  1   
 26  14  36  1   
 27  14  37  1   
 28  15  18  1   
 29  15  19  1   
 30  15  38  1   
 31  16  18  1   
 32  17  19  1   
 33  17  20  1   
 34  17  39  1   
 35  18  40  1   
 36  18  41  1   
 37  19  42  1   
 38  19  43  1   
 39  20  21  1   
 40  20  44  1   
 41  20  45  1   
 42  21  22  2   
 43  21  23  1   
 44  22  24  1   
 45  23  25  2   
 46  23  46  1   
 47  24  25  1   
 48  24  26  1   
 49  25  47  1   
 50  26  27  1   
 51  26  48  1   
 52  26  49  1   
 53  27  50  1   
 54  27  51  1   
 55  27  52  1   
@<TRIPOS>SUBSTRUCTURE
  1 ****  14 GROUP 4 **** **** 0

# MOE 2024.06 (io_trps.svl 2023.06)
