@<TRIPOS>MOLECULE
NONAME
48 49 1 0 0 
SMALL
USER_CHARGES


@<TRIPOS>ATOM
  1 O        0.1800     0.8070    -0.1760 O.2   1 <1>  -0.5700 
  2 C        0.0040     1.9950    -0.3140 C.2   1 <1>   0.5690 
  3 N       -0.7560     2.7290     0.5570 N.am  1 <1>  -0.6600 
  4 C        0.6400     2.6810    -1.5250 C.3   1 <1>   0.1810 
  5 C       -0.9950     4.1920     0.3350 C.3   1 <1>   0.3640 
  6 C       -1.3320     2.1460     1.8030 C.3   1 <1>   0.0600 
  7 O        0.8160     4.0630    -1.3370 O.3   1 <1>  -0.5600 
  8 C       -2.4890     4.5410     0.4180 C.ar  1 <1>  -0.1440 
  9 C       -0.3620     4.7550    -0.9620 C.3   1 <1>   0.2610 
 10 C       -3.5020     3.8890    -0.2940 C.ar  1 <1>  -0.1440 
 11 C       -2.8350     5.5890     1.2650 C.ar  1 <1>  -0.1500 
 12 C       -0.1060     6.2600    -0.7970 C.2   1 <1>   0.5690 
 13 C       -4.8190     4.2950    -0.1320 C.ar  1 <1>  -0.1500 
 14 C       -3.2520     2.7280    -1.2520 C.3   1 <1>  -0.0960 
 15 C       -4.1500     5.9860     1.4150 C.ar  1 <1>  -0.1500 
 16 O       -0.8880     7.0050    -1.3440 O.2   1 <1>  -0.5700 
 17 N        0.9430     6.7790    -0.0590 N.am  1 <1>  -0.6600 
 18 C       -5.1460     5.3360     0.7160 C.ar  1 <1>  -0.1500 
 19 C        2.0010     5.9700     0.6300 C.3   1 <1>   0.1400 
 20 C        1.0780     8.2610     0.0890 C.3   1 <1>   0.1400 
 21 C        3.2750     5.8820    -0.2170 C.3   1 <1>   0.1200 
 22 C        1.6030     8.9010    -1.2020 C.3   1 <1>   0.1200 
 23 O        4.2510     5.1960     0.4940 O.3   1 <1>  -0.6800 
 24 O        1.7660    10.2630    -1.0000 O.3   1 <1>  -0.6800 
 25 H        0.0250     2.5280    -2.3930 H     1 <1>   0.0800 
 26 H        1.6080     2.2520    -1.7060 H     1 <1>   0.0800 
 27 H       -0.5100     4.6900     1.1550 H     1 <1>   0.0800 
 28 H       -1.0100     2.7160     2.6570 H     1 <1>   0.0800 
 29 H       -1.0120     1.1260     1.9300 H     1 <1>   0.0800 
 30 H       -2.4070     2.1630     1.7540 H     1 <1>   0.0800 
 31 H       -1.0590     4.6440    -1.7710 H     1 <1>   0.0800 
 32 H       -2.0790     6.1180     1.8190 H     1 <1>   0.1500 
 33 H       -5.6090     3.8010    -0.6690 H     1 <1>   0.1500 
 34 H       -4.1200     2.5360    -1.8560 H     1 <1>   0.0800 
 35 H       -3.0300     1.8340    -0.6980 H     1 <1>   0.0800 
 36 H       -2.4380     2.9400    -1.9160 H     1 <1>   0.0800 
 37 H       -4.3980     6.8000     2.0740 H     1 <1>   0.1500 
 38 H       -6.1720     5.6390     0.8280 H     1 <1>   0.1500 
 39 H        2.2290     6.4250     1.5770 H     1 <1>   0.0800 
 40 H        1.6510     4.9730     0.8220 H     1 <1>   0.0800 
 41 H        0.1120     8.6760     0.3200 H     1 <1>   0.0800 
 42 H        1.7490     8.4920     0.8970 H     1 <1>   0.0800 
 43 H        3.6610     6.8570    -0.4530 H     1 <1>   0.0800 
 44 H        3.0840     5.3350    -1.1240 H     1 <1>   0.0800 
 45 H        0.9120     8.7600    -2.0160 H     1 <1>   0.0800 
 46 H        2.5620     8.4950    -1.4680 H     1 <1>   0.0800 
 47 H        4.6180     5.7470     1.2130 H     1 <1>   0.4000 
 48 H        0.8970    10.7120    -0.9910 H     1 <1>   0.4000 
@<TRIPOS>BOND
  1   1   2  2   
  2   2   3  am  
  3   2   4  1   
  4   3   5  1   
  5   3   6  1   
  6   4   7  1   
  7   4  25  1   
  8   4  26  1   
  9   5   8  1   
 10   5   9  1   
 11   5  27  1   
 12   6  28  1   
 13   6  29  1   
 14   6  30  1   
 15   7   9  1   
 16   8  10  ar  
 17   8  11  ar  
 18   9  12  1   
 19   9  31  1   
 20  10  13  ar  
 21  10  14  1   
 22  11  15  ar  
 23  11  32  1   
 24  12  16  2   
 25  12  17  am  
 26  13  18  ar  
 27  13  33  1   
 28  14  34  1   
 29  14  35  1   
 30  14  36  1   
 31  15  18  ar  
 32  15  37  1   
 33  17  19  1   
 34  17  20  1   
 35  18  38  1   
 36  19  21  1   
 37  19  39  1   
 38  19  40  1   
 39  20  22  1   
 40  20  41  1   
 41  20  42  1   
 42  21  23  1   
 43  21  43  1   
 44  21  44  1   
 45  22  24  1   
 46  22  45  1   
 47  22  46  1   
 48  23  47  1   
 49  24  48  1   
@<TRIPOS>SUBSTRUCTURE
  1 ****   9 GROUP 4 **** **** 0

# MOE 2024.06 (io_trps.svl 2023.06)
