@<TRIPOS>MOLECULE
NONAME
47 49 1 0 0 
SMALL
USER_CHARGES


@<TRIPOS>ATOM
  1 O       -2.9040    -0.0020    -2.7640 O.2   1 <1>  -0.5700 
  2 C       -2.8100    -0.6040    -1.7300 C.2   1 <1>   0.5690 
  3 N       -2.4910     0.0420    -0.5950 N.am  1 <1>  -0.7300 
  4 C       -3.0810    -2.0840    -1.6990 C.3   1 <1>  -0.0190 
  5 C       -2.3310    -0.5830     0.7380 C.3   1 <1>   0.2200 
  6 C       -1.8340    -2.8830    -1.2610 C.3   1 <1>   0.1200 
  7 C       -4.3710    -2.3300    -0.9040 C.3   1 <1>   0.3430 
  8 C       -1.2070    -1.6490     0.7000 C.3   1 <1>   0.1200 
  9 C       -3.6930    -1.1290     1.2520 C.3   1 <1>   0.3430 
 10 O       -1.6180    -2.8640     0.1260 O.3   1 <1>  -0.5600 
 11 N       -4.1730    -2.3910     0.5850 N.4   1 <1>  -0.9590 
 12 C       -5.3450    -2.9950     1.2700 C.3   1 <1>   0.4860 
 13 C       -5.4760    -4.4320     0.8150 C.ar  1 <1>  -0.1430 
 14 C       -6.4060    -4.7650    -0.1620 C.ar  1 <1>   0.0830 
 15 C       -4.6550    -5.4120     1.3490 C.ar  1 <1>  -0.1500 
 16 O       -7.1940    -3.7780    -0.6480 O.3   1 <1>  -0.3630 
 17 C       -6.4830    -6.0690    -0.6450 C.ar  1 <1>  -0.1430 
 18 C       -4.7480    -6.7180     0.9000 C.ar  1 <1>  -0.1430 
 19 C       -8.5530    -3.7940    -0.2560 C.3   1 <1>   0.0400 
 20 C       -5.6550    -7.0350    -0.0970 C.ar  1 <1>  -0.1500 
 21 C       -7.4250    -6.4780    -1.7690 C.3   1 <1>  -0.0970 
 22 C       -3.8550    -7.7980     1.4850 C.3   1 <1>  -0.0970 
 23 H       -2.2680     1.0390    -0.6940 H     1 <1>   0.3700 
 24 H       -3.2870    -2.3640    -2.7160 H     1 <1>   0.0800 
 25 H       -2.0150     0.1960     1.4100 H     1 <1>   0.0800 
 26 H       -0.9490    -2.5150    -1.7550 H     1 <1>   0.0800 
 27 H       -1.9600    -3.9160    -1.5390 H     1 <1>   0.0800 
 28 H       -4.7720    -3.2720    -1.2390 H     1 <1>   0.0800 
 29 H       -5.0950    -1.5700    -1.1500 H     1 <1>   0.0800 
 30 H       -0.9010    -1.8750     1.7070 H     1 <1>   0.0800 
 31 H       -0.3440    -1.2830     0.1680 H     1 <1>   0.0800 
 32 H       -4.4360    -0.3560     1.1420 H     1 <1>   0.0800 
 33 H       -3.5840    -1.3250     2.3060 H     1 <1>   0.0800 
 34 H       -3.3880    -3.0650     0.6870 H     1 <1>   0.4500 
 35 H       -5.2040    -2.9770     2.3380 H     1 <1>   0.0800 
 36 H       -6.2420    -2.4460     1.0320 H     1 <1>   0.0800 
 37 H       -3.9380    -5.1730     2.1150 H     1 <1>   0.1500 
 38 H       -9.0170    -2.8890    -0.6040 H     1 <1>   0.0800 
 39 H       -8.6110    -3.8520     0.8160 H     1 <1>   0.0800 
 40 H       -9.0440    -4.6420    -0.6970 H     1 <1>   0.0800 
 41 H       -5.7130    -8.0490    -0.4530 H     1 <1>   0.1500 
 42 H       -6.9990    -7.2830    -2.3420 H     1 <1>   0.0800 
 43 H       -7.6020    -5.6560    -2.4390 H     1 <1>   0.0800 
 44 H       -8.3630    -6.8090    -1.3610 H     1 <1>   0.0800 
 45 H       -4.3620    -8.7460     1.4850 H     1 <1>   0.0800 
 46 H       -3.5860    -7.5620     2.4990 H     1 <1>   0.0800 
 47 H       -2.9570    -7.8870     0.9000 H     1 <1>   0.0800 
@<TRIPOS>BOND
  1   1   2  2   
  2   2   3  am  
  3   2   4  1   
  4   3   5  1   
  5   3  23  1   
  6   4   6  1   
  7   4   7  1   
  8   4  24  1   
  9   5   8  1   
 10   5   9  1   
 11   5  25  1   
 12   6  10  1   
 13   6  26  1   
 14   6  27  1   
 15   7  11  1   
 16   7  28  1   
 17   7  29  1   
 18   8  10  1   
 19   8  30  1   
 20   8  31  1   
 21   9  11  1   
 22   9  32  1   
 23   9  33  1   
 24  11  12  1   
 25  11  34  1   
 26  12  13  1   
 27  12  35  1   
 28  12  36  1   
 29  13  14  ar  
 30  13  15  ar  
 31  14  16  1   
 32  14  17  ar  
 33  15  18  ar  
 34  15  37  1   
 35  16  19  1   
 36  17  20  ar  
 37  17  21  1   
 38  18  20  ar  
 39  18  22  1   
 40  19  38  1   
 41  19  39  1   
 42  19  40  1   
 43  20  41  1   
 44  21  42  1   
 45  21  43  1   
 46  21  44  1   
 47  22  45  1   
 48  22  46  1   
 49  22  47  1   
@<TRIPOS>SUBSTRUCTURE
  1 ****  11 GROUP 4 **** **** 0

# MOE 2024.06 (io_trps.svl 2023.06)
