@<TRIPOS>MOLECULE
NONAME
33 35 1 0 0 
SMALL
USER_CHARGES


@<TRIPOS>ATOM
  1 F       -0.8890    -0.0550    -0.3690 F     1 <1>  -0.1900 
  2 C       -1.8600    -0.9420    -0.3730 C.ar  1 <1>   0.1900 
  3 C       -3.0220    -0.8130     0.3820 C.ar  1 <1>   0.3920 
  4 C       -1.7170    -2.0500    -1.1670 C.ar  1 <1>   0.1600 
  5 O       -3.3170     0.2160     1.2100 O.3   1 <1>  -0.3630 
  6 N       -3.9560    -1.7390     0.3300 N.ar  1 <1>  -0.6200 
  7 N       -2.6450    -2.9810    -1.2250 N.ar  1 <1>  -0.6200 
  8 C       -2.4610     1.3060     1.4770 C.3   1 <1>   0.0400 
  9 C       -3.7140    -2.7690    -0.4630 C.ar  1 <1>   0.7200 
 10 N       -4.6880    -3.6970    -0.4780 N.pl3 1 <1>  -0.8690 
 11 C       -4.9320    -4.5560    -1.6600 C.3   1 <1>   0.3900 
 12 C       -6.2410    -5.3230    -1.5090 C.2   1 <1>   0.1080 
 13 N       -7.1830    -5.3560    -2.4130 N.2   1 <1>  -0.7070 
 14 C       -6.5890    -6.0810    -0.3960 C.2   1 <1>  -0.1810 
 15 N       -8.1520    -6.1400    -1.8830 N.pl3 1 <1>   0.3000 
 16 C       -7.7910    -6.5770    -0.6640 C.2   1 <1>  -0.3320 
 17 C       -6.0790    -6.5090     0.9520 C.3   1 <1>   0.0210 
 18 C       -8.3570    -7.4400     0.4280 C.3   1 <1>   0.0200 
 19 C       -7.2790    -7.3020     1.5320 C.3   1 <1>  -0.1600 
 20 H       -0.8280    -2.1730    -1.7610 H     1 <1>   0.1500 
 21 H       -2.9510     1.9470     2.1880 H     1 <1>   0.0800 
 22 H       -2.2850     1.8460     0.5630 H     1 <1>   0.0800 
 23 H       -1.5410     0.9370     1.8940 H     1 <1>   0.0800 
 24 H       -5.5490    -3.3620    -0.0490 H     1 <1>   0.4000 
 25 H       -4.1230    -5.2560    -1.7690 H     1 <1>   0.0800 
 26 H       -4.9810    -3.9470    -2.5450 H     1 <1>   0.0800 
 27 H       -9.0280    -6.3490    -2.3750 H     1 <1>   0.2700 
 28 H       -5.8350    -5.6540     1.5580 H     1 <1>   0.0800 
 29 H       -5.2140    -7.1370     0.8350 H     1 <1>   0.0800 
 30 H       -8.4440    -8.4590     0.0940 H     1 <1>   0.0800 
 31 H       -9.3110    -7.0720     0.7620 H     1 <1>   0.0800 
 32 H       -7.6910    -6.7570     2.3630 H     1 <1>   0.0800 
 33 H       -6.9620    -8.2700     1.8770 H     1 <1>   0.0800 
@<TRIPOS>BOND
  1   1   2  1   
  2   2   3  ar  
  3   2   4  ar  
  4   3   5  1   
  5   3   6  ar  
  6   4   7  ar  
  7   4  20  1   
  8   5   8  1   
  9   6   9  ar  
 10   7   9  ar  
 11   8  21  1   
 12   8  22  1   
 13   8  23  1   
 14   9  10  1   
 15  10  11  1   
 16  10  24  1   
 17  11  12  1   
 18  11  25  1   
 19  11  26  1   
 20  12  13  2   
 21  12  14  1   
 22  13  15  1   
 23  14  16  2   
 24  14  17  1   
 25  15  16  1   
 26  15  27  1   
 27  16  18  1   
 28  17  19  1   
 29  17  28  1   
 30  17  29  1   
 31  18  19  1   
 32  18  30  1   
 33  18  31  1   
 34  19  32  1   
 35  19  33  1   
@<TRIPOS>SUBSTRUCTURE
  1 ****  10 GROUP 4 **** **** 0

# MOE 2024.06 (io_trps.svl 2023.06)
