@<TRIPOS>MOLECULE
NONAME
53 56 1 0 0 
SMALL
USER_CHARGES


@<TRIPOS>ATOM
  1 S       -0.6860     0.8440     1.9790 S.3   1 <1>  -0.0800 
  2 C        0.7100     0.1020     1.2020 C.2   1 <1>   0.3250 
  3 C       -1.3840    -0.7200     2.2460 C.2   1 <1>  -0.1100 
  4 N        0.6190    -1.1840     1.1670 N.2   1 <1>  -0.5650 
  5 C        1.7780     0.9390     0.6980 C.ar  1 <1>   0.0530 
  6 C       -0.5500    -1.6460     1.7530 C.2   1 <1>   0.0460 
  7 C        3.0200     0.3810     0.3950 C.ar  1 <1>  -0.1500 
  8 C        1.6360     2.3110     0.4820 C.ar  1 <1>  -0.1500 
  9 C       -0.7710    -3.1520     1.7590 C.3   1 <1>   0.5240 
 10 C        4.0630     1.1430    -0.0960 C.ar  1 <1>  -0.1500 
 11 C        2.6760     3.0790    -0.0090 C.ar  1 <1>  -0.1500 
 12 N       -0.4180    -3.6750     0.4080 N.4   1 <1>  -0.9590 
 13 C        3.9080     2.5080    -0.3050 C.ar  1 <1>  -0.1430 
 14 C       -1.4570    -3.3050    -0.5980 C.3   1 <1>   0.3430 
 15 C       -0.3230    -5.1630     0.4130 C.3   1 <1>   0.3430 
 16 C        5.0660     3.3570    -0.8580 C.3   1 <1>   1.1630 
 17 C       -2.3980    -4.5100    -0.6550 C.3   1 <1>   0.2000 
 18 C       -1.4290    -5.6840    -0.5150 C.3   1 <1>  -0.0800 
 19 F        5.0730     3.3780    -2.1840 F     1 <1>  -0.3400 
 20 F        5.0110     4.6240    -0.4640 F     1 <1>  -0.3400 
 21 F        6.2580     2.9060    -0.4850 F     1 <1>  -0.3400 
 22 O       -3.2270    -4.4770     0.4740 O.3   1 <1>  -0.5600 
 23 C       -2.0690    -6.9990    -0.0290 C.3   1 <1>   0.0200 
 24 C       -4.5110    -3.9790     0.2480 C.3   1 <1>   0.0400 
 25 C       -1.0350    -8.1050     0.0570 C.2   1 <1>  -0.0400 
 26 O       -0.0660    -8.0240     0.9290 O.3   1 <1>  -0.0190 
 27 C       -0.8770    -9.2490    -0.6260 C.2   1 <1>  -0.1500 
 28 N        0.7400    -9.0390     0.8570 N.2   1 <1>  -0.4100 
 29 C        0.2730    -9.8000    -0.0680 C.2   1 <1>   0.1080 
 30 C        0.8970   -11.1130    -0.4850 C.3   1 <1>  -0.0590 
 31 H       -2.3380    -0.7640     2.7420 H     1 <1>   0.1500 
 32 H        3.1720    -0.6730     0.5500 H     1 <1>   0.1500 
 33 H        0.7000     2.7980     0.6920 H     1 <1>   0.1500 
 34 H       -1.7920    -3.3880     2.0090 H     1 <1>   0.0800 
 35 H       -0.1200    -3.5910     2.4970 H     1 <1>   0.0800 
 36 H        5.0030     0.6630    -0.3160 H     1 <1>   0.1500 
 37 H        2.5160     4.1350    -0.1620 H     1 <1>   0.1500 
 38 H        0.4760    -3.2070     0.1810 H     1 <1>   0.4500 
 39 H       -1.9820    -2.4020    -0.3350 H     1 <1>   0.0800 
 40 H       -0.9920    -3.1760    -1.5620 H     1 <1>   0.0800 
 41 H        0.6430    -5.4950     0.0670 H     1 <1>   0.0800 
 42 H       -0.4800    -5.5430     1.4100 H     1 <1>   0.0800 
 43 H       -2.9860    -4.5580    -1.5570 H     1 <1>   0.0800 
 44 H       -0.9810    -5.8670    -1.4760 H     1 <1>   0.0800 
 45 H       -2.8450    -7.2960    -0.7120 H     1 <1>   0.0800 
 46 H       -2.5170    -6.8730     0.9420 H     1 <1>   0.0800 
 47 H       -5.0440    -3.9830     1.1840 H     1 <1>   0.0800 
 48 H       -5.0230    -4.6150    -0.4540 H     1 <1>   0.0800 
 49 H       -4.4510    -2.9720    -0.1290 H     1 <1>   0.0800 
 50 H       -1.4680    -9.6740    -1.4170 H     1 <1>   0.1500 
 51 H        0.1920   -11.9120    -0.3480 H     1 <1>   0.0800 
 52 H        1.7690   -11.3130     0.1120 H     1 <1>   0.0800 
 53 H        1.1870   -11.0690    -1.5190 H     1 <1>   0.0800 
@<TRIPOS>BOND
  1   1   2  1   
  2   1   3  1   
  3   2   4  2   
  4   2   5  1   
  5   3   6  2   
  6   3  31  1   
  7   4   6  1   
  8   5   7  ar  
  9   5   8  ar  
 10   6   9  1   
 11   7  10  ar  
 12   7  32  1   
 13   8  11  ar  
 14   8  33  1   
 15   9  12  1   
 16   9  34  1   
 17   9  35  1   
 18  10  13  ar  
 19  10  36  1   
 20  11  13  ar  
 21  11  37  1   
 22  12  14  1   
 23  12  15  1   
 24  12  38  1   
 25  13  16  1   
 26  14  17  1   
 27  14  39  1   
 28  14  40  1   
 29  15  18  1   
 30  15  41  1   
 31  15  42  1   
 32  16  19  1   
 33  16  20  1   
 34  16  21  1   
 35  17  18  1   
 36  17  22  1   
 37  17  43  1   
 38  18  23  1   
 39  18  44  1   
 40  22  24  1   
 41  23  25  1   
 42  23  45  1   
 43  23  46  1   
 44  24  47  1   
 45  24  48  1   
 46  24  49  1   
 47  25  26  1   
 48  25  27  2   
 49  26  28  1   
 50  27  29  1   
 51  27  50  1   
 52  28  29  2   
 53  29  30  1   
 54  30  51  1   
 55  30  52  1   
 56  30  53  1   
@<TRIPOS>SUBSTRUCTURE
  1 ****   4 GROUP 4 **** **** 0

# MOE 2024.06 (io_trps.svl 2023.06)
