@<TRIPOS>MOLECULE
NONAME
44 46 1 0 0 
SMALL
USER_CHARGES


@<TRIPOS>ATOM
  1 O       -1.7330    -1.7670     1.9370 O.co2 1 <1>  -0.9000 
  2 C       -1.5710    -1.4680     0.7470 C.2   1 <1>   0.9060 
  3 O       -0.7210    -0.6520     0.3740 O.co2 1 <1>  -0.9000 
  4 C       -2.5360    -2.0620    -0.2960 C.3   1 <1>   0.0040 
  5 N       -3.8680    -1.3760    -0.4600 N.3   1 <1>  -0.8100 
  6 C       -4.5240    -1.3210     0.8800 C.3   1 <1>   0.1100 
  7 C       -3.6230    -0.0260    -1.0200 C.3   1 <1>   0.1100 
  8 C       -6.0330    -0.9930     0.7970 C.3   1 <1>   0.4230 
  9 C       -4.8590     0.8990    -1.0500 C.3   1 <1>  -0.0800 
 10 N       -6.4290    -1.0430    -0.6600 N.4   1 <1>  -0.9590 
 11 C       -6.4060     0.3070     1.5580 C.3   1 <1>   0.1200 
 12 C       -5.0190     1.7150     0.2500 C.3   1 <1>   0.1200 
 13 C       -6.1660     0.1940    -1.4550 C.3   1 <1>   0.3430 
 14 C       -7.7490    -1.6470    -0.9400 C.3   1 <1>   0.4860 
 15 O       -6.2760     1.4870     0.8120 O.3   1 <1>  -0.5600 
 16 C       -7.8910    -2.9740    -0.2130 C.ar  1 <1>  -0.1440 
 17 C       -8.9640    -3.1800     0.6440 C.ar  1 <1>  -0.1500 
 18 C       -6.9530    -3.9860    -0.3880 C.ar  1 <1>  -0.1500 
 19 C       -9.0870    -4.3830     1.3190 C.ar  1 <1>   0.0820 
 20 C       -7.0810    -5.1850     0.2930 C.ar  1 <1>  -0.1500 
 21 O      -10.1190    -4.5980     2.1470 O.3   1 <1>  -0.5330 
 22 C       -8.1480    -5.3840     1.1480 C.ar  1 <1>  -0.1500 
 23 H       -2.7010    -3.0850    -0.0150 H     1 <1>   0.0800 
 24 H       -2.0190    -2.0690    -1.2380 H     1 <1>   0.0800 
 25 H       -4.4290    -2.2850     1.3520 H     1 <1>   0.0800 
 26 H       -4.0100    -0.6260     1.5220 H     1 <1>   0.0800 
 27 H       -2.8340     0.4670    -0.4720 H     1 <1>   0.0800 
 28 H       -3.2620    -0.1530    -2.0270 H     1 <1>   0.0800 
 29 H       -6.5200    -1.7960     1.3240 H     1 <1>   0.0800 
 30 H       -4.6520     1.6290    -1.8110 H     1 <1>   0.0800 
 31 H       -5.6760    -1.6790    -0.9910 H     1 <1>   0.4500 
 32 H       -5.8090     0.4040     2.4490 H     1 <1>   0.0800 
 33 H       -7.4350     0.2470     1.8640 H     1 <1>   0.0800 
 34 H       -4.9650     2.7670     0.0240 H     1 <1>   0.0800 
 35 H       -4.2530     1.4970     0.9760 H     1 <1>   0.0800 
 36 H       -6.1070    -0.0670    -2.4990 H     1 <1>   0.0800 
 37 H       -6.9820     0.8860    -1.3290 H     1 <1>   0.0800 
 38 H       -8.5270    -0.9740    -0.6190 H     1 <1>   0.0800 
 39 H       -7.8580    -1.8110    -1.9990 H     1 <1>   0.0800 
 40 H       -9.7060    -2.4150     0.7910 H     1 <1>   0.1500 
 41 H       -6.1120    -3.8560    -1.0500 H     1 <1>   0.1500 
 42 H       -6.3500    -5.9640     0.1580 H     1 <1>   0.1500 
 43 H      -10.7720    -3.8770     2.1730 H     1 <1>   0.4500 
 44 H       -8.2600    -6.3120     1.6820 H     1 <1>   0.1500 
@<TRIPOS>BOND
  1   1   2  ar  
  2   2   3  ar  
  3   2   4  1   
  4   4   5  1   
  5   4  23  1   
  6   4  24  1   
  7   5   6  1   
  8   5   7  1   
  9   6   8  1   
 10   6  25  1   
 11   6  26  1   
 12   7   9  1   
 13   7  27  1   
 14   7  28  1   
 15   8  10  1   
 16   8  11  1   
 17   8  29  1   
 18   9  12  1   
 19   9  13  1   
 20   9  30  1   
 21  10  13  1   
 22  10  14  1   
 23  10  31  1   
 24  11  15  1   
 25  11  32  1   
 26  11  33  1   
 27  12  15  1   
 28  12  34  1   
 29  12  35  1   
 30  13  36  1   
 31  13  37  1   
 32  14  16  1   
 33  14  38  1   
 34  14  39  1   
 35  16  17  ar  
 36  16  18  ar  
 37  17  19  ar  
 38  17  40  1   
 39  18  20  ar  
 40  18  41  1   
 41  19  21  1   
 42  19  22  ar  
 43  20  22  ar  
 44  20  42  1   
 45  21  43  1   
 46  22  44  1   
@<TRIPOS>SUBSTRUCTURE
  1 ****   8 GROUP 4 **** **** 0

# MOE 2024.06 (io_trps.svl 2023.06)
