@<TRIPOS>MOLECULE
NONAME
57 60 1 0 0 
SMALL
USER_CHARGES


@<TRIPOS>ATOM
  1 O       -1.0260     0.5990     2.9790 O.3   1 <1>  -0.5600 
  2 C       -0.2860     1.7640     2.7950 C.3   1 <1>   0.1200 
  3 C       -2.0700     0.5170     2.0540 C.3   1 <1>   0.1200 
  4 C       -0.4420     2.1040     1.3200 C.3   1 <1>   0.2890 
  5 C       -1.8600     1.6440     1.0370 C.3   1 <1>  -0.0800 
  6 N       -0.2820     3.5540     1.0460 N.pl3 1 <1>  -0.8690 
  7 C       -2.0770     1.2160    -0.4230 C.3   1 <1>  -0.0170 
  8 C        0.7430     4.2360     0.5140 C.ar  1 <1>   0.4100 
  9 C       -3.4950     0.7110    -0.6410 C.ar  1 <1>  -0.1430 
 10 N        0.5380     5.5260     0.4010 N.ar  1 <1>  -0.6200 
 11 C        1.9500     3.6320     0.1140 C.ar  1 <1>  -0.1500 
 12 C       -3.7890    -0.6350    -0.7360 C.ar  1 <1>  -0.1500 
 13 C       -4.5640     1.5760    -0.7540 C.ar  1 <1>  -0.1500 
 14 C        1.5050     6.2760    -0.1130 C.ar  1 <1>   0.7710 
 15 C        2.9300     4.4110    -0.4030 C.ar  1 <1>   0.2180 
 16 C       -5.1000    -1.0380    -0.9280 C.ar  1 <1>   0.1600 
 17 C       -5.8390     1.0700    -0.9460 C.ar  1 <1>   0.1600 
 18 N        2.6740     5.7370    -0.5020 N.ar  1 <1>  -0.1790 
 19 N        1.3230     7.6180    -0.2450 N.pl3 1 <1>  -0.8380 
 20 C        4.2810     3.8790    -0.8660 C.3   1 <1>  -0.0170 
 21 N       -6.1330    -0.2170    -1.0330 N.ar  1 <1>  -0.6200 
 22 C        2.2320     8.5940    -0.9250 C.3   1 <1>   0.2090 
 23 C        0.1300     8.3150     0.3430 C.3   1 <1>   0.2090 
 24 C        4.5030     4.0930    -2.3690 C.3   1 <1>  -0.2400 
 25 C        2.7670     9.5860     0.1120 C.3   1 <1>  -0.1600 
 26 C        0.6070     9.3160     1.3990 C.3   1 <1>  -0.1600 
 27 C        1.6210    10.3170     0.8250 C.3   1 <1>  -0.1600 
 28 H       -0.7140     2.5280     3.4190 H     1 <1>   0.0800 
 29 H        0.7360     1.5760     3.0690 H     1 <1>   0.0800 
 30 H       -2.0210    -0.4560     1.5970 H     1 <1>   0.0800 
 31 H       -3.0050     0.6230     2.5760 H     1 <1>   0.0800 
 32 H        0.2590     1.5180     0.7530 H     1 <1>   0.0800 
 33 H       -2.5520     2.4300     1.2850 H     1 <1>   0.0800 
 34 H       -1.0820     4.1240     1.3380 H     1 <1>   0.4000 
 35 H       -1.3750     0.4440    -0.6880 H     1 <1>   0.0800 
 36 H       -1.8990     2.0560    -1.0720 H     1 <1>   0.0800 
 37 H        2.0730     2.5730     0.2290 H     1 <1>   0.1500 
 38 H       -3.0150    -1.3770    -0.6630 H     1 <1>   0.1500 
 39 H       -4.4200     2.6400    -0.6960 H     1 <1>   0.1500 
 40 H       -5.3110    -2.0910    -1.0000 H     1 <1>   0.1500 
 41 H       -6.6600     1.7600    -1.0320 H     1 <1>   0.1500 
 42 H        3.3590     6.3900    -0.8570 H     1 <1>   0.4570 
 43 H        5.0700     4.3590    -0.3110 H     1 <1>   0.0800 
 44 H        4.3400     2.8240    -0.6560 H     1 <1>   0.0800 
 45 H        3.0510     8.1100    -1.4240 H     1 <1>   0.0800 
 46 H        1.6720     9.1320    -1.6740 H     1 <1>   0.0800 
 47 H       -0.4000     8.8340    -0.4380 H     1 <1>   0.0800 
 48 H       -0.5610     7.6270     0.7990 H     1 <1>   0.0800 
 49 H        4.5310     5.1370    -2.6220 H     1 <1>   0.0800 
 50 H        3.7220     3.6170    -2.9380 H     1 <1>   0.0800 
 51 H        5.4420     3.6540    -2.6630 H     1 <1>   0.0800 
 52 H        3.3670     9.0620     0.8350 H     1 <1>   0.0800 
 53 H        3.3980    10.3080    -0.3760 H     1 <1>   0.0800 
 54 H       -0.2420     9.8500     1.7890 H     1 <1>   0.0800 
 55 H        1.0520     8.7740     2.2160 H     1 <1>   0.0800 
 56 H        1.1200    10.9640     0.1240 H     1 <1>   0.0800 
 57 H        2.0140    10.9320     1.6170 H     1 <1>   0.0800 
@<TRIPOS>BOND
  1   1   2  1   
  2   1   3  1   
  3   2   4  1   
  4   2  28  1   
  5   2  29  1   
  6   3   5  1   
  7   3  30  1   
  8   3  31  1   
  9   4   5  1   
 10   4   6  1   
 11   4  32  1   
 12   5   7  1   
 13   5  33  1   
 14   6   8  1   
 15   6  34  1   
 16   7   9  1   
 17   7  35  1   
 18   7  36  1   
 19   8  10  ar  
 20   8  11  ar  
 21   9  12  ar  
 22   9  13  ar  
 23  10  14  ar  
 24  11  15  ar  
 25  11  37  1   
 26  12  16  ar  
 27  12  38  1   
 28  13  17  ar  
 29  13  39  1   
 30  14  18  ar  
 31  14  19  1   
 32  15  18  ar  
 33  15  20  1   
 34  16  21  ar  
 35  16  40  1   
 36  17  21  ar  
 37  17  41  1   
 38  18  42  1   
 39  19  22  1   
 40  19  23  1   
 41  20  24  1   
 42  20  43  1   
 43  20  44  1   
 44  22  25  1   
 45  22  45  1   
 46  22  46  1   
 47  23  26  1   
 48  23  47  1   
 49  23  48  1   
 50  24  49  1   
 51  24  50  1   
 52  24  51  1   
 53  25  27  1   
 54  25  52  1   
 55  25  53  1   
 56  26  27  1   
 57  26  54  1   
 58  26  55  1   
 59  27  56  1   
 60  27  57  1   
@<TRIPOS>SUBSTRUCTURE
  1 ****   6 GROUP 4 **** **** 0

# MOE 2024.06 (io_trps.svl 2023.06)
