@<TRIPOS>MOLECULE
NONAME
55 57 1 0 0 
SMALL
USER_CHARGES


@<TRIPOS>ATOM
  1 F       -3.5790     2.4750     1.4850 F     1 <1>  -0.1900 
  2 C       -2.4860     2.9310     0.9300 C.ar  1 <1>   0.1900 
  3 C       -2.2650     2.7080    -0.4210 C.ar  1 <1>  -0.1440 
  4 C       -1.5870     3.6130     1.7280 C.ar  1 <1>  -0.1500 
  5 C       -1.0870     3.1880    -0.9740 C.ar  1 <1>  -0.1500 
  6 C       -3.2730     1.9580    -1.2730 C.3   1 <1>   0.2840 
  7 C       -0.4190     4.0880     1.1580 C.ar  1 <1>  -0.1500 
  8 C       -0.1720     3.8730    -0.1890 C.ar  1 <1>  -0.1500 
  9 N       -3.1350     0.5200    -0.9950 N.am  1 <1>  -0.7300 
 10 C       -3.2530    -0.4700    -1.9180 C.2   1 <1>   0.5690 
 11 O       -3.4520    -0.2170    -3.0820 O.2   1 <1>  -0.5700 
 12 C       -3.0850    -1.9350    -1.4850 C.3   1 <1>   0.1710 
 13 N       -4.1820    -2.5080    -0.6480 N.3   1 <1>  -0.8100 
 14 C       -4.0730    -3.9730    -0.5490 C.3   1 <1>   0.1100 
 15 C       -4.2910    -1.8790     0.6860 C.3   1 <1>   0.1100 
 16 C       -5.4100    -4.5990    -0.0670 C.3   1 <1>   0.0000 
 17 C       -5.1270    -2.7220     1.6640 C.3   1 <1>  -0.1600 
 18 C       -6.1190    -3.5880     0.8890 C.3   1 <1>   0.2000 
 19 C       -6.3850    -4.7660    -1.2610 C.3   1 <1>   0.1200 
 20 C       -5.1310    -5.9580     0.6520 C.3   1 <1>  -0.0170 
 21 O       -6.9730    -4.2100     1.7870 O.3   1 <1>  -0.6800 
 22 O       -5.9090    -5.6180    -2.2460 O.3   1 <1>  -0.6800 
 23 C       -4.0290    -6.8450     0.0690 C.ar  1 <1>  -0.1430 
 24 C       -4.3200    -7.7920    -0.9010 C.ar  1 <1>  -0.1500 
 25 C       -2.7230    -6.7390     0.5290 C.ar  1 <1>  -0.1500 
 26 C       -3.3250    -8.6020    -1.4200 C.ar  1 <1>  -0.1500 
 27 C       -1.7250    -7.5460     0.0120 C.ar  1 <1>  -0.1500 
 28 C       -2.0240    -8.4780    -0.9650 C.ar  1 <1>  -0.1500 
 29 H       -1.7990     3.7660     2.7710 H     1 <1>   0.1500 
 30 H       -0.8750     3.0280    -2.0180 H     1 <1>   0.1500 
 31 H       -3.1020     2.1510    -2.3180 H     1 <1>   0.0800 
 32 H       -4.2740     2.2740    -1.0310 H     1 <1>   0.0800 
 33 H        0.2970     4.6230     1.7590 H     1 <1>   0.1500 
 34 H        0.7390     4.2420    -0.6300 H     1 <1>   0.1500 
 35 H       -2.9920     0.2910    -0.0120 H     1 <1>   0.3700 
 36 H       -2.1490    -2.0320    -0.9650 H     1 <1>   0.0800 
 37 H       -3.0090    -2.5110    -2.3900 H     1 <1>   0.0800 
 38 H       -3.7910    -4.3960    -1.4970 H     1 <1>   0.0800 
 39 H       -3.2850    -4.1980     0.1480 H     1 <1>   0.0800 
 40 H       -3.3120    -1.7210     1.1080 H     1 <1>   0.0800 
 41 H       -4.7680    -0.9210     0.5670 H     1 <1>   0.0800 
 42 H       -5.6520    -2.0620     2.3320 H     1 <1>   0.0800 
 43 H       -4.4700    -3.3420     2.2460 H     1 <1>   0.0800 
 44 H       -6.7310    -2.9180     0.3070 H     1 <1>   0.0800 
 45 H       -6.5660    -3.8110    -1.7270 H     1 <1>   0.0800 
 46 H       -7.3260    -5.1620    -0.9190 H     1 <1>   0.0800 
 47 H       -4.8500    -5.7590     1.6700 H     1 <1>   0.0800 
 48 H       -6.0440    -6.5260     0.6940 H     1 <1>   0.0800 
 49 H       -6.4660    -4.7340     2.4340 H     1 <1>   0.4000 
 50 H       -5.0650    -5.2860    -2.6060 H     1 <1>   0.4000 
 51 H       -5.3290    -7.9030    -1.2600 H     1 <1>   0.1500 
 52 H       -2.4740    -6.0290     1.2970 H     1 <1>   0.1500 
 53 H       -3.5660    -9.3280    -2.1760 H     1 <1>   0.1500 
 54 H       -0.7150    -7.4530     0.3730 H     1 <1>   0.1500 
 55 H       -1.2500    -9.1070    -1.3680 H     1 <1>   0.1500 
@<TRIPOS>BOND
  1   1   2  1   
  2   2   3  ar  
  3   2   4  ar  
  4   3   5  ar  
  5   3   6  1   
  6   4   7  ar  
  7   4  29  1   
  8   5   8  ar  
  9   5  30  1   
 10   6   9  1   
 11   6  31  1   
 12   6  32  1   
 13   7   8  ar  
 14   7  33  1   
 15   8  34  1   
 16   9  10  am  
 17   9  35  1   
 18  10  11  2   
 19  10  12  1   
 20  12  13  1   
 21  12  36  1   
 22  12  37  1   
 23  13  14  1   
 24  13  15  1   
 25  14  16  1   
 26  14  38  1   
 27  14  39  1   
 28  15  17  1   
 29  15  40  1   
 30  15  41  1   
 31  16  18  1   
 32  16  19  1   
 33  16  20  1   
 34  17  18  1   
 35  17  42  1   
 36  17  43  1   
 37  18  21  1   
 38  18  44  1   
 39  19  22  1   
 40  19  45  1   
 41  19  46  1   
 42  20  23  1   
 43  20  47  1   
 44  20  48  1   
 45  21  49  1   
 46  22  50  1   
 47  23  24  ar  
 48  23  25  ar  
 49  24  26  ar  
 50  24  51  1   
 51  25  27  ar  
 52  25  52  1   
 53  26  28  ar  
 54  26  53  1   
 55  27  28  ar  
 56  27  54  1   
 57  28  55  1   
@<TRIPOS>SUBSTRUCTURE
  1 ****  13 GROUP 4 **** **** 0

# MOE 2024.06 (io_trps.svl 2023.06)
