@<TRIPOS>MOLECULE
NONAME
46 48 1 0 0 
SMALL
USER_CHARGES


@<TRIPOS>ATOM
  1 S        0.0250     0.8140     0.8970 S.3   1 <1>  -0.3320 
  2 C        0.0840     2.4110     0.1110 C.ar  1 <1>   0.7720 
  3 C       -1.6970     0.1390     0.7740 C.3   1 <1>  -0.0100 
  4 N        1.2160     3.0280     0.1050 N.ar  1 <1>  -0.6200 
  5 N       -1.0580     2.8790    -0.4310 N.ar  1 <1>  -0.1790 
  6 C        1.2450     4.2280    -0.4860 C.ar  1 <1>   0.4100 
  7 C       -1.0740     4.0770    -1.0360 C.ar  1 <1>   0.4610 
  8 N        2.4570     4.8030    -0.4490 N.pl3 1 <1>  -0.8690 
  9 C        0.1160     4.7760    -1.0660 C.ar  1 <1>  -0.1500 
 10 N       -2.2200     4.5420    -1.5800 N.pl3 1 <1>  -0.9000 
 11 C        2.9110     6.1420    -0.8920 C.3   1 <1>   0.2090 
 12 C        3.7730     6.7730     0.2070 C.3   1 <1>  -0.0800 
 13 C        4.3150     8.1560    -0.1920 C.3   1 <1>   0.1400 
 14 C        5.0120     5.9340     0.5810 C.3   1 <1>  -0.0990 
 15 N        5.6880     8.1750     0.3420 N.am  1 <1>  -0.6600 
 16 C        6.0870     6.9610     0.7830 C.2   1 <1>   0.5690 
 17 C        6.5500     9.3870     0.3770 C.3   1 <1>   0.2200 
 18 O        7.1570     6.6930     1.2690 O.2   1 <1>  -0.5700 
 19 C        5.8970    10.5120     1.1800 C.3   1 <1>  -0.1600 
 20 C        6.7430     9.9750    -1.0180 C.3   1 <1>  -0.1600 
 21 C        5.1600    11.4150     0.1810 C.3   1 <1>  -0.1600 
 22 C        5.6270    11.0050    -1.2200 C.3   1 <1>  -0.1600 
 23 H       -1.6930    -0.8230     1.2590 H     1 <1>   0.0800 
 24 H       -1.9510     0.0240    -0.2650 H     1 <1>   0.0800 
 25 H       -2.3680     0.8050     1.2880 H     1 <1>   0.0800 
 26 H       -1.8950     2.3170    -0.3760 H     1 <1>   0.4570 
 27 H        3.1960     4.2340    -0.0190 H     1 <1>   0.4000 
 28 H        0.1620     5.7350    -1.5400 H     1 <1>   0.1500 
 29 H       -2.2590     5.4550    -2.0540 H     1 <1>   0.4000 
 30 H       -3.1360     4.0780    -1.5970 H     1 <1>   0.4000 
 31 H        2.0680     6.7780    -1.0980 H     1 <1>   0.0800 
 32 H        3.4890     6.0370    -1.7960 H     1 <1>   0.0800 
 33 H        3.1680     6.9080     1.0860 H     1 <1>   0.0800 
 34 H        3.7220     8.9420     0.2430 H     1 <1>   0.0800 
 35 H        4.3520     8.2720    -1.2610 H     1 <1>   0.0800 
 36 H        5.3170     5.2820    -0.2160 H     1 <1>   0.0800 
 37 H        4.8570     5.3700     1.4830 H     1 <1>   0.0800 
 38 H        7.5030     9.1260     0.8080 H     1 <1>   0.0800 
 39 H        6.6790    11.0860     1.6450 H     1 <1>   0.0800 
 40 H        5.2510    10.1330     1.9520 H     1 <1>   0.0800 
 41 H        6.7560     9.2160    -1.7810 H     1 <1>   0.0800 
 42 H        7.6880    10.4890    -1.0340 H     1 <1>   0.0800 
 43 H        5.3940    12.4480     0.3730 H     1 <1>   0.0800 
 44 H        4.0950    11.2850     0.2690 H     1 <1>   0.0800 
 45 H        4.8100    10.5590    -1.7590 H     1 <1>   0.0800 
 46 H        5.9830    11.8530    -1.7790 H     1 <1>   0.0800 
@<TRIPOS>BOND
  1   1   2  1   
  2   1   3  1   
  3   2   4  ar  
  4   2   5  ar  
  5   3  23  1   
  6   3  24  1   
  7   3  25  1   
  8   4   6  ar  
  9   5   7  ar  
 10   5  26  1   
 11   6   8  1   
 12   6   9  ar  
 13   7   9  ar  
 14   7  10  1   
 15   8  11  1   
 16   8  27  1   
 17   9  28  1   
 18  10  29  1   
 19  10  30  1   
 20  11  12  1   
 21  11  31  1   
 22  11  32  1   
 23  12  13  1   
 24  12  14  1   
 25  12  33  1   
 26  13  15  1   
 27  13  34  1   
 28  13  35  1   
 29  14  16  1   
 30  14  36  1   
 31  14  37  1   
 32  15  16  am  
 33  15  17  1   
 34  16  18  2   
 35  17  19  1   
 36  17  20  1   
 37  17  38  1   
 38  19  21  1   
 39  19  39  1   
 40  19  40  1   
 41  20  22  1   
 42  20  41  1   
 43  20  42  1   
 44  21  22  1   
 45  21  43  1   
 46  21  44  1   
 47  22  45  1   
 48  22  46  1   
@<TRIPOS>SUBSTRUCTURE
  1 ****  11 GROUP 4 **** **** 0

# MOE 2024.06 (io_trps.svl 2023.06)
