@<TRIPOS>MOLECULE
NONAME
45 47 1 0 0 
SMALL
USER_CHARGES


@<TRIPOS>ATOM
  1 O        0.6610     0.4590    -2.2300 O.2   1 <1>  -0.5700 
  2 C        1.2320     0.4730    -1.1550 C.2   1 <1>   0.5440 
  3 N        0.5960     1.0450    -0.0760 N.am  1 <1>  -0.6600 
  4 C        2.5410    -0.1160    -1.0430 C.ar  1 <1>   0.0860 
  5 C        1.2500     1.4000     1.2050 C.3   1 <1>   0.1400 
  6 C       -0.7650     1.6210    -0.1580 C.3   1 <1>   0.1400 
  7 C        2.7570    -1.2490    -0.2380 C.ar  1 <1>   0.4100 
  8 C        3.6170     0.3940    -1.7530 C.ar  1 <1>  -0.1500 
  9 C        0.1370     2.0110     2.0490 C.3   1 <1>  -0.1600 
 10 C       -0.8600     2.5650     1.0350 C.3   1 <1>  -0.1600 
 11 N        3.9340    -1.8540    -0.1120 N.ar  1 <1>  -0.6200 
 12 N        1.7280    -1.8010     0.4850 N.pl3 1 <1>  -0.8690 
 13 C        4.8360    -0.2310    -1.6200 C.ar  1 <1>  -0.1500 
 14 C        4.9370    -1.3380    -0.7950 C.ar  1 <1>   0.1600 
 15 C        1.5390    -3.2610     0.6450 C.3   1 <1>   0.4330 
 16 C        0.2220    -3.7080    -0.0310 C.ar  1 <1>   0.1670 
 17 C        1.6000    -3.5350     2.1480 C.3   1 <1>  -0.2400 
 18 N       -0.5620    -4.5740     0.6080 N.ar  1 <1>  -0.6200 
 19 C       -0.0920    -3.1940    -1.2850 C.ar  1 <1>  -0.1500 
 20 C       -1.6790    -4.9280    -0.0030 C.ar  1 <1>   0.1670 
 21 C       -1.2590    -3.5650    -1.9130 C.ar  1 <1>  -0.1500 
 22 C       -2.0680    -4.4560    -1.2460 C.ar  1 <1>  -0.1500 
 23 C       -2.5540    -5.9100     0.7460 C.3   1 <1>  -0.0970 
 24 H        2.0200     2.1280     1.0180 H     1 <1>   0.0800 
 25 H        1.6760     0.5380     1.6890 H     1 <1>   0.0800 
 26 H       -1.4860     0.8270    -0.0740 H     1 <1>   0.0800 
 27 H       -0.9100     2.1430    -1.0900 H     1 <1>   0.0800 
 28 H        3.4890     1.2510    -2.3920 H     1 <1>   0.1500 
 29 H        0.5100     2.7680     2.7160 H     1 <1>   0.0800 
 30 H       -0.3270     1.2310     2.6290 H     1 <1>   0.0800 
 31 H       -1.8610     2.6140     1.4260 H     1 <1>   0.0800 
 32 H       -0.5570     3.5500     0.7240 H     1 <1>   0.0800 
 33 H        0.8290    -1.3070     0.4550 H     1 <1>   0.4000 
 34 H        5.7000     0.1280    -2.1500 H     1 <1>   0.1500 
 35 H        5.8940    -1.8230    -0.6970 H     1 <1>   0.1500 
 36 H        2.3460    -3.7910     0.1690 H     1 <1>   0.0800 
 37 H        0.7830    -3.0490     2.6480 H     1 <1>   0.0800 
 38 H        2.5330    -3.1790     2.5450 H     1 <1>   0.0800 
 39 H        1.5340    -4.5920     2.3280 H     1 <1>   0.0800 
 40 H        0.5710    -2.5030    -1.7760 H     1 <1>   0.1500 
 41 H       -1.5220    -3.1740    -2.8810 H     1 <1>   0.1500 
 42 H       -2.9910    -4.7800    -1.6900 H     1 <1>   0.1500 
 43 H       -2.0020    -6.8150     0.9250 H     1 <1>   0.0800 
 44 H       -3.4400    -6.1470     0.1870 H     1 <1>   0.0800 
 45 H       -2.8390    -5.4870     1.6910 H     1 <1>   0.0800 
@<TRIPOS>BOND
  1   1   2  2   
  2   2   3  am  
  3   2   4  1   
  4   3   5  1   
  5   3   6  1   
  6   4   7  ar  
  7   4   8  ar  
  8   5   9  1   
  9   5  24  1   
 10   5  25  1   
 11   6  10  1   
 12   6  26  1   
 13   6  27  1   
 14   7  11  ar  
 15   7  12  1   
 16   8  13  ar  
 17   8  28  1   
 18   9  10  1   
 19   9  29  1   
 20   9  30  1   
 21  10  31  1   
 22  10  32  1   
 23  11  14  ar  
 24  12  15  1   
 25  12  33  1   
 26  13  14  ar  
 27  13  34  1   
 28  14  35  1   
 29  15  16  1   
 30  15  17  1   
 31  15  36  1   
 32  16  18  ar  
 33  16  19  ar  
 34  17  37  1   
 35  17  38  1   
 36  17  39  1   
 37  18  20  ar  
 38  19  21  ar  
 39  19  40  1   
 40  20  22  ar  
 41  20  23  1   
 42  21  22  ar  
 43  21  41  1   
 44  22  42  1   
 45  23  43  1   
 46  23  44  1   
 47  23  45  1   
@<TRIPOS>SUBSTRUCTURE
  1 ****  12 GROUP 4 **** **** 0

# MOE 2024.06 (io_trps.svl 2023.06)
