@<TRIPOS>MOLECULE
NONAME
38 38 1 0 0 
SMALL
USER_CHARGES


@<TRIPOS>ATOM
  1 O       -1.4170    -0.2550     0.0030 O.2   1 <1>  -0.5700 
  2 C       -2.1000     0.6380    -0.4500 C.2   1 <1>   0.5690 
  3 N       -3.1780     0.3450    -1.2510 N.am  1 <1>  -0.6600 
  4 C       -1.7370     2.0860    -0.0750 C.3   1 <1>  -0.0190 
  5 C       -3.3780    -1.0610    -1.7260 C.3   1 <1>   0.3200 
  6 C       -4.2510     1.3030    -1.6700 C.3   1 <1>   0.1400 
  7 C       -0.2150     2.2580     0.1390 C.3   1 <1>  -0.1600 
  8 C       -2.5330     2.5320     1.1680 C.3   1 <1>  -0.2400 
  9 C       -4.0760    -1.8950    -0.6640 C.2   1 <1>   0.0060 
 10 C       -5.6040     0.9500    -1.0380 C.3   1 <1>   0.1200 
 11 C        0.2290     3.7220     0.2950 C.3   1 <1>  -0.1600 
 12 N       -5.2360    -2.4580    -0.7970 N.2   1 <1>  -0.5650 
 13 N       -3.5070    -2.1110     0.5400 N.pl3 1 <1>   0.0330 
 14 O       -6.4820     2.0100    -1.2230 O.3   1 <1>  -0.6800 
 15 C        1.7550     3.8230     0.3770 C.3   1 <1>  -0.2400 
 16 C       -5.4310    -3.0730     0.3860 C.2   1 <1>   0.0770 
 17 C       -4.3850    -2.8710     1.2170 C.2   1 <1>  -0.3020 
 18 H       -1.9980     2.7180    -0.9030 H     1 <1>   0.0800 
 19 H       -2.4250    -1.5060    -1.9530 H     1 <1>   0.0800 
 20 H       -3.9650    -1.0660    -2.6270 H     1 <1>   0.0800 
 21 H       -4.3470     1.2800    -2.7410 H     1 <1>   0.0800 
 22 H       -3.9970     2.3050    -1.3820 H     1 <1>   0.0800 
 23 H        0.2940     1.8350    -0.7100 H     1 <1>   0.0800 
 24 H        0.0910     1.6980     1.0060 H     1 <1>   0.0800 
 25 H       -2.2060     1.9810     2.0330 H     1 <1>   0.0800 
 26 H       -3.5830     2.3480     1.0290 H     1 <1>   0.0800 
 27 H       -2.4010     3.5820     1.3550 H     1 <1>   0.0800 
 28 H       -5.5090     0.7680     0.0190 H     1 <1>   0.0800 
 29 H       -6.0300     0.0830    -1.5140 H     1 <1>   0.0800 
 30 H       -0.1910     4.1440     1.1910 H     1 <1>   0.0800 
 31 H       -0.1170     4.2990    -0.5450 H     1 <1>   0.0800 
 32 H       -2.5950    -1.7270     0.8300 H     1 <1>   0.2700 
 33 H       -6.3260     2.7140    -0.5650 H     1 <1>   0.4000 
 34 H        2.1240     3.2660     1.2210 H     1 <1>   0.0800 
 35 H        2.0500     4.8510     0.4920 H     1 <1>   0.0800 
 36 H        2.2080     3.4360    -0.5180 H     1 <1>   0.0800 
 37 H       -6.3290    -3.6360     0.5800 H     1 <1>   0.1500 
 38 H       -4.2210    -3.2150     2.2210 H     1 <1>   0.1500 
@<TRIPOS>BOND
  1   1   2  2   
  2   2   3  am  
  3   2   4  1   
  4   3   5  1   
  5   3   6  1   
  6   4   7  1   
  7   4   8  1   
  8   4  18  1   
  9   5   9  1   
 10   5  19  1   
 11   5  20  1   
 12   6  10  1   
 13   6  21  1   
 14   6  22  1   
 15   7  11  1   
 16   7  23  1   
 17   7  24  1   
 18   8  25  1   
 19   8  26  1   
 20   8  27  1   
 21   9  12  2   
 22   9  13  1   
 23  10  14  1   
 24  10  28  1   
 25  10  29  1   
 26  11  15  1   
 27  11  30  1   
 28  11  31  1   
 29  12  16  1   
 30  13  17  1   
 31  13  32  1   
 32  14  33  1   
 33  15  34  1   
 34  15  35  1   
 35  15  36  1   
 36  16  17  2   
 37  16  37  1   
 38  17  38  1   
@<TRIPOS>SUBSTRUCTURE
  1 ****   3 GROUP 4 **** **** 0

# MOE 2024.06 (io_trps.svl 2023.06)
