@<TRIPOS>MOLECULE
NONAME
52 55 1 0 0 
SMALL
USER_CHARGES


@<TRIPOS>ATOM
  1 S       -0.9250    -0.4130    -0.0620 S.3   1 <1>  -0.0800 
  2 C       -0.1050     0.6570     1.0720 C.2   1 <1>   0.3250 
  3 C       -0.9920    -1.6570     1.1500 C.2   1 <1>  -0.1400 
  4 N        0.1080     0.0880     2.2080 N.2   1 <1>  -0.5650 
  5 C        0.2770     1.9800     0.6430 C.ar  1 <1>   0.0530 
  6 C       -0.3850    -1.1970     2.2530 C.2   1 <1>   0.0770 
  7 C       -1.6590    -2.9710     0.8150 C.3   1 <1>   0.5230 
  8 C       -0.5960     2.8640    -0.0120 C.ar  1 <1>   0.0830 
  9 C        1.5780     2.4150     0.8970 C.ar  1 <1>  -0.1500 
 10 N       -3.1410    -2.7870     0.8550 N.4   1 <1>  -0.9590 
 11 O       -1.8800     2.4680    -0.2120 O.3   1 <1>  -0.3620 
 12 C       -0.1430     4.1170    -0.4190 C.ar  1 <1>  -0.1500 
 13 C        2.0190     3.6610     0.4970 C.ar  1 <1>  -0.1500 
 14 C       -3.6700    -2.0950    -0.3720 C.3   1 <1>   0.3430 
 15 C       -3.8290    -4.1090     0.9420 C.3   1 <1>   0.3430 
 16 C       -2.8660     3.3390    -0.7260 C.3   1 <1>   0.0400 
 17 C        1.1570     4.5140    -0.1680 C.ar  1 <1>  -0.1500 
 18 C       -4.7580    -3.0070    -0.9570 C.3   1 <1>   0.2000 
 19 C       -4.3820    -4.3980    -0.4570 C.3   1 <1>  -0.0800 
 20 O       -5.9990    -2.6560    -0.4390 O.3   1 <1>  -0.6800 
 21 C       -3.3440    -5.0520    -1.3970 C.3   1 <1>   0.0210 
 22 C       -2.5430    -6.1440    -0.7190 C.2   1 <1>   0.1080 
 23 N       -1.5160    -5.8950     0.0380 N.2   1 <1>  -0.7070 
 24 C       -2.8010    -7.5050    -0.8310 C.2   1 <1>  -0.1500 
 25 N       -1.0720    -7.1180     0.4130 N.pl3 1 <1>   0.3000 
 26 C       -1.8430    -8.1020    -0.0940 C.2   1 <1>  -0.3320 
 27 C       -1.6070    -9.5820     0.1520 C.3   1 <1>  -0.0600 
 28 H       -0.2510    -1.7390     3.1760 H     1 <1>   0.1500 
 29 H       -1.3680    -3.7070     1.5460 H     1 <1>   0.0800 
 30 H       -1.3400    -3.3240    -0.1530 H     1 <1>   0.0800 
 31 H        2.2530     1.7580     1.4170 H     1 <1>   0.1500 
 32 H       -3.3460    -2.2170     1.6860 H     1 <1>   0.4500 
 33 H       -0.7860     4.8050    -0.9330 H     1 <1>   0.1500 
 34 H        3.0300     3.9700     0.7020 H     1 <1>   0.1500 
 35 H       -4.0660    -1.1180    -0.1450 H     1 <1>   0.0800 
 36 H       -2.8790    -1.9890    -1.0960 H     1 <1>   0.0800 
 37 H       -3.1740    -4.8880     1.2960 H     1 <1>   0.0800 
 38 H       -4.6560    -4.0330     1.6290 H     1 <1>   0.0800 
 39 H       -3.8050     2.8170    -0.7320 H     1 <1>   0.0800 
 40 H       -2.5980     3.6180    -1.7300 H     1 <1>   0.0800 
 41 H       -2.9340     4.2040    -0.0910 H     1 <1>   0.0800 
 42 H        1.4990     5.4840    -0.4840 H     1 <1>   0.1500 
 43 H       -4.8190    -2.9360    -2.0300 H     1 <1>   0.0800 
 44 H       -5.2390    -5.0470    -0.3940 H     1 <1>   0.0800 
 45 H       -6.0530    -2.7300     0.5330 H     1 <1>   0.4000 
 46 H       -2.6440    -4.3240    -1.7670 H     1 <1>   0.0800 
 47 H       -3.8490    -5.4650    -2.2530 H     1 <1>   0.0800 
 48 H       -3.5950    -7.9640    -1.3960 H     1 <1>   0.1500 
 49 H       -0.2410    -7.2590     1.0020 H     1 <1>   0.2700 
 50 H       -2.3500   -10.1660    -0.3620 H     1 <1>   0.0800 
 51 H       -1.6670    -9.8020     1.2030 H     1 <1>   0.0800 
 52 H       -0.6360    -9.8710    -0.2120 H     1 <1>   0.0800 
@<TRIPOS>BOND
  1   1   2  1   
  2   1   3  1   
  3   2   4  2   
  4   2   5  1   
  5   3   6  2   
  6   3   7  1   
  7   4   6  1   
  8   5   8  ar  
  9   5   9  ar  
 10   6  28  1   
 11   7  10  1   
 12   7  29  1   
 13   7  30  1   
 14   8  11  1   
 15   8  12  ar  
 16   9  13  ar  
 17   9  31  1   
 18  10  14  1   
 19  10  15  1   
 20  10  32  1   
 21  11  16  1   
 22  12  17  ar  
 23  12  33  1   
 24  13  17  ar  
 25  13  34  1   
 26  14  18  1   
 27  14  35  1   
 28  14  36  1   
 29  15  19  1   
 30  15  37  1   
 31  15  38  1   
 32  16  39  1   
 33  16  40  1   
 34  16  41  1   
 35  17  42  1   
 36  18  19  1   
 37  18  20  1   
 38  18  43  1   
 39  19  21  1   
 40  19  44  1   
 41  20  45  1   
 42  21  22  1   
 43  21  46  1   
 44  21  47  1   
 45  22  23  2   
 46  22  24  1   
 47  23  25  1   
 48  24  26  2   
 49  24  48  1   
 50  25  26  1   
 51  25  49  1   
 52  26  27  1   
 53  27  50  1   
 54  27  51  1   
 55  27  52  1   
@<TRIPOS>SUBSTRUCTURE
  1 ****   3 GROUP 4 **** **** 0

# MOE 2024.06 (io_trps.svl 2023.06)
