@<TRIPOS>MOLECULE
NONAME
53 55 1 0 0 
SMALL
USER_CHARGES


@<TRIPOS>ATOM
  1 O       -1.2480     0.7210    -1.6560 O.2   1 <1>  -0.5700 
  2 C       -2.1630     1.1200    -0.9730 C.2   1 <1>   0.5690 
  3 N       -3.3740     0.4640    -0.9600 N.am  1 <1>  -0.6600 
  4 C       -1.9350     2.3880    -0.1330 C.3   1 <1>  -0.0190 
  5 C       -3.5370    -0.8490    -1.6470 C.3   1 <1>   0.1400 
  6 C       -4.6280     0.9300    -0.3060 C.3   1 <1>   0.1400 
  7 C       -2.3810     3.6510    -0.8960 C.3   1 <1>  -0.1600 
  8 C       -0.4710     2.5540     0.3560 C.3   1 <1>  -0.1600 
  9 C       -3.9690    -1.9080    -0.6280 C.3   1 <1>  -0.1600 
 10 C       -5.0560    -0.0940     0.7500 C.3   1 <1>  -0.1600 
 11 C       -2.3580     4.9110    -0.0040 C.3   1 <1>   0.2000 
 12 C       -0.1240     3.9860     0.8160 C.3   1 <1>  -0.1600 
 13 C       -5.2420    -1.4930     0.1350 C.3   1 <1>  -0.0800 
 14 O       -1.9870     6.0120    -0.7980 O.3   1 <1>  -0.5600 
 15 C       -1.3730     4.7890     1.1880 C.3   1 <1>   0.2000 
 16 C       -5.6180    -2.5160     1.2230 C.3   1 <1>  -0.0170 
 17 C       -2.9960     6.5320    -1.6060 C.3   1 <1>   0.0400 
 18 O       -0.9730     6.0500     1.5780 O.3   1 <1>  -0.6800 
 19 C       -5.9190    -3.8900     0.6400 C.ar  1 <1>  -0.1440 
 20 C       -4.9830    -4.9100     0.7190 C.ar  1 <1>  -0.1500 
 21 C       -7.1370    -4.1330     0.0230 C.ar  1 <1>  -0.1500 
 22 C       -5.2600    -6.1570     0.1860 C.ar  1 <1>  -0.1500 
 23 C       -7.4150    -5.3790    -0.5110 C.ar  1 <1>  -0.1500 
 24 C       -6.4760    -6.3920    -0.4300 C.ar  1 <1>  -0.1500 
 25 H       -2.5320     2.2960     0.7540 H     1 <1>   0.0800 
 26 H       -4.2830    -0.7540    -2.4180 H     1 <1>   0.0800 
 27 H       -2.6170    -1.1580    -2.1140 H     1 <1>   0.0800 
 28 H       -4.5090     1.8950     0.1470 H     1 <1>   0.0800 
 29 H       -5.3970     1.0160    -1.0550 H     1 <1>   0.0800 
 30 H       -3.3730     3.5110    -1.2850 H     1 <1>   0.0800 
 31 H       -1.7120     3.7860    -1.7290 H     1 <1>   0.0800 
 32 H       -0.3010     1.8630     1.1640 H     1 <1>   0.0800 
 33 H        0.2170     2.2920    -0.4310 H     1 <1>   0.0800 
 34 H       -4.1390    -2.8330    -1.1500 H     1 <1>   0.0800 
 35 H       -3.1590    -2.0670     0.0630 H     1 <1>   0.0800 
 36 H       -4.3070    -0.1270     1.5230 H     1 <1>   0.0800 
 37 H       -5.9780     0.2310     1.1970 H     1 <1>   0.0800 
 38 H       -3.3380     5.0960     0.4020 H     1 <1>   0.0800 
 39 H        0.3760     4.4940     0.0090 H     1 <1>   0.0800 
 40 H        0.5480     3.9430     1.6550 H     1 <1>   0.0800 
 41 H       -6.0530    -1.4430    -0.5720 H     1 <1>   0.0800 
 42 H       -1.8580     4.3240     2.0290 H     1 <1>   0.0800 
 43 H       -6.4880    -2.1720     1.7540 H     1 <1>   0.0800 
 44 H       -4.8180    -2.5940     1.9390 H     1 <1>   0.0800 
 45 H       -2.5940     7.3760    -2.1390 H     1 <1>   0.0800 
 46 H       -3.8170     6.8530    -0.9890 H     1 <1>   0.0800 
 47 H       -3.3180     5.7840    -2.3090 H     1 <1>   0.0800 
 48 H       -0.9550     6.5900     0.7540 H     1 <1>   0.4000 
 49 H       -4.0340    -4.7380     1.1950 H     1 <1>   0.1500 
 50 H       -7.8730    -3.3520    -0.0450 H     1 <1>   0.1500 
 51 H       -4.5280    -6.9430     0.2500 H     1 <1>   0.1500 
 52 H       -8.3620    -5.5600    -0.9890 H     1 <1>   0.1500 
 53 H       -6.6920    -7.3610    -0.8450 H     1 <1>   0.1500 
@<TRIPOS>BOND
  1   1   2  2   
  2   2   3  am  
  3   2   4  1   
  4   3   5  1   
  5   3   6  1   
  6   4   7  1   
  7   4   8  1   
  8   4  25  1   
  9   5   9  1   
 10   5  26  1   
 11   5  27  1   
 12   6  10  1   
 13   6  28  1   
 14   6  29  1   
 15   7  11  1   
 16   7  30  1   
 17   7  31  1   
 18   8  12  1   
 19   8  32  1   
 20   8  33  1   
 21   9  13  1   
 22   9  34  1   
 23   9  35  1   
 24  10  13  1   
 25  10  36  1   
 26  10  37  1   
 27  11  14  1   
 28  11  15  1   
 29  11  38  1   
 30  12  15  1   
 31  12  39  1   
 32  12  40  1   
 33  13  16  1   
 34  13  41  1   
 35  14  17  1   
 36  15  18  1   
 37  15  42  1   
 38  16  19  1   
 39  16  43  1   
 40  16  44  1   
 41  17  45  1   
 42  17  46  1   
 43  17  47  1   
 44  18  48  1   
 45  19  20  ar  
 46  19  21  ar  
 47  20  22  ar  
 48  20  49  1   
 49  21  23  ar  
 50  21  50  1   
 51  22  24  ar  
 52  22  51  1   
 53  23  24  ar  
 54  23  52  1   
 55  24  53  1   
@<TRIPOS>SUBSTRUCTURE
  1 ****   3 GROUP 4 **** **** 0

# MOE 2024.06 (io_trps.svl 2023.06)
