@<TRIPOS>MOLECULE
NONAME
43 44 1 0 0 
SMALL
USER_CHARGES


@<TRIPOS>ATOM
  1 CL      -0.1570    -4.3610    -1.3750 Cl    1 <1>  -0.1770 
  2 C       -1.6450    -3.5430    -0.9720 C.ar  1 <1>   0.1770 
  3 C       -2.4880    -4.1040    -0.0330 C.ar  1 <1>  -0.1500 
  4 C       -1.9490    -2.3510    -1.6030 C.ar  1 <1>  -0.1500 
  5 C       -3.6780    -3.4530     0.2800 C.ar  1 <1>   0.0830 
  6 C       -3.1300    -1.7010    -1.2840 C.ar  1 <1>  -0.1500 
  7 O       -4.5870    -3.9210     1.1730 O.3   1 <1>  -0.3630 
  8 C       -3.9860    -2.2530    -0.3460 C.ar  1 <1>  -0.1500 
  9 C       -4.5240    -5.2390     1.6990 C.3   1 <1>   0.2610 
 10 C       -4.6110    -6.3300     0.6080 C.2   1 <1>   0.5690 
 11 C       -5.6160    -5.3670     2.7680 C.3   1 <1>  -0.2400 
 12 O       -3.8080    -7.2330     0.7050 O.2   1 <1>  -0.5700 
 13 N       -5.5320    -6.3280    -0.4200 N.am  1 <1>  -0.6600 
 14 C       -5.3920    -7.2990    -1.5390 C.3   1 <1>   0.3200 
 15 C       -6.6830    -5.3810    -0.5610 C.3   1 <1>   0.1400 
 16 C       -6.0440    -8.6080    -1.1490 C.2   1 <1>  -0.3320 
 17 C       -8.0180    -6.0920    -0.3170 C.3   1 <1>   0.1200 
 18 N       -5.6070    -9.3380    -0.1090 N.pl3 1 <1>   0.0330 
 19 C       -7.0840    -9.2880    -1.6780 C.2   1 <1>   0.0770 
 20 O       -9.0400    -5.1520    -0.3130 O.3   1 <1>  -0.6800 
 21 C       -6.4150   -10.4180    -0.0660 C.2   1 <1>   0.0060 
 22 N       -7.3160   -10.4240    -0.9930 N.2   1 <1>  -0.5650 
 23 C       -6.2670   -11.5070     0.9740 C.3   1 <1>  -0.0600 
 24 H       -2.1930    -5.0280     0.4260 H     1 <1>   0.1500 
 25 H       -1.2710    -1.9400    -2.3290 H     1 <1>   0.1500 
 26 H       -3.3810    -0.7700    -1.7630 H     1 <1>   0.1500 
 27 H       -4.9040    -1.7520    -0.0930 H     1 <1>   0.1500 
 28 H       -3.5720    -5.3330     2.1900 H     1 <1>   0.0800 
 29 H       -6.5930    -5.2470     2.3390 H     1 <1>   0.0800 
 30 H       -5.4690    -4.6260     3.5320 H     1 <1>   0.0800 
 31 H       -5.5620    -6.3400     3.2220 H     1 <1>   0.0800 
 32 H       -4.3480    -7.4640    -1.7500 H     1 <1>   0.0800 
 33 H       -5.8510    -6.9090    -2.4310 H     1 <1>   0.0800 
 34 H       -6.6770    -4.9620    -1.5530 H     1 <1>   0.0800 
 35 H       -6.5970    -4.5700     0.1340 H     1 <1>   0.0800 
 36 H       -8.0220    -6.6050     0.6290 H     1 <1>   0.0800 
 37 H       -8.2260    -6.7920    -1.1070 H     1 <1>   0.0800 
 38 H       -4.8240    -9.0850     0.5080 H     1 <1>   0.2700 
 39 H       -7.6900    -9.0220    -2.5280 H     1 <1>   0.1500 
 40 H       -9.0250    -4.6190     0.5060 H     1 <1>   0.4000 
 41 H       -5.2970   -11.9610     0.8950 H     1 <1>   0.0800 
 42 H       -7.0160   -12.2620     0.8160 H     1 <1>   0.0800 
 43 H       -6.3920   -11.0960     1.9580 H     1 <1>   0.0800 
@<TRIPOS>BOND
  1   1   2  1   
  2   2   3  ar  
  3   2   4  ar  
  4   3   5  ar  
  5   3  24  1   
  6   4   6  ar  
  7   4  25  1   
  8   5   7  1   
  9   5   8  ar  
 10   6   8  ar  
 11   6  26  1   
 12   7   9  1   
 13   8  27  1   
 14   9  10  1   
 15   9  11  1   
 16   9  28  1   
 17  10  12  2   
 18  10  13  am  
 19  11  29  1   
 20  11  30  1   
 21  11  31  1   
 22  13  14  1   
 23  13  15  1   
 24  14  16  1   
 25  14  32  1   
 26  14  33  1   
 27  15  17  1   
 28  15  34  1   
 29  15  35  1   
 30  16  18  1   
 31  16  19  2   
 32  17  20  1   
 33  17  36  1   
 34  17  37  1   
 35  18  21  1   
 36  18  38  1   
 37  19  22  1   
 38  19  39  1   
 39  20  40  1   
 40  21  22  2   
 41  21  23  1   
 42  23  41  1   
 43  23  42  1   
 44  23  43  1   
@<TRIPOS>SUBSTRUCTURE
  1 ****  13 GROUP 4 **** **** 0

# MOE 2024.06 (io_trps.svl 2023.06)
