@<TRIPOS>MOLECULE
NONAME
60 62 1 0 0 
SMALL
USER_CHARGES


@<TRIPOS>ATOM
  1 S       -2.1450     3.0810     1.0560 S.o2  1 <1>   1.2040 
  2 O       -2.6480     3.1530     2.4100 O.2   1 <1>  -0.6500 
  3 O       -1.6640     4.2760     0.3990 O.2   1 <1>  -0.6500 
  4 C       -3.3590     2.2490     0.0030 C.ar  1 <1>  -0.0090 
  5 C       -0.8010     1.9110     1.0600 C.3   1 <1>  -0.1350 
  6 C       -3.4720     2.5570    -1.3470 C.ar  1 <1>  -0.1500 
  7 C       -4.1890     1.2600     0.5120 C.ar  1 <1>  -0.1500 
  8 C       -4.3840     1.9060    -2.1590 C.ar  1 <1>  -0.1500 
  9 C       -5.1010     0.6010    -0.2940 C.ar  1 <1>  -0.1500 
 10 C       -5.2110     0.9250    -1.6370 C.ar  1 <1>  -0.1430 
 11 C       -6.2350     0.2240    -2.5300 C.3   1 <1>   0.0440 
 12 C       -7.5860    -0.0290    -1.8670 C.2   1 <1>   0.5690 
 13 O       -7.9630    -1.1780    -1.8210 O.2   1 <1>  -0.5700 
 14 N       -8.3440     0.9980    -1.3530 N.am  1 <1>  -0.6600 
 15 C       -7.9140     2.4290    -1.3890 C.3   1 <1>   0.1400 
 16 C       -9.6070     0.7030    -0.6090 C.3   1 <1>   0.1400 
 17 C       -9.1070     3.3550    -1.1510 C.3   1 <1>  -0.1600 
 18 C       -9.7300     1.6200     0.6110 C.3   1 <1>  -0.1600 
 19 C       -9.7180     3.1280     0.2530 C.3   1 <1>   0.2800 
 20 O       -8.8000     3.7130     1.1470 O.3   1 <1>  -0.5600 
 21 C      -11.1520     3.7400     0.4030 C.3   1 <1>   0.2000 
 22 C       -9.1680     4.8200     1.9140 C.3   1 <1>   0.1200 
 23 O      -12.0040     3.2310    -0.5900 O.3   1 <1>  -0.6800 
 24 C      -11.1980     5.3060     0.4930 C.3   1 <1>   0.3000 
 25 C       -9.8510     5.8450     1.0120 C.3   1 <1>  -0.1600 
 26 N      -12.2050     5.7620     1.4850 N.am  1 <1>  -0.7300 
 27 C      -11.5230     6.0160    -0.8320 C.3   1 <1>  -0.2400 
 28 C      -13.5030     5.4730     1.7430 C.2   1 <1>   0.5690 
 29 O      -14.0400     6.0370     2.6590 O.2   1 <1>  -0.5700 
 30 C      -14.3180     4.4860     0.9460 C.3   1 <1>  -0.1790 
 31 H       -1.1230     0.9730     1.4680 H     1 <1>   0.0800 
 32 H        0.0070     2.2850     1.6570 H     1 <1>   0.0800 
 33 H       -0.4430     1.7510     0.0610 H     1 <1>   0.0800 
 34 H       -2.8390     3.3200    -1.7700 H     1 <1>   0.1500 
 35 H       -4.1300     1.0030     1.5570 H     1 <1>   0.1500 
 36 H       -4.4460     2.1720    -3.2010 H     1 <1>   0.1500 
 37 H       -5.7320    -0.1600     0.1350 H     1 <1>   0.1500 
 38 H       -5.8240    -0.7210    -2.8340 H     1 <1>   0.0800 
 39 H       -6.4070     0.7970    -3.4210 H     1 <1>   0.0800 
 40 H       -7.1750     2.5950    -0.6220 H     1 <1>   0.0800 
 41 H       -7.4720     2.6540    -2.3430 H     1 <1>   0.0800 
 42 H      -10.4470     0.8480    -1.2670 H     1 <1>   0.0800 
 43 H       -9.6160    -0.3230    -0.2820 H     1 <1>   0.0800 
 44 H       -9.8250     3.1630    -1.9260 H     1 <1>   0.0800 
 45 H       -8.7840     4.3720    -1.2580 H     1 <1>   0.0800 
 46 H       -8.9110     1.3900     1.2700 H     1 <1>   0.0800 
 47 H      -10.6350     1.3620     1.1300 H     1 <1>   0.0800 
 48 H      -11.5380     3.3670     1.3350 H     1 <1>   0.0800 
 49 H       -9.8170     4.4910     2.7080 H     1 <1>   0.0800 
 50 H       -8.2700     5.2280     2.3440 H     1 <1>   0.0800 
 51 H      -11.7600     3.5920    -1.4640 H     1 <1>   0.4000 
 52 H       -9.9870     6.7690     1.5460 H     1 <1>   0.0800 
 53 H       -9.1820     6.0610     0.2000 H     1 <1>   0.0800 
 54 H      -11.8540     6.4940     2.1030 H     1 <1>   0.3700 
 55 H      -10.8060     5.7550    -1.5880 H     1 <1>   0.0800 
 56 H      -11.4940     7.0830    -0.6980 H     1 <1>   0.0800 
 57 H      -12.5000     5.7480    -1.1880 H     1 <1>   0.0800 
 58 H      -14.2180     4.6740    -0.1040 H     1 <1>   0.0800 
 59 H      -15.3550     4.5820     1.2100 H     1 <1>   0.0800 
 60 H      -14.0020     3.4860     1.1700 H     1 <1>   0.0800 
@<TRIPOS>BOND
  1   1   2  2   
  2   1   3  2   
  3   1   4  1   
  4   1   5  1   
  5   4   6  ar  
  6   4   7  ar  
  7   5  31  1   
  8   5  32  1   
  9   5  33  1   
 10   6   8  ar  
 11   6  34  1   
 12   7   9  ar  
 13   7  35  1   
 14   8  10  ar  
 15   8  36  1   
 16   9  10  ar  
 17   9  37  1   
 18  10  11  1   
 19  11  12  1   
 20  11  38  1   
 21  11  39  1   
 22  12  13  2   
 23  12  14  am  
 24  14  15  1   
 25  14  16  1   
 26  15  17  1   
 27  15  40  1   
 28  15  41  1   
 29  16  18  1   
 30  16  42  1   
 31  16  43  1   
 32  17  19  1   
 33  17  44  1   
 34  17  45  1   
 35  18  19  1   
 36  18  46  1   
 37  18  47  1   
 38  19  20  1   
 39  19  21  1   
 40  20  22  1   
 41  21  23  1   
 42  21  24  1   
 43  21  48  1   
 44  22  25  1   
 45  22  49  1   
 46  22  50  1   
 47  23  51  1   
 48  24  25  1   
 49  24  26  1   
 50  24  27  1   
 51  25  52  1   
 52  25  53  1   
 53  26  28  am  
 54  26  54  1   
 55  27  55  1   
 56  27  56  1   
 57  27  57  1   
 58  28  29  2   
 59  28  30  1   
 60  30  58  1   
 61  30  59  1   
 62  30  60  1   
@<TRIPOS>SUBSTRUCTURE
  1 ****  15 GROUP 4 **** **** 0

# MOE 2024.06 (io_trps.svl 2023.06)
