@<TRIPOS>MOLECULE
NONAME
50 52 1 0 0 
SMALL
USER_CHARGES


@<TRIPOS>ATOM
  1 O        0.2470     0.0160    -0.5800 O.3   1 <1>  -0.5600 
  2 C        1.4850    -0.6010    -0.8250 C.3   1 <1>   0.2000 
  3 C        0.2810     1.4030    -0.7480 C.3   1 <1>   0.1200 
  4 C        2.5530    -0.0420     0.1570 C.3   1 <1>   0.3340 
  5 C        1.2670    -2.1190    -0.7010 C.3   1 <1>   0.1200 
  6 C        1.2910     2.0360     0.2230 C.3   1 <1>   0.1100 
  7 N        2.6340     1.4370     0.0700 N.3   1 <1>  -0.8100 
  8 C        3.9220    -0.6690    -0.1070 C.ar  1 <1>  -0.1440 
  9 O        2.3170    -2.8330    -1.2730 O.3   1 <1>  -0.6800 
 10 C        3.6000     1.9950     1.0460 C.3   1 <1>   0.2900 
 11 C        4.4340    -1.6160     0.7700 C.ar  1 <1>  -0.1500 
 12 C        4.6610    -0.3180    -1.2290 C.ar  1 <1>  -0.1500 
 13 C        3.6620     3.5160     1.0090 C.2   1 <1>  -0.0400 
 14 C        5.6590    -2.2140     0.5290 C.ar  1 <1>   0.0830 
 15 C        5.8950    -0.8970    -1.4680 C.ar  1 <1>  -0.1500 
 16 O        4.1010     4.1250    -0.0770 O.3   1 <1>  -0.2800 
 17 C        3.3300     4.4240     1.9530 C.2   1 <1>  -0.1500 
 18 O        6.0680    -3.1640     1.4050 O.3   1 <1>  -0.3620 
 19 C        6.4090    -1.8340    -0.5880 C.ar  1 <1>   0.0830 
 20 C        4.0570     5.4230     0.1430 C.2   1 <1>  -0.0400 
 21 C        3.5890     5.6770     1.3830 C.2   1 <1>  -0.1500 
 22 C        6.1680    -4.4780     0.8980 C.3   1 <1>   0.0400 
 23 O        7.6370    -2.3400    -0.8580 O.3   1 <1>  -0.3630 
 24 C        4.5090     6.3570    -0.9560 C.3   1 <1>  -0.0600 
 25 C        8.6620    -2.0010     0.0500 C.3   1 <1>   0.0400 
 26 H        1.7650    -0.3760    -1.8400 H     1 <1>   0.0800 
 27 H        0.5480     1.6250    -1.7670 H     1 <1>   0.0800 
 28 H       -0.7070     1.7830    -0.5570 H     1 <1>   0.0800 
 29 H        2.2420    -0.3070     1.1530 H     1 <1>   0.0800 
 30 H        0.3700    -2.4030    -1.2220 H     1 <1>   0.0800 
 31 H        1.1870    -2.4070     0.3320 H     1 <1>   0.0800 
 32 H        0.9390     1.9070     1.2320 H     1 <1>   0.0800 
 33 H        1.3410     3.0910     0.0160 H     1 <1>   0.0800 
 34 H        3.1850    -2.4870    -0.9660 H     1 <1>   0.4000 
 35 H        3.3300     1.6810     2.0390 H     1 <1>   0.0800 
 36 H        4.5870     1.6240     0.8340 H     1 <1>   0.0800 
 37 H        3.8850    -1.9100     1.6470 H     1 <1>   0.1500 
 38 H        4.2750     0.4200    -1.9140 H     1 <1>   0.1500 
 39 H        6.4670    -0.6180    -2.3350 H     1 <1>   0.1500 
 40 H        2.9460     4.2590     2.9430 H     1 <1>   0.1500 
 41 H        3.4350     6.6260     1.8640 H     1 <1>   0.1500 
 42 H        6.3850    -5.1390     1.7180 H     1 <1>   0.0800 
 43 H        6.9600    -4.5220     0.1730 H     1 <1>   0.0800 
 44 H        5.2310    -4.7480     0.4440 H     1 <1>   0.0800 
 45 H        4.4190     7.3790    -0.6370 H     1 <1>   0.0800 
 46 H        3.9020     6.2060    -1.8300 H     1 <1>   0.0800 
 47 H        5.5350     6.1540    -1.2030 H     1 <1>   0.0800 
 48 H        9.5910    -2.3830    -0.3340 H     1 <1>   0.0800 
 49 H        8.4520    -2.4430     1.0070 H     1 <1>   0.0800 
 50 H        8.7100    -0.9300     0.1350 H     1 <1>   0.0800 
@<TRIPOS>BOND
  1   1   2  1   
  2   1   3  1   
  3   2   4  1   
  4   2   5  1   
  5   2  26  1   
  6   3   6  1   
  7   3  27  1   
  8   3  28  1   
  9   4   7  1   
 10   4   8  1   
 11   4  29  1   
 12   5   9  1   
 13   5  30  1   
 14   5  31  1   
 15   6   7  1   
 16   6  32  1   
 17   6  33  1   
 18   7  10  1   
 19   8  11  ar  
 20   8  12  ar  
 21   9  34  1   
 22  10  13  1   
 23  10  35  1   
 24  10  36  1   
 25  11  14  ar  
 26  11  37  1   
 27  12  15  ar  
 28  12  38  1   
 29  13  16  1   
 30  13  17  2   
 31  14  18  1   
 32  14  19  ar  
 33  15  19  ar  
 34  15  39  1   
 35  16  20  1   
 36  17  21  1   
 37  17  40  1   
 38  18  22  1   
 39  19  23  1   
 40  20  21  2   
 41  20  24  1   
 42  21  41  1   
 43  22  42  1   
 44  22  43  1   
 45  22  44  1   
 46  23  25  1   
 47  24  45  1   
 48  24  46  1   
 49  24  47  1   
 50  25  48  1   
 51  25  49  1   
 52  25  50  1   
@<TRIPOS>SUBSTRUCTURE
  1 ****   8 GROUP 4 **** **** 0

# MOE 2024.06 (io_trps.svl 2023.06)
