@<TRIPOS>MOLECULE
NONAME
51 53 1 0 0 
SMALL
USER_CHARGES


@<TRIPOS>ATOM
  1 S        0.3990    -0.0300    -1.2460 S.o2  1 <1>   1.3330 
  2 O        1.8070     0.1590    -1.5160 O.2   1 <1>  -0.6500 
  3 O       -0.3620    -0.9650    -2.0420 O.2   1 <1>  -0.6500 
  4 N        0.2400    -0.4890     0.3810 N.am  1 <1>  -0.8490 
  5 C       -0.3940     1.5790    -1.3110 C.3   1 <1>  -0.0550 
  6 C        1.2470    -1.4800     0.7720 C.3   1 <1>   0.1160 
  7 C       -1.0990    -0.9860     0.7140 C.3   1 <1>   0.1160 
  8 C        0.1440     2.5920    -0.2820 C.3   1 <1>  -0.0800 
  9 C       -0.5920     3.9260    -0.3510 C.3   1 <1>   0.2000 
 10 C        1.6150     2.9620    -0.4620 C.3   1 <1>   0.2090 
 11 O       -1.7510     3.8520     0.4090 O.3   1 <1>  -0.6800 
 12 C        0.3910     4.9690     0.1850 C.3   1 <1>   0.2090 
 13 N        1.7350     4.3330     0.0850 N.pl3 1 <1>  -0.8380 
 14 C        2.8880     5.1010     0.0150 C.ar  1 <1>   0.4100 
 15 N        2.7600     6.3860     0.1760 N.ar  1 <1>  -0.6200 
 16 C        4.1410     4.4980    -0.2120 C.ar  1 <1>  -0.1500 
 17 C        3.8670     7.1740     0.1120 C.ar  1 <1>   0.3100 
 18 C        5.2780     5.2400    -0.2840 C.ar  1 <1>  -0.1440 
 19 C        3.7360     8.5810     0.2790 C.ar  1 <1>   0.0820 
 20 C        5.1590     6.6390    -0.1200 C.ar  1 <1>   0.0000 
 21 C        6.6230     4.5700    -0.5300 C.3   1 <1>  -0.0970 
 22 O        2.4850     9.0810     0.4980 O.3   1 <1>  -0.3630 
 23 C        4.8420     9.4020     0.2180 C.ar  1 <1>  -0.1500 
 24 C        6.2600     7.5180    -0.1740 C.ar  1 <1>  -0.1500 
 25 C        2.2360    10.4540     0.6970 C.3   1 <1>   0.0400 
 26 C        6.1080     8.8660    -0.0090 C.ar  1 <1>  -0.1500 
 27 H       -0.2780     1.9840    -2.2970 H     1 <1>   0.0800 
 28 H       -1.4450     1.4540    -1.1390 H     1 <1>   0.0800 
 29 H        1.1340    -1.7370     1.8110 H     1 <1>   0.0800 
 30 H        2.2360    -1.0760     0.6320 H     1 <1>   0.0800 
 31 H        1.1490    -2.3700     0.1730 H     1 <1>   0.0800 
 32 H       -1.1650    -1.1910     1.7690 H     1 <1>   0.0800 
 33 H       -1.3140    -1.8900     0.1680 H     1 <1>   0.0800 
 34 H       -1.8430    -0.2480     0.4670 H     1 <1>   0.0800 
 35 H        0.0450     2.1880     0.7110 H     1 <1>   0.0800 
 36 H       -0.8620     4.1750    -1.3630 H     1 <1>   0.0800 
 37 H        1.8900     2.9710    -1.5040 H     1 <1>   0.0800 
 38 H        2.2510     2.2780     0.0750 H     1 <1>   0.0800 
 39 H       -1.5210     3.7590     1.3540 H     1 <1>   0.4000 
 40 H        0.1940     5.2090     1.2150 H     1 <1>   0.0800 
 41 H        0.3480     5.8640    -0.4110 H     1 <1>   0.0800 
 42 H        4.1780     3.4340    -0.3220 H     1 <1>   0.1500 
 43 H        6.5090     3.5060    -0.6290 H     1 <1>   0.0800 
 44 H        7.2870     4.7640     0.2940 H     1 <1>   0.0800 
 45 H        7.0630     4.9480    -1.4360 H     1 <1>   0.0800 
 46 H        4.7700    10.4660     0.3410 H     1 <1>   0.1500 
 47 H        7.2430     7.1210    -0.3480 H     1 <1>   0.1500 
 48 H        1.1800    10.5800     0.8550 H     1 <1>   0.0800 
 49 H        2.5410    10.9940    -0.1810 H     1 <1>   0.0800 
 50 H        2.7780    10.7840     1.5660 H     1 <1>   0.0800 
 51 H        6.9580     9.5250    -0.0520 H     1 <1>   0.1500 
@<TRIPOS>BOND
  1   1   2  2   
  2   1   3  2   
  3   1   4  am  
  4   1   5  1   
  5   4   6  1   
  6   4   7  1   
  7   5   8  1   
  8   5  27  1   
  9   5  28  1   
 10   6  29  1   
 11   6  30  1   
 12   6  31  1   
 13   7  32  1   
 14   7  33  1   
 15   7  34  1   
 16   8   9  1   
 17   8  10  1   
 18   8  35  1   
 19   9  11  1   
 20   9  12  1   
 21   9  36  1   
 22  10  13  1   
 23  10  37  1   
 24  10  38  1   
 25  11  39  1   
 26  12  13  1   
 27  12  40  1   
 28  12  41  1   
 29  13  14  1   
 30  14  15  ar  
 31  14  16  ar  
 32  15  17  ar  
 33  16  18  ar  
 34  16  42  1   
 35  17  19  ar  
 36  17  20  ar  
 37  18  20  ar  
 38  18  21  1   
 39  19  22  1   
 40  19  23  ar  
 41  20  24  ar  
 42  21  43  1   
 43  21  44  1   
 44  21  45  1   
 45  22  25  1   
 46  23  26  ar  
 47  23  46  1   
 48  24  26  ar  
 49  24  47  1   
 50  25  48  1   
 51  25  49  1   
 52  25  50  1   
 53  26  51  1   
@<TRIPOS>SUBSTRUCTURE
  1 ****  13 GROUP 4 **** **** 0

# MOE 2024.06 (io_trps.svl 2023.06)
