@<TRIPOS>MOLECULE
NONAME
51 53 1 0 0 
SMALL
USER_CHARGES


@<TRIPOS>ATOM
  1 CL       0.2350    -4.4680    -1.3760 Cl    1 <1>  -0.1770 
  2 C       -1.3460    -4.4820    -0.6350 C.ar  1 <1>   0.1770 
  3 C       -2.0870    -3.3160    -0.5970 C.ar  1 <1>  -0.1500 
  4 C       -1.8320    -5.6580    -0.0980 C.ar  1 <1>  -0.1500 
  5 C       -3.3430    -3.3190    -0.0110 C.ar  1 <1>  -0.1440 
  6 C       -3.0850    -5.6670     0.4890 C.ar  1 <1>  -0.1500 
  7 C       -3.8480    -4.4990     0.5330 C.ar  1 <1>   0.0830 
  8 C       -4.1550    -2.0320     0.0300 C.3   1 <1>  -0.0960 
  9 O       -5.0880    -4.4460     1.0910 O.3   1 <1>  -0.3630 
 10 C       -5.7950    -5.6070     1.5100 C.3   1 <1>   0.1810 
 11 C       -6.1720    -6.5370     0.3530 C.2   1 <1>   0.5690 
 12 O       -5.7630    -7.6750     0.4240 O.2   1 <1>  -0.5700 
 13 N       -6.9590    -6.1240    -0.7000 N.am  1 <1>  -0.6600 
 14 C       -7.3210    -7.0750    -1.8020 C.3   1 <1>   0.1400 
 15 C       -7.6110    -4.7840    -0.7800 C.3   1 <1>   0.1400 
 16 C       -8.8380    -7.3080    -1.9430 C.3   1 <1>   0.1400 
 17 C       -8.9200    -4.7510     0.0250 C.3   1 <1>  -0.1600 
 18 N       -9.5850    -7.0370    -0.6780 N.am  1 <1>  -0.6600 
 19 C      -10.0460    -5.6340    -0.5300 C.3   1 <1>   0.1400 
 20 C       -9.6410    -7.9160     0.3830 C.2   1 <1>   0.5690 
 21 O      -10.2030    -7.5970     1.4110 O.2   1 <1>  -0.5700 
 22 C       -8.9350    -9.2940     0.3220 C.3   1 <1>   0.2610 
 23 O       -9.4010   -10.1180    -0.7210 O.3   1 <1>  -0.5600 
 24 C       -9.0640   -10.1640     1.5700 C.3   1 <1>  -0.1600 
 25 C       -9.2470   -11.4700    -0.4150 C.3   1 <1>   0.1200 
 26 C       -8.7680   -11.5490     1.0310 C.3   1 <1>  -0.1600 
 27 H       -1.6740    -2.4210    -1.0250 H     1 <1>   0.1500 
 28 H       -1.2360    -6.5510    -0.1400 H     1 <1>   0.1500 
 29 H       -3.4420    -6.5910     0.9030 H     1 <1>   0.1500 
 30 H       -3.6080    -1.2120    -0.3980 H     1 <1>   0.0800 
 31 H       -4.3960    -1.7860     1.0490 H     1 <1>   0.0800 
 32 H       -5.0690    -2.1600    -0.5200 H     1 <1>   0.0800 
 33 H       -5.1900    -6.1310     2.2260 H     1 <1>   0.0800 
 34 H       -6.6880    -5.2790     2.0060 H     1 <1>   0.0800 
 35 H       -6.9320    -6.7010    -2.7320 H     1 <1>   0.0800 
 36 H       -6.8520    -8.0290    -1.6380 H     1 <1>   0.0800 
 37 H       -6.9420    -4.0310    -0.4060 H     1 <1>   0.0800 
 38 H       -7.8100    -4.5430    -1.8100 H     1 <1>   0.0800 
 39 H       -9.0170    -8.3130    -2.2770 H     1 <1>   0.0800 
 40 H       -9.2140    -6.6630    -2.7170 H     1 <1>   0.0800 
 41 H       -9.2780    -3.7380     0.0430 H     1 <1>   0.0800 
 42 H       -8.7330    -5.0330     1.0450 H     1 <1>   0.0800 
 43 H      -10.3770    -5.2590    -1.4830 H     1 <1>   0.0800 
 44 H      -10.8890    -5.6020     0.1390 H     1 <1>   0.0800 
 45 H       -7.8900    -9.1250     0.1380 H     1 <1>   0.0800 
 46 H       -8.3820    -9.8560     2.3430 H     1 <1>   0.0800 
 47 H      -10.0720   -10.1160     1.9430 H     1 <1>   0.0800 
 48 H      -10.2060   -11.9420    -0.5340 H     1 <1>   0.0800 
 49 H       -8.5350   -11.9030    -1.0970 H     1 <1>   0.0800 
 50 H       -9.2750   -12.3220     1.5820 H     1 <1>   0.0800 
 51 H       -7.7090   -11.7390     1.0460 H     1 <1>   0.0800 
@<TRIPOS>BOND
  1   1   2  1   
  2   2   3  ar  
  3   2   4  ar  
  4   3   5  ar  
  5   3  27  1   
  6   4   6  ar  
  7   4  28  1   
  8   5   7  ar  
  9   5   8  1   
 10   6   7  ar  
 11   6  29  1   
 12   7   9  1   
 13   8  30  1   
 14   8  31  1   
 15   8  32  1   
 16   9  10  1   
 17  10  11  1   
 18  10  33  1   
 19  10  34  1   
 20  11  12  2   
 21  11  13  am  
 22  13  14  1   
 23  13  15  1   
 24  14  16  1   
 25  14  35  1   
 26  14  36  1   
 27  15  17  1   
 28  15  37  1   
 29  15  38  1   
 30  16  18  1   
 31  16  39  1   
 32  16  40  1   
 33  17  19  1   
 34  17  41  1   
 35  17  42  1   
 36  18  19  1   
 37  18  20  am  
 38  19  43  1   
 39  19  44  1   
 40  20  21  2   
 41  20  22  1   
 42  22  23  1   
 43  22  24  1   
 44  22  45  1   
 45  23  25  1   
 46  24  26  1   
 47  24  46  1   
 48  24  47  1   
 49  25  26  1   
 50  25  48  1   
 51  25  49  1   
 52  26  50  1   
 53  26  51  1   
@<TRIPOS>SUBSTRUCTURE
  1 ****  11 GROUP 4 **** **** 0

# MOE 2024.06 (io_trps.svl 2023.06)
