@<TRIPOS>MOLECULE
NONAME
52 55 1 0 0 
SMALL
USER_CHARGES


@<TRIPOS>ATOM
  1 O       -2.0070     0.3480     2.1230 O.2   1 <1>  -0.5700 
  2 C       -2.0260     0.8420     1.0120 C.2   1 <1>   0.5440 
  3 N       -2.3690     0.0700    -0.0750 N.am  1 <1>  -0.6600 
  4 C       -1.7140     2.2430     0.8540 C.ar  1 <1>   0.0860 
  5 C       -2.4820    -1.4220     0.0660 C.3   1 <1>   0.3640 
  6 C       -2.8020     0.6990    -1.3630 C.3   1 <1>   0.1400 
  7 C       -0.5470     2.6770     0.1810 C.ar  1 <1>   0.0000 
  8 C       -2.5560     3.2120     1.3300 C.ar  1 <1>  -0.1500 
  9 C       -1.1120    -2.0700    -0.1660 C.ar  1 <1>  -0.1440 
 10 C       -3.5540    -2.0880    -0.8500 C.3   1 <1>   0.2000 
 11 C       -3.4500    -0.2880    -2.3440 C.3   1 <1>   0.1200 
 12 C       -0.3720     4.0640    -0.0300 C.ar  1 <1>   0.3100 
 13 C        0.4490     1.7900    -0.2830 C.ar  1 <1>  -0.1500 
 14 C       -2.2900     4.5620     1.0990 C.ar  1 <1>   0.1660 
 15 C       -0.6510    -3.0060     0.7500 C.ar  1 <1>  -0.1500 
 16 C       -0.3170    -1.7630    -1.2640 C.ar  1 <1>  -0.1500 
 17 O       -4.2640    -1.1770    -1.6510 O.3   1 <1>  -0.5600 
 18 C       -4.5930    -2.8730    -0.0390 C.3   1 <1>   0.1200 
 19 N       -1.2600     4.9820     0.4370 N.ar  1 <1>  -0.6200 
 20 C        0.7670     4.5060    -0.7420 C.ar  1 <1>  -0.1440 
 21 C        1.5450     2.2440    -0.9610 C.ar  1 <1>  -0.1500 
 22 C       -3.2400     5.6150     1.6300 C.3   1 <1>  -0.0970 
 23 C        0.5730    -3.6270     0.5710 C.ar  1 <1>  -0.1500 
 24 C        0.9070    -2.3830    -1.4450 C.ar  1 <1>  -0.1500 
 25 O       -3.9850    -3.9050     0.6700 O.3   1 <1>  -0.6800 
 26 C        1.7010     3.6110    -1.1980 C.ar  1 <1>  -0.1500 
 27 C        0.9680     5.9950    -1.0030 C.3   1 <1>  -0.0970 
 28 C        1.3530    -3.3170    -0.5280 C.ar  1 <1>  -0.1500 
 29 H       -2.7630    -1.6360     1.0820 H     1 <1>   0.0800 
 30 H       -3.5190     1.4710    -1.1440 H     1 <1>   0.0800 
 31 H       -1.9570     1.1650    -1.8390 H     1 <1>   0.0800 
 32 H       -3.4350     2.9290     1.8800 H     1 <1>   0.1500 
 33 H       -3.0690    -2.7740    -1.5220 H     1 <1>   0.0800 
 34 H       -2.7090    -0.8450    -2.8900 H     1 <1>   0.0800 
 35 H       -4.0640     0.2440    -3.0490 H     1 <1>   0.0800 
 36 H        0.3470     0.7350    -0.0930 H     1 <1>   0.1500 
 37 H       -1.2470    -3.2550     1.6120 H     1 <1>   0.1500 
 38 H       -0.6400    -1.0370    -1.9840 H     1 <1>   0.1500 
 39 H       -5.3340    -3.3040    -0.6900 H     1 <1>   0.0800 
 40 H       -5.0740    -2.2230     0.6720 H     1 <1>   0.0800 
 41 H        2.2970     1.5600    -1.3130 H     1 <1>   0.1500 
 42 H       -4.0570     5.1700     2.1660 H     1 <1>   0.0800 
 43 H       -3.6320     6.1900     0.8110 H     1 <1>   0.0800 
 44 H       -2.7080     6.2740     2.2910 H     1 <1>   0.0800 
 45 H        0.9170    -4.3500     1.2910 H     1 <1>   0.1500 
 46 H        1.5140    -2.1380    -2.2990 H     1 <1>   0.1500 
 47 H       -3.6490    -4.5960     0.0650 H     1 <1>   0.4000 
 48 H        2.5710     3.9410    -1.7380 H     1 <1>   0.1500 
 49 H        1.8690     6.1790    -1.5600 H     1 <1>   0.0800 
 50 H        1.0300     6.5230    -0.0680 H     1 <1>   0.0800 
 51 H        0.1340     6.3830    -1.5610 H     1 <1>   0.0800 
 52 H        2.3050    -3.7990    -0.6660 H     1 <1>   0.1500 
@<TRIPOS>BOND
  1   1   2  2   
  2   2   3  am  
  3   2   4  1   
  4   3   5  1   
  5   3   6  1   
  6   4   7  ar  
  7   4   8  ar  
  8   5   9  1   
  9   5  10  1   
 10   5  29  1   
 11   6  11  1   
 12   6  30  1   
 13   6  31  1   
 14   7  12  ar  
 15   7  13  ar  
 16   8  14  ar  
 17   8  32  1   
 18   9  15  ar  
 19   9  16  ar  
 20  10  17  1   
 21  10  18  1   
 22  10  33  1   
 23  11  17  1   
 24  11  34  1   
 25  11  35  1   
 26  12  19  ar  
 27  12  20  ar  
 28  13  21  ar  
 29  13  36  1   
 30  14  19  ar  
 31  14  22  1   
 32  15  23  ar  
 33  15  37  1   
 34  16  24  ar  
 35  16  38  1   
 36  18  25  1   
 37  18  39  1   
 38  18  40  1   
 39  20  26  ar  
 40  20  27  1   
 41  21  26  ar  
 42  21  41  1   
 43  22  42  1   
 44  22  43  1   
 45  22  44  1   
 46  23  28  ar  
 47  23  45  1   
 48  24  28  ar  
 49  24  46  1   
 50  25  47  1   
 51  26  48  1   
 52  27  49  1   
 53  27  50  1   
 54  27  51  1   
 55  28  52  1   
@<TRIPOS>SUBSTRUCTURE
  1 ****   3 GROUP 4 **** **** 0

# MOE 2024.06 (io_trps.svl 2023.06)
