@<TRIPOS>MOLECULE
NONAME
51 54 1 0 0 
SMALL
USER_CHARGES


@<TRIPOS>ATOM
  1 O        1.4400     0.6130    -1.4530 O.2   1 <1>  -0.5700 
  2 C        2.0350    -0.2110    -0.7700 C.2   1 <1>   0.5440 
  3 N        3.0960     0.1820     0.0400 N.am  1 <1>  -0.2980 
  4 C        1.6780    -1.6030    -0.7840 C.ar  1 <1>   0.0860 
  5 N        3.8350    -0.6830     0.8110 N.2   1 <1>  -0.5120 
  6 C        3.4840     1.6170     0.1080 C.3   1 <1>   0.1400 
  7 C        2.4350    -2.4750     0.0110 C.ar  1 <1>   0.0860 
  8 C        0.6250    -2.1230    -1.5430 C.ar  1 <1>  -0.1500 
  9 C        3.5070    -1.9250     0.7800 C.2   1 <1>   0.3040 
 10 C        4.3430     2.0010    -1.1000 C.3   1 <1>   0.2090 
 11 C        2.1180    -3.8380     0.0210 C.ar  1 <1>  -0.1500 
 12 C        0.3260    -3.4690    -1.5210 C.ar  1 <1>  -0.1500 
 13 N        4.5600     3.4760    -1.1530 N.pl3 1 <1>  -0.8690 
 14 C        1.0770    -4.3300    -0.7340 C.ar  1 <1>  -0.1500 
 15 C        5.4150     4.1400    -0.3050 C.ar  1 <1>   0.4100 
 16 N        6.2220     3.4080     0.4500 N.ar  1 <1>  -0.6200 
 17 C        5.3950     5.5260    -0.2740 C.ar  1 <1>  -0.1500 
 18 C        7.0190     4.0760     1.2640 C.ar  1 <1>   0.1600 
 19 C        6.2380     6.2310     0.5620 C.ar  1 <1>   0.0860 
 20 C        7.0660     5.4510     1.3590 C.ar  1 <1>  -0.1500 
 21 C        6.2500     7.6780     0.6040 C.2   1 <1>   0.5440 
 22 O        5.2180     8.2640     0.8670 O.2   1 <1>  -0.5700 
 23 N        7.3970     8.4030     0.3490 N.am  1 <1>  -0.6600 
 24 C        7.4530     9.8770     0.5610 C.3   1 <1>   0.1400 
 25 C        8.6040     7.8380    -0.3200 C.3   1 <1>   0.1400 
 26 C        7.6550    10.5860    -0.7820 C.3   1 <1>  -0.1600 
 27 C        8.8190     8.5330    -1.6690 C.3   1 <1>  -0.1600 
 28 C        8.8940    10.0590    -1.5190 C.3   1 <1>  -0.1600 
 29 H        4.0420     1.7900     1.0120 H     1 <1>   0.0800 
 30 H        2.5950     2.2200     0.1310 H     1 <1>   0.0800 
 31 H        0.0440    -1.4520    -2.1530 H     1 <1>   0.1500 
 32 H        4.0730    -2.6180     1.3760 H     1 <1>   0.0600 
 33 H        3.8510     1.6950    -2.0060 H     1 <1>   0.0800 
 34 H        5.2920     1.4960    -1.0390 H     1 <1>   0.0800 
 35 H        2.6990    -4.5090     0.6310 H     1 <1>   0.1500 
 36 H       -0.4890    -3.8540    -2.1110 H     1 <1>   0.1500 
 37 H        3.7530     4.0040    -1.4920 H     1 <1>   0.4000 
 38 H        0.8390    -5.3810    -0.7190 H     1 <1>   0.1500 
 39 H        4.7160     6.0610    -0.9100 H     1 <1>   0.1500 
 40 H        7.6700     3.4890     1.8890 H     1 <1>   0.1500 
 41 H        7.7390     5.9260     2.0490 H     1 <1>   0.1500 
 42 H        8.2720    10.1040     1.2200 H     1 <1>   0.0800 
 43 H        6.5480    10.2330     1.0250 H     1 <1>   0.0800 
 44 H        8.5000     6.7810    -0.4850 H     1 <1>   0.0800 
 45 H        9.4600     7.9980     0.3130 H     1 <1>   0.0800 
 46 H        7.7550    11.6430    -0.6140 H     1 <1>   0.0800 
 47 H        6.7770    10.4320    -1.3870 H     1 <1>   0.0800 
 48 H        8.0060     8.2740    -2.3250 H     1 <1>   0.0800 
 49 H        9.7280     8.1690    -2.1150 H     1 <1>   0.0800 
 50 H        9.7780    10.3210    -0.9630 H     1 <1>   0.0800 
 51 H        8.9630    10.5170    -2.4900 H     1 <1>   0.0800 
@<TRIPOS>BOND
  1   1   2  2   
  2   2   3  am  
  3   2   4  1   
  4   3   5  1   
  5   3   6  1   
  6   4   7  ar  
  7   4   8  ar  
  8   5   9  2   
  9   6  10  1   
 10   6  29  1   
 11   6  30  1   
 12   7   9  1   
 13   7  11  ar  
 14   8  12  ar  
 15   8  31  1   
 16   9  32  1   
 17  10  13  1   
 18  10  33  1   
 19  10  34  1   
 20  11  14  ar  
 21  11  35  1   
 22  12  14  ar  
 23  12  36  1   
 24  13  15  1   
 25  13  37  1   
 26  14  38  1   
 27  15  16  ar  
 28  15  17  ar  
 29  16  18  ar  
 30  17  19  ar  
 31  17  39  1   
 32  18  20  ar  
 33  18  40  1   
 34  19  20  ar  
 35  19  21  1   
 36  20  41  1   
 37  21  22  2   
 38  21  23  am  
 39  23  24  1   
 40  23  25  1   
 41  24  26  1   
 42  24  42  1   
 43  24  43  1   
 44  25  27  1   
 45  25  44  1   
 46  25  45  1   
 47  26  28  1   
 48  26  46  1   
 49  26  47  1   
 50  27  28  1   
 51  27  48  1   
 52  27  49  1   
 53  28  50  1   
 54  28  51  1   
@<TRIPOS>SUBSTRUCTURE
  1 ****  13 GROUP 4 **** **** 0

# MOE 2024.06 (io_trps.svl 2023.06)
