@<TRIPOS>MOLECULE
NONAME
35 36 1 0 0 
SMALL
USER_CHARGES


@<TRIPOS>ATOM
  1 O       -0.0160    -0.4280    -0.4320 O.2   1 <1>  -0.5700 
  2 C        0.7280    -1.3790    -0.4500 C.2   1 <1>   0.5690 
  3 N        2.0780    -1.2320    -0.4030 N.am  1 <1>  -0.7300 
  4 C        0.1350    -2.7760    -0.5540 C.3   1 <1>  -0.0190 
  5 C        2.7910     0.0540    -0.2870 C.3   1 <1>   0.1400 
  6 C       -1.2180    -2.8780     0.1440 C.3   1 <1>   0.2090 
  7 C        0.9580    -3.9020     0.0840 C.3   1 <1>  -0.1600 
  8 C        3.8110    -0.0580     0.8400 C.3   1 <1>  -0.2400 
  9 N       -1.3390    -4.2980     0.5670 N.pl3 1 <1>  -0.8380 
 10 C       -0.0570    -5.0070     0.3370 C.3   1 <1>   0.2090 
 11 C       -2.5590    -4.9670     0.5010 C.ar  1 <1>   0.4100 
 12 N       -2.5290    -6.2370     0.1130 N.ar  1 <1>  -0.6200 
 13 C       -3.7660    -4.3250     0.8380 C.ar  1 <1>   0.1600 
 14 C       -3.7240    -6.7980     0.0710 C.ar  1 <1>   0.1670 
 15 N       -4.9650    -4.8740     0.7940 N.ar  1 <1>  -0.6200 
 16 C       -4.9020    -6.1360     0.3980 C.ar  1 <1>   0.1600 
 17 C       -3.7520    -8.2480    -0.3680 C.3   1 <1>  -0.0970 
 18 H        2.6730    -2.0600    -0.4360 H     1 <1>   0.3700 
 19 H       -0.0170    -2.9960    -1.5950 H     1 <1>   0.0800 
 20 H        2.0930     0.8470    -0.0740 H     1 <1>   0.0800 
 21 H        3.2850     0.2750    -1.2180 H     1 <1>   0.0800 
 22 H       -2.0150    -2.5900    -0.5210 H     1 <1>   0.0800 
 23 H       -1.2370    -2.2510     1.0210 H     1 <1>   0.0800 
 24 H        1.3570    -3.5820     1.0310 H     1 <1>   0.0800 
 25 H        1.7580    -4.2400    -0.5490 H     1 <1>   0.0800 
 26 H        3.3150    -0.2780     1.7680 H     1 <1>   0.0800 
 27 H        4.3310     0.8770     0.9470 H     1 <1>   0.0800 
 28 H        4.5320    -0.8260     0.6240 H     1 <1>   0.0800 
 29 H        0.2040    -5.6060     1.1930 H     1 <1>   0.0800 
 30 H       -0.1420    -5.6390    -0.5320 H     1 <1>   0.0800 
 31 H       -3.7070    -3.3050     1.1630 H     1 <1>   0.1500 
 32 H       -5.8350    -6.6670     0.3340 H     1 <1>   0.1500 
 33 H       -3.3310    -8.3330    -1.3530 H     1 <1>   0.0800 
 34 H       -4.7550    -8.6320    -0.3830 H     1 <1>   0.0800 
 35 H       -3.1630    -8.8390     0.3110 H     1 <1>   0.0800 
@<TRIPOS>BOND
  1   1   2  2   
  2   2   3  am  
  3   2   4  1   
  4   3   5  1   
  5   3  18  1   
  6   4   6  1   
  7   4   7  1   
  8   4  19  1   
  9   5   8  1   
 10   5  20  1   
 11   5  21  1   
 12   6   9  1   
 13   6  22  1   
 14   6  23  1   
 15   7  10  1   
 16   7  24  1   
 17   7  25  1   
 18   8  26  1   
 19   8  27  1   
 20   8  28  1   
 21   9  10  1   
 22   9  11  1   
 23  10  29  1   
 24  10  30  1   
 25  11  12  ar  
 26  11  13  ar  
 27  12  14  ar  
 28  13  15  ar  
 29  13  31  1   
 30  14  16  ar  
 31  14  17  1   
 32  15  16  ar  
 33  16  32  1   
 34  17  33  1   
 35  17  34  1   
 36  17  35  1   
@<TRIPOS>SUBSTRUCTURE
  1 ****   9 GROUP 4 **** **** 0

# MOE 2024.06 (io_trps.svl 2023.06)
