@<TRIPOS>MOLECULE
NONAME
42 44 1 0 0 
SMALL
USER_CHARGES


@<TRIPOS>ATOM
  1 F       -1.5260    -0.1800     0.5810 F     1 <1>  -0.3400 
  2 C       -2.5050     0.5460     1.1000 C.3   1 <1>   1.1640 
  3 F       -1.9340     1.3080     2.0260 F     1 <1>  -0.3400 
  4 F       -3.2920    -0.2890     1.7690 F     1 <1>  -0.3400 
  5 C       -3.2740     1.3660     0.0510 C.ar  1 <1>  -0.1440 
  6 C       -4.0180     0.7120    -0.9410 C.ar  1 <1>   0.0860 
  7 C       -3.2430     2.7590     0.0760 C.ar  1 <1>  -0.1500 
  8 C       -4.1140    -0.7300    -1.0380 C.2   1 <1>   0.5440 
  9 C       -4.7020     1.4860    -1.8770 C.ar  1 <1>  -0.1500 
 10 C       -3.9360     3.5040    -0.8600 C.ar  1 <1>  -0.1500 
 11 O       -3.2460    -1.3570    -1.6090 O.2   1 <1>  -0.5700 
 12 N       -5.1820    -1.4030    -0.5000 N.am  1 <1>  -0.6600 
 13 C       -4.6670     2.8660    -1.8410 C.ar  1 <1>  -0.1500 
 14 C       -6.2920    -0.7840     0.2640 C.3   1 <1>   0.1400 
 15 C       -5.2580    -2.8820    -0.4470 C.3   1 <1>   0.1400 
 16 C       -7.1640    -1.9570     0.7110 C.3   1 <1>   0.2000 
 17 C       -6.2560    -3.1860     0.6710 C.3   1 <1>  -0.0800 
 18 O       -7.6540    -1.7690     1.9920 O.3   1 <1>  -0.6800 
 19 C       -7.0330    -4.4950     0.4640 C.3   1 <1>   0.0200 
 20 C       -6.0930    -5.6800     0.3620 C.2   1 <1>  -0.0400 
 21 O       -5.3450    -6.0100     1.3810 O.3   1 <1>  -0.0190 
 22 C       -5.8340    -6.5380    -0.6360 C.2   1 <1>  -0.1500 
 23 N       -4.5960    -7.0420     1.1170 N.2   1 <1>  -0.4100 
 24 C       -4.8700    -7.3810    -0.0920 C.2   1 <1>   0.1080 
 25 C       -4.2210    -8.5390    -0.8160 C.3   1 <1>  -0.0590 
 26 H       -2.6780     3.2880     0.8260 H     1 <1>   0.1500 
 27 H       -5.2670     0.9890    -2.6480 H     1 <1>   0.1500 
 28 H       -3.9020     4.5810    -0.8280 H     1 <1>   0.1500 
 29 H       -5.2040     3.4420    -2.5760 H     1 <1>   0.1500 
 30 H       -5.8930    -0.2570     1.1140 H     1 <1>   0.0800 
 31 H       -6.8500    -0.1110    -0.3630 H     1 <1>   0.0800 
 32 H       -5.6120    -3.2460    -1.3960 H     1 <1>   0.0800 
 33 H       -4.2920    -3.3120    -0.2390 H     1 <1>   0.0800 
 34 H       -7.9990    -2.0620     0.0400 H     1 <1>   0.0800 
 35 H       -5.6930    -3.2470     1.5870 H     1 <1>   0.0800 
 36 H       -6.9200    -1.7530     2.6380 H     1 <1>   0.4000 
 37 H       -7.6230    -4.4340    -0.4330 H     1 <1>   0.0800 
 38 H       -7.7030    -4.6500     1.2930 H     1 <1>   0.0800 
 39 H       -6.2460    -6.5940    -1.6260 H     1 <1>   0.1500 
 40 H       -4.9720    -9.2420    -1.1270 H     1 <1>   0.0800 
 41 H       -3.5270    -9.0370    -0.1640 H     1 <1>   0.0800 
 42 H       -3.6910    -8.1790    -1.6780 H     1 <1>   0.0800 
@<TRIPOS>BOND
  1   1   2  1   
  2   2   3  1   
  3   2   4  1   
  4   2   5  1   
  5   5   6  ar  
  6   5   7  ar  
  7   6   8  1   
  8   6   9  ar  
  9   7  10  ar  
 10   7  26  1   
 11   8  11  2   
 12   8  12  am  
 13   9  13  ar  
 14   9  27  1   
 15  10  13  ar  
 16  10  28  1   
 17  12  14  1   
 18  12  15  1   
 19  13  29  1   
 20  14  16  1   
 21  14  30  1   
 22  14  31  1   
 23  15  17  1   
 24  15  32  1   
 25  15  33  1   
 26  16  17  1   
 27  16  18  1   
 28  16  34  1   
 29  17  19  1   
 30  17  35  1   
 31  18  36  1   
 32  19  20  1   
 33  19  37  1   
 34  19  38  1   
 35  20  21  1   
 36  20  22  2   
 37  21  23  1   
 38  22  24  1   
 39  22  39  1   
 40  23  24  2   
 41  24  25  1   
 42  25  40  1   
 43  25  41  1   
 44  25  42  1   
@<TRIPOS>SUBSTRUCTURE
  1 ****  12 GROUP 4 **** **** 0

# MOE 2024.06 (io_trps.svl 2023.06)
