@<TRIPOS>MOLECULE
NONAME
50 52 1 0 0 
SMALL
USER_CHARGES


@<TRIPOS>ATOM
  1 CL       2.1570    -0.0260    -3.0570 Cl    1 <1>  -0.1770 
  2 C        2.5970    -1.1040    -1.7580 C.ar  1 <1>   0.1770 
  3 C        3.3820    -0.6290    -0.7280 C.ar  1 <1>  -0.1500 
  4 C        2.1480    -2.4090    -1.7890 C.ar  1 <1>  -0.1500 
  5 C        3.7280    -1.4980     0.3010 C.ar  1 <1>   0.0830 
  6 C        2.4780    -3.2940    -0.7620 C.ar  1 <1>   0.0860 
  7 O        4.4930    -1.1390     1.3600 O.3   1 <1>  -0.3630 
  8 C        3.2800    -2.8080     0.2700 C.ar  1 <1>  -0.1500 
  9 C        2.0130    -4.6710    -0.7660 C.2   1 <1>   0.5440 
 10 C        5.0420     0.1560     1.4670 C.3   1 <1>   0.0400 
 11 O        2.7150    -5.5620    -0.3230 O.2   1 <1>  -0.5700 
 12 N        0.7630    -5.0230    -1.2260 N.am  1 <1>  -0.6600 
 13 C        0.4860    -6.4500    -1.5340 C.3   1 <1>   0.1400 
 14 C       -0.4440    -4.2660    -0.7970 C.3   1 <1>   0.1400 
 15 C       -0.0200    -7.1380    -0.2470 C.3   1 <1>   0.4230 
 16 C       -0.9920    -4.9240     0.4780 C.3   1 <1>  -0.1600 
 17 N       -0.1260    -8.6530    -0.3540 N.4   1 <1>  -0.9590 
 18 C       -1.2960    -6.4450     0.3220 C.3   1 <1>   0.0000 
 19 C       -0.9790    -9.2820     0.7060 C.3   1 <1>   0.3430 
 20 C       -0.5070    -9.1850    -1.7030 C.3   1 <1>   0.2630 
 21 C       -1.6180    -7.0380     1.7270 C.3   1 <1>  -0.1600 
 22 C       -2.4960    -6.6580    -0.6440 C.3   1 <1>   0.1200 
 23 C       -0.9990    -8.4280     1.9730 C.3   1 <1>  -0.1600 
 24 O       -3.5940    -5.8990    -0.2740 O.3   1 <1>  -0.6800 
 25 H        3.7040     0.3940    -0.7500 H     1 <1>   0.1500 
 26 H        1.5450    -2.7390    -2.6150 H     1 <1>   0.1500 
 27 H        3.5650    -3.4680     1.0710 H     1 <1>   0.1500 
 28 H        5.6210     0.1990     2.3720 H     1 <1>   0.0800 
 29 H        4.2420     0.8740     1.5110 H     1 <1>   0.0800 
 30 H        5.6780     0.3370     0.6180 H     1 <1>   0.0800 
 31 H       -0.2350    -6.5020    -2.3280 H     1 <1>   0.0800 
 32 H        1.3940    -6.9220    -1.8680 H     1 <1>   0.0800 
 33 H       -0.1950    -3.2380    -0.5920 H     1 <1>   0.0800 
 34 H       -1.1830    -4.2770    -1.5810 H     1 <1>   0.0800 
 35 H        0.7510    -6.9470     0.4830 H     1 <1>   0.0800 
 36 H       -0.2560    -4.7780     1.2510 H     1 <1>   0.0800 
 37 H       -1.8720    -4.3900     0.7920 H     1 <1>   0.0800 
 38 H        0.8360    -8.9770    -0.1690 H     1 <1>   0.4500 
 39 H       -1.9910    -9.3830     0.3480 H     1 <1>   0.0800 
 40 H       -0.6090   -10.2690     0.9370 H     1 <1>   0.0800 
 41 H       -1.4910    -8.8440    -1.9810 H     1 <1>   0.0800 
 42 H       -0.5080   -10.2630    -1.6920 H     1 <1>   0.0800 
 43 H        0.1970    -8.8580    -2.4510 H     1 <1>   0.0800 
 44 H       -1.2560    -6.3860     2.5050 H     1 <1>   0.0800 
 45 H       -2.6830    -7.1020     1.8670 H     1 <1>   0.0800 
 46 H       -2.8100    -7.6860    -0.6650 H     1 <1>   0.0800 
 47 H       -2.2510    -6.3580    -1.6470 H     1 <1>   0.0800 
 48 H       -1.5660    -8.9350     2.7350 H     1 <1>   0.0800 
 49 H        0.0070    -8.3260     2.3450 H     1 <1>   0.0800 
 50 H       -3.9500    -6.1610     0.5990 H     1 <1>   0.4000 
@<TRIPOS>BOND
  1   1   2  1   
  2   2   3  ar  
  3   2   4  ar  
  4   3   5  ar  
  5   3  25  1   
  6   4   6  ar  
  7   4  26  1   
  8   5   7  1   
  9   5   8  ar  
 10   6   8  ar  
 11   6   9  1   
 12   7  10  1   
 13   8  27  1   
 14   9  11  2   
 15   9  12  am  
 16  10  28  1   
 17  10  29  1   
 18  10  30  1   
 19  12  13  1   
 20  12  14  1   
 21  13  15  1   
 22  13  31  1   
 23  13  32  1   
 24  14  16  1   
 25  14  33  1   
 26  14  34  1   
 27  15  17  1   
 28  15  18  1   
 29  15  35  1   
 30  16  18  1   
 31  16  36  1   
 32  16  37  1   
 33  17  19  1   
 34  17  20  1   
 35  17  38  1   
 36  18  21  1   
 37  18  22  1   
 38  19  23  1   
 39  19  39  1   
 40  19  40  1   
 41  20  41  1   
 42  20  42  1   
 43  20  43  1   
 44  21  23  1   
 45  21  44  1   
 46  21  45  1   
 47  22  24  1   
 48  22  46  1   
 49  22  47  1   
 50  23  48  1   
 51  23  49  1   
 52  24  50  1   
@<TRIPOS>SUBSTRUCTURE
  1 ****  12 GROUP 4 **** **** 0

# MOE 2024.06 (io_trps.svl 2023.06)
