@<TRIPOS>MOLECULE
NONAME
48 49 1 0 0 
SMALL
USER_CHARGES


@<TRIPOS>ATOM
  1 S        0.2840     0.4490    -1.1240 S.o2  1 <1>   1.3330 
  2 O       -0.6820     1.3200    -1.7550 O.2   1 <1>  -0.6500 
  3 O        0.4550    -0.9020    -1.6100 O.2   1 <1>  -0.6500 
  4 N       -0.1260     0.3600     0.5230 N.am  1 <1>  -0.8490 
  5 C        1.8910     1.2480    -1.1210 C.3   1 <1>  -0.0550 
  6 C       -0.6700     1.6150     1.0550 C.3   1 <1>   0.1160 
  7 C       -1.0570    -0.7380     0.8000 C.3   1 <1>   0.1160 
  8 C        3.0330     0.3790    -0.5500 C.3   1 <1>  -0.0800 
  9 C        4.4210     0.9860    -0.6760 C.3   1 <1>   0.2200 
 10 C        2.9370     0.0680     0.9500 C.3   1 <1>   0.1200 
 11 N        4.4020     2.4220    -0.3090 N.am  1 <1>  -0.7300 
 12 C        5.1590     0.2160     0.4080 C.3   1 <1>   0.1200 
 13 O        4.2430     0.1010     1.4540 O.3   1 <1>  -0.5600 
 14 C        4.3990     3.4690    -1.1840 C.2   1 <1>   0.5440 
 15 O        4.3460     3.2210    -2.3720 O.2   1 <1>  -0.5700 
 16 C        4.3930     4.8350    -0.7000 C.ar  1 <1>   0.0860 
 17 C        5.3370     5.3450     0.2070 C.ar  1 <1>  -0.1440 
 18 C        3.3900     5.6970    -1.1450 C.ar  1 <1>  -0.1500 
 19 C        5.2400     6.6520     0.6590 C.ar  1 <1>  -0.1500 
 20 C        6.5000     4.4940     0.7080 C.3   1 <1>  -0.0970 
 21 C        3.3000     6.9990    -0.6950 C.ar  1 <1>  -0.1500 
 22 C        4.2190     7.4870     0.2160 C.ar  1 <1>   0.0820 
 23 O        4.0610     8.7680     0.6180 O.3   1 <1>  -0.3620 
 24 C        4.9540     9.3820     1.5200 C.3   1 <1>   0.0400 
 25 H        2.1430     1.4970    -2.1340 H     1 <1>   0.0800 
 26 H        1.8250     2.1680    -0.5770 H     1 <1>   0.0800 
 27 H       -0.8290     1.5280     2.1160 H     1 <1>   0.0800 
 28 H       -1.6070     1.8520     0.5780 H     1 <1>   0.0800 
 29 H        0.0190     2.4240     0.8810 H     1 <1>   0.0800 
 30 H       -1.2880    -0.7770     1.8510 H     1 <1>   0.0800 
 31 H       -0.6120    -1.6790     0.5190 H     1 <1>   0.0800 
 32 H       -1.9680    -0.6070     0.2400 H     1 <1>   0.0800 
 33 H        3.0370    -0.5610    -1.0750 H     1 <1>   0.0800 
 34 H        4.8550     0.8450    -1.6520 H     1 <1>   0.0800 
 35 H        2.5140    -0.9060     1.1300 H     1 <1>   0.0800 
 36 H        2.3690     0.8140     1.4780 H     1 <1>   0.0800 
 37 H        4.3550     2.5970     0.6970 H     1 <1>   0.3700 
 38 H        6.0450     0.7200     0.7520 H     1 <1>   0.0800 
 39 H        5.4060    -0.7770     0.0730 H     1 <1>   0.0800 
 40 H        2.6720     5.3310    -1.8590 H     1 <1>   0.1500 
 41 H        5.9690     7.0170     1.3570 H     1 <1>   0.1500 
 42 H        7.2850     5.1120     1.1050 H     1 <1>   0.0800 
 43 H        6.9150     3.9140    -0.0980 H     1 <1>   0.0800 
 44 H        6.1660     3.8290     1.4830 H     1 <1>   0.0800 
 45 H        2.5170     7.6470    -1.0470 H     1 <1>   0.1500 
 46 H        4.6260    10.3930     1.6780 H     1 <1>   0.0800 
 47 H        5.9400     9.3800     1.0900 H     1 <1>   0.0800 
 48 H        4.9370     8.8420     2.4500 H     1 <1>   0.0800 
@<TRIPOS>BOND
  1   1   2  2   
  2   1   3  2   
  3   1   4  am  
  4   1   5  1   
  5   4   6  1   
  6   4   7  1   
  7   5   8  1   
  8   5  25  1   
  9   5  26  1   
 10   6  27  1   
 11   6  28  1   
 12   6  29  1   
 13   7  30  1   
 14   7  31  1   
 15   7  32  1   
 16   8   9  1   
 17   8  10  1   
 18   8  33  1   
 19   9  11  1   
 20   9  12  1   
 21   9  34  1   
 22  10  13  1   
 23  10  35  1   
 24  10  36  1   
 25  11  14  am  
 26  11  37  1   
 27  12  13  1   
 28  12  38  1   
 29  12  39  1   
 30  14  15  2   
 31  14  16  1   
 32  16  17  ar  
 33  16  18  ar  
 34  17  19  ar  
 35  17  20  1   
 36  18  21  ar  
 37  18  40  1   
 38  19  22  ar  
 39  19  41  1   
 40  20  42  1   
 41  20  43  1   
 42  20  44  1   
 43  21  22  ar  
 44  21  45  1   
 45  22  23  1   
 46  23  24  1   
 47  24  46  1   
 48  24  47  1   
 49  24  48  1   
@<TRIPOS>SUBSTRUCTURE
  1 ****  11 GROUP 4 **** **** 0

# MOE 2024.06 (io_trps.svl 2023.06)
