@<TRIPOS>MOLECULE
NONAME
47 49 1 0 0 
SMALL
USER_CHARGES


@<TRIPOS>ATOM
  1 O       -1.1410     0.3010     2.1910 O.2   1 <1>  -0.5700 
  2 C       -1.8240     0.8380     1.3510 C.2   1 <1>   0.5690 
  3 N       -2.9650     0.2310     0.8760 N.am  1 <1>  -0.6600 
  4 C       -1.3430     2.2190     0.8810 C.3   1 <1>  -0.0190 
  5 C       -3.8640     0.7240    -0.2230 C.3   1 <1>   0.1400 
  6 C       -3.4330    -1.0770     1.4530 C.3   1 <1>   0.1400 
  7 C       -2.3350     3.3540     1.2170 C.3   1 <1>  -0.1600 
  8 C       -0.8490     2.2300    -0.5880 C.3   1 <1>  -0.1600 
  9 C       -4.0670    -0.3490    -1.3060 C.3   1 <1>   0.2090 
 10 C       -3.6640    -2.1380     0.3630 C.3   1 <1>   0.2090 
 11 C       -1.7850     4.7530     0.8690 C.3   1 <1>   0.2000 
 12 C       -1.0100     3.5970    -1.2770 C.3   1 <1>  -0.1600 
 13 N       -4.5800    -1.6110    -0.6940 N.pl3 1 <1>  -0.8380 
 14 O       -2.8770     5.5620     0.5030 O.3   1 <1>  -0.5600 
 15 C       -0.7520     4.7360    -0.2890 C.3   1 <1>   0.2000 
 16 C       -5.9190    -1.9370    -0.7060 C.ar  1 <1>   0.7200 
 17 C       -3.5880     6.1140     1.5670 C.3   1 <1>   0.0400 
 18 O       -0.8290     5.9250    -0.9840 O.3   1 <1>  -0.6800 
 19 N       -6.7690    -1.0090    -1.1470 N.ar  1 <1>  -0.6200 
 20 N       -6.2480    -3.1510    -0.2670 N.ar  1 <1>  -0.6200 
 21 C       -8.0370    -1.3380    -1.1550 C.ar  1 <1>   0.1600 
 22 C       -7.5230    -3.4520    -0.2880 C.ar  1 <1>   0.1600 
 23 C       -8.4750    -2.5680    -0.7300 C.ar  1 <1>  -0.1500 
 24 H       -0.4710     2.4320     1.4770 H     1 <1>   0.0800 
 25 H       -4.8240     0.9760     0.1940 H     1 <1>   0.0800 
 26 H       -3.4700     1.6030    -0.6920 H     1 <1>   0.0800 
 27 H       -2.7200    -1.4610     2.1620 H     1 <1>   0.0800 
 28 H       -4.3570    -0.9150     1.9780 H     1 <1>   0.0800 
 29 H       -2.5610     3.3180     2.2680 H     1 <1>   0.0800 
 30 H       -3.2530     3.2060     0.6810 H     1 <1>   0.0800 
 31 H        0.1940     1.9610    -0.5870 H     1 <1>   0.0800 
 32 H       -1.3510     1.4820    -1.1750 H     1 <1>   0.0800 
 33 H       -3.1270    -0.5490    -1.7880 H     1 <1>   0.0800 
 34 H       -4.7410     0.0170    -2.0600 H     1 <1>   0.0800 
 35 H       -4.0630    -3.0280     0.8170 H     1 <1>   0.0800 
 36 H       -2.7210    -2.4000    -0.0830 H     1 <1>   0.0800 
 37 H       -1.3030     5.1860     1.7290 H     1 <1>   0.0800 
 38 H       -2.0130     3.6890    -1.6570 H     1 <1>   0.0800 
 39 H       -0.3250     3.6660    -2.1040 H     1 <1>   0.0800 
 40 H        0.2470     4.6470     0.1020 H     1 <1>   0.0800 
 41 H       -4.3890     6.7070     1.1620 H     1 <1>   0.0800 
 42 H       -2.9310     6.7420     2.1460 H     1 <1>   0.0800 
 43 H       -3.9950     5.3270     2.1770 H     1 <1>   0.0800 
 44 H       -1.7560     6.2360    -0.8720 H     1 <1>   0.4000 
 45 H       -8.7450    -0.6080    -1.5090 H     1 <1>   0.1500 
 46 H       -7.8150    -4.4300     0.0560 H     1 <1>   0.1500 
 47 H       -9.5170    -2.8270    -0.7430 H     1 <1>   0.1500 
@<TRIPOS>BOND
  1   1   2  2   
  2   2   3  am  
  3   2   4  1   
  4   3   5  1   
  5   3   6  1   
  6   4   7  1   
  7   4   8  1   
  8   4  24  1   
  9   5   9  1   
 10   5  25  1   
 11   5  26  1   
 12   6  10  1   
 13   6  27  1   
 14   6  28  1   
 15   7  11  1   
 16   7  29  1   
 17   7  30  1   
 18   8  12  1   
 19   8  31  1   
 20   8  32  1   
 21   9  13  1   
 22   9  33  1   
 23   9  34  1   
 24  10  13  1   
 25  10  35  1   
 26  10  36  1   
 27  11  14  1   
 28  11  15  1   
 29  11  37  1   
 30  12  15  1   
 31  12  38  1   
 32  12  39  1   
 33  13  16  1   
 34  14  17  1   
 35  15  18  1   
 36  15  40  1   
 37  16  19  ar  
 38  16  20  ar  
 39  17  41  1   
 40  17  42  1   
 41  17  43  1   
 42  18  44  1   
 43  19  21  ar  
 44  20  22  ar  
 45  21  23  ar  
 46  21  45  1   
 47  22  23  ar  
 48  22  46  1   
 49  23  47  1   
@<TRIPOS>SUBSTRUCTURE
  1 ****   5 GROUP 4 **** **** 0

# MOE 2024.06 (io_trps.svl 2023.06)
