@<TRIPOS>MOLECULE
NONAME
43 44 1 0 0 
SMALL
USER_CHARGES


@<TRIPOS>ATOM
  1 O        4.0030    -1.6530     2.8530 O.2   1 <1>  -0.5700 
  2 C        2.9960    -1.5960     2.1880 C.2   1 <1>   0.5690 
  3 N        2.3520    -0.4360     1.9300 N.am  1 <1>  -0.7300 
  4 C        2.4070    -2.8650     1.5610 C.3   1 <1>   0.1710 
  5 C        2.9220     0.9120     1.9900 C.3   1 <1>   0.2840 
  6 N        1.6690    -2.5960     0.2870 N.3   1 <1>  -0.8100 
  7 C        3.2340     1.3490     0.5640 C.ar  1 <1>  -0.1430 
  8 C        0.7460    -3.6790    -0.0900 C.3   1 <1>   0.2900 
  9 C        2.6070    -2.2600    -0.8020 C.3   1 <1>   0.0300 
 10 C        2.2320     1.4360    -0.4020 C.ar  1 <1>   0.0830 
 11 C        4.5430     1.6420     0.2150 C.ar  1 <1>  -0.1500 
 12 C       -0.3930    -3.1290    -0.9320 C.2   1 <1>  -0.0400 
 13 O        0.9570     1.1250    -0.0470 O.3   1 <1>  -0.3630 
 14 C        2.5540     1.8230    -1.6990 C.ar  1 <1>  -0.1500 
 15 C        4.8580     2.0240    -1.0780 C.ar  1 <1>  -0.1500 
 16 O       -0.2140    -2.8410    -2.1940 O.3   1 <1>  -0.0190 
 17 C       -1.6690    -2.8480    -0.6250 C.2   1 <1>  -0.1500 
 18 C        0.0700     0.5670    -0.9950 C.3   1 <1>   0.0400 
 19 C        3.8630     2.1160    -2.0340 C.ar  1 <1>  -0.1500 
 20 N       -1.2970    -2.3730    -2.7450 N.2   1 <1>  -0.4100 
 21 C       -2.1920    -2.3690    -1.8230 C.2   1 <1>   0.1080 
 22 C       -3.6170    -1.9030    -2.0220 C.3   1 <1>  -0.0590 
 23 H        1.6080    -0.5060     1.2210 H     1 <1>   0.3700 
 24 H        1.7360    -3.2860     2.2860 H     1 <1>   0.0800 
 25 H        3.2000    -3.5700     1.3870 H     1 <1>   0.0800 
 26 H        3.8110     0.9070     2.5970 H     1 <1>   0.0800 
 27 H        2.2050     1.5830     2.4300 H     1 <1>   0.0800 
 28 H        0.3160    -4.1070     0.7990 H     1 <1>   0.0800 
 29 H        1.2660    -4.4570    -0.6220 H     1 <1>   0.0800 
 30 H        3.2260    -1.4250    -0.5200 H     1 <1>   0.0800 
 31 H        2.0700    -1.9800    -1.6910 H     1 <1>   0.0800 
 32 H        3.2410    -3.1000    -1.0280 H     1 <1>   0.0800 
 33 H        5.3280     1.5680     0.9480 H     1 <1>   0.1500 
 34 H        1.7940     1.9060    -2.4530 H     1 <1>   0.1500 
 35 H        5.8780     2.2500    -1.3380 H     1 <1>   0.1500 
 36 H       -2.1900    -2.9480     0.3080 H     1 <1>   0.1500 
 37 H       -0.7750     0.1620    -0.4670 H     1 <1>   0.0800 
 38 H        0.5710    -0.2220    -1.5270 H     1 <1>   0.0800 
 39 H       -0.2560     1.3370    -1.6700 H     1 <1>   0.0800 
 40 H        4.1080     2.4150    -3.0380 H     1 <1>   0.1500 
 41 H       -3.8360    -1.0970    -1.3470 H     1 <1>   0.0800 
 42 H       -4.2950    -2.7160    -1.8380 H     1 <1>   0.0800 
 43 H       -3.7530    -1.5590    -3.0320 H     1 <1>   0.0800 
@<TRIPOS>BOND
  1   1   2  2   
  2   2   3  am  
  3   2   4  1   
  4   3   5  1   
  5   3  23  1   
  6   4   6  1   
  7   4  24  1   
  8   4  25  1   
  9   5   7  1   
 10   5  26  1   
 11   5  27  1   
 12   6   8  1   
 13   6   9  1   
 14   7  10  ar  
 15   7  11  ar  
 16   8  12  1   
 17   8  28  1   
 18   8  29  1   
 19   9  30  1   
 20   9  31  1   
 21   9  32  1   
 22  10  13  1   
 23  10  14  ar  
 24  11  15  ar  
 25  11  33  1   
 26  12  16  1   
 27  12  17  2   
 28  13  18  1   
 29  14  19  ar  
 30  14  34  1   
 31  15  19  ar  
 32  15  35  1   
 33  16  20  1   
 34  17  21  1   
 35  17  36  1   
 36  18  37  1   
 37  18  38  1   
 38  18  39  1   
 39  19  40  1   
 40  20  21  2   
 41  21  22  1   
 42  22  41  1   
 43  22  42  1   
 44  22  43  1   
@<TRIPOS>SUBSTRUCTURE
  1 ****   6 GROUP 4 **** **** 0

# MOE 2024.06 (io_trps.svl 2023.06)
