@<TRIPOS>MOLECULE
NONAME
43 45 1 0 0 
SMALL
USER_CHARGES


@<TRIPOS>ATOM
  1 O       -0.4790     0.3050    -0.2680 O.3   1 <1>  -0.6800 
  2 C        0.6820    -0.3620    -0.6350 C.3   1 <1>   0.2000 
  3 C        0.8540    -1.5490     0.3210 C.3   1 <1>  -0.0800 
  4 C        1.8640     0.5780    -0.3540 C.3   1 <1>   0.3430 
  5 C        1.6610    -0.9430     1.4660 C.3   1 <1>   0.3430 
  6 C        1.5490    -2.7720    -0.3240 C.3   1 <1>   0.0210 
  7 N        2.6030    -0.0210     0.7970 N.4   1 <1>  -0.9590 
  8 C        3.0420    -2.6430    -0.6000 C.2   1 <1>   0.1080 
  9 C        3.2950     0.9570     1.6660 C.3   1 <1>   0.4860 
 10 N        3.5640    -1.7330    -1.3660 N.2   1 <1>  -0.7070 
 11 C        4.0070    -3.5010    -0.0840 C.2   1 <1>  -0.1500 
 12 C        4.4340     1.5560     0.8630 C.ar  1 <1>  -0.1440 
 13 N        4.8830    -2.0370    -1.4170 N.pl3 1 <1>   0.3000 
 14 C        5.1730    -3.0820    -0.6190 C.2   1 <1>  -0.3320 
 15 C        5.4710     0.7450     0.4300 C.ar  1 <1>  -0.1500 
 16 C        4.4460     2.9030     0.5350 C.ar  1 <1>  -0.1500 
 17 C        6.5740    -3.6430    -0.4420 C.3   1 <1>  -0.0600 
 18 C        6.5000     1.2440    -0.3590 C.ar  1 <1>   0.0730 
 19 C        5.4780     3.4220    -0.2270 C.ar  1 <1>  -0.1500 
 20 C        7.5090     0.3520    -0.8520 C.1   1 <1>   0.4840 
 21 C        6.4950     2.5970    -0.6740 C.ar  1 <1>  -0.1500 
 22 N        8.2230    -0.4340    -1.2650 N.1   1 <1>  -0.5570 
 23 H       -1.2740    -0.1370    -0.6340 H     1 <1>   0.4000 
 24 H        0.6150    -0.6350    -1.6750 H     1 <1>   0.0800 
 25 H       -0.1030    -1.8790     0.6850 H     1 <1>   0.0800 
 26 H        1.4950     1.5610    -0.1140 H     1 <1>   0.0800 
 27 H        2.5110     0.6320    -1.2140 H     1 <1>   0.0800 
 28 H        2.1770    -1.6980     2.0370 H     1 <1>   0.0800 
 29 H        1.0000    -0.3840     2.1100 H     1 <1>   0.0800 
 30 H        1.0580    -3.0120    -1.2510 H     1 <1>   0.0800 
 31 H        1.4080    -3.6200     0.3230 H     1 <1>   0.0800 
 32 H        3.3100    -0.6190     0.3250 H     1 <1>   0.4500 
 33 H        2.6100     1.7250     1.9850 H     1 <1>   0.0800 
 34 H        3.6940     0.4630     2.5360 H     1 <1>   0.0800 
 35 H        3.8410    -4.3310     0.5820 H     1 <1>   0.1500 
 36 H        5.5600    -1.5360    -2.0110 H     1 <1>   0.2700 
 37 H        5.4860    -0.2990     0.6970 H     1 <1>   0.1500 
 38 H        3.6580     3.5620     0.8650 H     1 <1>   0.1500 
 39 H        6.5550    -4.4950     0.2140 H     1 <1>   0.0800 
 40 H        7.2280    -2.9010    -0.0200 H     1 <1>   0.0800 
 41 H        6.9740    -3.9540    -1.3920 H     1 <1>   0.0800 
 42 H        5.4890     4.4700    -0.4780 H     1 <1>   0.1500 
 43 H        7.2870     3.0100    -1.2770 H     1 <1>   0.1500 
@<TRIPOS>BOND
  1   1   2  1   
  2   1  23  1   
  3   2   3  1   
  4   2   4  1   
  5   2  24  1   
  6   3   5  1   
  7   3   6  1   
  8   3  25  1   
  9   4   7  1   
 10   4  26  1   
 11   4  27  1   
 12   5   7  1   
 13   5  28  1   
 14   5  29  1   
 15   6   8  1   
 16   6  30  1   
 17   6  31  1   
 18   7   9  1   
 19   7  32  1   
 20   8  10  2   
 21   8  11  1   
 22   9  12  1   
 23   9  33  1   
 24   9  34  1   
 25  10  13  1   
 26  11  14  2   
 27  11  35  1   
 28  12  15  ar  
 29  12  16  ar  
 30  13  14  1   
 31  13  36  1   
 32  14  17  1   
 33  15  18  ar  
 34  15  37  1   
 35  16  19  ar  
 36  16  38  1   
 37  17  39  1   
 38  17  40  1   
 39  17  41  1   
 40  18  20  1   
 41  18  21  ar  
 42  19  21  ar  
 43  19  42  1   
 44  20  22  3   
 45  21  43  1   
@<TRIPOS>SUBSTRUCTURE
  1 ****   7 GROUP 4 **** **** 0

# MOE 2024.06 (io_trps.svl 2023.06)
