@<TRIPOS>MOLECULE
NONAME
55 57 1 0 0 
SMALL
USER_CHARGES


@<TRIPOS>ATOM
  1 O       -0.5900     4.0070     2.8780 O.2   1 <1>  -0.5700 
  2 C       -1.0460     3.2820     2.0180 C.2   1 <1>   0.5440 
  3 N       -1.1000     1.9580     2.2910 N.am  1 <1>  -0.8000 
  4 C       -1.5460     3.8310     0.7900 C.ar  1 <1>   0.0860 
  5 C       -0.6790     4.2590    -0.2310 C.ar  1 <1>   0.4100 
  6 C       -2.9090     3.9930     0.5930 C.ar  1 <1>  -0.1500 
  7 N       -1.0810     4.9170    -1.3160 N.ar  1 <1>  -0.6200 
  8 N        0.6800     4.0250    -0.2150 N.pl3 1 <1>  -0.8380 
  9 C       -3.3300     4.6050    -0.5660 C.ar  1 <1>  -0.1500 
 10 C       -2.3850     5.0510    -1.4730 C.ar  1 <1>   0.1600 
 11 C        1.6730     4.7550     0.6550 C.3   1 <1>   0.2090 
 12 C        1.2290     2.9800    -1.1250 C.3   1 <1>   0.1290 
 13 C        1.9180     6.2440     0.2340 C.3   1 <1>   0.5030 
 14 N        0.5850     6.9530     0.1700 N.4   1 <1>  -0.9590 
 15 C        2.6050     6.2810    -1.1580 C.3   1 <1>  -0.1600 
 16 C        2.8470     6.9420     1.2580 C.3   1 <1>  -0.1600 
 17 C        0.5620     8.2730    -0.5310 C.3   1 <1>   0.3430 
 18 C       -0.1030     7.0250     1.5030 C.3   1 <1>   0.3430 
 19 C        4.0240     5.6850    -1.1630 C.3   1 <1>  -0.1600 
 20 C        4.2800     6.3760     1.2700 C.3   1 <1>  -0.1600 
 21 C       -0.8750     8.7650    -0.7080 C.3   1 <1>  -0.1600 
 22 C       -1.5410     7.5270     1.3620 C.3   1 <1>  -0.1600 
 23 C        4.9090     6.3900    -0.1280 C.3   1 <1>  -0.1600 
 24 C       -1.6100     8.8690     0.6300 C.3   1 <1>  -0.1600 
 25 H       -0.7560     1.6170     3.1910 H     1 <1>   0.3700 
 26 H       -1.4470     1.2540     1.6390 H     1 <1>   0.3700 
 27 H       -3.6140     3.6560     1.3350 H     1 <1>   0.1500 
 28 H       -4.3790     4.7450    -0.7660 H     1 <1>   0.1500 
 29 H       -2.7250     5.5410    -2.3710 H     1 <1>   0.1500 
 30 H        2.6000     4.2150     0.6390 H     1 <1>   0.0800 
 31 H        1.3470     4.7260     1.6750 H     1 <1>   0.0800 
 32 H        0.4350     2.5330    -1.7000 H     1 <1>   0.0800 
 33 H        1.7140     2.2100    -0.5490 H     1 <1>   0.0800 
 34 H        1.9390     3.4130    -1.8070 H     1 <1>   0.0800 
 35 H        0.0200     6.2970    -0.4110 H     1 <1>   0.4500 
 36 H        2.7260     7.2940    -1.4900 H     1 <1>   0.0800 
 37 H        1.9980     5.7660    -1.8810 H     1 <1>   0.0800 
 38 H        2.4510     6.8460     2.2530 H     1 <1>   0.0800 
 39 H        2.9100     7.9890     1.0240 H     1 <1>   0.0800 
 40 H        1.0030     8.1850    -1.5090 H     1 <1>   0.0800 
 41 H        1.1250     8.9960     0.0360 H     1 <1>   0.0800 
 42 H        0.4370     7.6960     2.1500 H     1 <1>   0.0800 
 43 H       -0.1210     6.0550     1.9690 H     1 <1>   0.0800 
 44 H        4.4590     5.8120    -2.1410 H     1 <1>   0.0800 
 45 H        4.0000     4.6280    -0.9660 H     1 <1>   0.0800 
 46 H        4.2820     5.3700     1.6530 H     1 <1>   0.0800 
 47 H        4.8900     6.9660     1.9350 H     1 <1>   0.0800 
 48 H       -1.3980     8.0920    -1.3660 H     1 <1>   0.0800 
 49 H       -0.8580     9.7310    -1.1820 H     1 <1>   0.0800 
 50 H       -1.9710     7.6290     2.3430 H     1 <1>   0.0800 
 51 H       -2.1220     6.7940     0.8350 H     1 <1>   0.0800 
 52 H        5.0690     7.4100    -0.4350 H     1 <1>   0.0800 
 53 H        5.8740     5.9110    -0.0940 H     1 <1>   0.0800 
 54 H       -2.6390     9.1430     0.4640 H     1 <1>   0.0800 
 55 H       -1.1570     9.6360     1.2360 H     1 <1>   0.0800 
@<TRIPOS>BOND
  1   1   2  2   
  2   2   3  am  
  3   2   4  1   
  4   3  25  1   
  5   3  26  1   
  6   4   5  ar  
  7   4   6  ar  
  8   5   7  ar  
  9   5   8  1   
 10   6   9  ar  
 11   6  27  1   
 12   7  10  ar  
 13   8  11  1   
 14   8  12  1   
 15   9  10  ar  
 16   9  28  1   
 17  10  29  1   
 18  11  13  1   
 19  11  30  1   
 20  11  31  1   
 21  12  32  1   
 22  12  33  1   
 23  12  34  1   
 24  13  14  1   
 25  13  15  1   
 26  13  16  1   
 27  14  17  1   
 28  14  18  1   
 29  14  35  1   
 30  15  19  1   
 31  15  36  1   
 32  15  37  1   
 33  16  20  1   
 34  16  38  1   
 35  16  39  1   
 36  17  21  1   
 37  17  40  1   
 38  17  41  1   
 39  18  22  1   
 40  18  42  1   
 41  18  43  1   
 42  19  23  1   
 43  19  44  1   
 44  19  45  1   
 45  20  23  1   
 46  20  46  1   
 47  20  47  1   
 48  21  24  1   
 49  21  48  1   
 50  21  49  1   
 51  22  24  1   
 52  22  50  1   
 53  22  51  1   
 54  23  52  1   
 55  23  53  1   
 56  24  54  1   
 57  24  55  1   
@<TRIPOS>SUBSTRUCTURE
  1 ****  14 GROUP 4 **** **** 0

# MOE 2024.06 (io_trps.svl 2023.06)
