@<TRIPOS>MOLECULE
NONAME
49 52 1 0 0 
SMALL
USER_CHARGES


@<TRIPOS>ATOM
  1 S        0.5130    -0.0090     1.4140 S.3   1 <1>  -0.0800 
  2 C        1.0860    -0.9610     0.0590 C.2   1 <1>  -0.0450 
  3 C        1.0540     1.4480     0.6240 C.2   1 <1>   0.1980 
  4 C        1.6290    -0.0930    -0.8280 C.2   1 <1>   0.0460 
  5 C        0.9420    -2.3950     0.0860 C.2   1 <1>   0.7150 
  6 N        1.5970     1.2480    -0.5090 N.2   1 <1>  -0.5650 
  7 C        0.8180     2.7550     1.3650 C.3   1 <1>   0.0200 
  8 C        2.2750    -0.4370    -2.1540 C.3   1 <1>  -0.0590 
  9 O        1.8170    -3.1000    -0.3810 O.2   1 <1>  -0.5700 
 10 N       -0.1800    -3.0080     0.5990 N.am  1 <1>  -0.6600 
 11 C        1.3100     3.9840     0.5880 C.3   1 <1>  -0.2400 
 12 C       -0.2020    -4.4690     0.9290 C.3   1 <1>   0.1400 
 13 C       -1.5520    -2.4280     0.4690 C.3   1 <1>   0.1400 
 14 C       -1.1510    -5.2350    -0.0100 C.3   1 <1>   0.3430 
 15 C       -2.4400    -3.3090    -0.4330 C.3   1 <1>   0.2950 
 16 O       -2.4220    -4.6370     0.0030 O.3   1 <1>  -0.5600 
 17 C       -1.2640    -6.6960     0.4170 C.ar  1 <1>  -0.1440 
 18 C       -3.8970    -2.8390    -0.4160 C.3   1 <1>  -0.1950 
 19 C       -0.3760    -7.6280    -0.1020 C.ar  1 <1>  -0.1500 
 20 C       -2.2270    -7.1160     1.3240 C.ar  1 <1>  -0.1500 
 21 C       -4.8320    -3.1750    -1.5340 C.3   1 <1>  -0.2000 
 22 C       -4.3710    -1.7570    -1.3360 C.3   1 <1>  -0.2000 
 23 C       -0.4470    -8.9570     0.2810 C.ar  1 <1>  -0.1500 
 24 C       -2.3000    -8.4440     1.7080 C.ar  1 <1>  -0.1500 
 25 C       -1.4100    -9.3660     1.1860 C.ar  1 <1>  -0.1500 
 26 H       -0.2350     2.8560     1.5560 H     1 <1>   0.0800 
 27 H        1.3270     2.7080     2.3110 H     1 <1>   0.0800 
 28 H        2.2280    -1.4910    -2.3530 H     1 <1>   0.0800 
 29 H        3.3070    -0.1350    -2.1380 H     1 <1>   0.0800 
 30 H        1.7740     0.0890    -2.9460 H     1 <1>   0.0800 
 31 H        0.8010     4.0510    -0.3570 H     1 <1>   0.0800 
 32 H        2.3670     3.9040     0.4020 H     1 <1>   0.0800 
 33 H        1.1220     4.8810     1.1500 H     1 <1>   0.0800 
 34 H        0.7850    -4.8920     0.8580 H     1 <1>   0.0800 
 35 H       -0.5360    -4.5980     1.9440 H     1 <1>   0.0800 
 36 H       -1.9980    -2.3520     1.4450 H     1 <1>   0.0800 
 37 H       -1.5100    -1.4410     0.0450 H     1 <1>   0.0800 
 38 H       -0.7740    -5.1910    -1.0170 H     1 <1>   0.0800 
 39 H       -2.0680    -3.2850    -1.4440 H     1 <1>   0.0800 
 40 H       -4.3080    -2.8470     0.5790 H     1 <1>   0.1000 
 41 H        0.3800    -7.3250    -0.8070 H     1 <1>   0.1500 
 42 H       -2.9270    -6.4080     1.7340 H     1 <1>   0.1500 
 43 H       -4.4550    -3.7400    -2.3690 H     1 <1>   0.1000 
 44 H       -5.8470    -3.4350    -1.2880 H     1 <1>   0.1000 
 45 H       -5.0800    -1.0350    -0.9680 H     1 <1>   0.1000 
 46 H       -3.6970    -1.3390    -2.0640 H     1 <1>   0.1000 
 47 H        0.2450    -9.6720    -0.1270 H     1 <1>   0.1500 
 48 H       -3.0510    -8.7590     2.4110 H     1 <1>   0.1500 
 49 H       -1.4670   -10.3980     1.4840 H     1 <1>   0.1500 
@<TRIPOS>BOND
  1   1   2  1   
  2   1   3  1   
  3   2   4  2   
  4   2   5  1   
  5   3   6  2   
  6   3   7  1   
  7   4   6  1   
  8   4   8  1   
  9   5   9  2   
 10   5  10  am  
 11   7  11  1   
 12   7  26  1   
 13   7  27  1   
 14   8  28  1   
 15   8  29  1   
 16   8  30  1   
 17  10  12  1   
 18  10  13  1   
 19  11  31  1   
 20  11  32  1   
 21  11  33  1   
 22  12  14  1   
 23  12  34  1   
 24  12  35  1   
 25  13  15  1   
 26  13  36  1   
 27  13  37  1   
 28  14  16  1   
 29  14  17  1   
 30  14  38  1   
 31  15  16  1   
 32  15  18  1   
 33  15  39  1   
 34  17  19  ar  
 35  17  20  ar  
 36  18  21  1   
 37  18  22  1   
 38  18  40  1   
 39  19  23  ar  
 40  19  41  1   
 41  20  24  ar  
 42  20  42  1   
 43  21  22  1   
 44  21  43  1   
 45  21  44  1   
 46  22  45  1   
 47  22  46  1   
 48  23  25  ar  
 49  23  47  1   
 50  24  25  ar  
 51  24  48  1   
 52  25  49  1   
@<TRIPOS>SUBSTRUCTURE
  1 ****  10 GROUP 4 **** **** 0

# MOE 2024.06 (io_trps.svl 2023.06)
