@<TRIPOS>MOLECULE
NONAME
51 53 1 0 0 
SMALL
USER_CHARGES


@<TRIPOS>ATOM
  1 O       -0.1210     0.4600    -0.7480 O.2   1 <1>  -0.5700 
  2 C       -0.1040     1.6230    -0.4170 C.2   1 <1>   0.5690 
  3 N       -1.2460     2.3070    -0.0910 N.am  1 <1>  -0.6600 
  4 C        1.2480     2.3410    -0.3960 C.3   1 <1>   0.1810 
  5 C       -1.1940     3.7470     0.3310 C.3   1 <1>   0.3640 
  6 C       -2.5760     1.6350     0.0030 C.3   1 <1>   0.0600 
  7 O        1.2440     3.5220     0.3690 O.3   1 <1>  -0.5600 
  8 C       -2.2970     4.5370    -0.3910 C.ar  1 <1>  -0.1430 
  9 C        0.1830     4.4010     0.0570 C.3   1 <1>   0.2610 
 10 C       -3.2860     5.2490     0.2910 C.ar  1 <1>  -0.1430 
 11 C       -2.3050     4.5410    -1.7820 C.ar  1 <1>  -0.1500 
 12 C        0.3200     5.7190     0.8270 C.2   1 <1>   0.5690 
 13 C       -4.2360     5.9590    -0.4280 C.ar  1 <1>  -0.1500 
 14 C       -3.3770     5.2800     1.8120 C.3   1 <1>  -0.0960 
 15 C       -3.2570     5.2510    -2.4890 C.ar  1 <1>  -0.1500 
 16 O       -0.0050     5.7850     1.9910 O.2   1 <1>  -0.5700 
 17 N        0.8050     6.8150     0.1840 N.am  1 <1>  -0.7300 
 18 C       -4.2230     5.9650    -1.8100 C.ar  1 <1>  -0.1500 
 19 C        0.9590     8.1300     0.8110 C.3   1 <1>   0.2010 
 20 C        1.5330     9.1960    -0.1450 C.2   1 <1>   0.5690 
 21 O        1.8040     8.8860    -1.3050 O.2   1 <1>  -0.5700 
 22 N        1.7340    10.4710     0.3100 N.am  1 <1>  -0.6600 
 23 C        1.4560    10.9730     1.6740 C.3   1 <1>   0.1400 
 24 C        2.2930    11.5380    -0.5480 C.3   1 <1>   0.1400 
 25 C        1.6360    12.4830     1.5750 C.3   1 <1>  -0.1600 
 26 C        2.6020    12.6830     0.4100 C.3   1 <1>  -0.1600 
 27 H        1.5370     2.5880    -1.4010 H     1 <1>   0.0800 
 28 H        1.9890     1.6860     0.0240 H     1 <1>   0.0800 
 29 H       -1.3560     3.7680     1.3930 H     1 <1>   0.0800 
 30 H       -3.0200     1.8350     0.9620 H     1 <1>   0.0800 
 31 H       -2.4740     0.5700    -0.1130 H     1 <1>   0.0800 
 32 H       -3.2270     2.0040    -0.7700 H     1 <1>   0.0800 
 33 H        0.2610     4.6270    -0.9890 H     1 <1>   0.0800 
 34 H       -1.5690     3.9800    -2.3300 H     1 <1>   0.1500 
 35 H       -4.9990     6.5170     0.0850 H     1 <1>   0.1500 
 36 H       -4.2800     5.7660     2.1340 H     1 <1>   0.0800 
 37 H       -2.5460     5.8200     2.2250 H     1 <1>   0.0800 
 38 H       -3.3830     4.2810     2.2090 H     1 <1>   0.0800 
 39 H       -3.2470     5.2460    -3.5650 H     1 <1>   0.1500 
 40 H        1.1080     6.7660    -0.7790 H     1 <1>   0.3700 
 41 H       -4.9660     6.5220    -2.3540 H     1 <1>   0.1500 
 42 H       -0.0120     8.4740     1.1650 H     1 <1>   0.0800 
 43 H        1.6250     8.0450     1.6690 H     1 <1>   0.0800 
 44 H        0.4580    10.7190     1.9890 H     1 <1>   0.0800 
 45 H        2.1760    10.5550     2.3580 H     1 <1>   0.0800 
 46 H        3.1760    11.1960    -1.0610 H     1 <1>   0.0800 
 47 H        1.5500    11.8340    -1.2680 H     1 <1>   0.0800 
 48 H        0.6870    12.9340     1.3430 H     1 <1>   0.0800 
 49 H        2.0080    12.9040     2.4930 H     1 <1>   0.0800 
 50 H        3.6170    12.5860     0.7540 H     1 <1>   0.0800 
 51 H        2.4840    13.6420    -0.0630 H     1 <1>   0.0800 
@<TRIPOS>BOND
  1   1   2  2   
  2   2   3  am  
  3   2   4  1   
  4   3   5  1   
  5   3   6  1   
  6   4   7  1   
  7   4  27  1   
  8   4  28  1   
  9   5   8  1   
 10   5   9  1   
 11   5  29  1   
 12   6  30  1   
 13   6  31  1   
 14   6  32  1   
 15   7   9  1   
 16   8  10  ar  
 17   8  11  ar  
 18   9  12  1   
 19   9  33  1   
 20  10  13  ar  
 21  10  14  1   
 22  11  15  ar  
 23  11  34  1   
 24  12  16  2   
 25  12  17  am  
 26  13  18  ar  
 27  13  35  1   
 28  14  36  1   
 29  14  37  1   
 30  14  38  1   
 31  15  18  ar  
 32  15  39  1   
 33  17  19  1   
 34  17  40  1   
 35  18  41  1   
 36  19  20  1   
 37  19  42  1   
 38  19  43  1   
 39  20  21  2   
 40  20  22  am  
 41  22  23  1   
 42  22  24  1   
 43  23  25  1   
 44  23  44  1   
 45  23  45  1   
 46  24  26  1   
 47  24  46  1   
 48  24  47  1   
 49  25  26  1   
 50  25  48  1   
 51  25  49  1   
 52  26  50  1   
 53  26  51  1   
@<TRIPOS>SUBSTRUCTURE
  1 ****  12 GROUP 4 **** **** 0

# MOE 2024.06 (io_trps.svl 2023.06)
