@<TRIPOS>MOLECULE
NONAME
50 54 1 0 0 
SMALL
USER_CHARGES


@<TRIPOS>ATOM
  1 O        0.5380    -2.9860    -2.0470 O.3   1 <1>  -0.0190 
  2 N        0.0550    -3.8570    -1.2100 N.2   1 <1>  -0.4100 
  3 C        1.4590    -2.2400    -1.4970 C.2   1 <1>   0.0550 
  4 C        0.6770    -3.6680    -0.0960 C.2   1 <1>   0.1080 
  5 C        1.6010    -2.6310    -0.2220 C.2   1 <1>  -0.1500 
  6 C        2.1480    -1.1640    -2.3140 C.3   1 <1>  -0.0150 
  7 C        0.4240    -4.4820     1.1700 C.3   1 <1>   0.5240 
  8 C        2.7460     0.0440    -1.6640 C.3   1 <1>  -0.2000 
  9 C        1.5020     0.1710    -2.4980 C.3   1 <1>  -0.2000 
 10 N       -0.8800    -5.1950     1.0500 N.4   1 <1>  -0.9590 
 11 C       -2.0600    -4.2750     1.1720 C.3   1 <1>   0.3430 
 12 C       -1.0790    -6.2910     2.0310 C.3   1 <1>   0.3430 
 13 C       -2.9810    -4.8930     2.2370 C.3   1 <1>   0.2000 
 14 C       -2.5960    -6.3710     2.2400 C.3   1 <1>  -0.0800 
 15 O       -2.6230    -4.3620     3.4700 O.3   1 <1>  -0.6800 
 16 C       -3.3470    -7.1630     1.1400 C.3   1 <1>  -0.0170 
 17 C       -2.5000    -8.3150     0.6100 C.ar  1 <1>  -0.1440 
 18 C       -1.6730    -8.2020    -0.5360 C.ar  1 <1>   0.0000 
 19 C       -2.4830    -9.4980     1.2900 C.ar  1 <1>  -0.1500 
 20 C       -0.8160    -9.2910    -0.8290 C.ar  1 <1>   0.3100 
 21 C       -1.6270    -7.0790    -1.3980 C.ar  1 <1>  -0.1500 
 22 C       -1.6340   -10.5330     0.8820 C.ar  1 <1>   0.1600 
 23 N       -0.8150   -10.4440    -0.1170 N.ar  1 <1>  -0.6200 
 24 C        0.0890    -9.1790    -1.8970 C.ar  1 <1>  -0.1500 
 25 C       -0.7340    -7.0020    -2.4320 C.ar  1 <1>  -0.1500 
 26 C        0.1420    -8.0590    -2.6810 C.ar  1 <1>  -0.1500 
 27 H        2.2660    -2.2450     0.5290 H     1 <1>   0.1500 
 28 H        2.6690    -1.5750    -3.1620 H     1 <1>   0.1000 
 29 H        0.4160    -3.8350     2.0310 H     1 <1>   0.0800 
 30 H        1.2210    -5.1980     1.2810 H     1 <1>   0.0800 
 31 H        2.6580     0.1750    -0.6000 H     1 <1>   0.1000 
 32 H        3.6700     0.4350    -2.0530 H     1 <1>   0.1000 
 33 H        1.5670     0.6450    -3.4620 H     1 <1>   0.1000 
 34 H        0.5650     0.3640    -2.0060 H     1 <1>   0.1000 
 35 H       -0.8790    -5.5890     0.0940 H     1 <1>   0.4500 
 36 H       -1.7680    -3.2800     1.4660 H     1 <1>   0.0800 
 37 H       -2.5730    -4.2250     0.2260 H     1 <1>   0.0800 
 38 H       -0.6560    -7.2220     1.6880 H     1 <1>   0.0800 
 39 H       -0.6200    -6.0210     2.9690 H     1 <1>   0.0800 
 40 H       -4.0250    -4.6940     2.0610 H     1 <1>   0.0800 
 41 H       -2.8040    -6.8340     3.1890 H     1 <1>   0.0800 
 42 H       -3.2960    -4.5630     4.1560 H     1 <1>   0.4000 
 43 H       -3.6610    -6.5260     0.3340 H     1 <1>   0.0800 
 44 H       -4.2540    -7.5610     1.5630 H     1 <1>   0.0800 
 45 H       -3.1000    -9.6670     2.1550 H     1 <1>   0.1500 
 46 H       -2.3100    -6.2640    -1.2670 H     1 <1>   0.1500 
 47 H       -1.6540   -11.4550     1.4380 H     1 <1>   0.1500 
 48 H        0.7420   -10.0130    -2.0820 H     1 <1>   0.1500 
 49 H       -0.6990    -6.1360    -3.0740 H     1 <1>   0.1500 
 50 H        0.8420    -7.9860    -3.4960 H     1 <1>   0.1500 
@<TRIPOS>BOND
  1   1   2  1   
  2   1   3  1   
  3   2   4  2   
  4   3   5  2   
  5   3   6  1   
  6   4   5  1   
  7   4   7  1   
  8   5  27  1   
  9   6   8  1   
 10   6   9  1   
 11   6  28  1   
 12   7  10  1   
 13   7  29  1   
 14   7  30  1   
 15   8   9  1   
 16   8  31  1   
 17   8  32  1   
 18   9  33  1   
 19   9  34  1   
 20  10  11  1   
 21  10  12  1   
 22  10  35  1   
 23  11  13  1   
 24  11  36  1   
 25  11  37  1   
 26  12  14  1   
 27  12  38  1   
 28  12  39  1   
 29  13  14  1   
 30  13  15  1   
 31  13  40  1   
 32  14  16  1   
 33  14  41  1   
 34  15  42  1   
 35  16  17  1   
 36  16  43  1   
 37  16  44  1   
 38  17  18  ar  
 39  17  19  ar  
 40  18  20  ar  
 41  18  21  ar  
 42  19  22  ar  
 43  19  45  1   
 44  20  23  ar  
 45  20  24  ar  
 46  21  25  ar  
 47  21  46  1   
 48  22  23  ar  
 49  22  47  1   
 50  24  26  ar  
 51  24  48  1   
 52  25  26  ar  
 53  25  49  1   
 54  26  50  1   
@<TRIPOS>SUBSTRUCTURE
  1 ****  10 GROUP 4 **** **** 0

# MOE 2024.06 (io_trps.svl 2023.06)
