@<TRIPOS>MOLECULE
NONAME
38 40 1 0 0 
SMALL
USER_CHARGES


@<TRIPOS>ATOM
  1 O        1.8670     1.0950     2.1410 O.co2 1 <1>  -0.9000 
  2 C        2.0270     0.2740     1.2260 C.2   1 <1>   0.9470 
  3 O        1.1260    -0.4860     0.8620 O.co2 1 <1>  -0.9000 
  4 C        3.3800     0.2280     0.5420 C.3   1 <1>  -0.1470 
  5 C        3.6470     1.5600    -0.1320 C.2   1 <1>   0.6300 
  6 C        4.5280    -0.4680     1.2310 C.3   1 <1>  -0.2000 
  7 C        3.9340    -1.0680    -0.0040 C.3   1 <1>  -0.2000 
  8 O        4.1530     1.5850    -1.2330 O.2   1 <1>  -0.5700 
  9 N        3.3520     2.6990     0.5610 N.am  1 <1>  -0.4940 
 10 C        3.4340     4.0630     0.1950 C.2   1 <1>  -0.0880 
 11 N        4.4700     4.7090    -0.4130 N.pl3 1 <1>   0.3140 
 12 C        2.4720     4.9900     0.4010 C.2   1 <1>  -0.1500 
 13 N        4.1690     6.0270    -0.6060 N.2   1 <1>  -0.7070 
 14 C        5.8140     4.1450    -0.7510 C.3   1 <1>   0.2710 
 15 C        2.9810     6.1720    -0.1160 C.2   1 <1>   0.1080 
 16 C        6.9170     4.8590     0.0700 C.3   1 <1>  -0.1950 
 17 C        6.0260     4.1780    -2.2750 C.3   1 <1>  -0.2400 
 18 C        2.2610     7.4990    -0.1270 C.3   1 <1>  -0.0590 
 19 C        7.5420     6.1630    -0.3220 C.3   1 <1>  -0.2000 
 20 C        8.3640     4.9030    -0.3230 C.3   1 <1>  -0.2000 
 21 H        4.3320    -0.9280     2.1840 H     1 <1>   0.1000 
 22 H        5.5070    -0.0260     1.1740 H     1 <1>   0.1000 
 23 H        4.4810    -1.0360    -0.9290 H     1 <1>   0.1000 
 24 H        3.3060    -1.9390     0.0750 H     1 <1>   0.1000 
 25 H        2.7580     2.4760     1.3870 H     1 <1>   0.3700 
 26 H        1.5120     4.8450     0.8620 H     1 <1>   0.1500 
 27 H        5.8250     3.1200    -0.4410 H     1 <1>   0.0800 
 28 H        6.7260     4.7300     1.1220 H     1 <1>   0.1000 
 29 H        6.0340     5.1900    -2.6360 H     1 <1>   0.0800 
 30 H        5.2260     3.6440    -2.7560 H     1 <1>   0.0800 
 31 H        6.9490     3.6980    -2.5360 H     1 <1>   0.0800 
 32 H        1.3000     7.4080     0.3430 H     1 <1>   0.0800 
 33 H        2.1310     7.8250    -1.1420 H     1 <1>   0.0800 
 34 H        2.8480     8.2270     0.4020 H     1 <1>   0.0800 
 35 H        7.6960     6.8970     0.4490 H     1 <1>   0.1000 
 36 H        7.2580     6.6130    -1.2570 H     1 <1>   0.1000 
 37 H        8.6900     4.5210    -1.2740 H     1 <1>   0.1000 
 38 H        9.1090     4.7770     0.4430 H     1 <1>   0.1000 
@<TRIPOS>BOND
  1   1   2  ar  
  2   2   3  ar  
  3   2   4  1   
  4   4   5  1   
  5   4   6  1   
  6   4   7  1   
  7   5   8  2   
  8   5   9  am  
  9   6   7  1   
 10   6  21  1   
 11   6  22  1   
 12   7  23  1   
 13   7  24  1   
 14   9  10  1   
 15   9  25  1   
 16  10  11  1   
 17  10  12  2   
 18  11  13  1   
 19  11  14  1   
 20  12  15  1   
 21  12  26  1   
 22  13  15  2   
 23  14  16  1   
 24  14  17  1   
 25  14  27  1   
 26  15  18  1   
 27  16  19  1   
 28  16  20  1   
 29  16  28  1   
 30  17  29  1   
 31  17  30  1   
 32  17  31  1   
 33  18  32  1   
 34  18  33  1   
 35  18  34  1   
 36  19  20  1   
 37  19  35  1   
 38  19  36  1   
 39  20  37  1   
 40  20  38  1   
@<TRIPOS>SUBSTRUCTURE
  1 ****   9 GROUP 4 **** **** 0

# MOE 2024.06 (io_trps.svl 2023.06)
