@<TRIPOS>MOLECULE
NONAME
51 54 1 0 0 
SMALL
USER_CHARGES


@<TRIPOS>ATOM
  1 O       -3.2140     1.2880    -1.8980 O.2   1 <1>  -0.5700 
  2 C       -2.4510     1.2650    -0.9650 C.2   1 <1>   0.5690 
  3 N       -1.9520     0.1060    -0.4760 N.am  1 <1>  -0.7300 
  4 C       -2.0480     2.5670    -0.3200 C.3   1 <1>  -0.0990 
  5 C       -2.3110    -1.2320    -0.9940 C.3   1 <1>   0.2200 
  6 C       -1.3530     3.4650    -1.3460 C.3   1 <1>   0.0960 
  7 C       -3.5100    -1.7540    -0.2220 C.3   1 <1>  -0.0800 
  8 C       -1.2350    -2.2480    -0.6280 C.3   1 <1>   0.1200 
  9 N       -0.9160     4.7190    -0.7120 N.pl3 1 <1>   0.3140 
 10 C       -2.8560    -2.3970     1.0050 C.3   1 <1>   0.1200 
 11 C       -4.3210    -2.7650    -1.0540 C.3   1 <1>  -0.0170 
 12 O       -1.5280    -2.6780     0.6670 O.3   1 <1>  -0.5600 
 13 N        0.0890     4.7450     0.1820 N.2   1 <1>  -0.7070 
 14 C       -1.4330     5.9490    -0.9030 C.2   1 <1>  -0.3020 
 15 C       -5.6050    -3.1700    -0.3380 C.ar  1 <1>  -0.1440 
 16 C        0.1890     5.9880     0.5340 C.2   1 <1>   0.1080 
 17 C       -0.7400     6.7940    -0.1120 C.2   1 <1>  -0.1500 
 18 C       -6.7290    -2.3120    -0.2620 C.ar  1 <1>   0.0000 
 19 C       -5.7030    -4.3920     0.2600 C.ar  1 <1>  -0.1500 
 20 C        1.2140     6.4640     1.5370 C.3   1 <1>  -0.0590 
 21 C       -7.8640    -2.7790     0.4440 C.ar  1 <1>   0.3100 
 22 C       -6.7950    -1.0240    -0.8440 C.ar  1 <1>  -0.1500 
 23 C       -6.8770    -4.7580     0.9280 C.ar  1 <1>   0.1600 
 24 N       -7.9220    -4.0010     1.0320 N.ar  1 <1>  -0.6200 
 25 C       -8.9900    -1.9460     0.5470 C.ar  1 <1>  -0.1500 
 26 C       -7.9090    -0.2380    -0.7260 C.ar  1 <1>  -0.1500 
 27 C       -9.0220    -0.7020    -0.0210 C.ar  1 <1>  -0.1500 
 28 H       -1.3650     0.0960     0.3620 H     1 <1>   0.3700 
 29 H       -2.9320     3.0530     0.0500 H     1 <1>   0.0800 
 30 H       -1.3850     2.3760     0.5040 H     1 <1>   0.0800 
 31 H       -2.4790    -1.1810    -2.0570 H     1 <1>   0.0800 
 32 H       -2.0210     3.6960    -2.1560 H     1 <1>   0.0800 
 33 H       -0.4850     2.9710    -1.7430 H     1 <1>   0.0800 
 34 H       -4.1550    -0.9470     0.0780 H     1 <1>   0.0800 
 35 H       -0.2430    -1.8330    -0.6570 H     1 <1>   0.0800 
 36 H       -1.2890    -3.1060    -1.2750 H     1 <1>   0.0800 
 37 H       -3.3400    -3.3070     1.3120 H     1 <1>   0.0800 
 38 H       -2.8400    -1.7070     1.8310 H     1 <1>   0.0800 
 39 H       -3.7230    -3.6390    -1.2490 H     1 <1>   0.0800 
 40 H       -4.5730    -2.3390    -2.0100 H     1 <1>   0.0800 
 41 H       -2.2460     6.1500    -1.5750 H     1 <1>   0.1500 
 42 H       -0.8580     7.8550     0.0100 H     1 <1>   0.1500 
 43 H       -4.8920    -5.0980     0.2370 H     1 <1>   0.1500 
 44 H        1.1250     7.5230     1.6900 H     1 <1>   0.0800 
 45 H        2.2000     6.2410     1.1740 H     1 <1>   0.0800 
 46 H        1.0620     5.9570     2.4710 H     1 <1>   0.0800 
 47 H       -5.9540    -0.6440    -1.3950 H     1 <1>   0.1500 
 48 H       -6.9110    -5.7320     1.3860 H     1 <1>   0.1500 
 49 H       -9.8350    -2.3250     1.0920 H     1 <1>   0.1500 
 50 H       -7.9420     0.7410    -1.1740 H     1 <1>   0.1500 
 51 H       -9.8920    -0.0750     0.0650 H     1 <1>   0.1500 
@<TRIPOS>BOND
  1   1   2  2   
  2   2   3  am  
  3   2   4  1   
  4   3   5  1   
  5   3  28  1   
  6   4   6  1   
  7   4  29  1   
  8   4  30  1   
  9   5   7  1   
 10   5   8  1   
 11   5  31  1   
 12   6   9  1   
 13   6  32  1   
 14   6  33  1   
 15   7  10  1   
 16   7  11  1   
 17   7  34  1   
 18   8  12  1   
 19   8  35  1   
 20   8  36  1   
 21   9  13  1   
 22   9  14  1   
 23  10  12  1   
 24  10  37  1   
 25  10  38  1   
 26  11  15  1   
 27  11  39  1   
 28  11  40  1   
 29  13  16  2   
 30  14  17  2   
 31  14  41  1   
 32  15  18  ar  
 33  15  19  ar  
 34  16  17  1   
 35  16  20  1   
 36  17  42  1   
 37  18  21  ar  
 38  18  22  ar  
 39  19  23  ar  
 40  19  43  1   
 41  20  44  1   
 42  20  45  1   
 43  20  46  1   
 44  21  24  ar  
 45  21  25  ar  
 46  22  26  ar  
 47  22  47  1   
 48  23  24  ar  
 49  23  48  1   
 50  25  27  ar  
 51  25  49  1   
 52  26  27  ar  
 53  26  50  1   
 54  27  51  1   
@<TRIPOS>SUBSTRUCTURE
  1 ****   3 GROUP 4 **** **** 0

# MOE 2024.06 (io_trps.svl 2023.06)
