@<TRIPOS>MOLECULE
NONAME
57 60 1 0 0 
SMALL
USER_CHARGES


@<TRIPOS>ATOM
  1 O       -1.0320     0.1300    -0.3400 O.3   1 <1>  -0.3630 
  2 C        0.1550    -0.5160    -0.4890 C.ar  1 <1>   0.0820 
  3 C       -1.9560    -0.2810     0.6540 C.3   1 <1>   0.2580 
  4 C        0.3140    -1.8360    -0.0580 C.ar  1 <1>   0.0280 
  5 C        1.1990     0.1600    -1.0960 C.ar  1 <1>  -0.1500 
  6 C       -1.9150    -1.7960     0.8600 C.2   1 <1>  -0.2760 
  7 C       -0.8160    -2.4950     0.5370 C.2   1 <1>  -0.1780 
  8 C        1.5460    -2.4560    -0.2380 C.ar  1 <1>  -0.1500 
  9 C        2.4170    -0.4700    -1.2700 C.ar  1 <1>  -0.1500 
 10 C       -3.1790    -2.3700     1.4550 C.3   1 <1>   0.4810 
 11 C        2.5990    -1.7760    -0.8420 C.ar  1 <1>   0.0820 
 12 N       -3.8510    -3.2180     0.4300 N.4   1 <1>  -0.9590 
 13 O        3.8290    -2.3140    -1.0490 O.3   1 <1>  -0.3620 
 14 C       -4.1250    -2.4700    -0.8500 C.3   1 <1>   0.3430 
 15 C       -5.0730    -3.8580     0.9950 C.3   1 <1>   0.3430 
 16 C        4.1400    -3.6210    -0.6200 C.3   1 <1>   0.0400 
 17 C       -5.6070    -2.1490    -1.0640 C.3   1 <1>  -0.1600 
 18 C       -6.1660    -2.8250     1.2960 C.3   1 <1>  -0.1600 
 19 C       -6.2950    -1.7050     0.2370 C.3   1 <1>   0.2800 
 20 O       -5.5260    -0.6180     0.7150 O.3   1 <1>  -0.5600 
 21 C       -7.7960    -1.3270     0.0340 C.3   1 <1>   0.2000 
 22 C       -6.1360     0.6330     0.8880 C.3   1 <1>   0.1200 
 23 O       -8.4880    -2.3650    -0.6010 O.3   1 <1>  -0.6800 
 24 C       -8.0300     0.0450    -0.6700 C.3   1 <1>   0.2800 
 25 C       -6.8700     1.0150    -0.3970 C.3   1 <1>  -0.1600 
 26 O       -9.1580     0.5890    -0.0900 O.3   1 <1>  -0.6800 
 27 C       -8.3430    -0.0140    -2.1730 C.3   1 <1>  -0.2400 
 28 H       -1.7030     0.2300     1.5670 H     1 <1>   0.0800 
 29 H       -2.9280     0.0480     0.3300 H     1 <1>   0.0800 
 30 H        1.0550     1.1720    -1.4280 H     1 <1>   0.1500 
 31 H       -0.7160    -3.5550     0.6920 H     1 <1>   0.1500 
 32 H        1.6650    -3.4670     0.0970 H     1 <1>   0.1500 
 33 H        3.2360     0.0470    -1.7380 H     1 <1>   0.1500 
 34 H       -3.8300    -1.5760     1.7820 H     1 <1>   0.0800 
 35 H       -2.9260    -2.9700     2.3130 H     1 <1>   0.0800 
 36 H       -3.1680    -3.9480     0.1970 H     1 <1>   0.4500 
 37 H       -3.5760    -1.5450    -0.8550 H     1 <1>   0.0800 
 38 H       -3.7750    -3.0500    -1.6880 H     1 <1>   0.0800 
 39 H       -5.4590    -4.5610     0.2740 H     1 <1>   0.0800 
 40 H       -4.8320    -4.4060     1.8920 H     1 <1>   0.0800 
 41 H        5.1650    -3.8200    -0.8760 H     1 <1>   0.0800 
 42 H        3.4960    -4.3180    -1.1270 H     1 <1>   0.0800 
 43 H        4.0120    -3.6790     0.4460 H     1 <1>   0.0800 
 44 H       -6.1030    -3.0160    -1.4640 H     1 <1>   0.0800 
 45 H       -5.6810    -1.3800    -1.8070 H     1 <1>   0.0800 
 46 H       -6.0200    -2.3950     2.2700 H     1 <1>   0.0800 
 47 H       -7.0870    -3.3790     1.3490 H     1 <1>   0.0800 
 48 H       -8.2230    -1.2540     1.0210 H     1 <1>   0.0800 
 49 H       -6.8110     0.5830     1.7260 H     1 <1>   0.0800 
 50 H       -5.3630     1.3490     1.1070 H     1 <1>   0.0800 
 51 H       -9.4300    -2.1060    -0.6810 H     1 <1>   0.4000 
 52 H       -6.1570     0.9820    -1.2020 H     1 <1>   0.0800 
 53 H       -7.2280     2.0270    -0.3310 H     1 <1>   0.0800 
 54 H       -9.4190     1.4000    -0.5680 H     1 <1>   0.4000 
 55 H       -7.5510    -0.5020    -2.7070 H     1 <1>   0.0800 
 56 H       -8.4520     0.9760    -2.5780 H     1 <1>   0.0800 
 57 H       -9.2500    -0.5640    -2.3560 H     1 <1>   0.0800 
@<TRIPOS>BOND
  1   1   2  1   
  2   1   3  1   
  3   2   4  ar  
  4   2   5  ar  
  5   3   6  1   
  6   3  28  1   
  7   3  29  1   
  8   4   7  1   
  9   4   8  ar  
 10   5   9  ar  
 11   5  30  1   
 12   6   7  2   
 13   6  10  1   
 14   7  31  1   
 15   8  11  ar  
 16   8  32  1   
 17   9  11  ar  
 18   9  33  1   
 19  10  12  1   
 20  10  34  1   
 21  10  35  1   
 22  11  13  1   
 23  12  14  1   
 24  12  15  1   
 25  12  36  1   
 26  13  16  1   
 27  14  17  1   
 28  14  37  1   
 29  14  38  1   
 30  15  18  1   
 31  15  39  1   
 32  15  40  1   
 33  16  41  1   
 34  16  42  1   
 35  16  43  1   
 36  17  19  1   
 37  17  44  1   
 38  17  45  1   
 39  18  19  1   
 40  18  46  1   
 41  18  47  1   
 42  19  20  1   
 43  19  21  1   
 44  20  22  1   
 45  21  23  1   
 46  21  24  1   
 47  21  48  1   
 48  22  25  1   
 49  22  49  1   
 50  22  50  1   
 51  23  51  1   
 52  24  25  1   
 53  24  26  1   
 54  24  27  1   
 55  25  52  1   
 56  25  53  1   
 57  26  54  1   
 58  27  55  1   
 59  27  56  1   
 60  27  57  1   
@<TRIPOS>SUBSTRUCTURE
  1 ****   6 GROUP 4 **** **** 0

# MOE 2024.06 (io_trps.svl 2023.06)
