@<TRIPOS>MOLECULE
NONAME
56 59 1 0 0 
SMALL
USER_CHARGES


@<TRIPOS>ATOM
  1 O        0.3690    -0.2320    -0.6630 O.3   1 <1>  -0.5600 
  2 C        1.5090    -0.7900    -0.0540 C.3   1 <1>   0.4240 
  3 C       -0.8640    -0.7900    -0.3320 C.3   1 <1>   0.1200 
  4 C        1.4210    -2.3330    -0.0050 C.ar  1 <1>  -0.1440 
  5 C        1.6040    -0.1880     1.3650 C.3   1 <1>  -0.1600 
  6 C        2.6740    -0.3510    -0.9550 C.3   1 <1>  -0.1600 
  7 C       -0.9220    -2.2080    -0.8930 C.3   1 <1>  -0.0160 
  8 C        0.2710    -3.0030    -0.4030 C.ar  1 <1>  -0.1440 
  9 C        2.4920    -3.0860     0.4580 C.ar  1 <1>  -0.1500 
 10 C        3.0170     0.2710     1.7230 C.3   1 <1>   0.2090 
 11 C        3.0440     1.1040    -0.6870 C.3   1 <1>   0.2090 
 12 C        0.2050    -4.3860    -0.3480 C.ar  1 <1>  -0.1500 
 13 C        2.4460    -4.4680     0.5150 C.ar  1 <1>   0.0820 
 14 N        3.5190     1.2530     0.7190 N.pl3 1 <1>  -0.8380 
 15 C        1.2800    -5.1400     0.1150 C.ar  1 <1>   0.0820 
 16 O        3.5820    -5.0600     0.9800 O.3   1 <1>  -0.3630 
 17 C        4.6670     1.9790     0.9940 C.ar  1 <1>   0.4100 
 18 O        1.2110    -6.5010     0.2040 O.3   1 <1>  -0.3630 
 19 C        4.0070    -6.3080     0.4790 C.3   1 <1>   0.0400 
 20 N        5.4920     1.4980     1.9070 N.ar  1 <1>  -0.6200 
 21 C        4.9490     3.1600     0.3470 C.ar  1 <1>  -0.1500 
 22 C        0.0180    -7.2110    -0.0430 C.3   1 <1>   0.0400 
 23 C        6.5750     2.2150     2.1270 C.ar  1 <1>   0.4700 
 24 C        6.1160     3.8220     0.6500 C.ar  1 <1>   0.4100 
 25 N        6.9470     3.3440     1.5600 N.ar  1 <1>  -0.6200 
 26 N        6.4630     5.0050     0.0170 N.pl3 1 <1>  -0.8380 
 27 C        7.4070     5.9530     0.6690 C.3   1 <1>   0.1290 
 28 C        6.3690     5.1260    -1.4620 C.3   1 <1>   0.1290 
 29 H       -1.6330    -0.1780    -0.7690 H     1 <1>   0.0800 
 30 H       -0.9770    -0.7910     0.7390 H     1 <1>   0.0800 
 31 H        1.2790    -0.9100     2.0900 H     1 <1>   0.0800 
 32 H        0.9620     0.6710     1.4450 H     1 <1>   0.0800 
 33 H        2.3960    -0.4830    -1.9840 H     1 <1>   0.0800 
 34 H        3.5480    -0.9490    -0.7810 H     1 <1>   0.0800 
 35 H       -0.9140    -2.1660    -1.9680 H     1 <1>   0.0800 
 36 H       -1.8380    -2.6740    -0.5780 H     1 <1>   0.0800 
 37 H        3.3960    -2.6070     0.7850 H     1 <1>   0.1500 
 38 H        3.6870    -0.5710     1.7580 H     1 <1>   0.0800 
 39 H        3.0120     0.7320     2.6970 H     1 <1>   0.0800 
 40 H        2.1860     1.7360    -0.8420 H     1 <1>   0.0800 
 41 H        3.8190     1.4030    -1.3720 H     1 <1>   0.0800 
 42 H       -0.7010    -4.8610    -0.6710 H     1 <1>   0.1500 
 43 H        5.0590    -6.4070     0.6720 H     1 <1>   0.0800 
 44 H        3.8200    -6.3440    -0.5800 H     1 <1>   0.0800 
 45 H        3.4690    -7.0870     0.9880 H     1 <1>   0.0800 
 46 H        4.2670     3.5670    -0.3660 H     1 <1>   0.1500 
 47 H        0.2040    -8.2520     0.1520 H     1 <1>   0.0800 
 48 H       -0.2620    -7.0780    -1.0730 H     1 <1>   0.0800 
 49 H       -0.7480    -6.8480     0.6190 H     1 <1>   0.0800 
 50 H        7.2480     1.8250     2.8700 H     1 <1>   0.1500 
 51 H        7.2620     5.9430     1.7360 H     1 <1>   0.0800 
 52 H        7.2340     6.9520     0.3090 H     1 <1>   0.0800 
 53 H        8.4210     5.6630     0.4530 H     1 <1>   0.0800 
 54 H        5.9980     4.2140    -1.8950 H     1 <1>   0.0800 
 55 H        7.3430     5.3250    -1.8750 H     1 <1>   0.0800 
 56 H        5.7050     5.9330    -1.7160 H     1 <1>   0.0800 
@<TRIPOS>BOND
  1   1   2  1   
  2   1   3  1   
  3   2   4  1   
  4   2   5  1   
  5   2   6  1   
  6   3   7  1   
  7   3  29  1   
  8   3  30  1   
  9   4   8  ar  
 10   4   9  ar  
 11   5  10  1   
 12   5  31  1   
 13   5  32  1   
 14   6  11  1   
 15   6  33  1   
 16   6  34  1   
 17   7   8  1   
 18   7  35  1   
 19   7  36  1   
 20   8  12  ar  
 21   9  13  ar  
 22   9  37  1   
 23  10  14  1   
 24  10  38  1   
 25  10  39  1   
 26  11  14  1   
 27  11  40  1   
 28  11  41  1   
 29  12  15  ar  
 30  12  42  1   
 31  13  15  ar  
 32  13  16  1   
 33  14  17  1   
 34  15  18  1   
 35  16  19  1   
 36  17  20  ar  
 37  17  21  ar  
 38  18  22  1   
 39  19  43  1   
 40  19  44  1   
 41  19  45  1   
 42  20  23  ar  
 43  21  24  ar  
 44  21  46  1   
 45  22  47  1   
 46  22  48  1   
 47  22  49  1   
 48  23  25  ar  
 49  23  50  1   
 50  24  25  ar  
 51  24  26  1   
 52  26  27  1   
 53  26  28  1   
 54  27  51  1   
 55  27  52  1   
 56  27  53  1   
 57  28  54  1   
 58  28  55  1   
 59  28  56  1   
@<TRIPOS>SUBSTRUCTURE
  1 ****   6 GROUP 4 **** **** 0

# MOE 2024.06 (io_trps.svl 2023.06)
