@<TRIPOS>MOLECULE
NONAME
48 50 1 0 0 
SMALL
USER_CHARGES


@<TRIPOS>ATOM
  1 F       -1.6400     0.1540    -0.4420 F     1 <1>  -0.1900 
  2 C       -1.9600     1.1690     0.3270 C.ar  1 <1>   0.1900 
  3 C       -1.2180     2.3570     0.2510 C.ar  1 <1>   0.4100 
  4 C       -3.0210     1.0320     1.1850 C.ar  1 <1>  -0.1500 
  5 N       -1.5010     3.4230     0.9990 N.ar  1 <1>  -0.6200 
  6 N       -0.1390     2.4740    -0.6100 N.pl3 1 <1>  -0.8690 
  7 C       -3.3050     2.1390     1.9620 C.ar  1 <1>  -0.1500 
  8 C       -2.5290     3.2810     1.8310 C.ar  1 <1>   0.1600 
  9 C        0.3700     3.7870    -1.0970 C.3   1 <1>   0.2090 
 10 C        1.1740     4.5220     0.0100 C.3   1 <1>   0.5660 
 11 N        0.9760     6.0140     0.0450 N.4   1 <1>  -0.9590 
 12 C        2.6600     4.2090    -0.1360 C.ar  1 <1>  -0.1430 
 13 C        1.8200     6.6470     1.1000 C.3   1 <1>   0.3430 
 14 C       -0.4470     6.3800     0.2770 C.3   1 <1>   0.3430 
 15 C        3.4250     4.7430    -1.1680 C.ar  1 <1>  -0.1500 
 16 C        3.2650     3.3740     0.7920 C.ar  1 <1>  -0.1500 
 17 C        2.1350     8.1050     0.7530 C.3   1 <1>  -0.1600 
 18 C       -0.8540     7.5360    -0.6370 C.3   1 <1>  -0.1600 
 19 C        4.7750     4.4540    -1.2580 C.ar  1 <1>  -0.1500 
 20 C        4.6150     3.0860     0.7010 C.ar  1 <1>  -0.1500 
 21 C        0.9240     9.0220     0.5010 C.3   1 <1>  -0.1600 
 22 C        0.1670     8.6780    -0.7910 C.3   1 <1>  -0.1600 
 23 C        5.3710     3.6270    -0.3230 C.ar  1 <1>  -0.1500 
 24 H       -3.5900     0.1200     1.2440 H     1 <1>   0.1500 
 25 H       -0.0390     1.6880    -1.2670 H     1 <1>   0.4000 
 26 H       -4.1210     2.1150     2.6630 H     1 <1>   0.1500 
 27 H       -2.7740     4.1270     2.4520 H     1 <1>   0.1500 
 28 H       -0.4710     4.3740    -1.4170 H     1 <1>   0.0800 
 29 H        1.0000     3.6190    -1.9530 H     1 <1>   0.0800 
 30 H        0.8380     4.1250     0.9540 H     1 <1>   0.0800 
 31 H        1.2720     6.3980    -0.8560 H     1 <1>   0.4500 
 32 H        2.7570     6.1220     1.1990 H     1 <1>   0.0800 
 33 H        1.3160     6.5970     2.0520 H     1 <1>   0.0800 
 34 H       -0.5840     6.6690     1.3060 H     1 <1>   0.0800 
 35 H       -1.0990     5.5440     0.0870 H     1 <1>   0.0800 
 36 H        2.9890     5.3830    -1.9150 H     1 <1>   0.1500 
 37 H        2.6920     2.9350     1.5930 H     1 <1>   0.1500 
 38 H        2.7920     8.1290    -0.0980 H     1 <1>   0.0800 
 39 H        2.6930     8.5140     1.5780 H     1 <1>   0.0800 
 40 H       -1.7660     7.9460    -0.2400 H     1 <1>   0.0800 
 41 H       -1.0960     7.1480    -1.6110 H     1 <1>   0.0800 
 42 H        5.3680     4.8670    -2.0570 H     1 <1>   0.1500 
 43 H        5.0790     2.4370     1.4240 H     1 <1>   0.1500 
 44 H        1.2970    10.0290     0.4030 H     1 <1>   0.0800 
 45 H        0.2560     9.0200     1.3460 H     1 <1>   0.0800 
 46 H       -0.3670     9.5550    -1.1190 H     1 <1>   0.0800 
 47 H        0.8720     8.4440    -1.5700 H     1 <1>   0.0800 
 48 H        6.4210     3.4010    -0.3940 H     1 <1>   0.1500 
@<TRIPOS>BOND
  1   1   2  1   
  2   2   3  ar  
  3   2   4  ar  
  4   3   5  ar  
  5   3   6  1   
  6   4   7  ar  
  7   4  24  1   
  8   5   8  ar  
  9   6   9  1   
 10   6  25  1   
 11   7   8  ar  
 12   7  26  1   
 13   8  27  1   
 14   9  10  1   
 15   9  28  1   
 16   9  29  1   
 17  10  11  1   
 18  10  12  1   
 19  10  30  1   
 20  11  13  1   
 21  11  14  1   
 22  11  31  1   
 23  12  15  ar  
 24  12  16  ar  
 25  13  17  1   
 26  13  32  1   
 27  13  33  1   
 28  14  18  1   
 29  14  34  1   
 30  14  35  1   
 31  15  19  ar  
 32  15  36  1   
 33  16  20  ar  
 34  16  37  1   
 35  17  21  1   
 36  17  38  1   
 37  17  39  1   
 38  18  22  1   
 39  18  40  1   
 40  18  41  1   
 41  19  23  ar  
 42  19  42  1   
 43  20  23  ar  
 44  20  43  1   
 45  21  22  1   
 46  21  44  1   
 47  21  45  1   
 48  22  46  1   
 49  22  47  1   
 50  23  48  1   
@<TRIPOS>SUBSTRUCTURE
  1 ****  10 GROUP 4 **** **** 0

# MOE 2024.06 (io_trps.svl 2023.06)
