@<TRIPOS>MOLECULE
NONAME
43 45 1 0 0 
SMALL
USER_CHARGES


@<TRIPOS>ATOM
  1 F       -2.3300    -2.7320     3.7780 F     1 <1>  -0.1900 
  2 C       -2.7350    -2.6290     2.5400 C.ar  1 <1>   0.1900 
  3 C       -3.2230    -3.7530     1.9040 C.ar  1 <1>  -0.1500 
  4 C       -2.6590    -1.3980     1.9170 C.ar  1 <1>  -0.1500 
  5 C       -3.6530    -3.6440     0.5920 C.ar  1 <1>   0.0830 
  6 C       -3.0900    -1.2930     0.6050 C.ar  1 <1>  -0.1500 
  7 O       -4.1230    -4.7750     0.0110 O.3   1 <1>  -0.3630 
  8 C       -3.5840    -2.4080    -0.0560 C.ar  1 <1>  -0.1500 
  9 C       -4.5920    -4.7740    -1.3330 C.3   1 <1>   0.1810 
 10 C       -5.0770    -6.1570    -1.7540 C.2   1 <1>   0.5690 
 11 O       -5.6240    -6.2780    -2.8230 O.2   1 <1>  -0.5700 
 12 N       -4.8880    -7.2180    -0.9290 N.am  1 <1>  -0.7300 
 13 C       -5.3080    -8.6100    -1.2020 C.3   1 <1>   0.2200 
 14 C       -6.4700    -8.9680    -0.2930 C.3   1 <1>  -0.0800 
 15 C       -4.2250    -9.5800    -0.7340 C.3   1 <1>   0.1200 
 16 C       -5.7470    -9.3810     0.9910 C.3   1 <1>   0.1200 
 17 C       -7.3140   -10.1160    -0.8820 C.3   1 <1>  -0.0170 
 18 O       -4.4920    -9.8640     0.6100 O.3   1 <1>  -0.5600 
 19 C       -8.4860   -10.4650     0.0230 C.ar  1 <1>  -0.1430 
 20 C       -9.6070    -9.6640     0.1000 C.ar  1 <1>  -0.1500 
 21 C       -8.4920   -11.5990     0.8110 C.ar  1 <1>  -0.1500 
 22 C      -10.6480   -10.0220     0.9410 C.ar  1 <1>   0.1600 
 23 C       -9.5850   -11.8650     1.6180 C.ar  1 <1>   0.1600 
 24 N      -10.6630   -11.1030     1.7040 N.ar  1 <1>  -0.6200 
 25 H       -3.2670    -4.6940     2.4190 H     1 <1>   0.1500 
 26 H       -2.2720    -0.5470     2.4490 H     1 <1>   0.1500 
 27 H       -3.0400    -0.3440     0.0990 H     1 <1>   0.1500 
 28 H       -3.9090    -2.2910    -1.0720 H     1 <1>   0.1500 
 29 H       -5.4060    -4.0780    -1.4090 H     1 <1>   0.0800 
 30 H       -3.7860    -4.4720    -1.9750 H     1 <1>   0.0800 
 31 H       -4.4310    -7.0600    -0.0250 H     1 <1>   0.3700 
 32 H       -5.5340    -8.7310    -2.2490 H     1 <1>   0.0800 
 33 H       -7.1090    -8.1200    -0.1230 H     1 <1>   0.0800 
 34 H       -3.2350    -9.1710    -0.8270 H     1 <1>   0.0800 
 35 H       -4.2870   -10.5060    -1.2770 H     1 <1>   0.0800 
 36 H       -6.2640   -10.1410     1.5480 H     1 <1>   0.0800 
 37 H       -5.5850    -8.5250     1.6230 H     1 <1>   0.0800 
 38 H       -6.7030   -10.9890    -1.0330 H     1 <1>   0.0800 
 39 H       -7.6980    -9.8190    -1.8420 H     1 <1>   0.0800 
 40 H       -9.6820    -8.7660    -0.4850 H     1 <1>   0.1500 
 41 H       -7.6580   -12.2760     0.8070 H     1 <1>   0.1500 
 42 H      -11.5140    -9.3840     0.9890 H     1 <1>   0.1500 
 43 H       -9.5720   -12.7530     2.2270 H     1 <1>   0.1500 
@<TRIPOS>BOND
  1   1   2  1   
  2   2   3  ar  
  3   2   4  ar  
  4   3   5  ar  
  5   3  25  1   
  6   4   6  ar  
  7   4  26  1   
  8   5   7  1   
  9   5   8  ar  
 10   6   8  ar  
 11   6  27  1   
 12   7   9  1   
 13   8  28  1   
 14   9  10  1   
 15   9  29  1   
 16   9  30  1   
 17  10  11  2   
 18  10  12  am  
 19  12  13  1   
 20  12  31  1   
 21  13  14  1   
 22  13  15  1   
 23  13  32  1   
 24  14  16  1   
 25  14  17  1   
 26  14  33  1   
 27  15  18  1   
 28  15  34  1   
 29  15  35  1   
 30  16  18  1   
 31  16  36  1   
 32  16  37  1   
 33  17  19  1   
 34  17  38  1   
 35  17  39  1   
 36  19  20  ar  
 37  19  21  ar  
 38  20  22  ar  
 39  20  40  1   
 40  21  23  ar  
 41  21  41  1   
 42  22  24  ar  
 43  22  42  1   
 44  23  24  ar  
 45  23  43  1   
@<TRIPOS>SUBSTRUCTURE
  1 ****  12 GROUP 4 **** **** 0

# MOE 2024.06 (io_trps.svl 2023.06)
