@<TRIPOS>MOLECULE
NONAME
57 60 1 0 0 
SMALL
USER_CHARGES


@<TRIPOS>ATOM
  1 O       -2.3850     0.5370    -1.5550 O.2   1 <1>  -0.5700 
  2 C       -2.4390     1.0410    -0.4490 C.2   1 <1>   0.5440 
  3 N       -2.8030     0.2340     0.6080 N.am  1 <1>  -0.6600 
  4 C       -2.1690     2.4570    -0.2800 C.ar  1 <1>   0.0860 
  5 C       -3.8570     0.6450     1.5640 C.3   1 <1>   0.1400 
  6 C       -2.5590    -1.2280     0.5520 C.3   1 <1>   0.1400 
  7 C       -2.4400     3.3840    -1.2770 C.ar  1 <1>  -0.1500 
  8 C       -1.6160     2.9920     0.8760 C.ar  1 <1>  -0.1500 
  9 C       -5.1720     0.0000     1.1200 C.3   1 <1>  -0.1600 
 10 C       -3.8400    -1.9160     0.0850 C.3   1 <1>  -0.1600 
 11 C       -2.1810     4.7260    -1.0750 C.ar  1 <1>   0.1600 
 12 C       -1.3940     4.3520     0.9810 C.ar  1 <1>   0.1600 
 13 C       -5.0260    -1.5220     0.9790 C.3   1 <1>   0.4230 
 14 N       -1.6710     5.2330     0.0350 N.ar  1 <1>  -0.6200 
 15 N       -6.3080    -2.0930     0.4770 N.4   1 <1>  -0.9590 
 16 C       -6.7290    -1.7300    -0.9100 C.3   1 <1>   0.3430 
 17 C       -6.4150    -3.5820     0.5590 C.3   1 <1>   0.3430 
 18 C       -7.8350    -2.7370    -1.2160 C.3   1 <1>   0.2000 
 19 C       -7.2560    -4.0310    -0.6440 C.3   1 <1>  -0.0800 
 20 O       -8.9560    -2.3860    -0.4570 O.3   1 <1>  -0.5600 
 21 C       -8.2950    -5.1130    -0.2930 C.3   1 <1>   0.0200 
 22 C       -9.9320    -1.6590    -1.1410 C.3   1 <1>   0.0400 
 23 C       -7.6110    -6.3800     0.1860 C.2   1 <1>  -0.0400 
 24 O       -6.9090    -6.3670     1.2870 O.3   1 <1>  -0.0190 
 25 C       -7.5590    -7.6210    -0.3190 C.2   1 <1>  -0.1500 
 26 N       -6.3750    -7.5230     1.5380 N.2   1 <1>  -0.4100 
 27 C       -6.7550    -8.3040     0.5900 C.2   1 <1>   0.1080 
 28 C       -6.3750    -9.7650     0.4870 C.3   1 <1>  -0.0590 
 29 H       -3.5870     0.3220     2.5560 H     1 <1>   0.0800 
 30 H       -3.9640     1.7170     1.5750 H     1 <1>   0.0800 
 31 H       -1.7540    -1.4400    -0.1340 H     1 <1>   0.0800 
 32 H       -2.2660    -1.5800     1.5270 H     1 <1>   0.0800 
 33 H       -2.8510     3.0520    -2.2140 H     1 <1>   0.1500 
 34 H       -1.3520     2.3460     1.6920 H     1 <1>   0.1500 
 35 H       -5.4520     0.4430     0.1820 H     1 <1>   0.0800 
 36 H       -5.9300     0.2290     1.8470 H     1 <1>   0.0800 
 37 H       -3.6790    -2.9780     0.1130 H     1 <1>   0.0800 
 38 H       -4.0040    -1.6210    -0.9350 H     1 <1>   0.0800 
 39 H       -2.4040     5.4220    -1.8670 H     1 <1>   0.1500 
 40 H       -0.9650     4.7390     1.8900 H     1 <1>   0.1500 
 41 H       -4.8370    -1.9200     1.9640 H     1 <1>   0.0800 
 42 H       -7.0750    -1.7440     1.0710 H     1 <1>   0.4500 
 43 H       -7.0900    -0.7170    -0.9740 H     1 <1>   0.0800 
 44 H       -5.9160    -1.8700    -1.6010 H     1 <1>   0.0800 
 45 H       -5.4470    -4.0530     0.5230 H     1 <1>   0.0800 
 46 H       -6.9010    -3.8630     1.4800 H     1 <1>   0.0800 
 47 H       -8.0870    -2.8100    -2.2610 H     1 <1>   0.0800 
 48 H       -6.5780    -4.4440    -1.3720 H     1 <1>   0.0800 
 49 H       -8.8870    -5.3400    -1.1620 H     1 <1>   0.0800 
 50 H       -8.9630    -4.7670     0.4780 H     1 <1>   0.0800 
 51 H      -10.7280    -1.4330    -0.4530 H     1 <1>   0.0800 
 52 H      -10.3210    -2.2560    -1.9500 H     1 <1>   0.0800 
 53 H       -9.5090    -0.7440    -1.5170 H     1 <1>   0.0800 
 54 H       -8.0090    -8.0310    -1.2050 H     1 <1>   0.1500 
 55 H       -5.8410    -9.9410    -0.4280 H     1 <1>   0.0800 
 56 H       -7.2610   -10.3730     0.5040 H     1 <1>   0.0800 
 57 H       -5.7480   -10.0420     1.3150 H     1 <1>   0.0800 
@<TRIPOS>BOND
  1   1   2  2   
  2   2   3  am  
  3   2   4  1   
  4   3   5  1   
  5   3   6  1   
  6   4   7  ar  
  7   4   8  ar  
  8   5   9  1   
  9   5  29  1   
 10   5  30  1   
 11   6  10  1   
 12   6  31  1   
 13   6  32  1   
 14   7  11  ar  
 15   7  33  1   
 16   8  12  ar  
 17   8  34  1   
 18   9  13  1   
 19   9  35  1   
 20   9  36  1   
 21  10  13  1   
 22  10  37  1   
 23  10  38  1   
 24  11  14  ar  
 25  11  39  1   
 26  12  14  ar  
 27  12  40  1   
 28  13  15  1   
 29  13  41  1   
 30  15  16  1   
 31  15  17  1   
 32  15  42  1   
 33  16  18  1   
 34  16  43  1   
 35  16  44  1   
 36  17  19  1   
 37  17  45  1   
 38  17  46  1   
 39  18  19  1   
 40  18  20  1   
 41  18  47  1   
 42  19  21  1   
 43  19  48  1   
 44  20  22  1   
 45  21  23  1   
 46  21  49  1   
 47  21  50  1   
 48  22  51  1   
 49  22  52  1   
 50  22  53  1   
 51  23  24  1   
 52  23  25  2   
 53  24  26  1   
 54  25  27  1   
 55  25  54  1   
 56  26  27  2   
 57  27  28  1   
 58  28  55  1   
 59  28  56  1   
 60  28  57  1   
@<TRIPOS>SUBSTRUCTURE
  1 ****  13 GROUP 4 **** **** 0

# MOE 2024.06 (io_trps.svl 2023.06)
