@<TRIPOS>MOLECULE
NONAME
44 46 1 0 0 
SMALL
USER_CHARGES


@<TRIPOS>ATOM
  1 S       -1.8640     1.4900     0.4150 S.3   1 <1>  -0.0800 
  2 C       -3.1220     0.2680     0.4230 C.2   1 <1>  -0.1100 
  3 C       -2.0430     1.7190    -1.3140 C.2   1 <1>  -0.1100 
  4 C       -3.6220     0.0810    -0.8150 C.2   1 <1>  -0.1810 
  5 C       -2.9990     0.9090    -1.8050 C.2   1 <1>  -0.1500 
  6 C       -4.7320    -0.8880    -1.2120 C.3   1 <1>   0.0820 
  7 C       -5.4740    -1.5050    -0.0300 C.2   1 <1>   0.5690 
  8 O       -5.3890    -2.7030     0.1250 O.2   1 <1>  -0.5700 
  9 N       -6.2540    -0.7480     0.8090 N.am  1 <1>  -0.6600 
 10 C       -6.8210    -1.3370     2.0580 C.3   1 <1>   0.1400 
 11 C       -6.6170     0.6810     0.5890 C.3   1 <1>   0.1400 
 12 C       -8.1780    -2.0220     1.8180 C.3   1 <1>   0.1400 
 13 C       -8.0420     0.8090     0.0340 C.3   1 <1>  -0.1600 
 14 N       -9.0240    -1.3540     0.7710 N.am  1 <1>  -0.6600 
 15 C       -9.1270     0.1330     0.8860 C.3   1 <1>   0.1400 
 16 C       -9.7250    -2.0340    -0.2100 C.2   1 <1>   0.7030 
 17 O      -10.5910    -1.4390    -0.8270 O.2   1 <1>  -0.5700 
 18 C       -9.4980    -3.4380    -0.5320 C.2   1 <1>   0.2770 
 19 N      -10.4710    -4.4360    -0.6550 N.pl3 1 <1>  -0.7640 
 20 C       -8.3180    -4.0510    -0.8050 C.2   1 <1>   0.2000 
 21 C       -9.8630    -5.5700    -0.9740 C.cat 1 <1>   0.6500 
 22 C      -11.9330    -4.1900    -0.5000 C.3   1 <1>   0.2740 
 23 N       -8.5580    -5.3710    -1.0640 N.pl3 1 <1>  -0.7000 
 24 H       -3.3560    -0.1860     1.3700 H     1 <1>   0.1500 
 25 H       -1.4030     2.4440    -1.7850 H     1 <1>   0.1500 
 26 H       -3.2920     0.8610    -2.8400 H     1 <1>   0.1500 
 27 H       -4.2990    -1.6780    -1.7970 H     1 <1>   0.0800 
 28 H       -5.4450    -0.3800    -1.8320 H     1 <1>   0.0800 
 29 H       -6.9390    -0.5650     2.7990 H     1 <1>   0.0800 
 30 H       -6.1300    -2.0560     2.4650 H     1 <1>   0.0800 
 31 H       -5.9300     1.1500    -0.0930 H     1 <1>   0.0800 
 32 H       -6.5420     1.2130     1.5220 H     1 <1>   0.0800 
 33 H       -8.7220    -2.0370     2.7480 H     1 <1>   0.0800 
 34 H       -7.9850    -3.0450     1.5570 H     1 <1>   0.0800 
 35 H       -8.0810     0.4260    -0.9690 H     1 <1>   0.0800 
 36 H       -8.2740     1.8580    -0.0250 H     1 <1>   0.0800 
 37 H      -10.0950     0.4600     0.5430 H     1 <1>   0.0800 
 38 H       -9.0370     0.4340     1.9150 H     1 <1>   0.0800 
 39 H       -7.3350    -3.6150    -0.8350 H     1 <1>   0.1500 
 40 H      -10.3590    -6.5180    -1.1420 H     1 <1>   0.1500 
 41 H      -12.1350    -3.7680     0.4700 H     1 <1>   0.0800 
 42 H      -12.4850    -5.1080    -0.6030 H     1 <1>   0.0800 
 43 H      -12.2690    -3.4970    -1.2540 H     1 <1>   0.0800 
 44 H       -7.8450    -6.0710    -1.2970 H     1 <1>   0.4500 
@<TRIPOS>BOND
  1   1   2  1   
  2   1   3  1   
  3   2   4  2   
  4   2  24  1   
  5   3   5  2   
  6   3  25  1   
  7   4   5  1   
  8   4   6  1   
  9   5  26  1   
 10   6   7  1   
 11   6  27  1   
 12   6  28  1   
 13   7   8  2   
 14   7   9  am  
 15   9  10  1   
 16   9  11  1   
 17  10  12  1   
 18  10  29  1   
 19  10  30  1   
 20  11  13  1   
 21  11  31  1   
 22  11  32  1   
 23  12  14  1   
 24  12  33  1   
 25  12  34  1   
 26  13  15  1   
 27  13  35  1   
 28  13  36  1   
 29  14  15  1   
 30  14  16  am  
 31  15  37  1   
 32  15  38  1   
 33  16  17  2   
 34  16  18  1   
 35  18  19  1   
 36  18  20  2   
 37  19  21  ar  
 38  19  22  1   
 39  20  23  1   
 40  20  39  1   
 41  21  23  ar  
 42  21  40  1   
 43  22  41  1   
 44  22  42  1   
 45  22  43  1   
 46  23  44  1   
@<TRIPOS>SUBSTRUCTURE
  1 ****   9 GROUP 4 **** **** 0

# MOE 2024.06 (io_trps.svl 2023.06)
