@<TRIPOS>MOLECULE
NONAME
56 58 1 0 0 
SMALL
USER_CHARGES


@<TRIPOS>ATOM
  1 O        4.5150     1.5140     2.0570 O.co2 1 <1>  -0.9000 
  2 C        3.9000     0.5150     1.6820 C.2   1 <1>   0.9060 
  3 O        4.3580    -0.6160     1.8730 O.co2 1 <1>  -0.9000 
  4 C        2.7810     0.6830     0.6340 C.3   1 <1>  -0.1060 
  5 C        3.3390     0.0000    -0.6290 C.3   1 <1>   0.4230 
  6 C        2.5250     2.1860     0.2820 C.3   1 <1>  -0.1600 
  7 C        1.4380     0.0510     1.0860 C.3   1 <1>  -0.1600 
  8 N        3.3970    -1.4950    -0.4250 N.4   1 <1>  -0.9590 
  9 C        4.7200     0.6530    -0.9930 C.3   1 <1>   0.3430 
 10 C        3.6020     2.8690    -0.5860 C.3   1 <1>   0.3430 
 11 C        1.4900    -1.4820     1.1400 C.3   1 <1>  -0.1600 
 12 C        2.0620    -2.0890    -0.1410 C.3   1 <1>   0.3430 
 13 C        4.1430    -2.2900    -1.4420 C.3   1 <1>   0.2630 
 14 N        4.8680     2.0870    -0.5430 N.4   1 <1>  -0.9590 
 15 C        6.0710     2.7730    -1.0940 C.3   1 <1>   0.4860 
 16 C        6.0520     4.2560    -0.7640 C.ar  1 <1>  -0.1430 
 17 C        6.2990     4.7450     0.5160 C.ar  1 <1>  -0.1430 
 18 C        5.7590     5.1430    -1.7910 C.ar  1 <1>  -0.1500 
 19 C        6.2290     6.1090     0.7440 C.ar  1 <1>  -0.1500 
 20 C        6.6380     3.8570     1.7090 C.3   1 <1>  -0.0970 
 21 C        5.6920     6.5050    -1.5630 C.ar  1 <1>  -0.1430 
 22 C        5.9240     6.9960    -0.2830 C.ar  1 <1>   0.0830 
 23 C        5.3700     7.4570    -2.7070 C.3   1 <1>  -0.0970 
 24 O        5.8390     8.3400    -0.0990 O.3   1 <1>  -0.3630 
 25 C        6.0890     8.9370     1.1530 C.3   1 <1>   0.0400 
 26 H        2.6590     0.1980    -1.4390 H     1 <1>   0.0800 
 27 H        2.4300     2.7460     1.1980 H     1 <1>   0.0800 
 28 H        1.5880     2.3020    -0.2330 H     1 <1>   0.0800 
 29 H        1.1720     0.4320     2.0590 H     1 <1>   0.0800 
 30 H        0.6520     0.3310     0.4050 H     1 <1>   0.0800 
 31 H        3.9050    -1.5660     0.5020 H     1 <1>   0.4500 
 32 H        4.8560     0.5960    -2.0590 H     1 <1>   0.0800 
 33 H        5.4960     0.0760    -0.5160 H     1 <1>   0.0800 
 34 H        3.7650     3.8670    -0.2090 H     1 <1>   0.0800 
 35 H        3.2610     2.9490    -1.6050 H     1 <1>   0.0800 
 36 H        0.4980    -1.8670     1.3000 H     1 <1>   0.0800 
 37 H        2.0870    -1.8010     1.9780 H     1 <1>   0.0800 
 38 H        1.3920    -1.9010    -0.9650 H     1 <1>   0.0800 
 39 H        2.1540    -3.1550    -0.0110 H     1 <1>   0.0800 
 40 H        3.6670    -2.2110    -2.4060 H     1 <1>   0.0800 
 41 H        4.1650    -3.3280    -1.1530 H     1 <1>   0.0800 
 42 H        5.1610    -1.9450    -1.5200 H     1 <1>   0.0800 
 43 H        5.0410     2.0430     0.5010 H     1 <1>   0.4500 
 44 H        6.9650     2.3290    -0.6860 H     1 <1>   0.0800 
 45 H        6.0970     2.6570    -2.1640 H     1 <1>   0.0800 
 46 H        5.5780     4.7770    -2.7870 H     1 <1>   0.1500 
 47 H        6.4130     6.4700     1.7380 H     1 <1>   0.1500 
 48 H        7.4300     4.3020     2.2860 H     1 <1>   0.0800 
 49 H        6.9590     2.8740     1.4230 H     1 <1>   0.0800 
 50 H        5.7770     3.7600     2.3470 H     1 <1>   0.0800 
 51 H        5.2140     6.9290    -3.6290 H     1 <1>   0.0800 
 52 H        6.1830     8.1480    -2.8410 H     1 <1>   0.0800 
 53 H        4.4820     8.0180    -2.4760 H     1 <1>   0.0800 
 54 H        5.9700    10.0000     1.0450 H     1 <1>   0.0800 
 55 H        7.0970     8.7110     1.4530 H     1 <1>   0.0800 
 56 H        5.3790     8.5620     1.8680 H     1 <1>   0.0800 
@<TRIPOS>BOND
  1   1   2  ar  
  2   2   3  ar  
  3   2   4  1   
  4   4   5  1   
  5   4   6  1   
  6   4   7  1   
  7   5   8  1   
  8   5   9  1   
  9   5  26  1   
 10   6  10  1   
 11   6  27  1   
 12   6  28  1   
 13   7  11  1   
 14   7  29  1   
 15   7  30  1   
 16   8  12  1   
 17   8  13  1   
 18   8  31  1   
 19   9  14  1   
 20   9  32  1   
 21   9  33  1   
 22  10  14  1   
 23  10  34  1   
 24  10  35  1   
 25  11  12  1   
 26  11  36  1   
 27  11  37  1   
 28  12  38  1   
 29  12  39  1   
 30  13  40  1   
 31  13  41  1   
 32  13  42  1   
 33  14  15  1   
 34  14  43  1   
 35  15  16  1   
 36  15  44  1   
 37  15  45  1   
 38  16  17  ar  
 39  16  18  ar  
 40  17  19  ar  
 41  17  20  1   
 42  18  21  ar  
 43  18  46  1   
 44  19  22  ar  
 45  19  47  1   
 46  20  48  1   
 47  20  49  1   
 48  20  50  1   
 49  21  22  ar  
 50  21  23  1   
 51  22  24  1   
 52  23  51  1   
 53  23  52  1   
 54  23  53  1   
 55  24  25  1   
 56  25  54  1   
 57  25  55  1   
 58  25  56  1   
@<TRIPOS>SUBSTRUCTURE
  1 ****  14 GROUP 4 **** **** 0

# MOE 2024.06 (io_trps.svl 2023.06)
