@<TRIPOS>MOLECULE
NONAME
44 46 1 0 0 
SMALL
USER_CHARGES


@<TRIPOS>ATOM
  1 S       -1.6180    -1.6040    -1.1790 S.3   1 <1>  -0.0800 
  2 C       -3.0910    -1.2870    -0.2830 C.2   1 <1>  -0.1100 
  3 C       -1.0570     0.0370    -0.9210 C.2   1 <1>  -0.1100 
  4 C       -3.1220    -0.0130     0.1560 C.2   1 <1>  -0.1810 
  5 C       -1.9530     0.7400    -0.2050 C.2   1 <1>  -0.1500 
  6 C       -4.2510     0.6090     0.9490 C.3   1 <1>   0.5240 
  7 N       -4.9300     1.6140     0.0880 N.4   1 <1>  -0.9590 
  8 C       -5.9050     2.4590     0.8420 C.3   1 <1>   0.3430 
  9 C       -5.5610     1.0070    -1.1300 C.3   1 <1>   0.3430 
 10 C       -7.1570     1.6650     1.2160 C.3   1 <1>  -0.1600 
 11 C       -6.8160     0.2100    -0.7700 C.3   1 <1>  -0.1600 
 12 C       -7.8330     1.0920    -0.0400 C.3   1 <1>   0.2800 
 13 O       -8.0720     2.1510    -0.9190 O.3   1 <1>  -0.5600 
 14 C       -9.1190     0.2790     0.2710 C.3   1 <1>  -0.1600 
 15 C       -9.1240     3.0610    -0.6800 C.3   1 <1>   0.1200 
 16 C      -10.4280     0.9240    -0.2080 C.3   1 <1>   0.2800 
 17 C      -10.3640     2.4520     0.0050 C.3   1 <1>   0.2000 
 18 O      -10.5670     0.6730    -1.5600 O.3   1 <1>  -0.6800 
 19 C      -11.6500     0.2760     0.4530 C.3   1 <1>  -0.2400 
 20 O      -10.3090     2.7540     1.3700 O.3   1 <1>  -0.6800 
 21 H       -3.7800    -2.1090    -0.1880 H     1 <1>   0.1500 
 22 H       -0.0990     0.2990    -1.3360 H     1 <1>   0.1500 
 23 H       -1.8200     1.7680     0.0860 H     1 <1>   0.1500 
 24 H       -3.8510     1.0800     1.8320 H     1 <1>   0.0800 
 25 H       -4.9490    -0.1540     1.2530 H     1 <1>   0.0800 
 26 H       -4.1820     2.2260    -0.2600 H     1 <1>   0.4500 
 27 H       -5.4450     2.8580     1.7320 H     1 <1>   0.0800 
 28 H       -6.2070     3.2900     0.2220 H     1 <1>   0.0800 
 29 H       -5.8470     1.7940    -1.8100 H     1 <1>   0.0800 
 30 H       -4.8560     0.3700    -1.6400 H     1 <1>   0.0800 
 31 H       -7.8340     2.3150     1.7370 H     1 <1>   0.0800 
 32 H       -6.9050     0.8730     1.8970 H     1 <1>   0.0800 
 33 H       -6.5580    -0.6470    -0.1760 H     1 <1>   0.0800 
 34 H       -7.2620    -0.1550    -1.6790 H     1 <1>   0.0800 
 35 H       -9.0520    -0.7190    -0.1240 H     1 <1>   0.0800 
 36 H       -9.1800     0.1610     1.3370 H     1 <1>   0.0800 
 37 H       -8.7450     3.8880    -0.1060 H     1 <1>   0.0800 
 38 H       -9.4190     3.4310    -1.6460 H     1 <1>   0.0800 
 39 H      -11.2520     2.9200    -0.3820 H     1 <1>   0.0800 
 40 H      -10.7140    -0.2780    -1.7110 H     1 <1>   0.4000 
 41 H      -11.6140     0.4030     1.5190 H     1 <1>   0.0800 
 42 H      -11.6790    -0.7800     0.2490 H     1 <1>   0.0800 
 43 H      -12.5550     0.7300     0.0900 H     1 <1>   0.0800 
 44 H      -11.1720     2.5620     1.7880 H     1 <1>   0.4000 
@<TRIPOS>BOND
  1   1   2  1   
  2   1   3  1   
  3   2   4  2   
  4   2  21  1   
  5   3   5  2   
  6   3  22  1   
  7   4   5  1   
  8   4   6  1   
  9   5  23  1   
 10   6   7  1   
 11   6  24  1   
 12   6  25  1   
 13   7   8  1   
 14   7   9  1   
 15   7  26  1   
 16   8  10  1   
 17   8  27  1   
 18   8  28  1   
 19   9  11  1   
 20   9  29  1   
 21   9  30  1   
 22  10  12  1   
 23  10  31  1   
 24  10  32  1   
 25  11  12  1   
 26  11  33  1   
 27  11  34  1   
 28  12  13  1   
 29  12  14  1   
 30  13  15  1   
 31  14  16  1   
 32  14  35  1   
 33  14  36  1   
 34  15  17  1   
 35  15  37  1   
 36  15  38  1   
 37  16  17  1   
 38  16  18  1   
 39  16  19  1   
 40  17  20  1   
 41  17  39  1   
 42  18  40  1   
 43  19  41  1   
 44  19  42  1   
 45  19  43  1   
 46  20  44  1   
@<TRIPOS>SUBSTRUCTURE
  1 ****  11 GROUP 4 **** **** 0

# MOE 2024.06 (io_trps.svl 2023.06)
