@<TRIPOS>MOLECULE
NONAME
39 40 1 0 0 
SMALL
USER_CHARGES


@<TRIPOS>ATOM
  1 S        0.0340    -0.3180     0.1120 S.o2  1 <1>   1.0900 
  2 O        0.9470    -0.9140     1.0580 O.2   1 <1>  -0.6500 
  3 O        0.3000    -0.4030    -1.3040 O.2   1 <1>  -0.6500 
  4 C       -1.5980    -0.9750     0.4070 C.3   1 <1>  -0.0550 
  5 C       -0.1380     1.4060     0.5330 C.3   1 <1>  -0.1350 
  6 C       -1.6350    -2.4740     0.1330 C.3   1 <1>   0.1100 
  7 N       -2.9890    -2.9870     0.3730 N.3   1 <1>  -0.8100 
  8 C       -3.9340    -2.6850    -0.7090 C.3   1 <1>   0.1100 
  9 C       -3.0070    -4.4550     0.4800 C.3   1 <1>   0.1100 
 10 C       -5.0960    -3.6340    -0.4480 C.3   1 <1>   0.2000 
 11 C       -4.4110    -4.9110     0.0410 C.3   1 <1>  -0.0800 
 12 O       -5.8220    -3.1140     0.6060 O.3   1 <1>  -0.6800 
 13 C       -4.3620    -5.9790    -1.0660 C.3   1 <1>  -0.0170 
 14 C       -3.7110    -7.2660    -0.5850 C.ar  1 <1>   0.1670 
 15 N       -2.4220    -7.4140    -0.8520 N.ar  1 <1>  -0.6200 
 16 C       -4.4740    -8.2040     0.0940 C.ar  1 <1>  -0.1500 
 17 C       -1.8730    -8.5400    -0.4260 C.ar  1 <1>   0.1600 
 18 C       -3.8890    -9.3720     0.5330 C.ar  1 <1>  -0.1500 
 19 C       -2.5490    -9.5350     0.2600 C.ar  1 <1>  -0.1500 
 20 H       -1.8800    -0.8110     1.4290 H     1 <1>   0.0800 
 21 H       -2.3020    -0.4820    -0.2320 H     1 <1>   0.0800 
 22 H       -0.4250     1.5170     1.5600 H     1 <1>   0.0800 
 23 H       -0.8750     1.8750    -0.0900 H     1 <1>   0.0800 
 24 H        0.7980     1.9110     0.3870 H     1 <1>   0.0800 
 25 H       -0.9450    -2.9620     0.8030 H     1 <1>   0.0800 
 26 H       -1.3250    -2.6840    -0.8780 H     1 <1>   0.0800 
 27 H       -4.2510    -1.6570    -0.6960 H     1 <1>   0.0800 
 28 H       -3.4900    -2.9150    -1.6640 H     1 <1>   0.0800 
 29 H       -2.2570    -4.8770    -0.1690 H     1 <1>   0.0800 
 30 H       -2.7970    -4.7580     1.4920 H     1 <1>   0.0800 
 31 H       -5.7520    -3.7660    -1.2920 H     1 <1>   0.0800 
 32 H       -4.9410    -5.3230     0.8830 H     1 <1>   0.0800 
 33 H       -5.1640    -2.8640     1.2900 H     1 <1>   0.4000 
 34 H       -3.8200    -5.6050    -1.9180 H     1 <1>   0.0800 
 35 H       -5.3630    -6.2000    -1.3910 H     1 <1>   0.0800 
 36 H       -5.5170    -8.0230     0.2800 H     1 <1>   0.1500 
 37 H       -0.8260    -8.6780    -0.6350 H     1 <1>   0.1500 
 38 H       -4.4520   -10.1210     1.0630 H     1 <1>   0.1500 
 39 H       -2.0300   -10.4220     0.5730 H     1 <1>   0.1500 
@<TRIPOS>BOND
  1   1   2  2   
  2   1   3  2   
  3   1   4  1   
  4   1   5  1   
  5   4   6  1   
  6   4  20  1   
  7   4  21  1   
  8   5  22  1   
  9   5  23  1   
 10   5  24  1   
 11   6   7  1   
 12   6  25  1   
 13   6  26  1   
 14   7   8  1   
 15   7   9  1   
 16   8  10  1   
 17   8  27  1   
 18   8  28  1   
 19   9  11  1   
 20   9  29  1   
 21   9  30  1   
 22  10  11  1   
 23  10  12  1   
 24  10  31  1   
 25  11  13  1   
 26  11  32  1   
 27  12  33  1   
 28  13  14  1   
 29  13  34  1   
 30  13  35  1   
 31  14  15  ar  
 32  14  16  ar  
 33  15  17  ar  
 34  16  18  ar  
 35  16  36  1   
 36  17  19  ar  
 37  17  37  1   
 38  18  19  ar  
 39  18  38  1   
 40  19  39  1   
@<TRIPOS>SUBSTRUCTURE
  1 ****   9 GROUP 4 **** **** 0

# MOE 2024.06 (io_trps.svl 2023.06)
