@<TRIPOS>MOLECULE
NONAME
25 26 1 0 0 
SMALL
USER_CHARGES


@<TRIPOS>ATOM
  1 N       -2.9980     0.3540     0.3870 N.4   1 <1>  -0.9060 
  2 C       -3.7840     1.6780     0.3430 C.3   1 <1>   0.3430 
  3 C       -3.7920    -0.9680     0.5760 C.3   1 <1>   0.3430 
  4 C       -5.2490     1.2900     0.2290 C.3   1 <1>  -0.0800 
  5 C       -5.1850    -1.0170    -0.1640 C.3   1 <1>  -0.0800 
  6 C       -5.3080     0.2730    -0.9360 C.3   1 <1>  -0.1600 
  7 C       -6.7060     1.6030     0.5440 C.3   1 <1>  -0.1600 
  8 C       -6.4640    -1.0780     0.7640 C.3   1 <1>  -0.1600 
  9 C       -7.4040     0.2040     0.7630 C.3   1 <1>  -0.1600 
 10 H       -2.2630     0.4170     1.1020 H     1 <1>   0.4500 
 11 H       -2.5090     0.2750    -0.5120 H     1 <1>   0.4500 
 12 H       -3.6260     2.2420     1.2480 H     1 <1>   0.0800 
 13 H       -3.4840     2.2770    -0.5030 H     1 <1>   0.0800 
 14 H       -3.1890    -1.7970     0.2390 H     1 <1>   0.0800 
 15 H       -3.9720    -1.1160     1.6280 H     1 <1>   0.0800 
 16 H       -5.1660     0.8760     1.2200 H     1 <1>   0.0800 
 17 H       -5.1990    -1.8550    -0.8390 H     1 <1>   0.0800 
 18 H       -4.5160     0.3900    -1.6580 H     1 <1>   0.0800 
 19 H       -6.2240     0.3080    -1.5050 H     1 <1>   0.0800 
 20 H       -6.7880     2.2040     1.4360 H     1 <1>   0.0800 
 21 H       -7.1710     2.1410    -0.2650 H     1 <1>   0.0800 
 22 H       -7.0620    -1.9260     0.4750 H     1 <1>   0.0800 
 23 H       -6.1530    -1.2660     1.7770 H     1 <1>   0.0800 
 24 H       -8.1230     0.0780    -0.0300 H     1 <1>   0.0800 
 25 H       -7.9720     0.2270     1.6770 H     1 <1>   0.0800 
@<TRIPOS>BOND
  1   1   2  1   
  2   1   3  1   
  3   1  10  1   
  4   1  11  1   
  5   2   4  1   
  6   2  12  1   
  7   2  13  1   
  8   3   5  1   
  9   3  14  1   
 10   3  15  1   
 11   4   6  1   
 12   4   7  1   
 13   4  16  1   
 14   5   6  1   
 15   5   8  1   
 16   5  17  1   
 17   6  18  1   
 18   6  19  1   
 19   7   9  1   
 20   7  20  1   
 21   7  21  1   
 22   8   9  1   
 23   8  22  1   
 24   8  23  1   
 25   9  24  1   
 26   9  25  1   
@<TRIPOS>SUBSTRUCTURE
  1 ****   4 GROUP 4 **** **** 0

# MOE 2024.06 (io_trps.svl 2023.06)
