@<TRIPOS>MOLECULE
NONAME
39 41 1 0 0 
SMALL
USER_CHARGES


@<TRIPOS>ATOM
  1 O       -2.6580     0.7230    -2.1580 O.2   1 <1>  -0.5700 
  2 C       -2.2410     0.6880    -1.0130 C.2   1 <1>   0.5440 
  3 N       -2.0320    -0.5450    -0.4550 N.am  1 <1>  -0.7300 
  4 C       -1.9830     1.9080    -0.2460 C.ar  1 <1>   0.3960 
  5 C       -2.2210    -1.8560    -1.1170 C.3   1 <1>   0.2200 
  6 N       -1.5780     1.7990     1.0370 N.ar  1 <1>  -0.6200 
  7 C       -2.1570     3.1600    -0.8450 C.ar  1 <1>  -0.1500 
  8 C       -3.4900    -2.5430    -0.6350 C.3   1 <1>  -0.0800 
  9 C       -1.1640    -2.8280    -0.6090 C.3   1 <1>   0.1200 
 10 C       -1.3540     2.9240     1.6920 C.ar  1 <1>   0.1600 
 11 C       -1.9220     4.3250    -0.1500 C.ar  1 <1>  -0.1500 
 12 C       -3.0370    -3.2280     0.6590 C.3   1 <1>   0.1200 
 13 C       -4.7250    -1.6380    -0.4730 C.3   1 <1>  -0.0160 
 14 O       -1.6410    -3.2930     0.6180 O.3   1 <1>  -0.5600 
 15 C       -1.5070     4.1980     1.1560 C.ar  1 <1>   0.0820 
 16 C       -5.9460    -2.4530    -0.0760 C.ar  1 <1>  -0.1440 
 17 O       -1.2640     5.3080     1.8720 O.3   1 <1>  -0.5320 
 18 C       -6.6930    -3.1430    -1.0090 C.ar  1 <1>  -0.1500 
 19 C       -6.3700    -2.5480     1.2340 C.ar  1 <1>  -0.1500 
 20 C       -7.7930    -3.8780    -0.5990 C.ar  1 <1>   0.1600 
 21 C       -7.4850    -3.3100     1.5390 C.ar  1 <1>   0.1600 
 22 N       -8.2060    -3.9800     0.6540 N.ar  1 <1>  -0.6200 
 23 H       -1.7040    -0.5830     0.5160 H     1 <1>   0.3700 
 24 H       -2.1900    -1.7470    -2.1880 H     1 <1>   0.0800 
 25 H       -2.4820     3.2090    -1.8700 H     1 <1>   0.1500 
 26 H       -3.7310    -3.3180    -1.3410 H     1 <1>   0.0800 
 27 H       -0.2020    -2.3660    -0.4750 H     1 <1>   0.0800 
 28 H       -1.0770    -3.6730    -1.2690 H     1 <1>   0.0800 
 29 H       -1.0290     2.8330     2.7140 H     1 <1>   0.1500 
 30 H       -2.0510     5.2950    -0.5960 H     1 <1>   0.1500 
 31 H       -3.4350    -4.2250     0.7450 H     1 <1>   0.0800 
 32 H       -3.3080    -2.6520     1.5260 H     1 <1>   0.0800 
 33 H       -4.9200    -1.1320    -1.4030 H     1 <1>   0.0800 
 34 H       -4.5440    -0.8830     0.2710 H     1 <1>   0.0800 
 35 H       -0.9660     5.1550     2.7880 H     1 <1>   0.4500 
 36 H       -6.4290    -3.1150    -2.0510 H     1 <1>   0.1500 
 37 H       -5.8460    -2.0360     2.0200 H     1 <1>   0.1500 
 38 H       -8.3630    -4.4100    -1.3410 H     1 <1>   0.1500 
 39 H       -7.8010    -3.3730     2.5670 H     1 <1>   0.1500 
@<TRIPOS>BOND
  1   1   2  2   
  2   2   3  am  
  3   2   4  1   
  4   3   5  1   
  5   3  23  1   
  6   4   6  ar  
  7   4   7  ar  
  8   5   8  1   
  9   5   9  1   
 10   5  24  1   
 11   6  10  ar  
 12   7  11  ar  
 13   7  25  1   
 14   8  12  1   
 15   8  13  1   
 16   8  26  1   
 17   9  14  1   
 18   9  27  1   
 19   9  28  1   
 20  10  15  ar  
 21  10  29  1   
 22  11  15  ar  
 23  11  30  1   
 24  12  14  1   
 25  12  31  1   
 26  12  32  1   
 27  13  16  1   
 28  13  33  1   
 29  13  34  1   
 30  15  17  1   
 31  16  18  ar  
 32  16  19  ar  
 33  17  35  1   
 34  18  20  ar  
 35  18  36  1   
 36  19  21  ar  
 37  19  37  1   
 38  20  22  ar  
 39  20  38  1   
 40  21  22  ar  
 41  21  39  1   
@<TRIPOS>SUBSTRUCTURE
  1 ****   3 GROUP 4 **** **** 0

# MOE 2024.06 (io_trps.svl 2023.06)
