@<TRIPOS>MOLECULE
Untitled Document
58 61 1 0 0 
SMALL
USER_CHARGES


@<TRIPOS>ATOM
  1 CL       0.6550     0.0020    -1.9110 Cl    1 <1>  -0.1770 
  2 C        2.2170    -0.6750    -1.4990 C.ar  1 <1>   0.1770 
  3 C        3.2900     0.1440    -1.1710 C.ar  1 <1>   0.0540 
  4 C        2.3580    -2.0490    -1.4980 C.ar  1 <1>   0.1600 
  5 C        3.2560     1.5880    -1.1370 C.2   1 <1>  -0.0540 
  6 C        4.4510    -0.5370    -0.8570 C.ar  1 <1>  -0.1500 
  7 N        3.4750    -2.6950    -1.1900 N.ar  1 <1>  -0.6200 
  8 C        3.8090     2.4220    -0.2210 C.2   1 <1>  -0.3320 
  9 C        2.6680     2.4810    -2.0470 C.2   1 <1>   0.1390 
 10 C        4.5020    -1.9270    -0.8580 C.ar  1 <1>   0.4270 
 11 N        3.5510     3.6640    -0.5970 N.pl3 1 <1>   0.3140 
 12 C        4.6110     2.4010     1.0580 C.3   1 <1>   0.0200 
 13 N        2.8440     3.7290    -1.7300 N.2   1 <1>  -0.7070 
 14 N        5.6270    -2.6530    -0.5310 N.am  1 <1>  -0.5470 
 15 C        4.1180     4.6890     0.2710 C.3   1 <1>   0.0960 
 16 C        5.0720     3.8800     1.1900 C.3   1 <1>   0.0000 
 17 C        6.7530    -2.3160     0.1630 C.2   1 <1>   0.5690 
 18 C        5.0010     4.3680     2.6450 C.3   1 <1>  -0.2400 
 19 C        6.5180     4.0170     0.6800 C.3   1 <1>  -0.2400 
 20 O        6.9360    -1.2180     0.6290 O.2   1 <1>  -0.5700 
 21 C        7.8140    -3.3970     0.3690 C.3   1 <1>  -0.0190 
 22 C        9.1980    -2.9240    -0.1190 C.3   1 <1>  -0.1600 
 23 C        7.8790    -3.8320     1.8470 C.3   1 <1>  -0.1600 
 24 C       10.2640    -3.9970     0.1090 C.3   1 <1>   0.2200 
 25 C        8.9590    -4.8980     2.0800 C.3   1 <1>  -0.1600 
 26 N       11.5710    -3.4580    -0.2930 N.am  1 <1>  -0.7300 
 27 C       10.3290    -4.4150     1.5810 C.3   1 <1>  -0.1600 
 28 C       12.3280    -3.9360    -1.3090 C.2   1 <1>   0.5690 
 29 O       11.9890    -4.8710    -1.9900 O.2   1 <1>  -0.5700 
 30 C       13.6440    -3.2610    -1.5880 C.3   1 <1>  -0.1790 
 31 H        1.5020    -2.6460    -1.7620 H     1 <1>   0.1500 
 32 H        5.3280     0.0300    -0.6150 H     1 <1>   0.1500 
 33 H        2.1280     2.1720    -2.9260 H     1 <1>   0.1500 
 34 H        3.9630     2.1210     1.8700 H     1 <1>   0.0800 
 35 H        5.4360     1.7120     1.0120 H     1 <1>   0.0800 
 36 H        5.5130    -3.6320    -0.7750 H     1 <1>   0.3700 
 37 H        4.6280     5.4260    -0.3200 H     1 <1>   0.0800 
 38 H        3.3160     5.1410     0.8220 H     1 <1>   0.0800 
 39 H        5.6470     3.7760     3.2710 H     1 <1>   0.0800 
 40 H        3.9970     4.2870     3.0240 H     1 <1>   0.0800 
 41 H        5.3090     5.3960     2.7140 H     1 <1>   0.0800 
 42 H        7.1890     3.4280     1.2820 H     1 <1>   0.0800 
 43 H        6.8400     5.0420     0.7190 H     1 <1>   0.0800 
 44 H        6.5930     3.6750    -0.3380 H     1 <1>   0.0800 
 45 H        7.5380    -4.2560    -0.2170 H     1 <1>   0.0800 
 46 H        9.4710    -2.0290     0.4120 H     1 <1>   0.0800 
 47 H        9.1460    -2.6940    -1.1690 H     1 <1>   0.0800 
 48 H        8.0930    -2.9720     2.4600 H     1 <1>   0.0800 
 49 H        6.9220    -4.2190     2.1530 H     1 <1>   0.0800 
 50 H       10.0300    -4.8620    -0.4920 H     1 <1>   0.0800 
 51 H        8.6900    -5.8030     1.5610 H     1 <1>   0.0800 
 52 H        9.0190    -5.1270     3.1300 H     1 <1>   0.0800 
 53 H       11.8940    -2.6550     0.2450 H     1 <1>   0.3700 
 54 H       11.0470    -5.2080     1.6920 H     1 <1>   0.0800 
 55 H       10.6450    -3.5800     2.1800 H     1 <1>   0.0800 
 56 H       14.2680    -3.3080    -0.7170 H     1 <1>   0.0800 
 57 H       13.4750    -2.2360    -1.8580 H     1 <1>   0.0800 
 58 H       14.1400    -3.7580    -2.4010 H     1 <1>   0.0800 
@<TRIPOS>BOND
  1   1   2  1   
  2   2   3  ar  
  3   2   4  ar  
  4   3   5  1   
  5   3   6  ar  
  6   4   7  ar  
  7   4  31  1   
  8   5   8  2   
  9   5   9  1   
 10   6  10  ar  
 11   6  32  1   
 12   7  10  ar  
 13   8  11  1   
 14   8  12  1   
 15   9  13  2   
 16   9  33  1   
 17  10  14  1   
 18  11  13  1   
 19  11  15  1   
 20  12  16  1   
 21  12  34  1   
 22  12  35  1   
 23  14  17  am  
 24  14  36  1   
 25  15  16  1   
 26  15  37  1   
 27  15  38  1   
 28  16  18  1   
 29  16  19  1   
 30  17  20  2   
 31  17  21  1   
 32  18  39  1   
 33  18  40  1   
 34  18  41  1   
 35  19  42  1   
 36  19  43  1   
 37  19  44  1   
 38  21  22  1   
 39  21  23  1   
 40  21  45  1   
 41  22  24  1   
 42  22  46  1   
 43  22  47  1   
 44  23  25  1   
 45  23  48  1   
 46  23  49  1   
 47  24  26  1   
 48  24  27  1   
 49  24  50  1   
 50  25  27  1   
 51  25  51  1   
 52  25  52  1   
 53  26  28  am  
 54  26  53  1   
 55  27  54  1   
 56  27  55  1   
 57  28  29  2   
 58  28  30  1   
 59  30  56  1   
 60  30  57  1   
 61  30  58  1   
@<TRIPOS>SUBSTRUCTURE
  1 ****  20 GROUP 4 **** **** 0

# MOE 2024.06 (io_trps.svl 2023.06)
