@<TRIPOS>MOLECULE
NONAME
54 56 1 0 0 
SMALL
USER_CHARGES


@<TRIPOS>ATOM
  1 O       -2.1000     1.6130     2.2290 O.2   1 <1>  -0.5700 
  2 C       -1.6630     0.9030     1.3500 C.2   1 <1>   0.5690 
  3 N       -2.5230     0.1480     0.5850 N.am  1 <1>  -0.6600 
  4 C       -0.1770     1.0290     1.0870 C.3   1 <1>   0.1570 
  5 C       -2.2360    -1.0350    -0.2980 C.3   1 <1>   0.3640 
  6 C       -3.8650     0.7140     0.2700 C.3   1 <1>   0.1400 
  7 N       -0.0130     1.8250    -0.1350 N.pl3 1 <1>   0.3140 
  8 C       -0.9800    -1.8140     0.1060 C.ar  1 <1>  -0.1440 
  9 C       -2.3830    -0.6400    -1.7930 C.3   1 <1>   0.2000 
 10 C       -3.9060     1.0940    -1.2190 C.3   1 <1>   0.1200 
 11 N        0.4930     1.3110    -1.2860 N.2   1 <1>  -0.7070 
 12 C       -0.4080     3.1180    -0.3010 C.2   1 <1>  -0.0680 
 13 C       -1.0220    -2.5480     1.2820 C.ar  1 <1>  -0.1500 
 14 C        0.1920    -1.8310    -0.6370 C.ar  1 <1>  -0.1500 
 15 O       -3.6420    -0.0270    -2.0160 O.3   1 <1>  -0.5600 
 16 C       -2.3000    -1.8580    -2.7320 C.3   1 <1>   0.1200 
 17 C        0.4140     2.2820    -2.1390 C.2   1 <1>   0.1080 
 18 N       -0.9870     3.9310     0.6860 N.pl3 1 <1>  -0.8840 
 19 C       -0.1350     3.4340    -1.5860 C.2   1 <1>  -0.1500 
 20 C        0.0600    -3.2930     1.7200 C.ar  1 <1>   0.0830 
 21 C        1.2890    -2.5600    -0.2120 C.ar  1 <1>  -0.1500 
 22 O       -2.7020    -1.4830    -4.0040 O.3   1 <1>  -0.6800 
 23 C        0.8740     2.1370    -3.5700 C.3   1 <1>  -0.0590 
 24 O       -0.1500    -3.9690     2.8850 O.3   1 <1>  -0.3630 
 25 C        1.2480    -3.2940     0.9700 C.ar  1 <1>   0.0830 
 26 C        0.5080    -5.1850     3.1630 C.3   1 <1>   0.0400 
 27 O        2.3380    -3.9890     1.4100 O.3   1 <1>  -0.3630 
 28 C        3.6050    -3.8550     0.8040 C.3   1 <1>   0.0400 
 29 H        0.3180     0.0900     0.9940 H     1 <1>   0.0800 
 30 H        0.2800     1.5660     1.8950 H     1 <1>   0.0800 
 31 H       -3.0400    -1.7300    -0.1250 H     1 <1>   0.0800 
 32 H       -4.6310    -0.0100     0.4870 H     1 <1>   0.0800 
 33 H       -4.0630     1.5910     0.8630 H     1 <1>   0.0800 
 34 H       -1.6160     0.0630    -2.0630 H     1 <1>   0.0800 
 35 H       -3.1740     1.8550    -1.4370 H     1 <1>   0.0800 
 36 H       -4.8810     1.4630    -1.4830 H     1 <1>   0.0800 
 37 H       -1.9130    -2.5500     1.8850 H     1 <1>   0.1500 
 38 H        0.2830    -1.2680    -1.5500 H     1 <1>   0.1500 
 39 H       -2.9610    -2.6360    -2.3920 H     1 <1>   0.0800 
 40 H       -1.3040    -2.2530    -2.8010 H     1 <1>   0.0800 
 41 H       -1.5150     3.4340     1.4260 H     1 <1>   0.4000 
 42 H       -1.5160     4.7390     0.3420 H     1 <1>   0.4000 
 43 H       -0.3000     4.3680    -2.0880 H     1 <1>   0.1500 
 44 H        2.1700    -2.5320    -0.8250 H     1 <1>   0.1500 
 45 H       -3.4500    -0.8530    -3.8960 H     1 <1>   0.4000 
 46 H        0.7530     3.0630    -4.1000 H     1 <1>   0.0800 
 47 H        0.2960     1.3730    -4.0570 H     1 <1>   0.0800 
 48 H        1.9100     1.8540    -3.5860 H     1 <1>   0.0800 
 49 H       -0.0420    -5.6950     3.9330 H     1 <1>   0.0800 
 50 H        1.5020    -4.9700     3.5100 H     1 <1>   0.0800 
 51 H        0.5350    -5.7830     2.2690 H     1 <1>   0.0800 
 52 H        4.3120    -4.4270     1.3780 H     1 <1>   0.0800 
 53 H        3.8870    -2.8160     0.8090 H     1 <1>   0.0800 
 54 H        3.5560    -4.2390    -0.1990 H     1 <1>   0.0800 
@<TRIPOS>BOND
  1   1   2  2   
  2   2   3  am  
  3   2   4  1   
  4   3   5  1   
  5   3   6  1   
  6   4   7  1   
  7   4  29  1   
  8   4  30  1   
  9   5   8  1   
 10   5   9  1   
 11   5  31  1   
 12   6  10  1   
 13   6  32  1   
 14   6  33  1   
 15   7  11  1   
 16   7  12  1   
 17   8  13  ar  
 18   8  14  ar  
 19   9  15  1   
 20   9  16  1   
 21   9  34  1   
 22  10  15  1   
 23  10  35  1   
 24  10  36  1   
 25  11  17  2   
 26  12  18  1   
 27  12  19  2   
 28  13  20  ar  
 29  13  37  1   
 30  14  21  ar  
 31  14  38  1   
 32  16  22  1   
 33  16  39  1   
 34  16  40  1   
 35  17  19  1   
 36  17  23  1   
 37  18  41  1   
 38  18  42  1   
 39  19  43  1   
 40  20  24  1   
 41  20  25  ar  
 42  21  25  ar  
 43  21  44  1   
 44  22  45  1   
 45  23  46  1   
 46  23  47  1   
 47  23  48  1   
 48  24  26  1   
 49  25  27  1   
 50  26  49  1   
 51  26  50  1   
 52  26  51  1   
 53  27  28  1   
 54  28  52  1   
 55  28  53  1   
 56  28  54  1   
@<TRIPOS>SUBSTRUCTURE
  1 ****   8 GROUP 4 **** **** 0

# MOE 2024.06 (io_trps.svl 2023.06)
