@<TRIPOS>MOLECULE
NONAME
50 52 1 0 0 
SMALL
USER_CHARGES


@<TRIPOS>ATOM
  1 O       -5.1510     2.7410    -0.3340 O.2   1 <1>  -0.5700 
  2 C       -4.1480     2.2810     0.1810 C.2   1 <1>   0.5440 
  3 N       -4.3100     1.3930     1.2220 N.am  1 <1>  -0.6600 
  4 C       -2.8450     2.6390    -0.3440 C.ar  1 <1>   0.0860 
  5 C       -3.1960     0.5240     1.7230 C.3   1 <1>   0.3210 
  6 C       -5.6270     1.2210     1.9210 C.3   1 <1>   0.1400 
  7 C       -1.9050     3.3040     0.4370 C.ar  1 <1>  -0.1500 
  8 C       -2.5060     2.3130    -1.6710 C.ar  1 <1>  -0.1500 
  9 C       -3.0670    -0.7600     0.9090 C.2   1 <1>   0.0460 
 10 C       -6.5590     0.1920     1.2470 C.3   1 <1>   0.3430 
 11 C       -0.6480     3.6020    -0.0800 C.ar  1 <1>   0.0000 
 12 C       -1.2660     2.6090    -2.1960 C.ar  1 <1>  -0.1500 
 13 N       -4.0200    -1.7180     0.9580 N.2   1 <1>  -0.5650 
 14 C       -2.0470    -1.1400     0.1020 C.2   1 <1>  -0.3320 
 15 N       -6.7840     0.5040    -0.1990 N.4   1 <1>  -0.9590 
 16 C       -0.3430     3.2480    -1.3810 C.ar  1 <1>   0.1400 
 17 C        0.5220     4.2250     0.4020 C.2   1 <1>  -0.1500 
 18 C       -3.5520    -2.6600     0.2040 C.2   1 <1>   0.0360 
 19 N       -2.3590    -2.3680    -0.3520 N.pl3 1 <1>   0.0330 
 20 C       -0.7460    -0.4490    -0.2810 C.3   1 <1>  -0.0600 
 21 C       -8.2250     0.5730    -0.5640 C.3   1 <1>   0.2630 
 22 C       -6.0250    -0.4420    -1.0630 C.3   1 <1>   0.2630 
 23 O        0.9020     3.6060    -1.6820 O.3   1 <1>  -0.2800 
 24 C        1.4130     4.1940    -0.6060 C.2   1 <1>  -0.0400 
 25 C        2.8330     4.7080    -0.6880 C.3   1 <1>  -0.0600 
 26 H       -3.3710     0.2600     2.7510 H     1 <1>   0.0800 
 27 H       -2.2650     1.0570     1.6950 H     1 <1>   0.0800 
 28 H       -6.1320     2.1720     1.9560 H     1 <1>   0.0800 
 29 H       -5.4580     0.9200     2.9400 H     1 <1>   0.0800 
 30 H       -2.1400     3.5940     1.4450 H     1 <1>   0.1500 
 31 H       -3.2410     1.8210    -2.2830 H     1 <1>   0.1500 
 32 H       -7.5010     0.1960     1.7690 H     1 <1>   0.0800 
 33 H       -6.1380    -0.7940     1.3530 H     1 <1>   0.0800 
 34 H       -0.9970     2.3640    -3.2080 H     1 <1>   0.1500 
 35 H       -6.3480     1.4440    -0.3460 H     1 <1>   0.4500 
 36 H        0.6330     4.6320     1.3910 H     1 <1>   0.1500 
 37 H       -4.0460    -3.6010     0.0260 H     1 <1>   0.1500 
 38 H       -1.7990    -2.9680    -0.9660 H     1 <1>   0.2700 
 39 H       -0.6580     0.5090     0.1960 H     1 <1>   0.0800 
 40 H       -0.7020    -0.3000    -1.3460 H     1 <1>   0.0800 
 41 H        0.0950    -1.0500     0.0170 H     1 <1>   0.0800 
 42 H       -8.6950    -0.3850    -0.4150 H     1 <1>   0.0800 
 43 H       -8.3310     0.8550    -1.5990 H     1 <1>   0.0800 
 44 H       -8.7280     1.3070     0.0430 H     1 <1>   0.0800 
 45 H       -6.3420    -1.4550    -0.8820 H     1 <1>   0.0800 
 46 H       -4.9710    -0.3690    -0.8470 H     1 <1>   0.0800 
 47 H       -6.1760    -0.2030    -2.1030 H     1 <1>   0.0800 
 48 H        3.1210     5.1610     0.2440 H     1 <1>   0.0800 
 49 H        2.9090     5.4400    -1.4710 H     1 <1>   0.0800 
 50 H        3.5020     3.8950    -0.9050 H     1 <1>   0.0800 
@<TRIPOS>BOND
  1   1   2  2   
  2   2   3  am  
  3   2   4  1   
  4   3   5  1   
  5   3   6  1   
  6   4   7  ar  
  7   4   8  ar  
  8   5   9  1   
  9   5  26  1   
 10   5  27  1   
 11   6  10  1   
 12   6  28  1   
 13   6  29  1   
 14   7  11  ar  
 15   7  30  1   
 16   8  12  ar  
 17   8  31  1   
 18   9  13  1   
 19   9  14  2   
 20  10  15  1   
 21  10  32  1   
 22  10  33  1   
 23  11  16  ar  
 24  11  17  1   
 25  12  16  ar  
 26  12  34  1   
 27  13  18  2   
 28  14  19  1   
 29  14  20  1   
 30  15  21  1   
 31  15  22  1   
 32  15  35  1   
 33  16  23  1   
 34  17  24  2   
 35  17  36  1   
 36  18  19  1   
 37  18  37  1   
 38  19  38  1   
 39  20  39  1   
 40  20  40  1   
 41  20  41  1   
 42  21  42  1   
 43  21  43  1   
 44  21  44  1   
 45  22  45  1   
 46  22  46  1   
 47  22  47  1   
 48  23  24  1   
 49  24  25  1   
 50  25  48  1   
 51  25  49  1   
 52  25  50  1   
@<TRIPOS>SUBSTRUCTURE
  1 ****   4 GROUP 4 **** **** 0

# MOE 2024.06 (io_trps.svl 2023.06)
