@<TRIPOS>MOLECULE
NONAME
44 46 1 0 0 
SMALL
USER_CHARGES


@<TRIPOS>ATOM
  1 S       -1.4640    -0.4540     0.9120 S.3   1 <1>  -0.3320 
  2 C       -0.9370    -2.1600     0.6750 C.ar  1 <1>   0.1020 
  3 C        0.0570     0.5940     0.8810 C.3   1 <1>  -0.0100 
  4 C       -1.9010    -3.1280     0.6590 C.ar  1 <1>  -0.1500 
  5 C        0.4110    -2.4940     0.5100 C.ar  1 <1>  -0.1500 
  6 C       -1.5730    -4.4790     0.4780 C.ar  1 <1>   0.3100 
  7 C        0.7600    -3.8060     0.3330 C.ar  1 <1>  -0.1500 
  8 N       -2.5870    -5.3780     0.4680 N.ar  1 <1>  -0.6200 
  9 C       -0.2110    -4.8330     0.3110 C.ar  1 <1>   0.0000 
 10 C       -2.2680    -6.6200     0.2910 C.ar  1 <1>   0.4100 
 11 C        0.0930    -6.2020     0.1340 C.ar  1 <1>  -0.1430 
 12 N       -3.3190    -7.4790     0.2660 N.pl3 1 <1>  -0.8690 
 13 C       -0.9480    -7.0780     0.1300 C.ar  1 <1>  -0.1500 
 14 C        1.5240    -6.6910    -0.0380 C.3   1 <1>  -0.0970 
 15 C       -3.5590    -8.2920    -0.9500 C.3   1 <1>   0.3900 
 16 C       -4.8480    -9.0910    -0.8290 C.2   1 <1>   0.1080 
 17 N       -5.6570    -9.3110    -1.8060 N.2   1 <1>  -0.4100 
 18 C       -5.3160    -9.6920     0.3380 C.2   1 <1>  -0.1500 
 19 O       -6.6280   -10.0270    -1.3170 O.3   1 <1>  -0.0190 
 20 C       -6.4640   -10.2750    -0.0440 C.2   1 <1>  -0.0400 
 21 C       -7.5020   -11.1030     0.6990 C.3   1 <1>   0.1000 
 22 C       -8.8360   -10.3510     0.7570 C.3   1 <1>  -0.2400 
 23 C       -7.0330   -11.4510     2.1170 C.3   1 <1>  -0.2400 
 24 H       -0.2510     1.6150     1.0220 H     1 <1>   0.0800 
 25 H        0.5290     0.4670    -0.0760 H     1 <1>   0.0800 
 26 H        0.6970     0.2750     1.6840 H     1 <1>   0.0800 
 27 H       -2.9360    -2.8700     0.7860 H     1 <1>   0.1500 
 28 H        1.1670    -1.7340     0.5230 H     1 <1>   0.1500 
 29 H        1.7960    -4.0610     0.2070 H     1 <1>   0.1500 
 30 H       -4.1700    -6.9730     0.5250 H     1 <1>   0.4000 
 31 H       -0.7970    -8.1330     0.0160 H     1 <1>   0.1500 
 32 H        1.9640    -6.2460    -0.9120 H     1 <1>   0.0800 
 33 H        1.5540    -7.7600    -0.1510 H     1 <1>   0.0800 
 34 H        2.1100    -6.4270     0.8250 H     1 <1>   0.0800 
 35 H       -2.7410    -8.9720    -1.1000 H     1 <1>   0.0800 
 36 H       -3.6240    -7.6410    -1.8060 H     1 <1>   0.0800 
 37 H       -4.8350    -9.6640     1.2980 H     1 <1>   0.1500 
 38 H       -7.6460   -12.0210     0.1540 H     1 <1>   0.0800 
 39 H       -8.7170    -9.4190     1.2810 H     1 <1>   0.0800 
 40 H       -9.5800   -10.9420     1.2610 H     1 <1>   0.0800 
 41 H       -9.1840   -10.1410    -0.2380 H     1 <1>   0.0800 
 42 H       -6.8890   -10.5560     2.6970 H     1 <1>   0.0800 
 43 H       -6.1040   -11.9900     2.0760 H     1 <1>   0.0800 
 44 H       -7.7630   -12.0680     2.6100 H     1 <1>   0.0800 
@<TRIPOS>BOND
  1   1   2  1   
  2   1   3  1   
  3   2   4  ar  
  4   2   5  ar  
  5   3  24  1   
  6   3  25  1   
  7   3  26  1   
  8   4   6  ar  
  9   4  27  1   
 10   5   7  ar  
 11   5  28  1   
 12   6   8  ar  
 13   6   9  ar  
 14   7   9  ar  
 15   7  29  1   
 16   8  10  ar  
 17   9  11  ar  
 18  10  12  1   
 19  10  13  ar  
 20  11  13  ar  
 21  11  14  1   
 22  12  15  1   
 23  12  30  1   
 24  13  31  1   
 25  14  32  1   
 26  14  33  1   
 27  14  34  1   
 28  15  16  1   
 29  15  35  1   
 30  15  36  1   
 31  16  17  2   
 32  16  18  1   
 33  17  19  1   
 34  18  20  2   
 35  18  37  1   
 36  19  20  1   
 37  20  21  1   
 38  21  22  1   
 39  21  23  1   
 40  21  38  1   
 41  22  39  1   
 42  22  40  1   
 43  22  41  1   
 44  23  42  1   
 45  23  43  1   
 46  23  44  1   
@<TRIPOS>SUBSTRUCTURE
  1 ****  10 GROUP 4 **** **** 0

# MOE 2024.06 (io_trps.svl 2023.06)
