@<TRIPOS>MOLECULE
NONAME
51 54 1 0 0 
SMALL
USER_CHARGES


@<TRIPOS>ATOM
  1 O        3.6480    -1.0000     0.9000 O.2   1 <1>  -0.5700 
  2 C        2.6840    -1.2740     0.2070 C.2   1 <1>   0.7160 
  3 N        2.2300    -0.3890    -0.7380 N.am  1 <1>  -0.4940 
  4 C        2.0210    -2.5470     0.3330 C.2   1 <1>  -0.0860 
  5 C        2.4430     0.9970    -0.9450 C.2   1 <1>  -0.0880 
  6 C        0.7430    -2.9670     0.0870 C.2   1 <1>  -0.3320 
  7 C        2.6590    -3.7060     0.7740 C.2   1 <1>   0.1390 
  8 N        3.5930     1.7280    -0.8280 N.pl3 1 <1>   0.3140 
  9 C        1.4820     1.8720    -1.3260 C.2   1 <1>  -0.1500 
 10 N        0.6740    -4.3110     0.3320 N.pl3 1 <1>   0.5930 
 11 C       -0.4630    -2.1350    -0.3460 C.3   1 <1>  -0.0600 
 12 N        1.8900    -4.7410     0.7770 N.2   1 <1>  -0.7070 
 13 N        3.3680     3.0370    -1.1060 N.2   1 <1>  -0.7070 
 14 C        4.9690     1.2730    -0.4920 C.3   1 <1>   0.1760 
 15 C        2.1090     3.1060    -1.4020 C.2   1 <1>   0.1390 
 16 C       -0.4510    -5.2020     0.2040 C.ar  1 <1>   0.2870 
 17 C        5.3200     1.7130     0.9390 C.3   1 <1>  -0.1600 
 18 C        6.0050     1.8240    -1.4880 C.3   1 <1>  -0.1600 
 19 N       -1.3250    -5.0140    -0.7970 N.ar  1 <1>  -0.6200 
 20 C       -0.5940    -6.2410     1.1240 C.ar  1 <1>  -0.1500 
 21 C        6.7430     1.3070     1.2990 C.3   1 <1>   0.3430 
 22 C        7.4200     1.4280    -1.0780 C.3   1 <1>   0.3430 
 23 C       -2.3330    -5.8670    -0.8690 C.ar  1 <1>   0.1600 
 24 C       -1.6510    -7.1180     1.0370 C.ar  1 <1>  -0.1500 
 25 N        7.6910     1.9020     0.3110 N.4   1 <1>  -0.9590 
 26 C       -2.5420    -6.9170     0.0060 C.ar  1 <1>  -0.1500 
 27 C        9.1080     1.6340     0.7030 C.3   1 <1>   0.2630 
 28 H        1.4450    -0.7770    -1.2630 H     1 <1>   0.3700 
 29 H        3.6930    -3.7370     1.0800 H     1 <1>   0.1500 
 30 H        0.4430     1.6870    -1.5280 H     1 <1>   0.1500 
 31 H       -0.2920    -1.0840    -0.2090 H     1 <1>   0.0800 
 32 H       -1.3230    -2.4000     0.2440 H     1 <1>   0.0800 
 33 H       -0.6930    -2.3240    -1.3810 H     1 <1>   0.0800 
 34 H        4.9960     0.2040    -0.5650 H     1 <1>   0.0800 
 35 H        1.6150     4.0250    -1.6760 H     1 <1>   0.1500 
 36 H        4.6410     1.2530     1.6350 H     1 <1>   0.0800 
 37 H        5.2160     2.7800     1.0350 H     1 <1>   0.0800 
 38 H        5.9480     2.8970    -1.5420 H     1 <1>   0.0800 
 39 H        5.7990     1.4320    -2.4680 H     1 <1>   0.0800 
 40 H        0.1340    -6.3580     1.9080 H     1 <1>   0.1500 
 41 H        6.8250     0.2320     1.2900 H     1 <1>   0.0800 
 42 H        6.9730     1.6580     2.2920 H     1 <1>   0.0800 
 43 H        8.1270     1.8680    -1.7640 H     1 <1>   0.0800 
 44 H        7.5250     0.3550    -1.1250 H     1 <1>   0.0800 
 45 H       -3.0350    -5.7220    -1.6730 H     1 <1>   0.1500 
 46 H       -1.7750    -7.9250     1.7400 H     1 <1>   0.1500 
 47 H        7.5370     2.9230     0.3190 H     1 <1>   0.4500 
 48 H       -3.3880    -7.5680    -0.1200 H     1 <1>   0.1500 
 49 H        9.3020     0.5740     0.7070 H     1 <1>   0.0800 
 50 H        9.3030     2.0250     1.6890 H     1 <1>   0.0800 
 51 H        9.7850     2.1070     0.0090 H     1 <1>   0.0800 
@<TRIPOS>BOND
  1   1   2  2   
  2   2   3  am  
  3   2   4  1   
  4   3   5  1   
  5   3  28  1   
  6   4   6  2   
  7   4   7  1   
  8   5   8  1   
  9   5   9  2   
 10   6  10  1   
 11   6  11  1   
 12   7  12  2   
 13   7  29  1   
 14   8  13  1   
 15   8  14  1   
 16   9  15  1   
 17   9  30  1   
 18  10  12  1   
 19  10  16  1   
 20  11  31  1   
 21  11  32  1   
 22  11  33  1   
 23  13  15  2   
 24  14  17  1   
 25  14  18  1   
 26  14  34  1   
 27  15  35  1   
 28  16  19  ar  
 29  16  20  ar  
 30  17  21  1   
 31  17  36  1   
 32  17  37  1   
 33  18  22  1   
 34  18  38  1   
 35  18  39  1   
 36  19  23  ar  
 37  20  24  ar  
 38  20  40  1   
 39  21  25  1   
 40  21  41  1   
 41  21  42  1   
 42  22  25  1   
 43  22  43  1   
 44  22  44  1   
 45  23  26  ar  
 46  23  45  1   
 47  24  26  ar  
 48  24  46  1   
 49  25  27  1   
 50  25  47  1   
 51  26  48  1   
 52  27  49  1   
 53  27  50  1   
 54  27  51  1   
@<TRIPOS>SUBSTRUCTURE
  1 ****   2 GROUP 4 **** **** 0

# MOE 2024.06 (io_trps.svl 2023.06)
