@<TRIPOS>MOLECULE
NONAME
51 54 1 0 0 
SMALL
USER_CHARGES


@<TRIPOS>ATOM
  1 O        2.0230     0.0600    -2.6060 O.2   1 <1>  -0.5700 
  2 C        2.3740    -0.7050    -1.7450 C.2   1 <1>   0.5690 
  3 N        1.7300    -0.7820    -0.5620 N.am  1 <1>  -0.7300 
  4 C        3.5630    -1.6170    -1.9530 C.3   1 <1>  -0.0990 
  5 C        2.1820    -1.6440     0.5490 C.3   1 <1>   0.1400 
  6 C        3.2490    -3.0260    -1.4120 C.3   1 <1>  -0.0800 
  7 C        2.6460    -3.0170     0.0140 C.3   1 <1>  -0.0800 
  8 C        4.4860    -3.9360    -1.3740 C.3   1 <1>  -0.1600 
  9 C        3.6990    -3.6690     0.9150 C.3   1 <1>  -0.1600 
 10 C        4.4650    -4.6120    -0.0050 C.3   1 <1>   0.2200 
 11 N        5.8200    -5.0020     0.4930 N.am  1 <1>  -0.6600 
 12 C        6.9450    -4.1920     0.5110 C.2   1 <1>   0.5440 
 13 C        5.9890    -6.4770     0.6380 C.3   1 <1>   0.0600 
 14 O        8.0250    -4.6910     0.2600 O.2   1 <1>  -0.5700 
 15 C        6.9000    -2.7810     0.8410 C.ar  1 <1>   0.0860 
 16 C        7.0760    -1.7990    -0.1300 C.ar  1 <1>  -0.1500 
 17 C        6.6950    -2.3630     2.1560 C.ar  1 <1>  -0.1500 
 18 C        7.0010    -0.4550     0.1860 C.ar  1 <1>   0.0820 
 19 C        6.6220    -1.0210     2.4840 C.ar  1 <1>  -0.1500 
 20 O        7.1450     0.4450    -0.8190 O.3   1 <1>  -0.1650 
 21 C        6.7640    -0.0620     1.4970 C.ar  1 <1>  -0.1500 
 22 C        7.7670     1.6350    -0.6240 C.ar  1 <1>   0.0820 
 23 C        7.2290     2.7630    -1.2230 C.ar  1 <1>  -0.1500 
 24 C        8.9250     1.7390     0.1390 C.ar  1 <1>  -0.1500 
 25 C        7.8360     3.9950    -1.0500 C.ar  1 <1>  -0.1500 
 26 C        9.5290     2.9730     0.3110 C.ar  1 <1>  -0.1500 
 27 C        8.9840     4.1000    -0.2820 C.ar  1 <1>  -0.1500 
 28 H        0.9560    -0.1340    -0.4050 H     1 <1>   0.3700 
 29 H        3.8000    -1.6640    -3.0000 H     1 <1>   0.0800 
 30 H        4.4000    -1.1900    -1.4330 H     1 <1>   0.0800 
 31 H        2.9960    -1.1420     1.0460 H     1 <1>   0.0800 
 32 H        1.3830    -1.7760     1.2580 H     1 <1>   0.0800 
 33 H        2.5170    -3.4660    -2.0700 H     1 <1>   0.0800 
 34 H        1.7860    -3.6660    -0.0010 H     1 <1>   0.0800 
 35 H        5.3770    -3.3560    -1.5060 H     1 <1>   0.0800 
 36 H        4.4450    -4.6730    -2.1560 H     1 <1>   0.0800 
 37 H        3.2490    -4.2000     1.7350 H     1 <1>   0.0800 
 38 H        4.3440    -2.9080     1.2980 H     1 <1>   0.0800 
 39 H        3.8650    -5.5010    -0.1080 H     1 <1>   0.0800 
 40 H        5.1930    -6.8830     1.2370 H     1 <1>   0.0800 
 41 H        6.9250    -6.7040     1.1190 H     1 <1>   0.0800 
 42 H        5.9800    -6.9390    -0.3340 H     1 <1>   0.0800 
 43 H        7.2780    -2.0910    -1.1450 H     1 <1>   0.1500 
 44 H        6.5880    -3.1100     2.9240 H     1 <1>   0.1500 
 45 H        6.4530    -0.7220     3.5040 H     1 <1>   0.1500 
 46 H        6.6930     0.9820     1.7470 H     1 <1>   0.1500 
 47 H        6.3390     2.6730    -1.8200 H     1 <1>   0.1500 
 48 H        9.3540     0.8630     0.5910 H     1 <1>   0.1500 
 49 H        7.4160     4.8710    -1.5130 H     1 <1>   0.1500 
 50 H       10.4240     3.0560     0.9030 H     1 <1>   0.1500 
 51 H        9.4540     5.0580    -0.1470 H     1 <1>   0.1500 
@<TRIPOS>BOND
  1   1   2  2   
  2   2   3  am  
  3   2   4  1   
  4   3   5  1   
  5   3  28  1   
  6   4   6  1   
  7   4  29  1   
  8   4  30  1   
  9   5   7  1   
 10   5  31  1   
 11   5  32  1   
 12   6   7  1   
 13   6   8  1   
 14   6  33  1   
 15   7   9  1   
 16   7  34  1   
 17   8  10  1   
 18   8  35  1   
 19   8  36  1   
 20   9  10  1   
 21   9  37  1   
 22   9  38  1   
 23  10  11  1   
 24  10  39  1   
 25  11  12  am  
 26  11  13  1   
 27  12  14  2   
 28  12  15  1   
 29  13  40  1   
 30  13  41  1   
 31  13  42  1   
 32  15  16  ar  
 33  15  17  ar  
 34  16  18  ar  
 35  16  43  1   
 36  17  19  ar  
 37  17  44  1   
 38  18  20  1   
 39  18  21  ar  
 40  19  21  ar  
 41  19  45  1   
 42  20  22  1   
 43  21  46  1   
 44  22  23  ar  
 45  22  24  ar  
 46  23  25  ar  
 47  23  47  1   
 48  24  26  ar  
 49  24  48  1   
 50  25  27  ar  
 51  25  49  1   
 52  26  27  ar  
 53  26  50  1   
 54  27  51  1   
@<TRIPOS>SUBSTRUCTURE
  1 ****  16 GROUP 4 **** **** 0

# MOE 2024.06 (io_trps.svl 2023.06)
