@<TRIPOS>MOLECULE
NONAME
53 55 1 0 0 
SMALL
USER_CHARGES


@<TRIPOS>ATOM
  1 S       -1.1740    -0.4040     0.5660 S.o2  1 <1>   1.3330 
  2 O       -0.7730    -1.6220    -0.1000 O.2   1 <1>  -0.6500 
  3 O       -0.1830     0.4650     1.1470 O.2   1 <1>  -0.6500 
  4 N       -2.1100     0.5090    -0.5690 N.am  1 <1>  -0.6930 
  5 C       -2.3950    -0.8250     1.7910 C.3   1 <1>  -0.1350 
  6 C       -2.8350     1.6430    -0.2090 C.ar  1 <1>   0.1990 
  7 C       -2.1070     0.0650    -1.9990 C.3   1 <1>   0.2570 
  8 C       -2.2310     2.7110     0.4460 C.ar  1 <1>  -0.1500 
  9 C       -4.1950     1.7270    -0.4920 C.ar  1 <1>  -0.1500 
 10 C       -3.0660    -1.0950    -2.2890 C.2   1 <1>   0.5690 
 11 C       -2.9580     3.8260     0.8250 C.ar  1 <1>  -0.1440 
 12 C       -4.9290     2.8390    -0.1230 C.ar  1 <1>  -0.1500 
 13 O       -4.1330    -0.8660    -2.8060 O.2   1 <1>  -0.5700 
 14 N       -2.7130    -2.3580    -1.9380 N.am  1 <1>  -0.7300 
 15 C       -4.3120     3.8870     0.5370 C.ar  1 <1>  -0.1500 
 16 C       -2.2840     4.9810     1.5430 C.3   1 <1>  -0.0970 
 17 C       -3.5990    -3.5400    -2.0130 C.3   1 <1>   0.2200 
 18 C       -4.2140    -3.7660    -0.6430 C.3   1 <1>  -0.0800 
 19 C       -2.7730    -4.8110    -2.2190 C.3   1 <1>   0.1200 
 20 C       -3.1190    -4.5800     0.0460 C.3   1 <1>   0.1200 
 21 C       -5.5430    -4.5360    -0.7300 C.3   1 <1>  -0.0170 
 22 O       -2.5310    -5.3550    -0.9530 O.3   1 <1>  -0.5600 
 23 C       -6.1780    -4.6740     0.6450 C.ar  1 <1>  -0.1430 
 24 C       -6.1220    -5.8490     1.3660 C.ar  1 <1>  -0.1500 
 25 C       -6.8420    -3.6220     1.2430 C.ar  1 <1>  -0.1500 
 26 C       -6.7070    -5.9110     2.6200 C.ar  1 <1>   0.1600 
 27 C       -7.3940    -3.7890     2.5030 C.ar  1 <1>   0.1600 
 28 N       -7.3380    -4.9070     3.2070 N.ar  1 <1>  -0.6200 
 29 H       -3.2050    -1.3610     1.3400 H     1 <1>   0.0800 
 30 H       -2.7810     0.0660     2.2470 H     1 <1>   0.0800 
 31 H       -1.9550    -1.4370     2.5530 H     1 <1>   0.0800 
 32 H       -2.3860     0.8940    -2.6240 H     1 <1>   0.0800 
 33 H       -1.1110    -0.2270    -2.2790 H     1 <1>   0.0800 
 34 H       -1.1770     2.6710     0.6540 H     1 <1>   0.1500 
 35 H       -4.6860     0.9190    -1.0020 H     1 <1>   0.1500 
 36 H       -5.9800     2.8900    -0.3490 H     1 <1>   0.1500 
 37 H       -1.8400    -2.4960    -1.4030 H     1 <1>   0.3700 
 38 H       -4.8880     4.7500     0.8230 H     1 <1>   0.1500 
 39 H       -2.8950     5.3180     2.3610 H     1 <1>   0.0800 
 40 H       -2.1350     5.7970     0.8600 H     1 <1>   0.0800 
 41 H       -1.3280     4.6810     1.9360 H     1 <1>   0.0800 
 42 H       -4.3320    -3.4020    -2.7910 H     1 <1>   0.0800 
 43 H       -4.3880    -2.8340    -0.1350 H     1 <1>   0.0800 
 44 H       -1.8360    -4.6160    -2.7100 H     1 <1>   0.0800 
 45 H       -3.3330    -5.5390    -2.7790 H     1 <1>   0.0800 
 46 H       -3.4870    -5.2230     0.8250 H     1 <1>   0.0800 
 47 H       -2.3560    -3.9330     0.4440 H     1 <1>   0.0800 
 48 H       -5.3850    -5.5100    -1.1590 H     1 <1>   0.0800 
 49 H       -6.2240    -4.0040    -1.3720 H     1 <1>   0.0800 
 50 H       -5.6270    -6.7160     0.9670 H     1 <1>   0.1500 
 51 H       -6.9350    -2.6760     0.7430 H     1 <1>   0.1500 
 52 H       -6.6530    -6.8360     3.1680 H     1 <1>   0.1500 
 53 H       -7.9080    -2.9580     2.9550 H     1 <1>   0.1500 
@<TRIPOS>BOND
  1   1   2  2   
  2   1   3  2   
  3   1   4  am  
  4   1   5  1   
  5   4   6  1   
  6   4   7  1   
  7   5  29  1   
  8   5  30  1   
  9   5  31  1   
 10   6   8  ar  
 11   6   9  ar  
 12   7  10  1   
 13   7  32  1   
 14   7  33  1   
 15   8  11  ar  
 16   8  34  1   
 17   9  12  ar  
 18   9  35  1   
 19  10  13  2   
 20  10  14  am  
 21  11  15  ar  
 22  11  16  1   
 23  12  15  ar  
 24  12  36  1   
 25  14  17  1   
 26  14  37  1   
 27  15  38  1   
 28  16  39  1   
 29  16  40  1   
 30  16  41  1   
 31  17  18  1   
 32  17  19  1   
 33  17  42  1   
 34  18  20  1   
 35  18  21  1   
 36  18  43  1   
 37  19  22  1   
 38  19  44  1   
 39  19  45  1   
 40  20  22  1   
 41  20  46  1   
 42  20  47  1   
 43  21  23  1   
 44  21  48  1   
 45  21  49  1   
 46  23  24  ar  
 47  23  25  ar  
 48  24  26  ar  
 49  24  50  1   
 50  25  27  ar  
 51  25  51  1   
 52  26  28  ar  
 53  26  52  1   
 54  27  28  ar  
 55  27  53  1   
@<TRIPOS>SUBSTRUCTURE
  1 ****   5 GROUP 4 **** **** 0

# MOE 2024.06 (io_trps.svl 2023.06)
