@<TRIPOS>MOLECULE
NONAME
47 49 1 0 0 
SMALL
USER_CHARGES


@<TRIPOS>ATOM
  1 O        2.5850    -1.0600     2.6340 O.2   1 <1>  -0.5700 
  2 C        2.3610    -1.1990     1.4430 C.2   1 <1>   0.5440 
  3 N        2.5860    -0.1140     0.6100 N.am  1 <1>  -0.6600 
  4 C        1.9320    -2.4960     0.9590 C.ar  1 <1>   0.0860 
  5 C        2.9040     1.2180     1.2130 C.3   1 <1>   0.1400 
  6 C        2.7590    -0.2920    -0.8660 C.3   1 <1>   0.1400 
  7 C        0.7550    -2.6770     0.2190 C.ar  1 <1>   0.0830 
  8 C        2.7110    -3.6190     1.2350 C.ar  1 <1>  -0.1500 
  9 C        4.4070     1.5900     1.1450 C.3   1 <1>   0.4230 
 10 C        4.0700     0.2880    -1.4380 C.3   1 <1>  -0.0800 
 11 O       -0.0050    -1.5860    -0.0430 O.3   1 <1>  -0.3630 
 12 C        0.3950    -3.9490    -0.2250 C.ar  1 <1>  -0.1500 
 13 C        2.3520    -4.8770     0.7940 C.ar  1 <1>  -0.1500 
 14 N        4.7790     2.3280    -0.1190 N.4   1 <1>  -0.9590 
 15 C        5.3820     0.4040     1.3800 C.3   1 <1>   0.1200 
 16 C        5.3670    -0.3840    -0.9350 C.3   1 <1>   0.1200 
 17 C        4.0990     1.8150    -1.3460 C.3   1 <1>   0.3430 
 18 C       -1.3260    -1.6800    -0.5240 C.3   1 <1>   0.1200 
 19 C        1.1910    -5.0420     0.0610 C.ar  1 <1>  -0.1500 
 20 C        4.5640     3.8010     0.0230 C.3   1 <1>   0.2630 
 21 O        5.3460    -0.6380     0.4340 O.3   1 <1>  -0.5600 
 22 C       -1.9140    -0.2730    -0.5540 C.3   1 <1>  -0.2400 
 23 H        2.3030     1.9750     0.7440 H     1 <1>   0.0800 
 24 H        2.6160     1.2160     2.2500 H     1 <1>   0.0800 
 25 H        2.7360    -1.3390    -1.1100 H     1 <1>   0.0800 
 26 H        1.9140     0.1600    -1.3580 H     1 <1>   0.0800 
 27 H        3.6130    -3.4920     1.8100 H     1 <1>   0.1500 
 28 H        4.5760     2.2680     1.9640 H     1 <1>   0.0800 
 29 H        4.0270     0.0790    -2.4920 H     1 <1>   0.0800 
 30 H       -0.4990    -4.1080    -0.7960 H     1 <1>   0.1500 
 31 H        2.9720    -5.7270     1.0210 H     1 <1>   0.1500 
 32 H        5.7850     2.1540    -0.2430 H     1 <1>   0.4500 
 33 H        5.1460    -0.0470     2.3290 H     1 <1>   0.0800 
 34 H        6.3940     0.7610     1.4350 H     1 <1>   0.0800 
 35 H        6.2460     0.1900    -1.1720 H     1 <1>   0.0800 
 36 H        5.4650    -1.3460    -1.4100 H     1 <1>   0.0800 
 37 H        3.0850     2.1800    -1.3820 H     1 <1>   0.0800 
 38 H        4.6130     2.2020    -2.2110 H     1 <1>   0.0800 
 39 H       -1.3030    -2.1040    -1.5130 H     1 <1>   0.0800 
 40 H       -1.8870    -2.3140     0.1430 H     1 <1>   0.0800 
 41 H        0.9090    -6.0230    -0.2840 H     1 <1>   0.1500 
 42 H        3.5170     4.0160     0.1650 H     1 <1>   0.0800 
 43 H        4.9050     4.3160    -0.8610 H     1 <1>   0.0800 
 44 H        5.1120     4.1800     0.8710 H     1 <1>   0.0800 
 45 H       -1.3420     0.3550    -1.2110 H     1 <1>   0.0800 
 46 H       -1.9150     0.1460     0.4360 H     1 <1>   0.0800 
 47 H       -2.9270    -0.3110    -0.9110 H     1 <1>   0.0800 
@<TRIPOS>BOND
  1   1   2  2   
  2   2   3  am  
  3   2   4  1   
  4   3   5  1   
  5   3   6  1   
  6   4   7  ar  
  7   4   8  ar  
  8   5   9  1   
  9   5  23  1   
 10   5  24  1   
 11   6  10  1   
 12   6  25  1   
 13   6  26  1   
 14   7  11  1   
 15   7  12  ar  
 16   8  13  ar  
 17   8  27  1   
 18   9  14  1   
 19   9  15  1   
 20   9  28  1   
 21  10  16  1   
 22  10  17  1   
 23  10  29  1   
 24  11  18  1   
 25  12  19  ar  
 26  12  30  1   
 27  13  19  ar  
 28  13  31  1   
 29  14  17  1   
 30  14  20  1   
 31  14  32  1   
 32  15  21  1   
 33  15  33  1   
 34  15  34  1   
 35  16  21  1   
 36  16  35  1   
 37  16  36  1   
 38  17  37  1   
 39  17  38  1   
 40  18  22  1   
 41  18  39  1   
 42  18  40  1   
 43  19  41  1   
 44  20  42  1   
 45  20  43  1   
 46  20  44  1   
 47  22  45  1   
 48  22  46  1   
 49  22  47  1   
@<TRIPOS>SUBSTRUCTURE
  1 ****   3 GROUP 4 **** **** 0

# MOE 2024.06 (io_trps.svl 2023.06)
