@<TRIPOS>MOLECULE
NONAME
52 55 1 0 0 
SMALL
USER_CHARGES


@<TRIPOS>ATOM
  1 CL       1.1820     0.5770    -1.8760 Cl    1 <1>  -0.1770 
  2 C        1.9020    -0.6760    -0.8900 C.ar  1 <1>   0.1770 
  3 C        2.5040    -0.3760     0.3270 C.ar  1 <1>   0.0830 
  4 C        1.8410    -1.9780    -1.3500 C.ar  1 <1>  -0.1500 
  5 O        2.5630     0.8820     0.8130 O.3   1 <1>  -0.3630 
  6 C        3.0380    -1.4050     1.0860 C.ar  1 <1>  -0.1500 
  7 C        2.3760    -3.0090    -0.5870 C.ar  1 <1>  -0.1430 
  8 C        3.5340     1.7380     0.2560 C.3   1 <1>   0.1200 
  9 C        2.9790    -2.7120     0.6310 C.ar  1 <1>  -0.1500 
 10 C        2.2940    -4.4440    -1.0760 C.3   1 <1>   0.4870 
 11 C        3.4450     3.0820     0.9730 C.3   1 <1>  -0.2400 
 12 N        1.2410    -5.1550    -0.3030 N.4   1 <1>  -0.9590 
 13 C       -0.1260    -4.5550    -0.5260 C.3   1 <1>   0.3430 
 14 C        1.2320    -6.6280    -0.6090 C.3   1 <1>   0.3430 
 15 C       -1.2320    -5.3260     0.2250 C.3   1 <1>   0.1900 
 16 C        0.1040    -7.3690     0.1360 C.3   1 <1>   0.1100 
 17 N       -1.2150    -6.7650    -0.1470 N.3   1 <1>  -0.8100 
 18 C       -2.6080    -4.7020    -0.0750 C.3   1 <1>   0.1200 
 19 C       -2.3410    -7.4780     0.5170 C.3   1 <1>   0.2850 
 20 O       -3.5970    -5.3950     0.6190 O.3   1 <1>  -0.5600 
 21 C       -2.4480    -8.9170    -0.0110 C.3   1 <1>  -0.1950 
 22 C       -3.6800    -6.7490     0.2650 C.3   1 <1>   0.1200 
 23 C       -3.2540    -9.9380     0.7320 C.3   1 <1>  -0.2000 
 24 C       -1.7620   -10.0730     0.6560 C.3   1 <1>  -0.2000 
 25 H        1.3740    -2.1620    -2.3020 H     1 <1>   0.1500 
 26 H        3.4980    -1.1700     2.0310 H     1 <1>   0.1500 
 27 H        4.5030     1.2930     0.3970 H     1 <1>   0.0800 
 28 H        3.3360     1.8550    -0.7950 H     1 <1>   0.0800 
 29 H        3.4130    -3.4870     1.2400 H     1 <1>   0.1500 
 30 H        3.2490    -4.9230    -0.9310 H     1 <1>   0.0800 
 31 H        2.0600    -4.4620    -2.1280 H     1 <1>   0.0800 
 32 H        3.6330     2.9540     2.0240 H     1 <1>   0.0800 
 33 H        2.4680     3.5100     0.8330 H     1 <1>   0.0800 
 34 H        4.1770     3.7580     0.5720 H     1 <1>   0.0800 
 35 H        1.4590    -5.0340     0.6930 H     1 <1>   0.4500 
 36 H       -0.1320    -3.5280    -0.1970 H     1 <1>   0.0800 
 37 H       -0.3620    -4.5690    -1.5770 H     1 <1>   0.0800 
 38 H        1.0860    -6.7780    -1.6660 H     1 <1>   0.0800 
 39 H        2.1790    -7.0670    -0.3390 H     1 <1>   0.0800 
 40 H       -1.0590    -5.2270     1.2830 H     1 <1>   0.0800 
 41 H        0.2940    -7.3640     1.1960 H     1 <1>   0.0800 
 42 H        0.1120    -8.3920    -0.1980 H     1 <1>   0.0800 
 43 H       -2.8340    -4.7410    -1.1270 H     1 <1>   0.0800 
 44 H       -2.6430    -3.6780     0.2540 H     1 <1>   0.0800 
 45 H       -2.1760    -7.5060     1.5810 H     1 <1>   0.0800 
 46 H       -2.5380    -8.9410    -1.0830 H     1 <1>   0.1000 
 47 H       -4.4590    -7.1940     0.8560 H     1 <1>   0.0800 
 48 H       -3.9570    -6.8170    -0.7730 H     1 <1>   0.0800 
 49 H       -3.6940    -9.6860     1.6820 H     1 <1>   0.1000 
 50 H       -3.8630   -10.6270     0.1700 H     1 <1>   0.1000 
 51 H       -1.3520   -10.8590     0.0450 H     1 <1>   0.1000 
 52 H       -1.1990    -9.9170     1.5590 H     1 <1>   0.1000 
@<TRIPOS>BOND
  1   1   2  1   
  2   2   3  ar  
  3   2   4  ar  
  4   3   5  1   
  5   3   6  ar  
  6   4   7  ar  
  7   4  25  1   
  8   5   8  1   
  9   6   9  ar  
 10   6  26  1   
 11   7   9  ar  
 12   7  10  1   
 13   8  11  1   
 14   8  27  1   
 15   8  28  1   
 16   9  29  1   
 17  10  12  1   
 18  10  30  1   
 19  10  31  1   
 20  11  32  1   
 21  11  33  1   
 22  11  34  1   
 23  12  13  1   
 24  12  14  1   
 25  12  35  1   
 26  13  15  1   
 27  13  36  1   
 28  13  37  1   
 29  14  16  1   
 30  14  38  1   
 31  14  39  1   
 32  15  17  1   
 33  15  18  1   
 34  15  40  1   
 35  16  17  1   
 36  16  41  1   
 37  16  42  1   
 38  17  19  1   
 39  18  20  1   
 40  18  43  1   
 41  18  44  1   
 42  19  21  1   
 43  19  22  1   
 44  19  45  1   
 45  20  22  1   
 46  21  23  1   
 47  21  24  1   
 48  21  46  1   
 49  22  47  1   
 50  22  48  1   
 51  23  24  1   
 52  23  49  1   
 53  23  50  1   
 54  24  51  1   
 55  24  52  1   
@<TRIPOS>SUBSTRUCTURE
  1 ****  13 GROUP 4 **** **** 0

# MOE 2024.06 (io_trps.svl 2023.06)
