@<TRIPOS>MOLECULE
NONAME
54 57 1 0 0 
SMALL
USER_CHARGES


@<TRIPOS>ATOM
  1 O        0.8170     0.5740    -1.3560 O.2   1 <1>  -0.5700 
  2 C        1.7790     0.3390    -0.6690 C.2   1 <1>   0.5950 
  3 C        2.3580    -0.9740    -0.5620 C.2   1 <1>  -0.0860 
  4 C        2.3860     1.4790     0.1170 C.3   1 <1>  -0.1790 
  5 C        3.3700    -1.4440     0.2390 C.2   1 <1>  -0.3020 
  6 C        1.9530    -2.0890    -1.3160 C.2   1 <1>  -0.1500 
  7 N        3.5910    -2.7580     0.0190 N.pl3 1 <1>   0.0480 
  8 C        2.7010    -3.1560    -0.9370 C.2   1 <1>  -0.3320 
  9 C        4.6510    -3.5510     0.6750 C.3   1 <1>   0.0160 
 10 C        2.5930    -4.5630    -1.4740 C.3   1 <1>   0.5230 
 11 N        1.7250    -5.3090    -0.5390 N.4   1 <1>  -0.9590 
 12 C        0.3140    -4.7700    -0.5620 C.3   1 <1>   0.3430 
 13 C        1.7450    -6.7860    -0.8120 C.3   1 <1>   0.3430 
 14 C       -0.6330    -5.5710     0.3570 C.3   1 <1>   0.1900 
 15 C        0.7780    -7.5540     0.1100 C.3   1 <1>   0.1100 
 16 N       -0.5930    -7.0120     0.0080 N.3   1 <1>  -0.8100 
 17 C       -2.0720    -5.0300     0.2500 C.3   1 <1>   0.1200 
 18 C       -1.5670    -7.7730     0.8340 C.3   1 <1>   0.3330 
 19 O       -2.9140    -5.7630     1.0870 O.3   1 <1>  -0.5600 
 20 C       -1.6360    -9.2250     0.3670 C.ar  1 <1>  -0.1430 
 21 C       -2.9690    -7.1290     0.7690 C.3   1 <1>   0.1200 
 22 C       -1.4680   -10.2580     1.2790 C.ar  1 <1>  -0.1500 
 23 C       -1.8610    -9.5330    -0.9680 C.ar  1 <1>  -0.1500 
 24 C       -1.5190   -11.5760     0.8610 C.ar  1 <1>  -0.1500 
 25 C       -1.9130   -10.8510    -1.3860 C.ar  1 <1>  -0.1500 
 26 C       -1.7410   -11.8740    -0.4710 C.ar  1 <1>  -0.1500 
 27 H        3.4390     1.5410    -0.0850 H     1 <1>   0.0800 
 28 H        2.2300     1.3160     1.1670 H     1 <1>   0.0800 
 29 H        1.9220     2.4060    -0.1660 H     1 <1>   0.0800 
 30 H        3.9430    -0.8790     0.9540 H     1 <1>   0.1500 
 31 H        1.1710    -2.0350    -2.0580 H     1 <1>   0.1500 
 32 H        5.2570    -2.9040     1.2830 H     1 <1>   0.0800 
 33 H        5.2740    -4.0080    -0.0720 H     1 <1>   0.0800 
 34 H        4.2090    -4.3050     1.2980 H     1 <1>   0.0800 
 35 H        3.5710    -5.0120    -1.5340 H     1 <1>   0.0800 
 36 H        2.1540    -4.5510    -2.4590 H     1 <1>   0.0800 
 37 H        2.0870    -5.1330     0.4030 H     1 <1>   0.4500 
 38 H        0.3110    -3.7390    -0.2510 H     1 <1>   0.0800 
 39 H       -0.0740    -4.8140    -1.5660 H     1 <1>   0.0800 
 40 H        1.4490    -6.9710    -1.8310 H     1 <1>   0.0800 
 41 H        2.7420    -7.1740    -0.6790 H     1 <1>   0.0800 
 42 H       -0.3120    -5.4360     1.3760 H     1 <1>   0.0800 
 43 H        1.1220    -7.5060     1.1290 H     1 <1>   0.0800 
 44 H        0.7820    -8.5890    -0.1890 H     1 <1>   0.0800 
 45 H       -2.4420    -5.1010    -0.7590 H     1 <1>   0.0800 
 46 H       -2.1180    -4.0030     0.5670 H     1 <1>   0.0800 
 47 H       -1.2490    -7.7530     1.8630 H     1 <1>   0.0800 
 48 H       -3.6260    -7.6060     1.4750 H     1 <1>   0.0800 
 49 H       -3.3900    -7.2370    -0.2150 H     1 <1>   0.0800 
 50 H       -1.2980   -10.0460     2.3200 H     1 <1>   0.1500 
 51 H       -1.9930    -8.7440    -1.6870 H     1 <1>   0.1500 
 52 H       -1.3880   -12.3730     1.5730 H     1 <1>   0.1500 
 53 H       -2.0890   -11.0820    -2.4230 H     1 <1>   0.1500 
 54 H       -1.7810   -12.8990    -0.7950 H     1 <1>   0.1500 
@<TRIPOS>BOND
  1   1   2  2   
  2   2   3  1   
  3   2   4  1   
  4   3   5  2   
  5   3   6  1   
  6   4  27  1   
  7   4  28  1   
  8   4  29  1   
  9   5   7  1   
 10   5  30  1   
 11   6   8  2   
 12   6  31  1   
 13   7   8  1   
 14   7   9  1   
 15   8  10  1   
 16   9  32  1   
 17   9  33  1   
 18   9  34  1   
 19  10  11  1   
 20  10  35  1   
 21  10  36  1   
 22  11  12  1   
 23  11  13  1   
 24  11  37  1   
 25  12  14  1   
 26  12  38  1   
 27  12  39  1   
 28  13  15  1   
 29  13  40  1   
 30  13  41  1   
 31  14  16  1   
 32  14  17  1   
 33  14  42  1   
 34  15  16  1   
 35  15  43  1   
 36  15  44  1   
 37  16  18  1   
 38  17  19  1   
 39  17  45  1   
 40  17  46  1   
 41  18  20  1   
 42  18  21  1   
 43  18  47  1   
 44  19  21  1   
 45  20  22  ar  
 46  20  23  ar  
 47  21  48  1   
 48  21  49  1   
 49  22  24  ar  
 50  22  50  1   
 51  23  25  ar  
 52  23  51  1   
 53  24  26  ar  
 54  24  52  1   
 55  25  26  ar  
 56  25  53  1   
 57  26  54  1   
@<TRIPOS>SUBSTRUCTURE
  1 ****  12 GROUP 4 **** **** 0

# MOE 2024.06 (io_trps.svl 2023.06)
