@<TRIPOS>MOLECULE
NONAME
52 56 1 0 0 
SMALL
USER_CHARGES


@<TRIPOS>ATOM
  1 O       -2.3190     0.2470     0.6770 O.2   1 <1>  -0.5700 
  2 C       -2.2580     0.9920    -0.2900 C.2   1 <1>   0.7150 
  3 N       -3.1450     0.7210    -1.3070 N.am  1 <1>  -0.6600 
  4 C       -1.3810     2.1350    -0.3510 C.2   1 <1>   0.0550 
  5 C       -4.4850     1.3770    -1.2070 C.3   1 <1>   0.1400 
  6 C       -3.2380    -0.6960    -1.7940 C.3   1 <1>   0.1400 
  7 O       -0.7140     2.5440     0.7290 O.3   1 <1>  -0.2800 
  8 C       -1.0740     2.9690    -1.3890 C.2   1 <1>  -0.1500 
  9 C       -5.4240     0.6100    -0.2310 C.3   1 <1>   0.4230 
 10 C       -4.3780    -1.4840    -1.1010 C.3   1 <1>   0.3430 
 11 C        0.0010     3.5970     0.4050 C.2   1 <1>   0.2030 
 12 C       -0.1780     3.9180    -0.8980 C.2   1 <1>  -0.1500 
 13 N       -4.8820    -0.7600     0.1170 N.4   1 <1>  -0.9590 
 14 C       -6.8590     0.5130    -0.7960 C.3   1 <1>   0.1200 
 15 O        0.7540     4.1700     1.3680 O.3   1 <1>  -0.1450 
 16 C       -5.8420    -1.5170     0.9780 C.3   1 <1>   0.5180 
 17 O       -7.6830    -0.2130     0.0710 O.3   1 <1>  -0.5600 
 18 C        1.7710     5.0010     1.0370 C.ar  1 <1>   0.0820 
 19 C       -5.2710    -2.9170     1.2810 C.3   1 <1>  -0.1950 
 20 C       -7.2570    -1.5210     0.3480 C.3   1 <1>   0.1200 
 21 C        1.8640     6.2250     1.6810 C.ar  1 <1>  -0.1500 
 22 C        2.7190     4.6420     0.0870 C.ar  1 <1>  -0.1500 
 23 C       -5.4740    -4.1330     0.4230 C.3   1 <1>  -0.2000 
 24 C       -6.1150    -4.0510     1.7790 C.3   1 <1>  -0.2000 
 25 C        2.8900     7.0970     1.3640 C.ar  1 <1>  -0.1500 
 26 C        3.7440     5.5170    -0.2290 C.ar  1 <1>  -0.1500 
 27 C        3.8280     6.7440     0.4070 C.ar  1 <1>  -0.1500 
 28 H       -4.3730     2.3930    -0.8650 H     1 <1>   0.0800 
 29 H       -4.9230     1.4220    -2.1900 H     1 <1>   0.0800 
 30 H       -3.3870    -0.7040    -2.8610 H     1 <1>   0.0800 
 31 H       -2.3050    -1.1980    -1.6020 H     1 <1>   0.0800 
 32 H       -1.4360     2.9240    -2.4010 H     1 <1>   0.1500 
 33 H       -5.4840     1.1900     0.6760 H     1 <1>   0.0800 
 34 H       -4.0020    -2.4560    -0.8300 H     1 <1>   0.0800 
 35 H       -5.1870    -1.6300    -1.7980 H     1 <1>   0.0800 
 36 H        0.2650     4.7280    -1.4500 H     1 <1>   0.1500 
 37 H       -4.0240    -0.5770     0.6780 H     1 <1>   0.4500 
 38 H       -6.8720     0.0340    -1.7600 H     1 <1>   0.0800 
 39 H       -7.2860     1.4960    -0.8980 H     1 <1>   0.0800 
 40 H       -5.9290    -1.0020     1.9210 H     1 <1>   0.0800 
 41 H       -4.3200    -2.8270     1.7800 H     1 <1>   0.1000 
 42 H       -7.9650    -1.9480     1.0350 H     1 <1>   0.0800 
 43 H       -7.2800    -2.0910    -0.5640 H     1 <1>   0.0800 
 44 H        1.1330     6.4900     2.4240 H     1 <1>   0.1500 
 45 H        2.6610     3.6840    -0.3970 H     1 <1>   0.1500 
 46 H       -6.1310    -4.1240    -0.4290 H     1 <1>   0.1000 
 47 H       -4.6600    -4.8290     0.2970 H     1 <1>   0.1000 
 48 H       -5.7270    -4.6800     2.5640 H     1 <1>   0.1000 
 49 H       -7.1890    -3.9790     1.8230 H     1 <1>   0.1000 
 50 H        2.9610     8.0500     1.8610 H     1 <1>   0.1500 
 51 H        4.4780     5.2420    -0.9670 H     1 <1>   0.1500 
 52 H        4.6260     7.4240     0.1610 H     1 <1>   0.1500 
@<TRIPOS>BOND
  1   1   2  2   
  2   2   3  am  
  3   2   4  1   
  4   3   5  1   
  5   3   6  1   
  6   4   7  1   
  7   4   8  2   
  8   5   9  1   
  9   5  28  1   
 10   5  29  1   
 11   6  10  1   
 12   6  30  1   
 13   6  31  1   
 14   7  11  1   
 15   8  12  1   
 16   8  32  1   
 17   9  13  1   
 18   9  14  1   
 19   9  33  1   
 20  10  13  1   
 21  10  34  1   
 22  10  35  1   
 23  11  12  2   
 24  11  15  1   
 25  12  36  1   
 26  13  16  1   
 27  13  37  1   
 28  14  17  1   
 29  14  38  1   
 30  14  39  1   
 31  15  18  1   
 32  16  19  1   
 33  16  20  1   
 34  16  40  1   
 35  17  20  1   
 36  18  21  ar  
 37  18  22  ar  
 38  19  23  1   
 39  19  24  1   
 40  19  41  1   
 41  20  42  1   
 42  20  43  1   
 43  21  25  ar  
 44  21  44  1   
 45  22  26  ar  
 46  22  45  1   
 47  23  24  1   
 48  23  46  1   
 49  23  47  1   
 50  24  48  1   
 51  24  49  1   
 52  25  27  ar  
 53  25  50  1   
 54  26  27  ar  
 55  26  51  1   
 56  27  52  1   
@<TRIPOS>SUBSTRUCTURE
  1 ****   2 GROUP 4 **** **** 0

# MOE 2024.06 (io_trps.svl 2023.06)
