@<TRIPOS>MOLECULE
NONAME
54 57 1 0 0 
SMALL
USER_CHARGES


@<TRIPOS>ATOM
  1 O        2.3260    -0.5300    -1.0220 O.2   1 <1>  -0.5700 
  2 C        1.6220    -1.4560    -0.6520 C.2   1 <1>   0.5440 
  3 N        0.6060    -1.1610     0.2400 N.am  1 <1>  -0.6600 
  4 C        1.8620    -2.7940    -1.1950 C.ar  1 <1>   0.3960 
  5 C        0.3940     0.1930     0.7980 C.3   1 <1>   0.1400 
  6 C       -0.4590    -2.0890     0.6890 C.3   1 <1>   0.1400 
  7 N        1.5810    -3.8910    -0.4720 N.ar  1 <1>  -0.6200 
  8 C        2.3810    -2.8980    -2.4910 C.ar  1 <1>   0.1600 
  9 C       -0.7380     0.0290     1.8070 C.3   1 <1>  -0.1600 
 10 C       -1.5140    -1.1940     1.3250 C.3   1 <1>  -0.1600 
 11 C        1.7900    -5.0170    -1.1100 C.ar  1 <1>   0.4100 
 12 N        2.6200    -4.0310    -3.1420 N.ar  1 <1>  -0.6200 
 13 N        1.4270    -6.1120    -0.3860 N.pl3 1 <1>  -0.8690 
 14 C        2.3120    -5.0820    -2.4100 C.ar  1 <1>   0.1600 
 15 C        0.1630    -6.7710    -0.7580 C.3   1 <1>   0.5760 
 16 C       -0.9680    -6.0520    -0.0110 C.ar  1 <1>  -0.1430 
 17 C        0.2070    -8.2770    -0.5030 C.ar  1 <1>  -0.1430 
 18 C       -1.1850    -6.1520     1.3660 C.ar  1 <1>  -0.1430 
 19 C       -1.8120    -5.2460    -0.7670 C.ar  1 <1>  -0.1500 
 20 C       -0.9850    -8.9900    -0.4580 C.ar  1 <1>   0.1600 
 21 C        1.3920    -8.9750    -0.3310 C.ar  1 <1>  -0.1500 
 22 C       -2.2370    -5.4540     1.9390 C.ar  1 <1>  -0.1500 
 23 C       -0.3310    -7.0090     2.2970 C.3   1 <1>  -0.0970 
 24 C       -2.8570    -4.5490    -0.1880 C.ar  1 <1>  -0.1430 
 25 N       -1.0880   -10.2930    -0.2560 N.ar  1 <1>  -0.6200 
 26 C        1.3020   -10.3330    -0.1180 C.ar  1 <1>  -0.1500 
 27 C       -3.0680    -4.6600     1.1730 C.ar  1 <1>  -0.1500 
 28 C       -3.7580    -3.6740    -1.0400 C.3   1 <1>  -0.0970 
 29 C        0.0560   -10.9340    -0.0900 C.ar  1 <1>   0.1600 
 30 H        0.1030     0.8570     0.0020 H     1 <1>   0.0800 
 31 H        1.2940     0.5590     1.2620 H     1 <1>   0.0800 
 32 H       -0.0530    -2.7690     1.4200 H     1 <1>   0.0800 
 33 H       -0.8610    -2.6470    -0.1380 H     1 <1>   0.0800 
 34 H        2.6060    -1.9850    -3.0160 H     1 <1>   0.1500 
 35 H       -1.3520     0.9100     1.8640 H     1 <1>   0.0800 
 36 H       -0.3130    -0.1660     2.7760 H     1 <1>   0.0800 
 37 H       -2.0310    -1.6970     2.1230 H     1 <1>   0.0800 
 38 H       -2.2260    -0.9050     0.5720 H     1 <1>   0.0800 
 39 H        1.3090    -5.8190     0.5870 H     1 <1>   0.4000 
 40 H        2.4710    -6.0550    -2.8360 H     1 <1>   0.1500 
 41 H        0.0120    -6.6440    -1.8170 H     1 <1>   0.0800 
 42 H       -1.6560    -5.1480    -1.8280 H     1 <1>   0.1500 
 43 H       -1.9140    -8.4600    -0.5900 H     1 <1>   0.1500 
 44 H        2.3520    -8.4880    -0.3590 H     1 <1>   0.1500 
 45 H       -2.4220    -5.5280     2.9970 H     1 <1>   0.1500 
 46 H        0.7100    -6.9600     2.0430 H     1 <1>   0.0800 
 47 H       -0.6510    -8.0350     2.2460 H     1 <1>   0.0800 
 48 H       -0.4310    -6.6790     3.3160 H     1 <1>   0.0800 
 49 H        2.1890   -10.9240     0.0240 H     1 <1>   0.1500 
 50 H       -3.8780    -4.1310     1.6430 H     1 <1>   0.1500 
 51 H       -3.1800    -3.1540    -1.7820 H     1 <1>   0.0800 
 52 H       -4.2650    -2.9450    -0.4340 H     1 <1>   0.0800 
 53 H       -4.4930    -4.2830    -1.5350 H     1 <1>   0.0800 
 54 H       -0.0020   -11.9960     0.0760 H     1 <1>   0.1500 
@<TRIPOS>BOND
  1   1   2  2   
  2   2   3  am  
  3   2   4  1   
  4   3   5  1   
  5   3   6  1   
  6   4   7  ar  
  7   4   8  ar  
  8   5   9  1   
  9   5  30  1   
 10   5  31  1   
 11   6  10  1   
 12   6  32  1   
 13   6  33  1   
 14   7  11  ar  
 15   8  12  ar  
 16   8  34  1   
 17   9  10  1   
 18   9  35  1   
 19   9  36  1   
 20  10  37  1   
 21  10  38  1   
 22  11  13  1   
 23  11  14  ar  
 24  12  14  ar  
 25  13  15  1   
 26  13  39  1   
 27  14  40  1   
 28  15  16  1   
 29  15  17  1   
 30  15  41  1   
 31  16  18  ar  
 32  16  19  ar  
 33  17  20  ar  
 34  17  21  ar  
 35  18  22  ar  
 36  18  23  1   
 37  19  24  ar  
 38  19  42  1   
 39  20  25  ar  
 40  20  43  1   
 41  21  26  ar  
 42  21  44  1   
 43  22  27  ar  
 44  22  45  1   
 45  23  46  1   
 46  23  47  1   
 47  23  48  1   
 48  24  27  ar  
 49  24  28  1   
 50  25  29  ar  
 51  26  29  ar  
 52  26  49  1   
 53  27  50  1   
 54  28  51  1   
 55  28  52  1   
 56  28  53  1   
 57  29  54  1   
@<TRIPOS>SUBSTRUCTURE
  1 ****  16 GROUP 4 **** **** 0

# MOE 2024.06 (io_trps.svl 2023.06)
