@<TRIPOS>MOLECULE
NONAME
52 55 1 0 0 
SMALL
USER_CHARGES


@<TRIPOS>ATOM
  1 O        2.2930     0.2710    -1.5420 O.2   1 <1>  -0.5700 
  2 C        2.5140    -0.3430    -0.5160 C.2   1 <1>   0.5440 
  3 N        2.9090     0.3450     0.6140 N.am  1 <1>  -0.6600 
  4 C        2.3570    -1.7750    -0.5280 C.ar  1 <1>   0.0860 
  5 C        3.5460    -0.3380     1.7950 C.3   1 <1>   0.1400 
  6 C        2.9410     1.8370     0.6140 C.3   1 <1>   0.1400 
  7 C        3.0160    -2.5770    -1.4360 C.ar  1 <1>   0.1600 
  8 C        1.5340    -2.4400     0.3590 C.ar  1 <1>   0.1600 
  9 C        4.8920     0.2750     2.2180 C.3   1 <1>   0.1400 
 10 C        4.2060     2.3700    -0.0810 C.3   1 <1>  -0.1600 
 11 N        2.8960    -3.8880    -1.4600 N.ar  1 <1>  -0.6200 
 12 N        1.3940    -3.7480     0.3720 N.ar  1 <1>  -0.6200 
 13 N        5.6860     0.7010     1.0330 N.am  1 <1>  -0.6600 
 14 C        5.5190     2.1340     0.6760 C.3   1 <1>   0.1400 
 15 C        2.0870    -4.4040    -0.5470 C.ar  1 <1>   0.5880 
 16 C        6.3260    -0.2390     0.2630 C.2   1 <1>   0.5690 
 17 C        1.9460    -5.9200    -0.5500 C.3   1 <1>  -0.0680 
 18 O        6.3420    -1.4040     0.5920 O.2   1 <1>  -0.5700 
 19 C        7.0090     0.1240    -1.0500 C.3   1 <1>   0.0440 
 20 C        1.5060    -6.6560    -1.7840 C.3   1 <1>  -0.2000 
 21 C        0.5960    -6.5790    -0.5980 C.3   1 <1>  -0.2000 
 22 C        8.2510     0.9970    -0.8850 C.ar  1 <1>  -0.1440 
 23 C        9.1850     0.7100     0.1010 C.ar  1 <1>  -0.1500 
 24 C        8.4580     2.0840    -1.7240 C.ar  1 <1>  -0.1500 
 25 C       10.3070     1.5050     0.2540 C.ar  1 <1>  -0.1500 
 26 C        9.5800     2.8810    -1.5750 C.ar  1 <1>  -0.1500 
 27 C       10.5010     2.5880    -0.5830 C.ar  1 <1>   0.0820 
 28 O       11.5920     3.3520    -0.4260 O.3   1 <1>  -0.5330 
 29 H        3.7360    -1.3720     1.5650 H     1 <1>   0.0800 
 30 H        2.8680    -0.3130     2.6290 H     1 <1>   0.0800 
 31 H        2.8800     2.2080     1.6220 H     1 <1>   0.0800 
 32 H        2.0760     2.1990     0.0820 H     1 <1>   0.0800 
 33 H        3.6620    -2.1140    -2.1630 H     1 <1>   0.1500 
 34 H        0.9760    -1.8680     1.0810 H     1 <1>   0.1500 
 35 H        5.4500    -0.4540     2.7820 H     1 <1>   0.0800 
 36 H        4.7180     1.1150     2.8660 H     1 <1>   0.0800 
 37 H        4.0900     3.4310    -0.2110 H     1 <1>   0.0800 
 38 H        4.2760     1.9470    -1.0660 H     1 <1>   0.0800 
 39 H        5.5290     2.7240     1.5760 H     1 <1>   0.0800 
 40 H        6.3450     2.4700     0.0750 H     1 <1>   0.0800 
 41 H        2.7020    -6.3830     0.0570 H     1 <1>   0.1000 
 42 H        6.2890     0.6100    -1.6800 H     1 <1>   0.0800 
 43 H        7.2990    -0.7850    -1.5440 H     1 <1>   0.0800 
 44 H        1.9850    -7.5900    -2.0190 H     1 <1>   0.1000 
 45 H        1.2680    -6.0810    -2.6620 H     1 <1>   0.1000 
 46 H       -0.2770    -5.9520    -0.6520 H     1 <1>   0.1000 
 47 H        0.4370    -7.4590     0.0000 H     1 <1>   0.1000 
 48 H        9.0440    -0.1350     0.7560 H     1 <1>   0.1500 
 49 H        7.7480     2.3140    -2.4990 H     1 <1>   0.1500 
 50 H       11.0330     1.2890     1.0170 H     1 <1>   0.1500 
 51 H        9.7310     3.7200    -2.2290 H     1 <1>   0.1500 
 52 H       11.6500     4.0760    -1.0730 H     1 <1>   0.4500 
@<TRIPOS>BOND
  1   1   2  2   
  2   2   3  am  
  3   2   4  1   
  4   3   5  1   
  5   3   6  1   
  6   4   7  ar  
  7   4   8  ar  
  8   5   9  1   
  9   5  29  1   
 10   5  30  1   
 11   6  10  1   
 12   6  31  1   
 13   6  32  1   
 14   7  11  ar  
 15   7  33  1   
 16   8  12  ar  
 17   8  34  1   
 18   9  13  1   
 19   9  35  1   
 20   9  36  1   
 21  10  14  1   
 22  10  37  1   
 23  10  38  1   
 24  11  15  ar  
 25  12  15  ar  
 26  13  14  1   
 27  13  16  am  
 28  14  39  1   
 29  14  40  1   
 30  15  17  1   
 31  16  18  2   
 32  16  19  1   
 33  17  20  1   
 34  17  21  1   
 35  17  41  1   
 36  19  22  1   
 37  19  42  1   
 38  19  43  1   
 39  20  21  1   
 40  20  44  1   
 41  20  45  1   
 42  21  46  1   
 43  21  47  1   
 44  22  23  ar  
 45  22  24  ar  
 46  23  25  ar  
 47  23  48  1   
 48  24  26  ar  
 49  24  49  1   
 50  25  27  ar  
 51  25  50  1   
 52  26  27  ar  
 53  26  51  1   
 54  27  28  1   
 55  28  52  1   
@<TRIPOS>SUBSTRUCTURE
  1 ****  16 GROUP 4 **** **** 0

# MOE 2024.06 (io_trps.svl 2023.06)
