@<TRIPOS>MOLECULE
NONAME
48 49 1 0 0 
SMALL
USER_CHARGES


@<TRIPOS>ATOM
  1 O       -1.4830     0.9510    -2.2350 O.2   1 <1>  -0.5700 
  2 C       -2.0440     1.3950    -1.2500 C.2   1 <1>   0.5440 
  3 N       -2.9990     0.6250    -0.6210 N.am  1 <1>  -0.6600 
  4 C       -1.6830     2.7170    -0.7770 C.ar  1 <1>   0.0860 
  5 C       -3.5190    -0.6240    -1.2810 C.3   1 <1>   0.1400 
  6 C       -3.5700     0.9360     0.7310 C.3   1 <1>   0.1400 
  7 C       -0.3750     3.0020    -0.3980 C.ar  1 <1>  -0.1500 
  8 C       -2.6220     3.7430    -0.6980 C.ar  1 <1>  -0.1500 
  9 C       -4.3220    -1.4910    -0.3010 C.3   1 <1>   0.2000 
 10 C       -5.0850     0.7410     0.6780 C.3   1 <1>  -0.1600 
 11 C       -0.0120     4.2630     0.0620 C.ar  1 <1>   0.0820 
 12 C       -2.2740     5.0000    -0.2400 C.ar  1 <1>  -0.1500 
 13 O       -4.7940    -2.6400    -0.9130 O.3   1 <1>  -0.6800 
 14 C       -5.4820    -0.7500     0.4200 C.3   1 <1>  -0.1060 
 15 O        1.2580     4.5700     0.4400 O.3   1 <1>  -0.3630 
 16 C       -0.9710     5.2690     0.1450 C.ar  1 <1>  -0.1440 
 17 C       -5.6200    -1.5420     1.7340 C.2   1 <1>   0.9060 
 18 C       -6.8610    -0.7740    -0.3190 C.3   1 <1>  -0.1600 
 19 C        2.3160     3.6490     0.2940 C.3   1 <1>   0.0400 
 20 C       -0.5990     6.6560     0.6470 C.3   1 <1>  -0.0960 
 21 O       -5.3580    -1.0110     2.8200 O.co2 1 <1>  -0.9000 
 22 O       -5.9370    -2.7390     1.6590 O.co2 1 <1>  -0.9000 
 23 C       -6.8790    -0.3000    -1.7860 C.3   1 <1>  -0.1600 
 24 C       -8.3090    -0.2700    -2.3310 C.3   1 <1>  -0.2400 
 25 H       -4.1370    -0.3410    -2.1120 H     1 <1>   0.0800 
 26 H       -2.6890    -1.1990    -1.6520 H     1 <1>   0.0800 
 27 H       -3.1450     0.2740     1.4670 H     1 <1>   0.0800 
 28 H       -3.3460     1.9430     1.0300 H     1 <1>   0.0800 
 29 H        0.3410     2.2070    -0.4780 H     1 <1>   0.1500 
 30 H       -3.6350     3.5430    -1.0000 H     1 <1>   0.1500 
 31 H       -3.6180    -1.8300     0.4420 H     1 <1>   0.0800 
 32 H       -5.5210     1.0850     1.5990 H     1 <1>   0.0800 
 33 H       -5.4620     1.3870    -0.0900 H     1 <1>   0.0800 
 34 H       -3.0240     5.7700    -0.1870 H     1 <1>   0.1500 
 35 H       -5.3260    -3.1020    -0.2130 H     1 <1>   0.4000 
 36 H       -7.2450    -1.7800    -0.3010 H     1 <1>   0.0800 
 37 H       -7.5520    -0.1790     0.2530 H     1 <1>   0.0800 
 38 H        3.2220     4.1280     0.6190 H     1 <1>   0.0800 
 39 H        2.3990     3.3750    -0.7430 H     1 <1>   0.0800 
 40 H        2.1170     2.7880     0.9070 H     1 <1>   0.0800 
 41 H       -1.4510     7.3110     0.6540 H     1 <1>   0.0800 
 42 H        0.1570     7.0810     0.0120 H     1 <1>   0.0800 
 43 H       -0.2100     6.5880     1.6470 H     1 <1>   0.0800 
 44 H       -6.4500     0.6800    -1.8830 H     1 <1>   0.0800 
 45 H       -6.2990    -0.9790    -2.3870 H     1 <1>   0.0800 
 46 H       -8.9120     0.4160    -1.7630 H     1 <1>   0.0800 
 47 H       -8.7500    -1.2500    -2.2710 H     1 <1>   0.0800 
 48 H       -8.3050     0.0430    -3.3590 H     1 <1>   0.0800 
@<TRIPOS>BOND
  1   1   2  2   
  2   2   3  am  
  3   2   4  1   
  4   3   5  1   
  5   3   6  1   
  6   4   7  ar  
  7   4   8  ar  
  8   5   9  1   
  9   5  25  1   
 10   5  26  1   
 11   6  10  1   
 12   6  27  1   
 13   6  28  1   
 14   7  11  ar  
 15   7  29  1   
 16   8  12  ar  
 17   8  30  1   
 18   9  13  1   
 19   9  14  1   
 20   9  31  1   
 21  10  14  1   
 22  10  32  1   
 23  10  33  1   
 24  11  15  1   
 25  11  16  ar  
 26  12  16  ar  
 27  12  34  1   
 28  13  35  1   
 29  14  17  1   
 30  14  18  1   
 31  15  19  1   
 32  16  20  1   
 33  17  21  ar  
 34  17  22  ar  
 35  18  23  1   
 36  18  36  1   
 37  18  37  1   
 38  19  38  1   
 39  19  39  1   
 40  19  40  1   
 41  20  41  1   
 42  20  42  1   
 43  20  43  1   
 44  23  24  1   
 45  23  44  1   
 46  23  45  1   
 47  24  46  1   
 48  24  47  1   
 49  24  48  1   
@<TRIPOS>SUBSTRUCTURE
  1 ****   3 GROUP 4 **** **** 0

# MOE 2024.06 (io_trps.svl 2023.06)
