@<TRIPOS>MOLECULE
NONAME
54 57 1 0 0 
SMALL
USER_CHARGES


@<TRIPOS>ATOM
  1 O       -0.5480     0.5560     2.2240 O.3   1 <1>  -0.5600 
  2 C        0.2680     0.6040     1.0960 C.3   1 <1>   0.1200 
  3 C       -1.8490     0.9500     1.9010 C.3   1 <1>   0.1200 
  4 C       -0.3140     1.7110     0.2240 C.3   1 <1>   0.2890 
  5 C       -1.8040     1.5050     0.4730 C.3   1 <1>  -0.0800 
  6 N        0.1390     3.0230     0.7540 N.pl3 1 <1>  -0.8690 
  7 C       -2.7080     2.7350     0.2570 C.3   1 <1>  -0.0170 
  8 C        0.6740     4.0870     0.1580 C.ar  1 <1>   0.4100 
  9 C       -4.1770     2.3810     0.4690 C.ar  1 <1>  -0.1430 
 10 N        1.0170     5.0680     0.9920 N.ar  1 <1>  -0.6200 
 11 C        0.8810     4.2070    -1.2200 C.ar  1 <1>  -0.1500 
 12 C       -4.9420     1.6880    -0.5000 C.ar  1 <1>   0.0000 
 13 C       -4.8010     2.7270     1.6320 C.ar  1 <1>  -0.1500 
 14 C        1.5610     6.1380     0.4930 C.ar  1 <1>   0.5280 
 15 C        1.4530     5.3440    -1.7110 C.ar  1 <1>   0.2180 
 16 C       -6.2890     1.3860    -0.1810 C.ar  1 <1>   0.3100 
 17 C       -4.4530     1.2780    -1.7630 C.ar  1 <1>  -0.1500 
 18 C       -6.1420     2.3870     1.8430 C.ar  1 <1>   0.1600 
 19 N        1.7910     6.3050    -0.8270 N.ar  1 <1>  -0.1790 
 20 C        1.9600     7.2590     1.4440 C.3   1 <1>  -0.0170 
 21 C        1.7210     5.5670    -3.1900 C.3   1 <1>  -0.0970 
 22 N       -6.8720     1.7410     0.9910 N.ar  1 <1>  -0.6200 
 23 C       -7.0680     0.6870    -1.1170 C.ar  1 <1>  -0.1500 
 24 C       -5.2410     0.6000    -2.6530 C.ar  1 <1>  -0.1500 
 25 C        1.0700     8.5050     1.2890 C.3   1 <1>  -0.1600 
 26 C       -6.5640     0.2970    -2.3280 C.ar  1 <1>  -0.1500 
 27 C        1.4870     9.6070     2.2670 C.3   1 <1>  -0.2400 
 28 H        1.2840     0.7970     1.3920 H     1 <1>   0.0800 
 29 H        0.2020    -0.3500     0.6010 H     1 <1>   0.0800 
 30 H       -2.5030     0.0980     1.9780 H     1 <1>   0.0800 
 31 H       -2.1460     1.7000     2.6140 H     1 <1>   0.0800 
 32 H       -0.0440     1.5870    -0.8090 H     1 <1>   0.0800 
 33 H       -2.1380     0.7160    -0.1770 H     1 <1>   0.0800 
 34 H        0.0740     3.0530     1.7800 H     1 <1>   0.4000 
 35 H       -2.5670     3.1340    -0.7310 H     1 <1>   0.0800 
 36 H       -2.4320     3.5130     0.9480 H     1 <1>   0.0800 
 37 H        0.5870     3.4050    -1.8670 H     1 <1>   0.1500 
 38 H       -4.2890     3.2600     2.4120 H     1 <1>   0.1500 
 39 H       -3.4420     1.5040    -2.0370 H     1 <1>   0.1500 
 40 H       -6.5940     2.6790     2.7760 H     1 <1>   0.1500 
 41 H        2.2210     7.1750    -1.1410 H     1 <1>   0.4570 
 42 H        1.8790     6.8980     2.4560 H     1 <1>   0.0800 
 43 H        2.9910     7.5170     1.2810 H     1 <1>   0.0800 
 44 H        1.4000     4.7160    -3.7650 H     1 <1>   0.0800 
 45 H        2.7730     5.7100    -3.3650 H     1 <1>   0.0800 
 46 H        1.1850     6.4310    -3.5440 H     1 <1>   0.0800 
 47 H       -8.0840     0.4670    -0.8460 H     1 <1>   0.1500 
 48 H       -4.8570     0.2930    -3.6110 H     1 <1>   0.1500 
 49 H        1.1280     8.8930     0.2870 H     1 <1>   0.0800 
 50 H        0.0440     8.2380     1.4850 H     1 <1>   0.0800 
 51 H       -7.1750    -0.2380    -3.0350 H     1 <1>   0.1500 
 52 H        2.5030     9.9180     2.0890 H     1 <1>   0.0800 
 53 H        1.4050     9.2650     3.2840 H     1 <1>   0.0800 
 54 H        0.8470    10.4650     2.1500 H     1 <1>   0.0800 
@<TRIPOS>BOND
  1   1   2  1   
  2   1   3  1   
  3   2   4  1   
  4   2  28  1   
  5   2  29  1   
  6   3   5  1   
  7   3  30  1   
  8   3  31  1   
  9   4   5  1   
 10   4   6  1   
 11   4  32  1   
 12   5   7  1   
 13   5  33  1   
 14   6   8  1   
 15   6  34  1   
 16   7   9  1   
 17   7  35  1   
 18   7  36  1   
 19   8  10  ar  
 20   8  11  ar  
 21   9  12  ar  
 22   9  13  ar  
 23  10  14  ar  
 24  11  15  ar  
 25  11  37  1   
 26  12  16  ar  
 27  12  17  ar  
 28  13  18  ar  
 29  13  38  1   
 30  14  19  ar  
 31  14  20  1   
 32  15  19  ar  
 33  15  21  1   
 34  16  22  ar  
 35  16  23  ar  
 36  17  24  ar  
 37  17  39  1   
 38  18  22  ar  
 39  18  40  1   
 40  19  41  1   
 41  20  25  1   
 42  20  42  1   
 43  20  43  1   
 44  21  44  1   
 45  21  45  1   
 46  21  46  1   
 47  23  26  ar  
 48  23  47  1   
 49  24  26  ar  
 50  24  48  1   
 51  25  27  1   
 52  25  49  1   
 53  25  50  1   
 54  26  51  1   
 55  27  52  1   
 56  27  53  1   
 57  27  54  1   
@<TRIPOS>SUBSTRUCTURE
  1 ****   7 GROUP 4 **** **** 0

# MOE 2024.06 (io_trps.svl 2023.06)
