@<TRIPOS>MOLECULE
NONAME
56 59 1 0 0 
SMALL
USER_CHARGES


@<TRIPOS>ATOM
  1 O       -2.8940     0.5060     1.9440 O.2   1 <1>  -0.5700 
  2 C       -2.9320     1.0380     0.8600 C.2   1 <1>   0.5690 
  3 N       -3.8400     0.6080    -0.0630 N.am  1 <1>  -0.6600 
  4 C       -1.9810     2.1910     0.5430 C.3   1 <1>  -0.0190 
  5 C       -3.6130    -0.7480    -0.6410 C.3   1 <1>   0.1400 
  6 C       -5.2760     0.8540     0.2440 C.3   1 <1>   0.1400 
  7 C       -2.7360     3.5170     0.3290 C.3   1 <1>  -0.1600 
  8 C       -1.0530     1.8780    -0.6570 C.3   1 <1>  -0.1600 
  9 C       -4.1420    -1.8380     0.3140 C.3   1 <1>   0.3430 
 10 C       -5.8160    -0.2240     1.2090 C.3   1 <1>   0.3430 
 11 C       -1.7760     4.7170     0.1760 C.3   1 <1>   0.2000 
 12 C       -0.4380     3.1320    -1.3110 C.3   1 <1>  -0.1600 
 13 N       -5.5870    -1.6190     0.6900 N.4   1 <1>  -0.9590 
 14 O       -2.3560     5.6170    -0.7350 O.3   1 <1>  -0.5600 
 15 C       -0.3690     4.3080    -0.3340 C.3   1 <1>   0.2000 
 16 C       -6.0350    -2.6360     1.6790 C.3   1 <1>   0.4860 
 17 C       -3.2760     6.5060    -0.1830 C.3   1 <1>   0.0400 
 18 O        0.2030     5.3760    -0.9930 O.3   1 <1>  -0.6800 
 19 C       -5.9800    -4.0010     1.0200 C.ar  1 <1>  -0.1440 
 20 C       -6.9280    -4.3450     0.0590 C.ar  1 <1>  -0.1500 
 21 C       -4.9790    -4.9090     1.3710 C.ar  1 <1>  -0.1500 
 22 C       -6.8310    -5.5880    -0.5330 C.ar  1 <1>   0.0820 
 23 C       -4.9030    -6.1560     0.7630 C.ar  1 <1>  -0.1500 
 24 O       -7.6190    -6.1160    -1.4740 O.3   1 <1>  -0.3630 
 25 C       -5.8480    -6.4690    -0.1930 C.ar  1 <1>   0.0820 
 26 C       -7.1170    -7.4270    -1.7380 C.3   1 <1>   0.4000 
 27 O       -5.9720    -7.5930    -0.9030 O.3   1 <1>  -0.3620 
 28 H       -1.3560     2.3180     1.4120 H     1 <1>   0.0800 
 29 H       -4.1010    -0.8210    -1.5980 H     1 <1>   0.0800 
 30 H       -2.5590    -0.9000    -0.7980 H     1 <1>   0.0800 
 31 H       -5.3820     1.8230     0.7030 H     1 <1>   0.0800 
 32 H       -5.8470     0.8590    -0.6680 H     1 <1>   0.0800 
 33 H       -3.3890     3.6980     1.1630 H     1 <1>   0.0800 
 34 H       -3.3350     3.4260    -0.5610 H     1 <1>   0.0800 
 35 H       -0.2630     1.2310    -0.3160 H     1 <1>   0.0800 
 36 H       -1.5960     1.3480    -1.4200 H     1 <1>   0.0800 
 37 H       -3.5330    -1.8260     1.2030 H     1 <1>   0.0800 
 38 H       -4.0250    -2.8040    -0.1530 H     1 <1>   0.0800 
 39 H       -6.8690    -0.0590     1.3720 H     1 <1>   0.0800 
 40 H       -5.3110    -0.1060     2.1550 H     1 <1>   0.0800 
 41 H       -1.6460     5.2130     1.1240 H     1 <1>   0.0800 
 42 H       -1.0480     3.4240    -2.1480 H     1 <1>   0.0800 
 43 H        0.5480     2.9030    -1.6770 H     1 <1>   0.0800 
 44 H       -6.1480    -1.7610    -0.1580 H     1 <1>   0.4500 
 45 H        0.2700     4.0500     0.4930 H     1 <1>   0.0800 
 46 H       -5.3980    -2.6180     2.5490 H     1 <1>   0.0800 
 47 H       -7.0470    -2.4340     1.9910 H     1 <1>   0.0800 
 48 H       -3.6530     7.1300    -0.9740 H     1 <1>   0.0800 
 49 H       -2.7820     7.1160     0.5530 H     1 <1>   0.0800 
 50 H       -4.0870     5.9570     0.2610 H     1 <1>   0.0800 
 51 H       -0.5420     5.8690    -1.4060 H     1 <1>   0.4000 
 52 H       -7.7290    -3.6910    -0.2360 H     1 <1>   0.1500 
 53 H       -4.2470    -4.6600     2.1220 H     1 <1>   0.1500 
 54 H       -4.1400    -6.8710     1.0200 H     1 <1>   0.1500 
 55 H       -7.8620    -8.1590    -1.4780 H     1 <1>   0.0800 
 56 H       -6.8270    -7.5040    -2.7710 H     1 <1>   0.0800 
@<TRIPOS>BOND
  1   1   2  2   
  2   2   3  am  
  3   2   4  1   
  4   3   5  1   
  5   3   6  1   
  6   4   7  1   
  7   4   8  1   
  8   4  28  1   
  9   5   9  1   
 10   5  29  1   
 11   5  30  1   
 12   6  10  1   
 13   6  31  1   
 14   6  32  1   
 15   7  11  1   
 16   7  33  1   
 17   7  34  1   
 18   8  12  1   
 19   8  35  1   
 20   8  36  1   
 21   9  13  1   
 22   9  37  1   
 23   9  38  1   
 24  10  13  1   
 25  10  39  1   
 26  10  40  1   
 27  11  14  1   
 28  11  15  1   
 29  11  41  1   
 30  12  15  1   
 31  12  42  1   
 32  12  43  1   
 33  13  16  1   
 34  13  44  1   
 35  14  17  1   
 36  15  18  1   
 37  15  45  1   
 38  16  19  1   
 39  16  46  1   
 40  16  47  1   
 41  17  48  1   
 42  17  49  1   
 43  17  50  1   
 44  18  51  1   
 45  19  20  ar  
 46  19  21  ar  
 47  20  22  ar  
 48  20  52  1   
 49  21  23  ar  
 50  21  53  1   
 51  22  24  1   
 52  22  25  ar  
 53  23  25  ar  
 54  23  54  1   
 55  24  26  1   
 56  25  27  1   
 57  26  27  1   
 58  26  55  1   
 59  26  56  1   
@<TRIPOS>SUBSTRUCTURE
  1 ****   5 GROUP 4 **** **** 0

# MOE 2024.06 (io_trps.svl 2023.06)
