@<TRIPOS>MOLECULE
NONAME
44 46 1 0 0 
SMALL
USER_CHARGES


@<TRIPOS>ATOM
  1 O       -1.6100     2.3380    -2.5290 O.co2 1 <1>  -0.9000 
  2 C       -0.9900     2.7810    -1.5470 C.2   1 <1>   0.9060 
  3 O        0.0650     3.4090    -1.6840 O.co2 1 <1>  -0.9000 
  4 C       -1.4950     2.4660    -0.1070 C.3   1 <1>   0.4600 
  5 N       -2.6530     1.5020     0.0780 N.4   1 <1>  -0.8970 
  6 C       -1.7670     3.7080     0.7390 C.ar  1 <1>  -0.1430 
  7 C       -2.5240     0.2260    -0.7000 C.3   1 <1>   0.4720 
  8 C       -3.8660     1.8150    -0.7520 C.3   1 <1>   0.4720 
  9 C       -2.6470     4.7160     0.3580 C.ar  1 <1>   0.0830 
 10 C       -1.0900     3.8460     1.9430 C.ar  1 <1>   0.0830 
 11 C       -4.0530     0.2900    -0.9340 C.3   1 <1>   0.1080 
 12 O       -3.3090     4.6420    -0.8130 O.3   1 <1>  -0.3630 
 13 C       -2.8700     5.8120     1.1800 C.ar  1 <1>  -0.1500 
 14 O       -0.1950     2.9110     2.3220 O.3   1 <1>  -0.3630 
 15 C       -1.3120     4.9370     2.7700 C.ar  1 <1>  -0.1500 
 16 C       -4.8780    -0.3990     0.1570 C.ar  1 <1>  -0.1080 
 17 C       -2.8200     5.4610    -1.8560 C.3   1 <1>   0.0400 
 18 C       -2.2050     5.9220     2.3880 C.ar  1 <1>  -0.1500 
 19 C        1.1480     3.2070     1.9980 C.3   1 <1>   0.0400 
 20 C       -4.5680    -1.6700     0.6040 C.ar  1 <1>  -0.1500 
 21 C       -5.9810     0.1960     0.7430 C.ar  1 <1>  -0.1500 
 22 C       -5.3350    -2.2560     1.5970 C.ar  1 <1>   0.1600 
 23 C       -6.6810    -0.4770     1.7300 C.ar  1 <1>   0.1600 
 24 N       -6.3780    -1.6850     2.1730 N.ar  1 <1>  -0.6200 
 25 H       -0.6410     1.9900     0.3350 H     1 <1>   0.0800 
 26 H       -2.8940     1.3640     1.0600 H     1 <1>   0.4500 
 27 H       -2.2020    -0.5920    -0.0820 H     1 <1>   0.0000 
 28 H       -1.9530     0.3460    -1.6000 H     1 <1>   0.0000 
 29 H       -3.6270     2.3190    -1.6680 H     1 <1>   0.0000 
 30 H       -4.6350     2.2970    -0.1770 H     1 <1>   0.0000 
 31 H       -4.3450     0.0100    -1.9300 H     1 <1>   0.0000 
 32 H       -3.5630     6.5730     0.8710 H     1 <1>   0.1500 
 33 H       -0.7850     5.0110     3.7040 H     1 <1>   0.1500 
 34 H       -3.2660     5.1370    -2.7790 H     1 <1>   0.0800 
 35 H       -1.7490     5.3580    -1.9210 H     1 <1>   0.0800 
 36 H       -3.0820     6.4830    -1.6530 H     1 <1>   0.0800 
 37 H       -2.3790     6.7710     3.0260 H     1 <1>   0.1500 
 38 H        1.7610     2.3760     2.2970 H     1 <1>   0.0800 
 39 H        1.4480     4.0950     2.5270 H     1 <1>   0.0800 
 40 H        1.2300     3.3640     0.9350 H     1 <1>   0.0800 
 41 H       -3.7440    -2.2240     0.1930 H     1 <1>   0.1500 
 42 H       -6.3190     1.1740     0.4500 H     1 <1>   0.1500 
 43 H       -5.0790    -3.2460     1.9350 H     1 <1>   0.1500 
 44 H       -7.5360     0.0010     2.1780 H     1 <1>   0.1500 
@<TRIPOS>BOND
  1   1   2  ar  
  2   2   3  ar  
  3   2   4  1   
  4   4   5  1   
  5   4   6  1   
  6   4  25  1   
  7   5   7  1   
  8   5   8  1   
  9   5  26  1   
 10   6   9  ar  
 11   6  10  ar  
 12   7  11  1   
 13   7  27  1   
 14   7  28  1   
 15   8  11  1   
 16   8  29  1   
 17   8  30  1   
 18   9  12  1   
 19   9  13  ar  
 20  10  14  1   
 21  10  15  ar  
 22  11  16  1   
 23  11  31  1   
 24  12  17  1   
 25  13  18  ar  
 26  13  32  1   
 27  14  19  1   
 28  15  18  ar  
 29  15  33  1   
 30  16  20  ar  
 31  16  21  ar  
 32  17  34  1   
 33  17  35  1   
 34  17  36  1   
 35  18  37  1   
 36  19  38  1   
 37  19  39  1   
 38  19  40  1   
 39  20  22  ar  
 40  20  41  1   
 41  21  23  ar  
 42  21  42  1   
 43  22  24  ar  
 44  22  43  1   
 45  23  24  ar  
 46  23  44  1   
@<TRIPOS>SUBSTRUCTURE
  1 ****   5 GROUP 4 **** **** 0

# MOE 2024.06 (io_trps.svl 2023.06)
