@<TRIPOS>MOLECULE
F1911-5478
45 46 1 0 0 
SMALL
USER_CHARGES


@<TRIPOS>ATOM
  1 O        0.3370    -0.6400    -0.9520 O.2   1 <1>  -0.5700 
  2 C        0.5140    -1.4770    -0.0890 C.2   1 <1>   0.7800 
  3 O       -0.5050    -2.1870     0.4020 O.3   1 <1>  -0.4300 
  4 N        1.7590    -1.7450     0.4130 N.am  1 <1>  -0.6600 
  5 C       -1.8660    -2.0940     0.0420 C.3   1 <1>   0.2800 
  6 C        2.9890    -1.0740    -0.1020 C.3   1 <1>   0.1400 
  7 C        2.0530    -2.8360     1.3860 C.3   1 <1>   0.1400 
  8 C       -2.5800    -3.1260     0.9160 C.3   1 <1>  -0.2400 
  9 C       -2.4070    -0.6970     0.3690 C.3   1 <1>  -0.2400 
 10 C       -2.0530    -2.4650    -1.4330 C.3   1 <1>  -0.2400 
 11 C        3.9830    -2.0890    -0.7100 C.3   1 <1>   0.2890 
 12 C        3.0190    -3.8600     0.7680 C.3   1 <1>   0.2090 
 13 N        4.2660    -3.2150     0.2460 N.pl3 1 <1>  -0.8380 
 14 C        5.2890    -1.3770    -1.0750 C.3   1 <1>  -0.2400 
 15 C        5.2710    -4.1180    -0.0870 C.ar  1 <1>   0.1000 
 16 C        6.3920    -4.2200     0.7220 C.ar  1 <1>  -0.1500 
 17 C        5.1810    -4.9270    -1.2140 C.ar  1 <1>  -0.1500 
 18 C        7.4200    -5.1060     0.4310 C.ar  1 <1>   0.0730 
 19 C        6.1930    -5.8160    -1.5220 C.ar  1 <1>  -0.1500 
 20 C        8.5750    -5.1980     1.2780 C.1   1 <1>   0.4840 
 21 C        7.3060    -5.9040    -0.7030 C.ar  1 <1>  -0.1500 
 22 N        9.4960    -5.2790     1.9460 N.1   1 <1>  -0.5570 
 23 H        3.4680    -0.5590     0.7120 H     1 <1>   0.0800 
 24 H        2.7330    -0.3420    -0.8470 H     1 <1>   0.0800 
 25 H        1.1510    -3.3370     1.6880 H     1 <1>   0.0800 
 26 H        2.5060    -2.4120     2.2640 H     1 <1>   0.0800 
 27 H       -2.4380    -2.8960     1.9560 H     1 <1>   0.0800 
 28 H       -2.1970    -4.1110     0.7180 H     1 <1>   0.0800 
 29 H       -3.6350    -3.1250     0.7090 H     1 <1>   0.0800 
 30 H       -2.1950    -0.4420     1.3910 H     1 <1>   0.0800 
 31 H       -3.4720    -0.6730     0.2250 H     1 <1>   0.0800 
 32 H       -1.9780     0.0470    -0.2770 H     1 <1>   0.0800 
 33 H       -1.5990    -3.4170    -1.6400 H     1 <1>   0.0800 
 34 H       -1.6230    -1.7210    -2.0780 H     1 <1>   0.0800 
 35 H       -3.1000    -2.5290    -1.6660 H     1 <1>   0.0800 
 36 H        3.5440    -2.4920    -1.6070 H     1 <1>   0.0800 
 37 H        2.5180    -4.3740    -0.0340 H     1 <1>   0.0800 
 38 H        3.2850    -4.5880     1.5150 H     1 <1>   0.0800 
 39 H        5.7850    -1.0340    -0.1850 H     1 <1>   0.0800 
 40 H        5.0830    -0.5310    -1.7050 H     1 <1>   0.0800 
 41 H        5.9430    -2.0380    -1.6130 H     1 <1>   0.0800 
 42 H        6.4500    -3.5880     1.5900 H     1 <1>   0.1500 
 43 H        4.3150    -4.8540    -1.8460 H     1 <1>   0.1500 
 44 H        6.1150    -6.4380    -2.3970 H     1 <1>   0.1500 
 45 H        8.0920    -6.5990    -0.9480 H     1 <1>   0.1500 
@<TRIPOS>BOND
  1   1   2  2   
  2   2   3  1   
  3   2   4  am  
  4   3   5  1   
  5   4   6  1   
  6   4   7  1   
  7   5   8  1   
  8   5   9  1   
  9   5  10  1   
 10   6  11  1   
 11   6  23  1   
 12   6  24  1   
 13   7  12  1   
 14   7  25  1   
 15   7  26  1   
 16   8  27  1   
 17   8  28  1   
 18   8  29  1   
 19   9  30  1   
 20   9  31  1   
 21   9  32  1   
 22  10  33  1   
 23  10  34  1   
 24  10  35  1   
 25  11  13  1   
 26  11  14  1   
 27  11  36  1   
 28  12  13  1   
 29  12  37  1   
 30  12  38  1   
 31  13  15  1   
 32  14  39  1   
 33  14  40  1   
 34  14  41  1   
 35  15  16  ar  
 36  15  17  ar  
 37  16  18  ar  
 38  16  42  1   
 39  17  19  ar  
 40  17  43  1   
 41  18  20  1   
 42  18  21  ar  
 43  19  21  ar  
 44  19  44  1   
 45  20  22  3   
 46  21  45  1   
@<TRIPOS>SUBSTRUCTURE
  1 ****  12 GROUP 4 **** **** 0

# MOE 2024.06 (io_trps.svl 2023.06)
