@<TRIPOS>MOLECULE
NONAME
60 63 1 0 0 
SMALL
USER_CHARGES


@<TRIPOS>ATOM
  1 O       -1.4990     0.8110    -2.2480 O.2   1 <1>  -0.5700 
  2 C       -2.1440     1.3310    -1.3540 C.2   1 <1>   0.5440 
  3 N       -3.1420     0.5980    -0.7450 N.am  1 <1>  -0.6600 
  4 C       -1.8430     2.6940    -0.9710 C.ar  1 <1>   0.0860 
  5 C       -3.6370    -0.6740    -1.3770 C.3   1 <1>   0.1400 
  6 C       -3.8130     0.9970     0.5340 C.3   1 <1>   0.1400 
  7 C       -0.5610     3.0600    -0.5600 C.ar  1 <1>  -0.1500 
  8 C       -2.8140     3.6960    -1.0060 C.ar  1 <1>  -0.1500 
  9 C       -4.5740    -1.4440    -0.4360 C.3   1 <1>   0.2000 
 10 C       -5.3220     0.8690     0.3400 C.3   1 <1>  -0.1600 
 11 C       -0.2690     4.3570    -0.1850 C.ar  1 <1>  -0.1500 
 12 C       -2.5230     4.9920    -0.6300 C.ar  1 <1>  -0.1500 
 13 O       -5.0310    -2.6040    -1.0400 O.3   1 <1>  -0.6800 
 14 C       -5.7720    -0.6070     0.0830 C.3   1 <1>  -0.1060 
 15 C       -1.2460     5.3470    -0.2090 C.ar  1 <1>   0.1000 
 16 C       -6.1650    -1.3460     1.3660 C.2   1 <1>   0.9060 
 17 C       -6.9640    -0.5960    -0.9220 C.3   1 <1>  -0.0170 
 18 N       -0.9710     6.6540     0.1680 N.pl3 1 <1>  -0.8380 
 19 O       -5.9320    -0.8510     2.4740 O.co2 1 <1>  -0.9000 
 20 O       -6.6320    -2.4910     1.2530 O.co2 1 <1>  -0.9000 
 21 C       -8.0780     0.3930    -0.5820 C.ar  1 <1>  -0.1440 
 22 C       -0.1500     6.9700     1.3670 C.3   1 <1>   0.2090 
 23 C       -1.2040     7.7760    -0.7770 C.3   1 <1>   0.2090 
 24 C       -8.9030     0.1720     0.5100 C.ar  1 <1>  -0.1500 
 25 C       -8.2830     1.5190    -1.3660 C.ar  1 <1>  -0.1500 
 26 C        1.1880     7.5850     0.9410 C.3   1 <1>  -0.1600 
 27 C        0.1370     8.3830    -1.2020 C.3   1 <1>  -0.1600 
 28 C       -9.9140     1.0660     0.8190 C.ar  1 <1>  -0.1500 
 29 C       -9.2950     2.4140    -1.0600 C.ar  1 <1>  -0.1500 
 30 C        0.9920     8.7880     0.0070 C.3   1 <1>  -0.1600 
 31 C      -10.1110     2.1880     0.0340 C.ar  1 <1>  -0.1500 
 32 H       -4.1620    -0.4270    -2.2820 H     1 <1>   0.0800 
 33 H       -2.7960    -1.2980    -1.6230 H     1 <1>   0.0800 
 34 H       -3.4930     0.3490     1.3340 H     1 <1>   0.0800 
 35 H       -3.5670     2.0050     0.8130 H     1 <1>   0.0800 
 36 H        0.2070     2.3070    -0.5430 H     1 <1>   0.1500 
 37 H       -3.8070     3.4420    -1.3310 H     1 <1>   0.1500 
 38 H       -3.9790    -1.7630     0.4050 H     1 <1>   0.0800 
 39 H       -5.8350     1.2660     1.1990 H     1 <1>   0.0800 
 40 H       -5.5850     1.4950    -0.4930 H     1 <1>   0.0800 
 41 H        0.7270     4.6140     0.1200 H     1 <1>   0.1500 
 42 H       -3.2870     5.7460    -0.6520 H     1 <1>   0.1500 
 43 H       -5.6750    -3.0000    -0.3930 H     1 <1>   0.4000 
 44 H       -6.5860    -0.3690    -1.9010 H     1 <1>   0.0800 
 45 H       -7.4030    -1.5770    -0.9850 H     1 <1>   0.0800 
 46 H       -0.6920     7.6670     1.9820 H     1 <1>   0.0800 
 47 H        0.0180     6.0770     1.9450 H     1 <1>   0.0800 
 48 H       -1.7310     7.4220    -1.6470 H     1 <1>   0.0800 
 49 H       -1.8100     8.5220    -0.2920 H     1 <1>   0.0800 
 50 H       -8.7560    -0.7000     1.1280 H     1 <1>   0.1500 
 51 H       -7.6520     1.7030    -2.2170 H     1 <1>   0.1500 
 52 H        1.7310     7.8910     1.8170 H     1 <1>   0.0800 
 53 H        1.7700     6.8320     0.4400 H     1 <1>   0.0800 
 54 H        0.6660     7.6570    -1.7930 H     1 <1>   0.0800 
 55 H       -0.0440     9.2420    -1.8230 H     1 <1>   0.0800 
 56 H      -10.5400     0.8820     1.6740 H     1 <1>   0.1500 
 57 H       -9.4450     3.2840    -1.6730 H     1 <1>   0.1500 
 58 H        1.9490     9.1500    -0.3270 H     1 <1>   0.0800 
 59 H        0.5020     9.5820     0.5440 H     1 <1>   0.0800 
 60 H      -10.8960     2.8810     0.2760 H     1 <1>   0.1500 
@<TRIPOS>BOND
  1   1   2  2   
  2   2   3  am  
  3   2   4  1   
  4   3   5  1   
  5   3   6  1   
  6   4   7  ar  
  7   4   8  ar  
  8   5   9  1   
  9   5  32  1   
 10   5  33  1   
 11   6  10  1   
 12   6  34  1   
 13   6  35  1   
 14   7  11  ar  
 15   7  36  1   
 16   8  12  ar  
 17   8  37  1   
 18   9  13  1   
 19   9  14  1   
 20   9  38  1   
 21  10  14  1   
 22  10  39  1   
 23  10  40  1   
 24  11  15  ar  
 25  11  41  1   
 26  12  15  ar  
 27  12  42  1   
 28  13  43  1   
 29  14  16  1   
 30  14  17  1   
 31  15  18  1   
 32  16  19  ar  
 33  16  20  ar  
 34  17  21  1   
 35  17  44  1   
 36  17  45  1   
 37  18  22  1   
 38  18  23  1   
 39  21  24  ar  
 40  21  25  ar  
 41  22  26  1   
 42  22  46  1   
 43  22  47  1   
 44  23  27  1   
 45  23  48  1   
 46  23  49  1   
 47  24  28  ar  
 48  24  50  1   
 49  25  29  ar  
 50  25  51  1   
 51  26  30  1   
 52  26  52  1   
 53  26  53  1   
 54  27  30  1   
 55  27  54  1   
 56  27  55  1   
 57  28  31  ar  
 58  28  56  1   
 59  29  31  ar  
 60  29  57  1   
 61  30  58  1   
 62  30  59  1   
 63  31  60  1   
@<TRIPOS>SUBSTRUCTURE
  1 ****   6 GROUP 4 **** **** 0

# MOE 2024.06 (io_trps.svl 2023.06)
