@<TRIPOS>MOLECULE
NONAME
48 50 1 0 0 
SMALL
USER_CHARGES


@<TRIPOS>ATOM
  1 O        0.3160     1.1690    -1.2420 O.2   1 <1>  -0.5700 
  2 C        0.0820     2.3440    -1.3940 C.2   1 <1>   0.5690 
  3 N       -0.2400     3.1700    -0.3500 N.am  1 <1>  -0.6600 
  4 C        0.1330     2.9120    -2.8140 C.3   1 <1>   0.1810 
  5 C       -0.5730     4.6160    -0.5780 C.3   1 <1>   0.3640 
  6 C       -0.1820     2.7230     1.0720 C.3   1 <1>   0.0600 
  7 O        0.3310     4.3060    -2.8340 O.3   1 <1>  -0.5600 
  8 C       -1.8580     5.0200     0.1590 C.ar  1 <1>  -0.1430 
  9 C       -0.6250     5.0240    -2.0730 C.3   1 <1>   0.2610 
 10 C       -3.0790     4.3430     0.0630 C.ar  1 <1>  -0.1430 
 11 C       -1.7790     6.1460     0.9710 C.ar  1 <1>  -0.1500 
 12 C       -0.3710     6.5280    -2.1900 C.2   1 <1>   0.5690 
 13 C       -4.1730     4.8070     0.7820 C.ar  1 <1>  -0.1500 
 14 C       -3.2920     3.0940    -0.7860 C.3   1 <1>  -0.0960 
 15 C       -2.8750     6.5990     1.6790 C.ar  1 <1>  -0.1500 
 16 O       -1.3000     7.2980    -2.1590 O.2   1 <1>  -0.5700 
 17 N        0.9050     6.9770    -2.3010 N.am  1 <1>  -0.7300 
 18 C       -4.0760     5.9270     1.5850 C.ar  1 <1>  -0.1500 
 19 C        1.3060     8.4040    -2.1900 C.3   1 <1>   0.3200 
 20 C        1.9360     8.6850    -0.8350 C.2   1 <1>   0.2980 
 21 O        1.2080     8.5060     0.2390 O.3   1 <1>  -0.0190 
 22 N        3.1300     9.0780    -0.6280 N.2   1 <1>  -0.5650 
 23 N        2.0090     8.8080     1.2140 N.2   1 <1>  -0.4100 
 24 C        3.1240     9.1440     0.6960 C.2   1 <1>   0.3350 
 25 C        4.3730     9.5870     1.4460 C.3   1 <1>   0.0210 
 26 C        4.1870     9.6930     2.9670 C.3   1 <1>  -0.2400 
 27 H       -0.7840     2.6870    -3.3270 H     1 <1>   0.0800 
 28 H        0.9490     2.4580    -3.3470 H     1 <1>   0.0800 
 29 H        0.2380     5.1730    -0.1410 H     1 <1>   0.0800 
 30 H        0.4750     3.3660     1.6310 H     1 <1>   0.0800 
 31 H        0.1860     1.7140     1.1390 H     1 <1>   0.0800 
 32 H       -1.1640     2.7590     1.5100 H     1 <1>   0.0800 
 33 H       -1.5960     4.8250    -2.4830 H     1 <1>   0.0800 
 34 H       -0.8560     6.6950     1.0620 H     1 <1>   0.1500 
 35 H       -5.1170     4.2950     0.7220 H     1 <1>   0.1500 
 36 H       -4.3400     2.8870    -0.9080 H     1 <1>   0.0800 
 37 H       -2.8390     2.2440    -0.3090 H     1 <1>   0.0800 
 38 H       -2.8700     3.2090    -1.7650 H     1 <1>   0.0800 
 39 H       -2.7930     7.4750     2.2990 H     1 <1>   0.1500 
 40 H        1.6590     6.2920    -2.4060 H     1 <1>   0.3700 
 41 H       -4.9340     6.2740     2.1330 H     1 <1>   0.1500 
 42 H        2.0120     8.6360    -2.9680 H     1 <1>   0.0800 
 43 H        0.4470     9.0410    -2.3140 H     1 <1>   0.0800 
 44 H        5.1600     8.8870     1.2320 H     1 <1>   0.0800 
 45 H        4.6720    10.5450     1.0600 H     1 <1>   0.0800 
 46 H        3.9110     8.7360     3.3750 H     1 <1>   0.0800 
 47 H        3.4120    10.4020     3.1980 H     1 <1>   0.0800 
 48 H        5.1020    10.0160     3.4320 H     1 <1>   0.0800 
@<TRIPOS>BOND
  1   1   2  2   
  2   2   3  am  
  3   2   4  1   
  4   3   5  1   
  5   3   6  1   
  6   4   7  1   
  7   4  27  1   
  8   4  28  1   
  9   5   8  1   
 10   5   9  1   
 11   5  29  1   
 12   6  30  1   
 13   6  31  1   
 14   6  32  1   
 15   7   9  1   
 16   8  10  ar  
 17   8  11  ar  
 18   9  12  1   
 19   9  33  1   
 20  10  13  ar  
 21  10  14  1   
 22  11  15  ar  
 23  11  34  1   
 24  12  16  2   
 25  12  17  am  
 26  13  18  ar  
 27  13  35  1   
 28  14  36  1   
 29  14  37  1   
 30  14  38  1   
 31  15  18  ar  
 32  15  39  1   
 33  17  19  1   
 34  17  40  1   
 35  18  41  1   
 36  19  20  1   
 37  19  42  1   
 38  19  43  1   
 39  20  21  1   
 40  20  22  2   
 41  21  23  1   
 42  22  24  1   
 43  23  24  2   
 44  24  25  1   
 45  25  26  1   
 46  25  44  1   
 47  25  45  1   
 48  26  46  1   
 49  26  47  1   
 50  26  48  1   
@<TRIPOS>SUBSTRUCTURE
  1 ****   5 GROUP 4 **** **** 0

# MOE 2024.06 (io_trps.svl 2023.06)
