@<TRIPOS>MOLECULE
NONAME
47 50 1 0 0 
SMALL
USER_CHARGES


@<TRIPOS>ATOM
  1 O        0.3560    -0.3050     0.4540 O.2   1 <1>  -0.5700 
  2 C        1.4450    -0.8240     0.3040 C.2   1 <1>   0.5440 
  3 N        2.5700    -0.0270     0.2790 N.am  1 <1>  -0.6600 
  4 C        1.5160    -2.2580     0.1680 C.ar  1 <1>   0.0860 
  5 C        3.9230    -0.5510     0.6590 C.3   1 <1>   0.1400 
  6 C        2.4160     1.4340     0.0200 C.3   1 <1>   0.1400 
  7 C        2.3180    -2.8840    -0.7660 C.ar  1 <1>   0.1600 
  8 C        0.7730    -3.1040     0.9670 C.ar  1 <1>   0.1600 
  9 C        4.7230     0.3850     1.5740 C.3   1 <1>   0.1100 
 10 C        3.6270     2.0550    -0.6800 C.3   1 <1>  -0.1600 
 11 N        2.4100    -4.1920    -0.8790 N.ar  1 <1>  -0.6200 
 12 N        0.8380    -4.4170     0.8830 N.ar  1 <1>  -0.6200 
 13 N        5.5220     1.3550     0.8000 N.3   1 <1>  -0.8100 
 14 C        4.7340     2.4860     0.2850 C.3   1 <1>   0.1100 
 15 C        1.6560    -4.8920    -0.0440 C.ar  1 <1>   0.5880 
 16 C        6.6920     1.8180     1.6010 C.3   1 <1>   0.2900 
 17 C        1.7490    -6.4070    -0.1550 C.3   1 <1>  -0.0680 
 18 C        7.7310     2.6280     0.8270 C.2   1 <1>   0.2980 
 19 C        1.5110    -7.1070    -1.4640 C.3   1 <1>  -0.2000 
 20 C        0.5200    -7.2500    -0.3520 C.3   1 <1>  -0.2000 
 21 O        7.5370     3.9160     0.6790 O.3   1 <1>  -0.0190 
 22 N        8.8120     2.1780     0.3220 N.2   1 <1>  -0.5650 
 23 N        8.5740     4.3160     0.0100 N.2   1 <1>  -0.4100 
 24 C        9.3030     3.2940    -0.1920 C.2   1 <1>   0.3350 
 25 C       10.6150     3.2920    -0.9390 C.3   1 <1>  -0.0590 
 26 H        4.4980    -0.7500    -0.2290 H     1 <1>   0.0800 
 27 H        3.7990    -1.4810     1.1850 H     1 <1>   0.0800 
 28 H        2.2180     1.9400     0.9490 H     1 <1>   0.0800 
 29 H        1.5550     1.5780    -0.6120 H     1 <1>   0.0800 
 30 H        2.9030    -2.2810    -1.4400 H     1 <1>   0.1500 
 31 H        0.1080    -2.6760     1.6990 H     1 <1>   0.1500 
 32 H        5.3950    -0.2410     2.1360 H     1 <1>   0.0800 
 33 H        4.0750     0.8820     2.2760 H     1 <1>   0.0800 
 34 H        3.2810     2.9470    -1.1700 H     1 <1>   0.0800 
 35 H        4.0130     1.4070    -1.4450 H     1 <1>   0.0800 
 36 H        4.3160     3.0510     1.1020 H     1 <1>   0.0800 
 37 H        5.3850     3.1400    -0.2690 H     1 <1>   0.0800 
 38 H        7.2050     0.9560     1.9890 H     1 <1>   0.0800 
 39 H        6.3500     2.4000     2.4390 H     1 <1>   0.0800 
 40 H        2.5190    -6.7990     0.4820 H     1 <1>   0.1000 
 41 H        2.1390    -7.9430    -1.7180 H     1 <1>   0.1000 
 42 H        1.2480    -6.5130    -2.3220 H     1 <1>   0.1000 
 43 H       -0.4310    -6.7530    -0.4360 H     1 <1>   0.1000 
 44 H        0.4520    -8.1850     0.1750 H     1 <1>   0.1000 
 45 H       10.5440     2.6350    -1.7850 H     1 <1>   0.0800 
 46 H       11.3980     2.9500    -0.2900 H     1 <1>   0.0800 
 47 H       10.8460     4.2840    -1.2810 H     1 <1>   0.0800 
@<TRIPOS>BOND
  1   1   2  2   
  2   2   3  am  
  3   2   4  1   
  4   3   5  1   
  5   3   6  1   
  6   4   7  ar  
  7   4   8  ar  
  8   5   9  1   
  9   5  26  1   
 10   5  27  1   
 11   6  10  1   
 12   6  28  1   
 13   6  29  1   
 14   7  11  ar  
 15   7  30  1   
 16   8  12  ar  
 17   8  31  1   
 18   9  13  1   
 19   9  32  1   
 20   9  33  1   
 21  10  14  1   
 22  10  34  1   
 23  10  35  1   
 24  11  15  ar  
 25  12  15  ar  
 26  13  14  1   
 27  13  16  1   
 28  14  36  1   
 29  14  37  1   
 30  15  17  1   
 31  16  18  1   
 32  16  38  1   
 33  16  39  1   
 34  17  19  1   
 35  17  20  1   
 36  17  40  1   
 37  18  21  1   
 38  18  22  2   
 39  19  20  1   
 40  19  41  1   
 41  19  42  1   
 42  20  43  1   
 43  20  44  1   
 44  21  23  1   
 45  22  24  1   
 46  23  24  2   
 47  24  25  1   
 48  25  45  1   
 49  25  46  1   
 50  25  47  1   
@<TRIPOS>SUBSTRUCTURE
  1 ****   5 GROUP 4 **** **** 0

# MOE 2024.06 (io_trps.svl 2023.06)
