@<TRIPOS>MOLECULE
NONAME
44 45 1 0 0 
SMALL
USER_CHARGES


@<TRIPOS>ATOM
  1 S        1.0700     0.1540    -0.9520 S.3   1 <1>  -0.0800 
  2 C        1.2980    -1.0040     0.3320 C.2   1 <1>  -0.1400 
  3 C        1.5900     1.4200     0.1350 C.2   1 <1>   0.2280 
  4 C        1.7340    -0.3560     1.4250 C.2   1 <1>   0.0460 
  5 C        0.9850    -2.4500     0.0290 C.3   1 <1>   0.5230 
  6 N        1.8860     1.0110     1.3030 N.2   1 <1>  -0.5650 
  7 C        2.0820    -0.9370     2.7810 C.3   1 <1>  -0.0590 
  8 N       -0.4600    -2.5590    -0.3150 N.4   1 <1>  -0.9590 
  9 C       -0.7920    -3.9310    -0.8310 C.3   1 <1>   0.3430 
 10 C       -1.3330    -2.1390     0.8240 C.3   1 <1>   0.3430 
 11 C       -2.2820    -4.0680    -1.1970 C.3   1 <1>   0.2000 
 12 C       -2.8060    -2.2310     0.4150 C.3   1 <1>  -0.1600 
 13 O       -2.5020    -5.3840    -1.5640 O.3   1 <1>  -0.6800 
 14 C       -3.2220    -3.6580    -0.0300 C.3   1 <1>   0.0000 
 15 C       -3.0510    -4.6630     1.1480 C.3   1 <1>   0.1200 
 16 C       -4.7160    -3.6730    -0.4710 C.3   1 <1>  -0.1600 
 17 O       -3.8450    -4.3250     2.2350 O.3   1 <1>  -0.6800 
 18 C       -5.0820    -2.8650    -1.7310 C.3   1 <1>  -0.1600 
 19 C       -6.5870    -2.9440    -1.9990 C.3   1 <1>  -0.2400 
 20 H        1.6210     2.4250    -0.2490 H     1 <1>   0.1500 
 21 H        1.2120    -3.0630     0.8860 H     1 <1>   0.0800 
 22 H        1.5920    -2.7770    -0.7990 H     1 <1>   0.0800 
 23 H        1.9420    -2.0010     2.8040 H     1 <1>   0.0800 
 24 H        1.4660    -0.4850     3.5370 H     1 <1>   0.0800 
 25 H        3.1110    -0.7180     3.0090 H     1 <1>   0.0800 
 26 H       -0.6120    -1.8800    -1.0740 H     1 <1>   0.4500 
 27 H       -0.2030    -4.1450    -1.7080 H     1 <1>   0.0800 
 28 H       -0.5590    -4.6650    -0.0790 H     1 <1>   0.0800 
 29 H       -1.1530    -2.7720     1.6790 H     1 <1>   0.0800 
 30 H       -1.1060    -1.1230     1.1070 H     1 <1>   0.0800 
 31 H       -2.4670    -3.4610    -2.0660 H     1 <1>   0.0800 
 32 H       -3.4160    -1.9110     1.2410 H     1 <1>   0.0800 
 33 H       -2.9740    -1.5250    -0.3780 H     1 <1>   0.0800 
 34 H       -3.4330    -5.5170    -1.8450 H     1 <1>   0.4000 
 35 H       -2.0350    -4.7170     1.4940 H     1 <1>   0.0800 
 36 H       -3.3470    -5.6540     0.8440 H     1 <1>   0.0800 
 37 H       -5.0210    -4.6940    -0.6290 H     1 <1>   0.0800 
 38 H       -5.3190    -3.3060     0.3430 H     1 <1>   0.0800 
 39 H       -3.7100    -3.4090     2.5400 H     1 <1>   0.4000 
 40 H       -4.8180    -1.8290    -1.6100 H     1 <1>   0.0800 
 41 H       -4.5710    -3.2490    -2.5950 H     1 <1>   0.0800 
 42 H       -7.1420    -2.5390    -1.1700 H     1 <1>   0.0800 
 43 H       -6.8930    -3.9640    -2.1520 H     1 <1>   0.0800 
 44 H       -6.8360    -2.3800    -2.8810 H     1 <1>   0.0800 
@<TRIPOS>BOND
  1   1   2  1   
  2   1   3  1   
  3   2   4  2   
  4   2   5  1   
  5   3   6  2   
  6   3  20  1   
  7   4   6  1   
  8   4   7  1   
  9   5   8  1   
 10   5  21  1   
 11   5  22  1   
 12   7  23  1   
 13   7  24  1   
 14   7  25  1   
 15   8   9  1   
 16   8  10  1   
 17   8  26  1   
 18   9  11  1   
 19   9  27  1   
 20   9  28  1   
 21  10  12  1   
 22  10  29  1   
 23  10  30  1   
 24  11  13  1   
 25  11  14  1   
 26  11  31  1   
 27  12  14  1   
 28  12  32  1   
 29  12  33  1   
 30  13  34  1   
 31  14  15  1   
 32  14  16  1   
 33  15  17  1   
 34  15  35  1   
 35  15  36  1   
 36  16  18  1   
 37  16  37  1   
 38  16  38  1   
 39  17  39  1   
 40  18  19  1   
 41  18  40  1   
 42  18  41  1   
 43  19  42  1   
 44  19  43  1   
 45  19  44  1   
@<TRIPOS>SUBSTRUCTURE
  1 ****  10 GROUP 4 **** **** 0

# MOE 2024.06 (io_trps.svl 2023.06)
