@<TRIPOS>MOLECULE
NONAME
49 51 1 0 0 
SMALL
USER_CHARGES


@<TRIPOS>ATOM
  1 O       -1.9560     0.4500     3.0890 O.2   1 <1>  -0.5700 
  2 C       -2.1010     1.0940     2.0750 C.2   1 <1>   0.5690 
  3 N       -2.5560     0.5110     0.9230 N.am  1 <1>  -0.6600 
  4 C       -1.7760     2.5820     2.1250 C.3   1 <1>   0.0440 
  5 C       -2.6100     1.1310    -0.4260 C.3   1 <1>   0.1400 
  6 C       -2.9410    -0.9140     0.8400 C.3   1 <1>   0.1400 
  7 C       -0.6490     2.9960     1.1830 C.ar  1 <1>  -0.1440 
  8 C       -3.1590     0.0450    -1.3610 C.3   1 <1>   0.2000 
  9 C       -2.8160    -1.2650    -0.6440 C.3   1 <1>  -0.0800 
 10 C        0.5450     2.2920     1.1710 C.ar  1 <1>  -0.1500 
 11 C       -0.8050     4.0760     0.3280 C.ar  1 <1>  -0.1500 
 12 O       -4.5520     0.1580    -1.4550 O.3   1 <1>  -0.5600 
 13 C       -3.6740    -2.4710    -1.0670 C.3   1 <1>   0.0200 
 14 C        1.5640     2.6570     0.3090 C.ar  1 <1>  -0.1500 
 15 C        0.2150     4.4410    -0.5340 C.ar  1 <1>  -0.1500 
 16 C       -5.0120     1.0380    -2.4320 C.3   1 <1>   0.0400 
 17 C       -3.1970    -3.7850    -0.4700 C.2   1 <1>  -0.0400 
 18 C        1.4060     3.7320    -0.5500 C.ar  1 <1>  -0.1430 
 19 O       -3.8950    -4.8660    -0.6960 O.3   1 <1>  -0.0190 
 20 C       -2.1440    -4.1320     0.2890 C.2   1 <1>  -0.1500 
 21 C        2.5300     4.1310    -1.4900 C.3   1 <1>   0.2630 
 22 N       -3.3710    -5.9140    -0.1280 N.2   1 <1>  -0.4100 
 23 C       -2.3150    -5.5010     0.4740 C.2   1 <1>   0.1080 
 24 O        3.5600     4.6320    -0.7210 O.3   1 <1>  -0.6800 
 25 C       -1.3880    -6.3890     1.2740 C.3   1 <1>  -0.0590 
 26 H       -2.6740     3.1240     1.8970 H     1 <1>   0.0800 
 27 H       -1.4930     2.8360     3.1300 H     1 <1>   0.0800 
 28 H       -3.2300     2.0090    -0.4240 H     1 <1>   0.0800 
 29 H       -1.6110     1.3890    -0.7300 H     1 <1>   0.0800 
 30 H       -2.3040    -1.5230     1.4580 H     1 <1>   0.0800 
 31 H       -3.9620    -1.0150     1.1680 H     1 <1>   0.0800 
 32 H       -2.7300     0.0890    -2.3480 H     1 <1>   0.0800 
 33 H       -1.7820    -1.4860    -0.8450 H     1 <1>   0.0800 
 34 H        0.6870     1.4540     1.8340 H     1 <1>   0.1500 
 35 H       -1.7210     4.6410     0.3280 H     1 <1>   0.1500 
 36 H       -3.6580    -2.5610    -2.1380 H     1 <1>   0.0800 
 37 H       -4.6970    -2.3120    -0.7700 H     1 <1>   0.0800 
 38 H        2.4880     2.1040     0.3120 H     1 <1>   0.1500 
 39 H        0.0760     5.2840    -1.1890 H     1 <1>   0.1500 
 40 H       -6.0870     1.0500    -2.3880 H     1 <1>   0.0800 
 41 H       -4.6950     0.6910    -3.4000 H     1 <1>   0.0800 
 42 H       -4.6320     2.0260    -2.2390 H     1 <1>   0.0800 
 43 H       -1.3410    -3.5380     0.6820 H     1 <1>   0.1500 
 44 H        2.2160     4.8990    -2.1740 H     1 <1>   0.0800 
 45 H        2.9000     3.2850    -2.0430 H     1 <1>   0.0800 
 46 H        3.1760     5.0620     0.0670 H     1 <1>   0.4000 
 47 H       -1.3380    -6.0410     2.2890 H     1 <1>   0.0800 
 48 H       -0.4050    -6.3720     0.8420 H     1 <1>   0.0800 
 49 H       -1.7550    -7.3990     1.2690 H     1 <1>   0.0800 
@<TRIPOS>BOND
  1   1   2  2   
  2   2   3  am  
  3   2   4  1   
  4   3   5  1   
  5   3   6  1   
  6   4   7  1   
  7   4  26  1   
  8   4  27  1   
  9   5   8  1   
 10   5  28  1   
 11   5  29  1   
 12   6   9  1   
 13   6  30  1   
 14   6  31  1   
 15   7  10  ar  
 16   7  11  ar  
 17   8   9  1   
 18   8  12  1   
 19   8  32  1   
 20   9  13  1   
 21   9  33  1   
 22  10  14  ar  
 23  10  34  1   
 24  11  15  ar  
 25  11  35  1   
 26  12  16  1   
 27  13  17  1   
 28  13  36  1   
 29  13  37  1   
 30  14  18  ar  
 31  14  38  1   
 32  15  18  ar  
 33  15  39  1   
 34  16  40  1   
 35  16  41  1   
 36  16  42  1   
 37  17  19  1   
 38  17  20  2   
 39  18  21  1   
 40  19  22  1   
 41  20  23  1   
 42  20  43  1   
 43  21  24  1   
 44  21  44  1   
 45  21  45  1   
 46  22  23  2   
 47  23  25  1   
 48  24  46  1   
 49  25  47  1   
 50  25  48  1   
 51  25  49  1   
@<TRIPOS>SUBSTRUCTURE
  1 ****   3 GROUP 4 **** **** 0

# MOE 2024.06 (io_trps.svl 2023.06)
