@<TRIPOS>MOLECULE
NONAME
61 64 1 0 0 
SMALL
USER_CHARGES


@<TRIPOS>ATOM
  1 S       -0.0570    -1.0800     0.6120 S.o2  1 <1>   1.2040 
  2 O        0.6190    -0.6620    -0.5960 O.2   1 <1>  -0.6500 
  3 O        0.0780    -0.3000     1.8220 O.2   1 <1>  -0.6500 
  4 C       -1.8090    -1.3680     0.2630 C.ar  1 <1>  -0.0090 
  5 C        0.5140    -2.7260     0.9860 C.3   1 <1>  -0.1350 
  6 C       -2.7600    -1.3320     1.2730 C.ar  1 <1>  -0.1500 
  7 C       -2.2490    -1.6650    -1.0180 C.ar  1 <1>  -0.1500 
  8 C       -4.0970    -1.5830     1.0180 C.ar  1 <1>  -0.1500 
  9 C       -3.5840    -1.9160    -1.2790 C.ar  1 <1>  -0.1500 
 10 C       -4.5370    -1.8790    -0.2690 C.ar  1 <1>  -0.1430 
 11 C       -6.0130    -2.1710    -0.6390 C.3   1 <1>   0.2040 
 12 C       -6.0410    -3.5530    -1.3440 C.2   1 <1>   0.5690 
 13 C       -6.9400    -2.2060     0.6090 C.3   1 <1>  -0.1600 
 14 C       -6.5080    -1.0120    -1.5500 C.3   1 <1>  -0.1600 
 15 O       -6.3810    -3.6670    -2.5000 O.2   1 <1>  -0.5700 
 16 N       -5.6400    -4.6520    -0.6470 N.am  1 <1>  -0.7300 
 17 C       -8.4260    -2.3470     0.2480 C.3   1 <1>  -0.1600 
 18 C       -8.0110    -1.0630    -1.8850 C.3   1 <1>  -0.1600 
 19 C       -5.5230    -6.0220    -1.1950 C.3   1 <1>   0.2200 
 20 C       -8.8750    -1.1710    -0.6250 C.3   1 <1>  -0.1600 
 21 C       -6.5770    -6.9480    -0.6020 C.3   1 <1>  -0.0800 
 22 C       -4.2510    -6.6570    -0.6520 C.3   1 <1>   0.1200 
 23 C       -5.9250    -7.4370     0.6980 C.3   1 <1>   0.1200 
 24 C       -7.9760    -6.3340    -0.4140 C.3   1 <1>  -0.0160 
 25 O       -4.5780    -7.0630     0.6410 O.3   1 <1>  -0.5600 
 26 C       -8.9740    -7.3840     0.0500 C.ar  1 <1>  -0.1430 
 27 C       -9.5820    -8.2470    -0.8390 C.ar  1 <1>  -0.1500 
 28 C       -9.3230    -7.5300     1.3770 C.ar  1 <1>  -0.1500 
 29 C      -10.4800    -9.1910    -0.3710 C.ar  1 <1>   0.1600 
 30 C      -10.2330    -8.5090     1.7410 C.ar  1 <1>   0.1600 
 31 N      -10.8180    -9.3450     0.8990 N.ar  1 <1>  -0.6200 
 32 H        0.3630    -3.3740     0.1450 H     1 <1>   0.0800 
 33 H       -0.0140    -3.1220     1.8310 H     1 <1>   0.0800 
 34 H        1.5620    -2.7050     1.2180 H     1 <1>   0.0800 
 35 H       -2.4500    -1.0980     2.2790 H     1 <1>   0.1500 
 36 H       -1.5390    -1.6950    -1.8290 H     1 <1>   0.1500 
 37 H       -4.7730    -1.5350     1.8520 H     1 <1>   0.1500 
 38 H       -3.8760    -2.1420    -2.2920 H     1 <1>   0.1500 
 39 H       -6.6550    -3.0110     1.2620 H     1 <1>   0.0800 
 40 H       -6.8340    -1.2850     1.1540 H     1 <1>   0.0800 
 41 H       -6.3030    -0.0780    -1.0560 H     1 <1>   0.0800 
 42 H       -5.9540    -1.0110    -2.4720 H     1 <1>   0.0800 
 43 H       -5.2780    -4.5530     0.3040 H     1 <1>   0.3700 
 44 H       -8.5980    -3.2690    -0.2810 H     1 <1>   0.0800 
 45 H       -9.0170    -2.3690     1.1470 H     1 <1>   0.0800 
 46 H       -8.2860    -0.1770    -2.4320 H     1 <1>   0.0800 
 47 H       -8.2140    -1.9060    -2.5240 H     1 <1>   0.0800 
 48 H       -5.5430    -6.0060    -2.2720 H     1 <1>   0.0800 
 49 H       -8.8000    -0.2570    -0.0620 H     1 <1>   0.0800 
 50 H       -9.9060    -1.3010    -0.9060 H     1 <1>   0.0800 
 51 H       -6.6680    -7.7980    -1.2540 H     1 <1>   0.0800 
 52 H       -3.4220    -5.9720    -0.6230 H     1 <1>   0.0800 
 53 H       -3.9880    -7.5330    -1.2190 H     1 <1>   0.0800 
 54 H       -5.9860    -8.5080     0.7930 H     1 <1>   0.0800 
 55 H       -6.3570    -6.9700     1.5650 H     1 <1>   0.0800 
 56 H       -8.3100    -5.9130    -1.3470 H     1 <1>   0.0800 
 57 H       -7.9410    -5.5380     0.3070 H     1 <1>   0.0800 
 58 H       -9.3670    -8.1930    -1.8910 H     1 <1>   0.1500 
 59 H       -8.8980    -6.8950     2.1320 H     1 <1>   0.1500 
 60 H      -10.9450    -9.8560    -1.0790 H     1 <1>   0.1500 
 61 H      -10.4930    -8.6100     2.7810 H     1 <1>   0.1500 
@<TRIPOS>BOND
  1   1   2  2   
  2   1   3  2   
  3   1   4  1   
  4   1   5  1   
  5   4   6  ar  
  6   4   7  ar  
  7   5  32  1   
  8   5  33  1   
  9   5  34  1   
 10   6   8  ar  
 11   6  35  1   
 12   7   9  ar  
 13   7  36  1   
 14   8  10  ar  
 15   8  37  1   
 16   9  10  ar  
 17   9  38  1   
 18  10  11  1   
 19  11  12  1   
 20  11  13  1   
 21  11  14  1   
 22  12  15  2   
 23  12  16  am  
 24  13  17  1   
 25  13  39  1   
 26  13  40  1   
 27  14  18  1   
 28  14  41  1   
 29  14  42  1   
 30  16  19  1   
 31  16  43  1   
 32  17  20  1   
 33  17  44  1   
 34  17  45  1   
 35  18  20  1   
 36  18  46  1   
 37  18  47  1   
 38  19  21  1   
 39  19  22  1   
 40  19  48  1   
 41  20  49  1   
 42  20  50  1   
 43  21  23  1   
 44  21  24  1   
 45  21  51  1   
 46  22  25  1   
 47  22  52  1   
 48  22  53  1   
 49  23  25  1   
 50  23  54  1   
 51  23  55  1   
 52  24  26  1   
 53  24  56  1   
 54  24  57  1   
 55  26  27  ar  
 56  26  28  ar  
 57  27  29  ar  
 58  27  58  1   
 59  28  30  ar  
 60  28  59  1   
 61  29  31  ar  
 62  29  60  1   
 63  30  31  ar  
 64  30  61  1   
@<TRIPOS>SUBSTRUCTURE
  1 ****  16 GROUP 4 **** **** 0

# MOE 2024.06 (io_trps.svl 2023.06)
