@<TRIPOS>MOLECULE
NONAME
43 45 1 0 0 
SMALL
USER_CHARGES


@<TRIPOS>ATOM
  1 S        0.5110    -0.6060     1.9160 S.o2  1 <1>   1.5010 
  2 O        1.6570    -1.4630     2.1240 O.2   1 <1>  -0.6500 
  3 O        0.1130     0.3320     2.9370 O.2   1 <1>  -0.6500 
  4 N       -0.8060    -1.6270     1.7410 N.am  1 <1>  -0.9140 
  5 C        0.5910     0.1890     0.2910 C.2   1 <1>  -0.0630 
  6 C       -0.5260    -2.8490     0.9990 C.3   1 <1>   0.2760 
  7 C       -0.3700     0.9390    -0.2940 C.2   1 <1>  -0.1400 
  8 C        1.7500     0.0470    -0.5480 C.2   1 <1>  -0.1500 
  9 C       -1.8210    -3.4140     0.4310 C.3   1 <1>  -0.0800 
 10 C       -0.1450    -3.9700     1.9640 C.3   1 <1>   0.1200 
 11 S        0.1200     1.4780    -1.8890 S.3   1 <1>  -0.0800 
 12 C       -1.7470     1.3790     0.1670 C.3   1 <1>  -0.0600 
 13 C        1.6630     0.6680    -1.7370 C.2   1 <1>  -0.1400 
 14 C       -2.3960    -4.2090     1.6100 C.3   1 <1>   0.1200 
 15 C       -2.7910    -2.3800    -0.1730 C.3   1 <1>  -0.0160 
 16 O       -1.3530    -4.3820     2.5260 O.3   1 <1>  -0.5600 
 17 C        2.6240     0.7820    -2.9020 C.3   1 <1>  -0.0600 
 18 C       -3.9970    -3.0650    -0.7920 C.ar  1 <1>  -0.1430 
 19 C       -5.1960    -3.1830    -0.1190 C.ar  1 <1>  -0.1500 
 20 C       -3.9520    -3.6070    -2.0600 C.ar  1 <1>  -0.1500 
 21 C       -6.2620    -3.8240    -0.7280 C.ar  1 <1>   0.1600 
 22 C       -5.0760    -4.2290    -2.5780 C.ar  1 <1>   0.1600 
 23 N       -6.2280    -4.3520    -1.9400 N.ar  1 <1>  -0.6200 
 24 H       -1.0360    -1.9220     2.6900 H     1 <1>   0.4200 
 25 H        0.2120    -2.6870     0.2300 H     1 <1>   0.0800 
 26 H        2.6020    -0.5190    -0.2080 H     1 <1>   0.1500 
 27 H       -1.5630    -4.1210    -0.3370 H     1 <1>   0.0800 
 28 H        0.5300    -3.6600     2.7420 H     1 <1>   0.0800 
 29 H        0.2740    -4.8060     1.4320 H     1 <1>   0.0800 
 30 H       -1.9590     1.0070     1.1530 H     1 <1>   0.0800 
 31 H       -2.4960     1.0100    -0.5110 H     1 <1>   0.0800 
 32 H       -1.7980     2.4530     0.1890 H     1 <1>   0.0800 
 33 H       -2.7580    -5.1750     1.3020 H     1 <1>   0.0800 
 34 H       -3.1800    -3.6680     2.1100 H     1 <1>   0.0800 
 35 H       -2.2800    -1.8080    -0.9280 H     1 <1>   0.0800 
 36 H       -3.1250    -1.6900     0.5820 H     1 <1>   0.0800 
 37 H        3.5320     0.2470    -2.6890 H     1 <1>   0.0800 
 38 H        2.8630     1.8160    -3.0780 H     1 <1>   0.0800 
 39 H        2.1770     0.3720    -3.7890 H     1 <1>   0.0800 
 40 H       -5.3150    -2.7830     0.8710 H     1 <1>   0.1500 
 41 H       -3.0560    -3.5530    -2.6510 H     1 <1>   0.1500 
 42 H       -7.1910    -3.9080    -0.1900 H     1 <1>   0.1500 
 43 H       -5.0250    -4.6460    -3.5690 H     1 <1>   0.1500 
@<TRIPOS>BOND
  1   1   2  2   
  2   1   3  2   
  3   1   4  am  
  4   1   5  1   
  5   4   6  1   
  6   4  24  1   
  7   5   7  2   
  8   5   8  1   
  9   6   9  1   
 10   6  10  1   
 11   6  25  1   
 12   7  11  1   
 13   7  12  1   
 14   8  13  2   
 15   8  26  1   
 16   9  14  1   
 17   9  15  1   
 18   9  27  1   
 19  10  16  1   
 20  10  28  1   
 21  10  29  1   
 22  11  13  1   
 23  12  30  1   
 24  12  31  1   
 25  12  32  1   
 26  13  17  1   
 27  14  16  1   
 28  14  33  1   
 29  14  34  1   
 30  15  18  1   
 31  15  35  1   
 32  15  36  1   
 33  17  37  1   
 34  17  38  1   
 35  17  39  1   
 36  18  19  ar  
 37  18  20  ar  
 38  19  21  ar  
 39  19  40  1   
 40  20  22  ar  
 41  20  41  1   
 42  21  23  ar  
 43  21  42  1   
 44  22  23  ar  
 45  22  43  1   
@<TRIPOS>SUBSTRUCTURE
  1 ****  15 GROUP 4 **** **** 0

# MOE 2024.06 (io_trps.svl 2023.06)
