@<TRIPOS>MOLECULE
NONAME
41 42 1 0 0 
SMALL
USER_CHARGES


@<TRIPOS>ATOM
  1 O       -0.3290     0.4880    -0.7680 O.2   1 <1>  -0.5700 
  2 C       -1.3790     1.0270    -0.4690 C.2   1 <1>   0.6900 
  3 N       -1.5660     2.3780    -0.7410 N.am  1 <1>  -0.4690 
  4 N       -2.3840     0.3050     0.1440 N.am  1 <1>  -0.4200 
  5 C       -2.6980     3.0650    -0.2620 C.2   1 <1>   0.1230 
  6 C       -0.6390     3.0220    -1.7240 C.3   1 <1>   0.0600 
  7 C       -3.5400     0.9350     0.5530 C.2   1 <1>   0.6160 
  8 C       -2.2080    -1.1580     0.3890 C.3   1 <1>   0.0600 
  9 C       -2.8270     4.5050    -0.3920 C.2   1 <1>   0.6160 
 10 C       -3.6640     2.3290     0.3440 C.2   1 <1>  -0.1360 
 11 O       -4.4280     0.3090     1.1020 O.2   1 <1>  -0.5700 
 12 O       -3.8450     4.9840    -0.8490 O.2   1 <1>  -0.5700 
 13 N       -1.7940     5.3100     0.0280 N.am  1 <1>  -0.4940 
 14 C       -1.5610     6.7030    -0.0850 C.2   1 <1>  -0.0880 
 15 N       -2.4740     7.7180    -0.0480 N.pl3 1 <1>   0.3140 
 16 C       -0.3490     7.2930    -0.2310 C.2   1 <1>  -0.1810 
 17 N       -1.8740     8.9210    -0.1700 N.2   1 <1>  -0.7070 
 18 C       -3.9190     7.6640     0.2070 C.3   1 <1>   0.0160 
 19 C       -0.6120     8.6590    -0.2820 C.2   1 <1>   0.1080 
 20 C        1.0230     6.6460    -0.3250 C.3   1 <1>  -0.0590 
 21 C        0.4200     9.7610    -0.4440 C.3   1 <1>   0.0210 
 22 C        0.9350    10.2430     0.9160 C.3   1 <1>  -0.2400 
 23 H       -0.3290     2.3030    -2.4640 H     1 <1>   0.0800 
 24 H        0.2360     3.3850    -1.2150 H     1 <1>   0.0800 
 25 H       -1.1210     3.8350    -2.2390 H     1 <1>   0.0800 
 26 H       -1.5730    -1.5920    -0.3630 H     1 <1>   0.0800 
 27 H       -3.1580    -1.6610     0.3600 H     1 <1>   0.0800 
 28 H       -1.7600    -1.3070     1.3560 H     1 <1>   0.0800 
 29 H       -4.5700     2.7790     0.7040 H     1 <1>   0.1500 
 30 H       -0.9960     4.7890     0.3890 H     1 <1>   0.3700 
 31 H       -4.1290     6.8830     0.9130 H     1 <1>   0.0800 
 32 H       -4.4290     7.4710    -0.7180 H     1 <1>   0.0800 
 33 H       -4.2430     8.6070     0.6050 H     1 <1>   0.0800 
 34 H        0.9590     5.5830    -0.1880 H     1 <1>   0.0800 
 35 H        1.6690     7.0510     0.4320 H     1 <1>   0.0800 
 36 H        1.4510     6.8430    -1.2910 H     1 <1>   0.0800 
 37 H       -0.0370    10.5840    -0.9650 H     1 <1>   0.0800 
 38 H        1.2390     9.4070    -1.0430 H     1 <1>   0.0800 
 39 H        0.1120    10.6110     1.5040 H     1 <1>   0.0800 
 40 H        1.6490    11.0360     0.7840 H     1 <1>   0.0800 
 41 H        1.4020     9.4340     1.4470 H     1 <1>   0.0800 
@<TRIPOS>BOND
  1   1   2  2   
  2   2   3  am  
  3   2   4  am  
  4   3   5  1   
  5   3   6  1   
  6   4   7  am  
  7   4   8  1   
  8   5   9  1   
  9   5  10  2   
 10   6  23  1   
 11   6  24  1   
 12   6  25  1   
 13   7  10  1   
 14   7  11  2   
 15   8  26  1   
 16   8  27  1   
 17   8  28  1   
 18   9  12  2   
 19   9  13  am  
 20  10  29  1   
 21  13  14  1   
 22  13  30  1   
 23  14  15  1   
 24  14  16  2   
 25  15  17  1   
 26  15  18  1   
 27  16  19  1   
 28  16  20  1   
 29  17  19  2   
 30  18  31  1   
 31  18  32  1   
 32  18  33  1   
 33  19  21  1   
 34  20  34  1   
 35  20  35  1   
 36  20  36  1   
 37  21  22  1   
 38  21  37  1   
 39  21  38  1   
 40  22  39  1   
 41  22  40  1   
 42  22  41  1   
@<TRIPOS>SUBSTRUCTURE
  1 ****  13 GROUP 4 **** **** 0

# MOE 2024.06 (io_trps.svl 2023.06)
