@<TRIPOS>MOLECULE
NONAME
42 44 1 0 0 
SMALL
USER_CHARGES


@<TRIPOS>ATOM
  1 F        0.0390    -0.9120    -0.6750 F     1 <1>  -0.3400 
  2 C        0.2680    -1.5150     0.4910 C.3   1 <1>   1.1640 
  3 F        1.4980    -1.1520     0.8430 F     1 <1>  -0.3400 
  4 F       -0.5560    -0.9350     1.3580 F     1 <1>  -0.3400 
  5 C        0.0800    -3.0610     0.4240 C.ar  1 <1>   0.1660 
  6 N        0.3300    -3.7900     1.5190 N.ar  1 <1>  -0.6200 
  7 C       -0.3420    -3.6560    -0.7650 C.ar  1 <1>  -0.1500 
  8 C        0.1660    -5.1010     1.4220 C.ar  1 <1>   0.1600 
  9 C       -0.5160    -5.0210    -0.8410 C.ar  1 <1>  -0.1500 
 10 C       -0.2650    -5.7810     0.2900 C.ar  1 <1>   0.0860 
 11 C       -0.4290    -7.2180     0.3220 C.2   1 <1>   0.5440 
 12 O        0.5100    -7.9010     0.6830 O.2   1 <1>  -0.5700 
 13 N       -1.6130    -7.8350    -0.0290 N.am  1 <1>  -0.6600 
 14 C       -2.9190    -7.1070    -0.0100 C.3   1 <1>   0.2200 
 15 C       -1.6330    -9.3170    -0.2370 C.3   1 <1>   0.0600 
 16 C       -3.9860    -7.7550     0.8720 C.3   1 <1>  -0.1600 
 17 C       -3.5720    -7.0110    -1.3860 C.3   1 <1>  -0.1600 
 18 C       -5.3120    -7.1860     0.3500 C.3   1 <1>  -0.0800 
 19 C       -5.0460    -6.7090    -1.0890 C.3   1 <1>  -0.0800 
 20 C       -5.8040    -5.9590     1.1320 C.3   1 <1>  -0.1600 
 21 C       -5.3780    -5.2090    -1.1150 C.3   1 <1>  -0.1600 
 22 C       -6.3160    -5.0060     0.0640 C.3   1 <1>   0.2000 
 23 O       -6.2440    -3.7060     0.5110 O.3   1 <1>  -0.6800 
 24 H       -0.5360    -3.0620    -1.6420 H     1 <1>   0.1500 
 25 H        0.3860    -5.6870     2.3000 H     1 <1>   0.1500 
 26 H       -0.8310    -5.4960    -1.7540 H     1 <1>   0.1500 
 27 H       -2.7750    -6.1060     0.3580 H     1 <1>   0.0800 
 28 H       -2.3960    -9.5980    -0.9400 H     1 <1>   0.0800 
 29 H       -1.8150    -9.8100     0.7020 H     1 <1>   0.0800 
 30 H       -0.6830    -9.6500    -0.6180 H     1 <1>   0.0800 
 31 H       -4.0060    -8.8190     0.7310 H     1 <1>   0.0800 
 32 H       -3.8250    -7.5410     1.9140 H     1 <1>   0.0800 
 33 H       -3.1160    -6.2550    -1.9980 H     1 <1>   0.0800 
 34 H       -3.5110    -7.9560    -1.8930 H     1 <1>   0.0800 
 35 H       -6.0760    -7.9460     0.3530 H     1 <1>   0.0800 
 36 H       -5.6880    -7.2330    -1.7780 H     1 <1>   0.0800 
 37 H       -4.9870    -5.5040     1.6650 H     1 <1>   0.0800 
 38 H       -6.5840    -6.2220     1.8240 H     1 <1>   0.0800 
 39 H       -5.8500    -4.9270    -2.0400 H     1 <1>   0.0800 
 40 H       -4.4860    -4.6260    -0.9730 H     1 <1>   0.0800 
 41 H       -7.3350    -5.2310    -0.2050 H     1 <1>   0.0800 
 42 H       -5.3390    -3.5030     0.8080 H     1 <1>   0.4000 
@<TRIPOS>BOND
  1   1   2  1   
  2   2   3  1   
  3   2   4  1   
  4   2   5  1   
  5   5   6  ar  
  6   5   7  ar  
  7   6   8  ar  
  8   7   9  ar  
  9   7  24  1   
 10   8  10  ar  
 11   8  25  1   
 12   9  10  ar  
 13   9  26  1   
 14  10  11  1   
 15  11  12  2   
 16  11  13  am  
 17  13  14  1   
 18  13  15  1   
 19  14  16  1   
 20  14  17  1   
 21  14  27  1   
 22  15  28  1   
 23  15  29  1   
 24  15  30  1   
 25  16  18  1   
 26  16  31  1   
 27  16  32  1   
 28  17  19  1   
 29  17  33  1   
 30  17  34  1   
 31  18  19  1   
 32  18  20  1   
 33  18  35  1   
 34  19  21  1   
 35  19  36  1   
 36  20  22  1   
 37  20  37  1   
 38  20  38  1   
 39  21  22  1   
 40  21  39  1   
 41  21  40  1   
 42  22  23  1   
 43  22  41  1   
 44  23  42  1   
@<TRIPOS>SUBSTRUCTURE
  1 ****   9 GROUP 4 **** **** 0

# MOE 2024.06 (io_trps.svl 2023.06)
