@<TRIPOS>MOLECULE
NONAME
47 49 1 0 0 
SMALL
USER_CHARGES


@<TRIPOS>ATOM
  1 O        1.9630    -0.7610    -2.2630 O.2   1 <1>  -0.5700 
  2 C        1.6340    -1.0040    -1.1270 C.2   1 <1>   0.5690 
  3 N        1.6520    -0.1060    -0.0990 N.am  1 <1>  -0.5470 
  4 C        1.1450    -2.4120    -0.7830 C.3   1 <1>   0.1710 
  5 C        2.0160     1.2450    -0.0010 C.ar  1 <1>   0.1170 
  6 N        0.2590    -2.4600     0.4220 N.3   1 <1>  -0.8100 
  7 C        2.6160     1.9530    -1.0370 C.ar  1 <1>  -0.1500 
  8 C        1.7680     1.9100     1.1950 C.ar  1 <1>  -0.1500 
  9 C       -1.0790    -1.8770     0.1480 C.3   1 <1>   0.1100 
 10 C        0.0120    -3.8420     0.8500 C.3   1 <1>   0.1100 
 11 C        2.9540     3.2860    -0.8840 C.ar  1 <1>  -0.1500 
 12 C        2.1040     3.2430     1.3520 C.ar  1 <1>  -0.1500 
 13 C       -2.1150    -3.0130     0.1790 C.3   1 <1>   0.2000 
 14 C       -1.2630    -4.2780     0.1330 C.3   1 <1>  -0.0800 
 15 C        2.6990     3.9340     0.3110 C.ar  1 <1>  -0.1500 
 16 O       -2.8210    -2.9820     1.3880 O.3   1 <1>  -0.5600 
 17 C       -1.9130    -5.5290     0.7500 C.3   1 <1>   0.0200 
 18 C       -3.9160    -2.1200     1.4110 C.3   1 <1>   0.0400 
 19 C       -1.0900    -6.7890     0.5370 C.2   1 <1>  -0.0400 
 20 O       -1.4430    -7.8830     1.1570 O.3   1 <1>  -0.0190 
 21 C       -0.0010    -7.0700    -0.1980 C.2   1 <1>  -0.1500 
 22 N       -0.6500    -8.8780     0.8800 N.2   1 <1>  -0.4100 
 23 C        0.2290    -8.4170     0.0660 C.2   1 <1>   0.1080 
 24 C        1.3560    -9.2370    -0.5210 C.3   1 <1>  -0.0590 
 25 H        1.2650    -0.5290     0.7520 H     1 <1>   0.3700 
 26 H        2.0190    -3.0110    -0.6040 H     1 <1>   0.0800 
 27 H        0.6340    -2.8180    -1.6380 H     1 <1>   0.0800 
 28 H        2.8260     1.4680    -1.9720 H     1 <1>   0.1500 
 29 H        1.3070     1.3830     2.0100 H     1 <1>   0.1500 
 30 H       -1.3090    -1.1400     0.8980 H     1 <1>   0.0800 
 31 H       -1.0950    -1.3990    -0.8170 H     1 <1>   0.0800 
 32 H        0.8480    -4.4880     0.6420 H     1 <1>   0.0800 
 33 H       -0.1620    -3.8410     1.9140 H     1 <1>   0.0800 
 34 H        3.4170     3.8170    -1.6970 H     1 <1>   0.1500 
 35 H        1.9050     3.7430     2.2840 H     1 <1>   0.1500 
 36 H       -2.8110    -2.9680    -0.6410 H     1 <1>   0.0800 
 37 H       -1.0240    -4.4810    -0.8960 H     1 <1>   0.0800 
 38 H        2.9620     4.9700     0.4300 H     1 <1>   0.1500 
 39 H       -2.8850    -5.6800     0.3160 H     1 <1>   0.0800 
 40 H       -2.0490    -5.3840     1.8080 H     1 <1>   0.0800 
 41 H       -4.3600    -2.1730     2.3900 H     1 <1>   0.0800 
 42 H       -4.6320    -2.4350     0.6730 H     1 <1>   0.0800 
 43 H       -3.5890    -1.1130     1.2180 H     1 <1>   0.0800 
 44 H        0.5820    -6.4460    -0.8470 H     1 <1>   0.1500 
 45 H        2.2960    -8.7520    -0.3380 H     1 <1>   0.0800 
 46 H        1.2110    -9.3480    -1.5800 H     1 <1>   0.0800 
 47 H        1.3730   -10.2120    -0.0690 H     1 <1>   0.0800 
@<TRIPOS>BOND
  1   1   2  2   
  2   2   3  am  
  3   2   4  1   
  4   3   5  1   
  5   3  25  1   
  6   4   6  1   
  7   4  26  1   
  8   4  27  1   
  9   5   7  ar  
 10   5   8  ar  
 11   6   9  1   
 12   6  10  1   
 13   7  11  ar  
 14   7  28  1   
 15   8  12  ar  
 16   8  29  1   
 17   9  13  1   
 18   9  30  1   
 19   9  31  1   
 20  10  14  1   
 21  10  32  1   
 22  10  33  1   
 23  11  15  ar  
 24  11  34  1   
 25  12  15  ar  
 26  12  35  1   
 27  13  14  1   
 28  13  16  1   
 29  13  36  1   
 30  14  17  1   
 31  14  37  1   
 32  15  38  1   
 33  16  18  1   
 34  17  19  1   
 35  17  39  1   
 36  17  40  1   
 37  18  41  1   
 38  18  42  1   
 39  18  43  1   
 40  19  20  1   
 41  19  21  2   
 42  20  22  1   
 43  21  23  1   
 44  21  44  1   
 45  22  23  2   
 46  23  24  1   
 47  24  45  1   
 48  24  46  1   
 49  24  47  1   
@<TRIPOS>SUBSTRUCTURE
  1 ****   6 GROUP 4 **** **** 0

# MOE 2024.06 (io_trps.svl 2023.06)
