@<TRIPOS>MOLECULE
NONAME
50 52 1 0 0 
SMALL
USER_CHARGES


@<TRIPOS>ATOM
  1 O       -3.1380     1.5800    -1.7090 O.2   1 <1>  -0.5700 
  2 C       -2.5550     1.4280    -0.6650 C.2   1 <1>   0.5690 
  3 N       -2.2860     0.1990    -0.1660 N.am  1 <1>  -0.7300 
  4 C       -2.1100     2.6500     0.1060 C.3   1 <1>  -0.0990 
  5 C       -2.6610    -1.0750    -0.8200 C.3   1 <1>   0.2200 
  6 C       -0.9630     3.3680    -0.6190 C.3   1 <1>  -0.0220 
  7 C       -3.8490    -1.6790    -0.0890 C.3   1 <1>  -0.0800 
  8 C       -1.5800    -2.1160    -0.5610 C.3   1 <1>   0.1200 
  9 C       -0.5840     4.6630     0.1060 C.2   1 <1>  -0.1240 
 10 C       -3.1790    -2.4460     1.0590 C.3   1 <1>   0.1200 
 11 C       -4.6680    -2.6020    -1.0120 C.3   1 <1>  -0.0160 
 12 O       -1.8300    -2.6030     0.7220 O.3   1 <1>  -0.5600 
 13 C       -1.2260     5.8380    -0.1520 C.2   1 <1>  -0.0290 
 14 C        0.4630     4.6740     1.0840 C.2   1 <1>   0.3750 
 15 C       -5.8730    -3.1840    -0.2900 C.ar  1 <1>  -0.1440 
 16 N       -0.8080     6.9380     0.5350 N.am  1 <1>  -0.5390 
 17 C       -2.3740     6.0810    -1.1220 C.3   1 <1>  -0.1020 
 18 N        0.8330     5.7260     1.7220 N.2   1 <1>  -0.6610 
 19 C        1.2170     3.4010     1.4290 C.3   1 <1>  -0.1790 
 20 C       -6.9910    -2.4220    -0.0170 C.ar  1 <1>  -0.1500 
 21 C       -5.9150    -4.4990     0.1290 C.ar  1 <1>  -0.1500 
 22 C        0.1950     6.9000     1.4510 C.2   1 <1>   0.8410 
 23 C       -8.0640    -2.9940     0.6460 C.ar  1 <1>   0.1600 
 24 C       -7.0390    -4.9730     0.7860 C.ar  1 <1>   0.1600 
 25 O        0.5050     7.9270     2.0200 O.2   1 <1>  -0.5700 
 26 N       -8.1140    -4.2510     1.0560 N.ar  1 <1>  -0.6200 
 27 H       -1.8250     0.0790     0.7390 H     1 <1>   0.3700 
 28 H       -2.9510     3.3120     0.1960 H     1 <1>   0.0800 
 29 H       -1.8050     2.3680     1.0960 H     1 <1>   0.0800 
 30 H       -2.8390    -0.9200    -1.8720 H     1 <1>   0.0800 
 31 H       -1.2640     3.5900    -1.6270 H     1 <1>   0.0800 
 32 H       -0.1200     2.7080    -0.7100 H     1 <1>   0.0800 
 33 H       -4.5000    -0.9110     0.2910 H     1 <1>   0.0800 
 34 H       -0.5870    -1.7060    -0.6080 H     1 <1>   0.0800 
 35 H       -1.6690    -2.9390    -1.2480 H     1 <1>   0.0800 
 36 H       -3.6100    -3.4180     1.2220 H     1 <1>   0.0800 
 37 H       -3.2220    -1.8810     1.9730 H     1 <1>   0.0800 
 38 H       -4.0500    -3.4000    -1.3860 H     1 <1>   0.0800 
 39 H       -5.0170    -2.0380    -1.8600 H     1 <1>   0.0800 
 40 H       -1.2140     7.8630     0.4120 H     1 <1>   0.3700 
 41 H       -3.1690     6.6030    -0.6210 H     1 <1>   0.0800 
 42 H       -2.7830     5.1710    -1.5170 H     1 <1>   0.0800 
 43 H       -2.0320     6.6850    -1.9440 H     1 <1>   0.0800 
 44 H        0.5350     2.6260     1.7200 H     1 <1>   0.0800 
 45 H        1.8890     3.5790     2.2500 H     1 <1>   0.0800 
 46 H        1.7980     3.0790     0.5860 H     1 <1>   0.0800 
 47 H       -7.0390    -1.3910    -0.3150 H     1 <1>   0.1500 
 48 H       -5.0870    -5.1610    -0.0480 H     1 <1>   0.1500 
 49 H       -8.9280    -2.3840     0.8500 H     1 <1>   0.1500 
 50 H       -7.0540    -6.0010     1.1050 H     1 <1>   0.1500 
@<TRIPOS>BOND
  1   1   2  2   
  2   2   3  am  
  3   2   4  1   
  4   3   5  1   
  5   3  27  1   
  6   4   6  1   
  7   4  28  1   
  8   4  29  1   
  9   5   7  1   
 10   5   8  1   
 11   5  30  1   
 12   6   9  1   
 13   6  31  1   
 14   6  32  1   
 15   7  10  1   
 16   7  11  1   
 17   7  33  1   
 18   8  12  1   
 19   8  34  1   
 20   8  35  1   
 21   9  13  2   
 22   9  14  1   
 23  10  12  1   
 24  10  36  1   
 25  10  37  1   
 26  11  15  1   
 27  11  38  1   
 28  11  39  1   
 29  13  16  1   
 30  13  17  1   
 31  14  18  2   
 32  14  19  1   
 33  15  20  ar  
 34  15  21  ar  
 35  16  22  am  
 36  16  40  1   
 37  17  41  1   
 38  17  42  1   
 39  17  43  1   
 40  18  22  1   
 41  19  44  1   
 42  19  45  1   
 43  19  46  1   
 44  20  23  ar  
 45  20  47  1   
 46  21  24  ar  
 47  21  48  1   
 48  22  25  2   
 49  23  26  ar  
 50  23  49  1   
 51  24  26  ar  
 52  24  50  1   
@<TRIPOS>SUBSTRUCTURE
  1 ****   2 GROUP 4 **** **** 0

# MOE 2024.06 (io_trps.svl 2023.06)
