@<TRIPOS>MOLECULE
NONAME
52 56 1 0 0 
SMALL
USER_CHARGES


@<TRIPOS>ATOM
  1 S        1.0360    -1.2910     2.8050 S.3   1 <1>  -0.0800 
  2 C        1.2780    -0.6490     1.1990 C.2   1 <1>  -0.1400 
  3 C        0.5200    -2.8230     2.1380 C.2   1 <1>  -0.1100 
  4 C        0.9940    -1.5630     0.2580 C.2   1 <1>  -0.1810 
  5 C        1.7550     0.7740     1.0110 C.3   1 <1>   0.0200 
  6 C        0.5410    -2.8350     0.7790 C.2   1 <1>  -0.0860 
  7 C        1.1500    -1.2330    -1.2210 C.3   1 <1>   0.0210 
  8 C        1.5630     1.1800    -0.4610 C.3   1 <1>  -0.1600 
  9 C        0.1570    -3.9710    -0.0400 C.2   1 <1>   0.7160 
 10 C        1.9800     0.0520    -1.4260 C.3   1 <1>  -0.1600 
 11 O       -0.2240    -3.8510    -1.1890 O.2   1 <1>  -0.5700 
 12 N        0.1970    -5.2230     0.4940 N.am  1 <1>  -0.7300 
 13 C       -0.2350    -6.4550    -0.1990 C.3   1 <1>   0.2200 
 14 C       -1.7000    -6.7080     0.1110 C.3   1 <1>  -0.0800 
 15 C        0.4330    -7.6710     0.4330 C.3   1 <1>   0.1200 
 16 C       -1.6290    -7.4640     1.4420 C.3   1 <1>   0.1200 
 17 C       -2.3760    -7.5350    -1.0000 C.3   1 <1>  -0.0170 
 18 O       -0.3420    -8.0020     1.5460 O.3   1 <1>  -0.5600 
 19 C       -3.8720    -7.6930    -0.7460 C.ar  1 <1>  -0.1430 
 20 C       -4.7910    -6.6370    -0.9620 C.ar  1 <1>   0.0000 
 21 C       -4.3700    -8.8800    -0.2960 C.ar  1 <1>  -0.1500 
 22 C       -6.1550    -6.8860    -0.6740 C.ar  1 <1>   0.3100 
 23 C       -4.4390    -5.3550    -1.4460 C.ar  1 <1>  -0.1500 
 24 C       -5.7410    -9.0220    -0.0490 C.ar  1 <1>   0.1600 
 25 N       -6.6120    -8.0800    -0.2190 N.ar  1 <1>  -0.6200 
 26 C       -7.0890    -5.8550    -0.8670 C.ar  1 <1>  -0.1500 
 27 C       -5.3750    -4.3730    -1.6240 C.ar  1 <1>  -0.1500 
 28 C       -6.7180    -4.6220    -1.3300 C.ar  1 <1>  -0.1500 
 29 H        0.2380    -3.5810     2.8450 H     1 <1>   0.1500 
 30 H        1.2000     1.4380     1.6500 H     1 <1>   0.0800 
 31 H        2.7950     0.8290     1.2790 H     1 <1>   0.0800 
 32 H        1.6360    -2.0470    -1.7300 H     1 <1>   0.0800 
 33 H        0.1720    -1.1070    -1.6500 H     1 <1>   0.0800 
 34 H        0.5240     1.4070    -0.6250 H     1 <1>   0.0800 
 35 H        2.1330     2.0690    -0.6650 H     1 <1>   0.0800 
 36 H        3.0190    -0.1780    -1.2620 H     1 <1>   0.0800 
 37 H        1.8740     0.3830    -2.4440 H     1 <1>   0.0800 
 38 H        0.4660    -5.3440     1.4700 H     1 <1>   0.3700 
 39 H       -0.0290    -6.3790    -1.2540 H     1 <1>   0.0800 
 40 H       -2.2330    -5.7830     0.2340 H     1 <1>   0.0800 
 41 H        1.4460    -7.4790     0.7380 H     1 <1>   0.0800 
 42 H        0.4090    -8.5100    -0.2410 H     1 <1>   0.0800 
 43 H       -2.3480    -8.2610     1.5140 H     1 <1>   0.0800 
 44 H       -1.7650    -6.7880     2.2690 H     1 <1>   0.0800 
 45 H       -1.9160    -8.5060    -1.0620 H     1 <1>   0.0800 
 46 H       -2.2310    -7.0590    -1.9540 H     1 <1>   0.0800 
 47 H       -3.7340    -9.7280    -0.1160 H     1 <1>   0.1500 
 48 H       -3.4140    -5.1370    -1.6840 H     1 <1>   0.1500 
 49 H       -6.0910    -9.9760     0.3070 H     1 <1>   0.1500 
 50 H       -8.1160    -6.0710    -0.6360 H     1 <1>   0.1500 
 51 H       -5.0910    -3.4010    -1.9910 H     1 <1>   0.1500 
 52 H       -7.4450    -3.8410    -1.4730 H     1 <1>   0.1500 
@<TRIPOS>BOND
  1   1   2  1   
  2   1   3  1   
  3   2   4  2   
  4   2   5  1   
  5   3   6  2   
  6   3  29  1   
  7   4   6  1   
  8   4   7  1   
  9   5   8  1   
 10   5  30  1   
 11   5  31  1   
 12   6   9  1   
 13   7  10  1   
 14   7  32  1   
 15   7  33  1   
 16   8  10  1   
 17   8  34  1   
 18   8  35  1   
 19   9  11  2   
 20   9  12  am  
 21  10  36  1   
 22  10  37  1   
 23  12  13  1   
 24  12  38  1   
 25  13  14  1   
 26  13  15  1   
 27  13  39  1   
 28  14  16  1   
 29  14  17  1   
 30  14  40  1   
 31  15  18  1   
 32  15  41  1   
 33  15  42  1   
 34  16  18  1   
 35  16  43  1   
 36  16  44  1   
 37  17  19  1   
 38  17  45  1   
 39  17  46  1   
 40  19  20  ar  
 41  19  21  ar  
 42  20  22  ar  
 43  20  23  ar  
 44  21  24  ar  
 45  21  47  1   
 46  22  25  ar  
 47  22  26  ar  
 48  23  27  ar  
 49  23  48  1   
 50  24  25  ar  
 51  24  49  1   
 52  26  28  ar  
 53  26  50  1   
 54  27  28  ar  
 55  27  51  1   
 56  28  52  1   
@<TRIPOS>SUBSTRUCTURE
  1 ****  14 GROUP 4 **** **** 0

# MOE 2024.06 (io_trps.svl 2023.06)
