@<TRIPOS>MOLECULE
NONAME
43 44 1 0 0 
SMALL
USER_CHARGES


@<TRIPOS>ATOM
  1 S        0.1200    -0.0050     0.9770 S.o2  1 <1>   1.3330 
  2 O       -0.7610    -0.9260     1.6580 O.2   1 <1>  -0.6500 
  3 O        1.4070     0.3210     1.5550 O.2   1 <1>  -0.6500 
  4 N        0.4010    -0.6180    -0.5810 N.am  1 <1>  -0.8490 
  5 C       -0.7470     1.5360     0.6670 C.3   1 <1>  -0.0550 
  6 C        1.5240    -1.5610    -0.6040 C.3   1 <1>   0.1160 
  7 C       -0.7810    -1.2550    -1.1730 C.3   1 <1>   0.1160 
  8 C       -0.0070     2.4940    -0.2940 C.3   1 <1>  -0.0800 
  9 C       -0.7490     3.7970    -0.5940 C.3   1 <1>   0.2000 
 10 C        1.3680     2.9500     0.2090 C.3   1 <1>   0.2090 
 11 O       -1.2430     4.3200     0.5930 O.3   1 <1>  -0.6800 
 12 C        0.3510     4.7240    -1.1080 C.3   1 <1>   0.2090 
 13 N        1.5730     4.3140    -0.3530 N.pl3 1 <1>  -0.8380 
 14 C        2.7120     5.0480    -0.2910 C.ar  1 <1>   0.4100 
 15 N        2.7330     6.1960    -0.9430 N.ar  1 <1>  -0.6200 
 16 C        3.8300     4.6000     0.4420 C.ar  1 <1>  -0.1500 
 17 C        3.8380     6.9050    -0.8930 C.ar  1 <1>   0.7710 
 18 C        4.9540     5.3550     0.4740 C.ar  1 <1>   0.2180 
 19 N        4.9340     6.5220    -0.2140 N.ar  1 <1>  -0.1790 
 20 N        3.8320     8.0560    -1.5610 N.pl3 1 <1>  -0.9000 
 21 C        6.2120     4.9640     1.2300 C.3   1 <1>  -0.0970 
 22 H       -1.7110     1.3170     0.2530 H     1 <1>   0.0800 
 23 H       -0.9120     2.0270     1.6070 H     1 <1>   0.0800 
 24 H        1.6890    -1.9230    -1.6040 H     1 <1>   0.0800 
 25 H        1.3240    -2.3970     0.0470 H     1 <1>   0.0800 
 26 H        2.4250    -1.0730    -0.2710 H     1 <1>   0.0800 
 27 H       -0.5710    -1.5570    -2.1850 H     1 <1>   0.0800 
 28 H       -1.6070    -0.5660    -1.1910 H     1 <1>   0.0800 
 29 H       -1.0680    -2.1230    -0.6010 H     1 <1>   0.0800 
 30 H        0.1490     1.9880    -1.2310 H     1 <1>   0.0800 
 31 H       -1.5660     3.6800    -1.2860 H     1 <1>   0.0800 
 32 H        2.1390     2.2740    -0.1230 H     1 <1>   0.0800 
 33 H        1.3770     3.0050     1.2850 H     1 <1>   0.0800 
 34 H       -0.4920     4.6800     1.1080 H     1 <1>   0.4000 
 35 H        0.1040     5.7600    -0.9480 H     1 <1>   0.0800 
 36 H        0.5160     4.5540    -2.1580 H     1 <1>   0.0800 
 37 H        3.7710     3.6640     0.9640 H     1 <1>   0.1500 
 38 H        5.7350     7.1430    -0.2390 H     1 <1>   0.4570 
 39 H        4.5720     8.7530    -1.6550 H     1 <1>   0.4000 
 40 H        2.9700     8.2990    -2.0610 H     1 <1>   0.4000 
 41 H        6.0730     4.0190     1.7260 H     1 <1>   0.0800 
 42 H        6.4490     5.7010     1.9770 H     1 <1>   0.0800 
 43 H        7.0440     4.8670     0.5540 H     1 <1>   0.0800 
@<TRIPOS>BOND
  1   1   2  2   
  2   1   3  2   
  3   1   4  am  
  4   1   5  1   
  5   4   6  1   
  6   4   7  1   
  7   5   8  1   
  8   5  22  1   
  9   5  23  1   
 10   6  24  1   
 11   6  25  1   
 12   6  26  1   
 13   7  27  1   
 14   7  28  1   
 15   7  29  1   
 16   8   9  1   
 17   8  10  1   
 18   8  30  1   
 19   9  11  1   
 20   9  12  1   
 21   9  31  1   
 22  10  13  1   
 23  10  32  1   
 24  10  33  1   
 25  11  34  1   
 26  12  13  1   
 27  12  35  1   
 28  12  36  1   
 29  13  14  1   
 30  14  15  ar  
 31  14  16  ar  
 32  15  17  ar  
 33  16  18  ar  
 34  16  37  1   
 35  17  19  ar  
 36  17  20  1   
 37  18  19  ar  
 38  18  21  1   
 39  19  38  1   
 40  20  39  1   
 41  20  40  1   
 42  21  41  1   
 43  21  42  1   
 44  21  43  1   
@<TRIPOS>SUBSTRUCTURE
  1 ****  10 GROUP 4 **** **** 0

# MOE 2024.06 (io_trps.svl 2023.06)
