@<TRIPOS>MOLECULE
NONAME
56 58 1 0 0 
SMALL
USER_CHARGES


@<TRIPOS>ATOM
  1 O       -1.8630     0.4450     1.4040 O.2   1 <1>  -0.5700 
  2 C       -2.6190     1.2380     0.8680 C.2   1 <1>   0.5440 
  3 N       -3.8880     0.8070     0.5500 N.am  1 <1>  -0.6600 
  4 C       -2.1590     2.5730     0.5300 C.ar  1 <1>   0.0860 
  5 C       -4.4380    -0.4040     1.2420 C.3   1 <1>   0.1400 
  6 C       -4.4160     1.0620    -0.8350 C.3   1 <1>   0.1400 
  7 C       -0.8300     2.8050     0.1810 C.ar  1 <1>  -0.1500 
  8 C       -3.0200     3.6690     0.5470 C.ar  1 <1>  -0.1500 
  9 C       -4.3050    -1.5560     0.2390 C.3   1 <1>   0.4230 
 10 C       -5.5660     0.1150    -1.2260 C.3   1 <1>  -0.1600 
 11 C       -0.3740     4.0720    -0.1660 C.ar  1 <1>   0.0830 
 12 C       -2.5960     4.9390     0.2070 C.ar  1 <1>   0.0830 
 13 N       -4.3360    -2.9500     0.7920 N.4   1 <1>  -0.9590 
 14 C       -5.3480    -1.3910    -0.8780 C.3   1 <1>  -0.1060 
 15 O        0.9280     4.3040    -0.5020 O.3   1 <1>  -0.3620 
 16 C       -1.2660     5.1480    -0.1760 C.ar  1 <1>   0.0830 
 17 O       -3.5460     5.9120     0.2640 O.3   1 <1>  -0.3630 
 18 C       -4.4410    -3.9990    -0.2770 C.3   1 <1>   0.3430 
 19 C       -3.2780    -3.2200     1.8000 C.3   1 <1>   0.2630 
 20 C       -6.6980    -1.9580    -0.3960 C.2   1 <1>   0.9060 
 21 C       -4.7880    -2.1900    -2.0900 C.3   1 <1>  -0.1600 
 22 C        1.9440     3.3790    -0.1800 C.3   1 <1>   0.0400 
 23 O       -0.8360     6.3790    -0.5530 O.3   1 <1>  -0.3630 
 24 C       -3.2200     7.1670     0.8230 C.3   1 <1>   0.0400 
 25 C       -4.0230    -3.4670    -1.6600 C.3   1 <1>  -0.1600 
 26 O       -6.8620    -2.2030     0.8110 O.co2 1 <1>  -0.9000 
 27 O       -7.5640    -2.2210    -1.2270 O.co2 1 <1>  -0.9000 
 28 C       -0.6630     6.5810    -1.9360 C.3   1 <1>   0.0400 
 29 H       -3.8830    -0.6000     2.1400 H     1 <1>   0.0800 
 30 H       -5.4670    -0.2350     1.5110 H     1 <1>   0.0800 
 31 H       -4.7640     2.0790    -0.9040 H     1 <1>   0.0800 
 32 H       -3.6100     0.9410    -1.5390 H     1 <1>   0.0800 
 33 H       -0.1640     1.9630     0.1840 H     1 <1>   0.1500 
 34 H       -4.0450     3.5320     0.8390 H     1 <1>   0.1500 
 35 H       -3.3350    -1.4230    -0.2080 H     1 <1>   0.0800 
 36 H       -6.4420     0.4660    -0.7050 H     1 <1>   0.0800 
 37 H       -5.7910     0.2220    -2.2730 H     1 <1>   0.0800 
 38 H       -5.2920    -2.9480     1.2370 H     1 <1>   0.4500 
 39 H       -3.8470    -4.8590    -0.0170 H     1 <1>   0.0800 
 40 H       -5.4710    -4.3170    -0.3410 H     1 <1>   0.0800 
 41 H       -2.3040    -3.1390     1.3460 H     1 <1>   0.0800 
 42 H       -3.3960    -4.2120     2.2040 H     1 <1>   0.0800 
 43 H       -3.3420    -2.5120     2.6090 H     1 <1>   0.0800 
 44 H       -5.6010    -2.4580    -2.7460 H     1 <1>   0.0800 
 45 H       -4.1190    -1.5700    -2.6610 H     1 <1>   0.0800 
 46 H        2.8920     3.8360    -0.3990 H     1 <1>   0.0800 
 47 H        1.8190     2.4960    -0.7820 H     1 <1>   0.0800 
 48 H        1.8850     3.1440     0.8680 H     1 <1>   0.0800 
 49 H       -4.1290     7.6260     1.1700 H     1 <1>   0.0800 
 50 H       -2.7710     7.7820     0.0640 H     1 <1>   0.0800 
 51 H       -2.5410     7.0250     1.6450 H     1 <1>   0.0800 
 52 H       -2.9660    -3.2650    -1.6400 H     1 <1>   0.0800 
 53 H       -4.1840    -4.2360    -2.3950 H     1 <1>   0.0800 
 54 H       -0.3660     7.6010    -2.0930 H     1 <1>   0.0800 
 55 H       -1.5970     6.3860    -2.4340 H     1 <1>   0.0800 
 56 H        0.1020     5.9170    -2.2970 H     1 <1>   0.0800 
@<TRIPOS>BOND
  1   1   2  2   
  2   2   3  am  
  3   2   4  1   
  4   3   5  1   
  5   3   6  1   
  6   4   7  ar  
  7   4   8  ar  
  8   5   9  1   
  9   5  29  1   
 10   5  30  1   
 11   6  10  1   
 12   6  31  1   
 13   6  32  1   
 14   7  11  ar  
 15   7  33  1   
 16   8  12  ar  
 17   8  34  1   
 18   9  13  1   
 19   9  14  1   
 20   9  35  1   
 21  10  14  1   
 22  10  36  1   
 23  10  37  1   
 24  11  15  1   
 25  11  16  ar  
 26  12  16  ar  
 27  12  17  1   
 28  13  18  1   
 29  13  19  1   
 30  13  38  1   
 31  14  20  1   
 32  14  21  1   
 33  15  22  1   
 34  16  23  1   
 35  17  24  1   
 36  18  25  1   
 37  18  39  1   
 38  18  40  1   
 39  19  41  1   
 40  19  42  1   
 41  19  43  1   
 42  20  26  ar  
 43  20  27  ar  
 44  21  25  1   
 45  21  44  1   
 46  21  45  1   
 47  22  46  1   
 48  22  47  1   
 49  22  48  1   
 50  23  28  1   
 51  24  49  1   
 52  24  50  1   
 53  24  51  1   
 54  25  52  1   
 55  25  53  1   
 56  28  54  1   
 57  28  55  1   
 58  28  56  1   
@<TRIPOS>SUBSTRUCTURE
  1 ****   3 GROUP 4 **** **** 0

# MOE 2024.06 (io_trps.svl 2023.06)
