@<TRIPOS>MOLECULE
NONAME
36 38 1 0 0 
SMALL
USER_CHARGES


@<TRIPOS>ATOM
  1 S       -1.2080     1.7270     0.5890 S.3   1 <1>  -0.0800 
  2 C       -1.9590     0.3940    -0.2670 C.2   1 <1>   0.1980 
  3 C       -0.0870     0.6040     1.3010 C.2   1 <1>  -0.1100 
  4 N       -1.4220    -0.7390    -0.0440 N.2   1 <1>  -0.5650 
  5 C       -3.1390     0.7050    -1.1740 C.3   1 <1>   0.3200 
  6 C       -0.3640    -0.6270     0.8460 C.2   1 <1>   0.0770 
  7 N       -4.3230     1.1970    -0.4090 N.am  1 <1>  -0.5090 
  8 C       -5.0980     0.3910     0.3890 C.2   1 <1>   0.5690 
  9 C       -4.4890     2.6720    -0.4110 C.3   1 <1>   0.0490 
 10 O       -5.9500     0.8400     1.1200 O.2   1 <1>  -0.5700 
 11 C       -4.9300    -1.1220     0.3650 C.3   1 <1>  -0.0990 
 12 C       -5.8250     3.2570    -0.7470 C.3   1 <1>  -0.2000 
 13 C       -4.6960     3.3770    -1.7180 C.3   1 <1>  -0.2000 
 14 C       -5.9290    -1.8330     1.2920 C.3   1 <1>   0.0960 
 15 N       -5.8440    -3.2960     1.1290 N.pl3 1 <1>   0.3140 
 16 N       -4.8940    -4.0210     1.6740 N.2   1 <1>  -0.4180 
 17 C       -6.6280    -4.1150     0.4450 C.2   1 <1>   0.0060 
 18 N       -5.1140    -5.2350     1.3190 N.2   1 <1>   0.0000 
 19 N       -6.1950    -5.3120     0.5500 N.2   1 <1>  -0.3380 
 20 C       -7.8560    -3.7120    -0.3500 C.3   1 <1>  -0.0600 
 21 H        0.6530     0.9840     1.9810 H     1 <1>   0.1500 
 22 H       -3.4060    -0.1840    -1.7160 H     1 <1>   0.0800 
 23 H       -2.8340     1.4420    -1.8950 H     1 <1>   0.0800 
 24 H        0.1620    -1.5280     1.1130 H     1 <1>   0.1500 
 25 H       -3.9140     3.1550     0.3620 H     1 <1>   0.1000 
 26 H       -3.9360    -1.3720     0.6870 H     1 <1>   0.0800 
 27 H       -5.0730    -1.4670    -0.6420 H     1 <1>   0.0800 
 28 H       -6.1450     4.1360    -0.2160 H     1 <1>   0.1000 
 29 H       -6.6390     2.5860    -0.9600 H     1 <1>   0.1000 
 30 H       -4.7670     2.8150    -2.6320 H     1 <1>   0.1000 
 31 H       -4.2590     4.3490    -1.8610 H     1 <1>   0.1000 
 32 H       -6.9320    -1.5170     1.0730 H     1 <1>   0.0800 
 33 H       -5.7150    -1.5890     2.3170 H     1 <1>   0.0800 
 34 H       -7.5930    -2.9930    -1.1040 H     1 <1>   0.0800 
 35 H       -8.5990    -3.2910     0.3030 H     1 <1>   0.0800 
 36 H       -8.2770    -4.5770    -0.8330 H     1 <1>   0.0800 
@<TRIPOS>BOND
  1   1   2  1   
  2   1   3  1   
  3   2   4  2   
  4   2   5  1   
  5   3   6  2   
  6   3  21  1   
  7   4   6  1   
  8   5   7  1   
  9   5  22  1   
 10   5  23  1   
 11   6  24  1   
 12   7   8  am  
 13   7   9  1   
 14   8  10  2   
 15   8  11  1   
 16   9  12  1   
 17   9  13  1   
 18   9  25  1   
 19  11  14  1   
 20  11  26  1   
 21  11  27  1   
 22  12  13  1   
 23  12  28  1   
 24  12  29  1   
 25  13  30  1   
 26  13  31  1   
 27  14  15  1   
 28  14  32  1   
 29  14  33  1   
 30  15  16  1   
 31  15  17  1   
 32  16  18  2   
 33  17  19  2   
 34  17  20  1   
 35  18  19  1   
 36  20  34  1   
 37  20  35  1   
 38  20  36  1   
@<TRIPOS>SUBSTRUCTURE
  1 ****  11 GROUP 4 **** **** 0

# MOE 2024.06 (io_trps.svl 2023.06)
