@<TRIPOS>MOLECULE
NONAME
43 44 1 0 0 
SMALL
USER_CHARGES


@<TRIPOS>ATOM
  1 S        0.8260     0.6740    -1.5350 S.o2  1 <1>   1.3330 
  2 O        0.4210     1.7380    -2.4250 O.2   1 <1>  -0.6500 
  3 O        0.5740    -0.7000    -1.9100 O.2   1 <1>  -0.6500 
  4 N        0.0650     0.9450    -0.0420 N.am  1 <1>  -0.8490 
  5 C        2.5730     0.8410    -1.1700 C.3   1 <1>  -0.0550 
  6 C        0.0890     2.3520     0.3740 C.3   1 <1>   0.1160 
  7 C       -1.3130     0.4480    -0.0360 C.3   1 <1>   0.1160 
  8 C        3.0660    -0.0470    -0.0130 C.3   1 <1>  -0.0800 
  9 C        4.5250     0.1880     0.3060 C.3   1 <1>   0.2890 
 10 C        3.0330    -1.5480    -0.2910 C.3   1 <1>   0.1200 
 11 N        4.6740     1.3600     1.1960 N.pl3 1 <1>  -0.8690 
 12 C        4.9340    -1.1270     0.9570 C.3   1 <1>   0.1200 
 13 O        4.0870    -2.1100     0.4350 O.3   1 <1>  -0.5600 
 14 C        5.1890     2.5530     0.8300 C.ar  1 <1>   0.7200 
 15 N        5.2420     2.8430    -0.4650 N.ar  1 <1>  -0.6200 
 16 N        5.5780     3.3070     1.8430 N.ar  1 <1>  -0.6200 
 17 C        5.7470     4.0180    -0.7570 C.ar  1 <1>   0.1600 
 18 C        6.0770     4.4750     1.5170 C.ar  1 <1>   0.1600 
 19 C        6.1910     4.8930     0.2090 C.ar  1 <1>  -0.1440 
 20 C        6.7730     6.2510    -0.1500 C.3   1 <1>  -0.0170 
 21 C        5.6640     7.3000    -0.2540 C.3   1 <1>  -0.2400 
 22 H        3.1390     0.6210    -2.0540 H     1 <1>   0.0800 
 23 H        2.7700     1.8640    -0.9150 H     1 <1>   0.0800 
 24 H       -0.3570     2.4570     1.3480 H     1 <1>   0.0800 
 25 H       -0.4540     2.9640    -0.3280 H     1 <1>   0.0800 
 26 H        1.1040     2.7070     0.4320 H     1 <1>   0.0800 
 27 H       -1.7640     0.6080     0.9280 H     1 <1>   0.0800 
 28 H       -1.3220    -0.6100    -0.2400 H     1 <1>   0.0800 
 29 H       -1.8960     0.9500    -0.7900 H     1 <1>   0.0800 
 30 H        2.4770     0.1370     0.8690 H     1 <1>   0.0800 
 31 H        5.0980     0.3150    -0.5980 H     1 <1>   0.0800 
 32 H        3.2050    -1.7610    -1.3330 H     1 <1>   0.0800 
 33 H        2.1070    -1.9990     0.0220 H     1 <1>   0.0800 
 34 H        4.7410     1.1870     2.1970 H     1 <1>   0.4000 
 35 H        4.7780    -1.0990     2.0210 H     1 <1>   0.0800 
 36 H        5.9520    -1.3880     0.7310 H     1 <1>   0.0800 
 37 H        5.8080     4.2920    -1.7960 H     1 <1>   0.1500 
 38 H        6.4040     5.1190     2.3150 H     1 <1>   0.1500 
 39 H        7.4850     6.5530     0.5990 H     1 <1>   0.0800 
 40 H        7.2970     6.1860    -1.0880 H     1 <1>   0.0800 
 41 H        5.1470     7.3920     0.6850 H     1 <1>   0.0800 
 42 H        4.9540     7.0220    -1.0130 H     1 <1>   0.0800 
 43 H        6.0840     8.2570    -0.5100 H     1 <1>   0.0800 
@<TRIPOS>BOND
  1   1   2  2   
  2   1   3  2   
  3   1   4  am  
  4   1   5  1   
  5   4   6  1   
  6   4   7  1   
  7   5   8  1   
  8   5  22  1   
  9   5  23  1   
 10   6  24  1   
 11   6  25  1   
 12   6  26  1   
 13   7  27  1   
 14   7  28  1   
 15   7  29  1   
 16   8   9  1   
 17   8  10  1   
 18   8  30  1   
 19   9  11  1   
 20   9  12  1   
 21   9  31  1   
 22  10  13  1   
 23  10  32  1   
 24  10  33  1   
 25  11  14  1   
 26  11  34  1   
 27  12  13  1   
 28  12  35  1   
 29  12  36  1   
 30  14  15  ar  
 31  14  16  ar  
 32  15  17  ar  
 33  16  18  ar  
 34  17  19  ar  
 35  17  37  1   
 36  18  19  ar  
 37  18  38  1   
 38  19  20  1   
 39  20  21  1   
 40  20  39  1   
 41  20  40  1   
 42  21  41  1   
 43  21  42  1   
 44  21  43  1   
@<TRIPOS>SUBSTRUCTURE
  1 ****   5 GROUP 4 **** **** 0

# MOE 2024.06 (io_trps.svl 2023.06)
