@<TRIPOS>MOLECULE
NONAME
50 53 1 0 0 
SMALL
USER_CHARGES


@<TRIPOS>ATOM
  1 O        0.2140     0.1500    -0.7950 O.2   1 <1>  -0.5700 
  2 C        1.0900    -0.6910    -0.7250 C.2   1 <1>   0.5440 
  3 N        2.3970    -0.2800    -0.6030 N.am  1 <1>  -0.6600 
  4 C        0.7360    -2.0960    -0.7630 C.ar  1 <1>   0.0860 
  5 C        3.5060    -1.1260    -0.1070 C.3   1 <1>   0.1400 
  6 C        2.7690     1.1520    -0.5660 C.3   1 <1>   0.1400 
  7 C       -0.2540    -2.6240     0.0410 C.ar  1 <1>  -0.1500 
  8 C        1.3540    -3.0090    -1.6070 C.ar  1 <1>  -0.1500 
  9 C        4.4860    -0.1460     0.5270 C.3   1 <1>  -0.1600 
 10 C        4.2540     1.1650    -0.2190 C.3   1 <1>  -0.1600 
 11 C       -0.5790    -3.9740    -0.0040 C.ar  1 <1>   0.4100 
 12 C        0.9780    -4.3350    -1.5830 C.ar  1 <1>   0.1600 
 13 N        0.0410    -4.8380    -0.8010 N.ar  1 <1>  -0.6200 
 14 N       -1.5880    -4.4680     0.8070 N.pl3 1 <1>  -0.8380 
 15 C       -1.5740    -5.8900     1.2460 C.3   1 <1>   0.2090 
 16 C       -2.9390    -3.8460     0.7570 C.3   1 <1>   0.2090 
 17 C       -2.4850    -6.7440     0.3490 C.3   1 <1>  -0.0800 
 18 C       -3.8660    -4.6840    -0.1290 C.3   1 <1>  -0.1600 
 19 C       -3.9100    -6.1560     0.3070 C.3   1 <1>  -0.1600 
 20 C       -2.4620    -8.2020     0.8370 C.3   1 <1>   0.0960 
 21 N       -3.2880    -9.0850    -0.0130 N.pl3 1 <1>   0.0480 
 22 C       -3.0620    -9.4580    -1.2920 C.2   1 <1>   0.0360 
 23 C       -4.4320    -9.7060     0.3250 C.2   1 <1>  -0.3020 
 24 N       -3.9610   -10.2530    -1.7770 N.2   1 <1>  -0.5650 
 25 C       -4.8260   -10.4100    -0.7580 C.2   1 <1>   0.0770 
 26 H        3.9680    -1.6260    -0.9410 H     1 <1>   0.0800 
 27 H        3.1570    -1.8520     0.6090 H     1 <1>   0.0800 
 28 H        2.1950     1.6440     0.2010 H     1 <1>   0.0800 
 29 H        2.5740     1.6190    -1.5160 H     1 <1>   0.0800 
 30 H       -0.7790    -1.9800     0.7190 H     1 <1>   0.1500 
 31 H        2.1220    -2.6740    -2.2800 H     1 <1>   0.1500 
 32 H        5.5030    -0.4890     0.4500 H     1 <1>   0.0800 
 33 H        4.2350    -0.0240     1.5660 H     1 <1>   0.0800 
 34 H        4.5170     2.0250     0.3700 H     1 <1>   0.0800 
 35 H        4.8250     1.1750    -1.1310 H     1 <1>   0.0800 
 36 H        1.4740    -5.0250    -2.2450 H     1 <1>   0.1500 
 37 H       -1.9140    -5.9370     2.2670 H     1 <1>   0.0800 
 38 H       -0.5660    -6.2690     1.2180 H     1 <1>   0.0800 
 39 H       -2.8800    -2.8460     0.3630 H     1 <1>   0.0800 
 40 H       -3.3360    -3.7900     1.7560 H     1 <1>   0.0800 
 41 H       -2.0670    -6.7170    -0.6430 H     1 <1>   0.0800 
 42 H       -3.5150    -4.6200    -1.1440 H     1 <1>   0.0800 
 43 H       -4.8560    -4.2670    -0.0990 H     1 <1>   0.0800 
 44 H       -4.3630    -6.2270     1.2810 H     1 <1>   0.0800 
 45 H       -4.5210    -6.7060    -0.3880 H     1 <1>   0.0800 
 46 H       -2.8300    -8.2580     1.8450 H     1 <1>   0.0800 
 47 H       -1.4530    -8.5740     0.8240 H     1 <1>   0.0800 
 48 H       -2.2040    -9.1130    -1.8430 H     1 <1>   0.1500 
 49 H       -4.8960    -9.6190     1.2900 H     1 <1>   0.1500 
 50 H       -5.7010   -11.0310    -0.8620 H     1 <1>   0.1500 
@<TRIPOS>BOND
  1   1   2  2   
  2   2   3  am  
  3   2   4  1   
  4   3   5  1   
  5   3   6  1   
  6   4   7  ar  
  7   4   8  ar  
  8   5   9  1   
  9   5  26  1   
 10   5  27  1   
 11   6  10  1   
 12   6  28  1   
 13   6  29  1   
 14   7  11  ar  
 15   7  30  1   
 16   8  12  ar  
 17   8  31  1   
 18   9  10  1   
 19   9  32  1   
 20   9  33  1   
 21  10  34  1   
 22  10  35  1   
 23  11  13  ar  
 24  11  14  1   
 25  12  13  ar  
 26  12  36  1   
 27  14  15  1   
 28  14  16  1   
 29  15  17  1   
 30  15  37  1   
 31  15  38  1   
 32  16  18  1   
 33  16  39  1   
 34  16  40  1   
 35  17  19  1   
 36  17  20  1   
 37  17  41  1   
 38  18  19  1   
 39  18  42  1   
 40  18  43  1   
 41  19  44  1   
 42  19  45  1   
 43  20  21  1   
 44  20  46  1   
 45  20  47  1   
 46  21  22  1   
 47  21  23  1   
 48  22  24  2   
 49  22  48  1   
 50  23  25  2   
 51  23  49  1   
 52  24  25  1   
 53  25  50  1   
@<TRIPOS>SUBSTRUCTURE
  1 ****  11 GROUP 4 **** **** 0

# MOE 2024.06 (io_trps.svl 2023.06)
