@<TRIPOS>MOLECULE
NONAME
48 51 1 0 0 
SMALL
USER_CHARGES


@<TRIPOS>ATOM
  1 O       -2.3720    -0.1310    -1.6870 O.2   1 <1>  -0.5700 
  2 C       -2.5190     0.6390    -0.7510 C.2   1 <1>   0.7670 
  3 N       -2.4550     1.9800    -1.0430 N.2   1 <1>  -0.6610 
  4 C       -2.7540     0.1850     0.5820 C.2   1 <1>   0.0290 
  5 C       -2.5590     2.8210    -0.0850 C.2   1 <1>   0.5000 
  6 C       -2.8640    -1.2130     0.8670 C.2   1 <1>   0.6160 
  7 C       -2.8430     1.1300     1.5600 C.2   1 <1>  -0.0500 
  8 N       -2.7430     2.4430     1.2140 N.pl3 1 <1>  -0.5500 
  9 C       -2.4790     4.3140    -0.3770 C.3   1 <1>  -0.1000 
 10 O       -2.1390    -1.6910     1.7210 O.2   1 <1>  -0.5700 
 11 N       -3.8060    -2.0310     0.2850 N.am  1 <1>  -0.6600 
 12 C       -1.8150     5.2790     0.5620 C.3   1 <1>  -0.2000 
 13 C       -3.3020     5.3240     0.3710 C.3   1 <1>  -0.2000 
 14 C       -4.8650    -1.6280    -0.6770 C.3   1 <1>   0.1400 
 15 C       -3.9950    -3.4440     0.6810 C.3   1 <1>   0.1400 
 16 C       -5.8590    -2.7960    -0.7070 C.3   1 <1>   0.2000 
 17 C       -5.0020    -4.0070    -0.3250 C.3   1 <1>  -0.0800 
 18 O       -6.8430    -2.6100     0.2710 O.3   1 <1>  -0.5600 
 19 C       -5.7990    -5.2120     0.2070 C.3   1 <1>   0.0200 
 20 C       -7.9400    -1.8500    -0.1280 C.3   1 <1>   0.0400 
 21 C       -4.9450    -6.4540     0.4030 C.2   1 <1>  -0.0400 
 22 O       -5.4960    -7.5190     0.9220 O.3   1 <1>  -0.0190 
 23 C       -3.6590    -6.7440     0.1470 C.2   1 <1>  -0.1500 
 24 N       -4.6500    -8.5040     1.0280 N.2   1 <1>  -0.4100 
 25 C       -3.5340    -8.0640     0.5700 C.2   1 <1>   0.1080 
 26 C       -2.2610    -8.8780     0.5030 C.3   1 <1>  -0.0590 
 27 H       -2.9880     0.8670     2.5970 H     1 <1>   0.1500 
 28 H       -2.7960     3.1920     1.9100 H     1 <1>   0.4000 
 29 H       -2.3360     4.4940    -1.4290 H     1 <1>   0.1000 
 30 H       -1.4140     4.9220     1.4950 H     1 <1>   0.1000 
 31 H       -1.2140     6.0660     0.1390 H     1 <1>   0.1000 
 32 H       -3.7280     6.1420    -0.1840 H     1 <1>   0.1000 
 33 H       -3.9440     4.9990     1.1710 H     1 <1>   0.1000 
 34 H       -5.3350    -0.7070    -0.3840 H     1 <1>   0.0800 
 35 H       -4.4260    -1.5190    -1.6530 H     1 <1>   0.0800 
 36 H       -3.0580    -3.9740     0.6580 H     1 <1>   0.0800 
 37 H       -4.3990    -3.4720     1.6790 H     1 <1>   0.0800 
 38 H       -6.3280    -2.9210    -1.6690 H     1 <1>   0.0800 
 39 H       -4.4580    -4.3100    -1.2020 H     1 <1>   0.0800 
 40 H       -6.5870    -5.4490    -0.4840 H     1 <1>   0.0800 
 41 H       -6.2570    -4.9580     1.1480 H     1 <1>   0.0800 
 42 H       -8.6100    -1.7670     0.7100 H     1 <1>   0.0800 
 43 H       -8.4400    -2.3470    -0.9410 H     1 <1>   0.0800 
 44 H       -7.6130    -0.8690    -0.4260 H     1 <1>   0.0800 
 45 H       -2.8790    -6.1420    -0.2800 H     1 <1>   0.1500 
 46 H       -1.4980    -8.4070     1.0940 H     1 <1>   0.0800 
 47 H       -1.9280    -8.9520    -0.5150 H     1 <1>   0.0800 
 48 H       -2.4380    -9.8670     0.8860 H     1 <1>   0.0800 
@<TRIPOS>BOND
  1   1   2  2   
  2   2   3  1   
  3   2   4  1   
  4   3   5  2   
  5   4   6  1   
  6   4   7  2   
  7   5   8  1   
  8   5   9  1   
  9   6  10  2   
 10   6  11  am  
 11   7   8  1   
 12   7  27  1   
 13   8  28  1   
 14   9  12  1   
 15   9  13  1   
 16   9  29  1   
 17  11  14  1   
 18  11  15  1   
 19  12  13  1   
 20  12  30  1   
 21  12  31  1   
 22  13  32  1   
 23  13  33  1   
 24  14  16  1   
 25  14  34  1   
 26  14  35  1   
 27  15  17  1   
 28  15  36  1   
 29  15  37  1   
 30  16  17  1   
 31  16  18  1   
 32  16  38  1   
 33  17  19  1   
 34  17  39  1   
 35  18  20  1   
 36  19  21  1   
 37  19  40  1   
 38  19  41  1   
 39  20  42  1   
 40  20  43  1   
 41  20  44  1   
 42  21  22  1   
 43  21  23  2   
 44  22  24  1   
 45  23  25  1   
 46  23  45  1   
 47  24  25  2   
 48  25  26  1   
 49  26  46  1   
 50  26  47  1   
 51  26  48  1   
@<TRIPOS>SUBSTRUCTURE
  1 ****  11 GROUP 4 **** **** 0

# MOE 2024.06 (io_trps.svl 2023.06)
