@<TRIPOS>MOLECULE
NONAME
64 67 1 0 0 
SMALL
USER_CHARGES


@<TRIPOS>ATOM
  1 O        0.1930    -0.0370    -1.2850 O.3   1 <1>  -0.5600 
  2 C        1.4710    -0.6140    -1.4050 C.3   1 <1>   0.2000 
  3 C        0.1600     1.3590    -1.2870 C.3   1 <1>   0.1200 
  4 C        2.4240    -0.0980    -0.2920 C.3   1 <1>   0.5660 
  5 C        1.3270    -2.1430    -1.3200 C.3   1 <1>   0.1200 
  6 C        0.9640     1.9060    -0.0950 C.3   1 <1>   0.3430 
  7 N        2.3750     1.3890    -0.0970 N.4   1 <1>  -0.9590 
  8 C        3.8740    -0.4560    -0.5850 C.ar  1 <1>  -0.1430 
  9 O        1.1000    -2.5310    -0.0010 O.3   1 <1>  -0.6800 
 10 C        3.1370     1.7950     1.1170 C.3   1 <1>   0.4870 
 11 C        4.5540    -1.2770     0.3030 C.ar  1 <1>  -0.1500 
 12 C        4.5400     0.0320    -1.7050 C.ar  1 <1>  -0.1500 
 13 C        3.5090     3.2470     0.9690 C.ar  1 <1>  -0.1430 
 14 C        5.8850    -1.5950     0.0970 C.ar  1 <1>   0.0820 
 15 C        5.8730    -0.2760    -1.9120 C.ar  1 <1>  -0.1500 
 16 C        2.7870     4.2520     1.5670 C.ar  1 <1>   0.1600 
 17 C        4.5940     3.6260     0.2150 C.ar  1 <1>   0.1600 
 18 O        6.4660    -2.4140     1.0040 O.3   1 <1>  -0.3620 
 19 C        6.5590    -1.0700    -1.0100 C.ar  1 <1>   0.0820 
 20 N        3.0850     5.5120     1.4010 N.ar  1 <1>  -0.6200 
 21 N        4.9090     4.8800     0.0350 N.ar  1 <1>  -0.6200 
 22 C        6.9030    -3.6740     0.5360 C.3   1 <1>   0.0400 
 23 O        7.8710    -1.2980    -1.2590 O.3   1 <1>  -0.3630 
 24 C        4.1400     5.7900     0.6350 C.ar  1 <1>   0.7200 
 25 C        8.8000    -0.7950    -0.3230 C.3   1 <1>   0.0400 
 26 N        4.4600     7.1180     0.4470 N.pl3 1 <1>  -0.8380 
 27 C        3.9210     8.2100     1.3100 C.3   1 <1>   0.2090 
 28 C        5.4880     7.5770    -0.5320 C.3   1 <1>   0.2090 
 29 C        3.3150     9.3090     0.4310 C.3   1 <1>  -0.1600 
 30 C        4.8990     8.6780    -1.4210 C.3   1 <1>  -0.1600 
 31 C        4.3260     9.8380    -0.5950 C.3   1 <1>  -0.1600 
 32 H        1.8490    -0.3570    -2.3780 H     1 <1>   0.0800 
 33 H        0.5490     1.7190    -2.2240 H     1 <1>   0.0800 
 34 H       -0.8710     1.6600    -1.2060 H     1 <1>   0.0800 
 35 H        2.1300    -0.5770     0.6280 H     1 <1>   0.0800 
 36 H        2.2280    -2.6290    -1.6550 H     1 <1>   0.0800 
 37 H        0.5010    -2.4720    -1.9280 H     1 <1>   0.0800 
 38 H        0.4650     1.6060     0.8120 H     1 <1>   0.0800 
 39 H        0.9660     2.9830    -0.1330 H     1 <1>   0.0800 
 40 H        2.8620     1.7930    -0.9030 H     1 <1>   0.4500 
 41 H        0.7700    -3.4550     0.0340 H     1 <1>   0.4000 
 42 H        2.5450     1.6410     2.0050 H     1 <1>   0.0800 
 43 H        4.0410     1.2140     1.2070 H     1 <1>   0.0800 
 44 H        4.0640    -1.6910     1.1690 H     1 <1>   0.1500 
 45 H        4.0450     0.6540    -2.4320 H     1 <1>   0.1500 
 46 H        6.3970     0.1000    -2.7740 H     1 <1>   0.1500 
 47 H        1.9400     4.0290     2.1940 H     1 <1>   0.1500 
 48 H        5.2230     2.8900    -0.2600 H     1 <1>   0.1500 
 49 H        7.2430    -4.2460     1.3800 H     1 <1>   0.0800 
 50 H        7.7110    -3.5390    -0.1600 H     1 <1>   0.0800 
 51 H        6.0790    -4.1740     0.0600 H     1 <1>   0.0800 
 52 H        9.7900    -0.9660    -0.7080 H     1 <1>   0.0800 
 53 H        8.6810    -1.3080     0.6140 H     1 <1>   0.0800 
 54 H        8.6330     0.2600    -0.1970 H     1 <1>   0.0800 
 55 H        3.1730     7.8490     1.9930 H     1 <1>   0.0800 
 56 H        4.7280     8.6190     1.8950 H     1 <1>   0.0800 
 57 H        6.3380     7.9580     0.0080 H     1 <1>   0.0800 
 58 H        5.8280     6.7710    -1.1590 H     1 <1>   0.0800 
 59 H        2.4560     8.9050    -0.0770 H     1 <1>   0.0800 
 60 H        2.9770    10.1160     1.0560 H     1 <1>   0.0800 
 61 H        5.6630     9.0460    -2.0810 H     1 <1>   0.0800 
 62 H        4.1220     8.2470    -2.0270 H     1 <1>   0.0800 
 63 H        5.1270    10.3400    -0.0810 H     1 <1>   0.0800 
 64 H        3.8470    10.5480    -1.2460 H     1 <1>   0.0800 
@<TRIPOS>BOND
  1   1   2  1   
  2   1   3  1   
  3   2   4  1   
  4   2   5  1   
  5   2  32  1   
  6   3   6  1   
  7   3  33  1   
  8   3  34  1   
  9   4   7  1   
 10   4   8  1   
 11   4  35  1   
 12   5   9  1   
 13   5  36  1   
 14   5  37  1   
 15   6   7  1   
 16   6  38  1   
 17   6  39  1   
 18   7  10  1   
 19   7  40  1   
 20   8  11  ar  
 21   8  12  ar  
 22   9  41  1   
 23  10  13  1   
 24  10  42  1   
 25  10  43  1   
 26  11  14  ar  
 27  11  44  1   
 28  12  15  ar  
 29  12  45  1   
 30  13  16  ar  
 31  13  17  ar  
 32  14  18  1   
 33  14  19  ar  
 34  15  19  ar  
 35  15  46  1   
 36  16  20  ar  
 37  16  47  1   
 38  17  21  ar  
 39  17  48  1   
 40  18  22  1   
 41  19  23  1   
 42  20  24  ar  
 43  21  24  ar  
 44  22  49  1   
 45  22  50  1   
 46  22  51  1   
 47  23  25  1   
 48  24  26  1   
 49  25  52  1   
 50  25  53  1   
 51  25  54  1   
 52  26  27  1   
 53  26  28  1   
 54  27  29  1   
 55  27  55  1   
 56  27  56  1   
 57  28  30  1   
 58  28  57  1   
 59  28  58  1   
 60  29  31  1   
 61  29  59  1   
 62  29  60  1   
 63  30  31  1   
 64  30  61  1   
 65  30  62  1   
 66  31  63  1   
 67  31  64  1   
@<TRIPOS>SUBSTRUCTURE
  1 ****  10 GROUP 4 **** **** 0

# MOE 2024.06 (io_trps.svl 2023.06)
