@<TRIPOS>MOLECULE
NONAME
42 43 1 0 0 
SMALL
USER_CHARGES


@<TRIPOS>ATOM
  1 CL       1.2800     0.2630    -0.8900 Cl    1 <1>  -0.1770 
  2 C        0.6280     1.7400    -0.2150 C.ar  1 <1>   0.1770 
  3 C        1.4100     2.6050     0.5460 C.ar  1 <1>  -0.1440 
  4 C       -0.7030     2.0100    -0.4780 C.ar  1 <1>  -0.1500 
  5 C        0.8140     3.7620     1.0320 C.ar  1 <1>  -0.1500 
  6 C        2.8810     2.3440     0.8720 C.3   1 <1>   0.3640 
  7 C       -1.2800     3.1650     0.0180 C.ar  1 <1>  -0.1500 
  8 C       -0.5180     4.0400     0.7720 C.ar  1 <1>  -0.1500 
  9 N        2.9720     1.0910     1.6590 N.am  1 <1>  -0.7300 
 10 C        3.7980     2.3540    -0.3870 C.3   1 <1>   0.2610 
 11 C        3.8030     0.0720     1.3520 C.2   1 <1>   0.5690 
 12 O        4.9580     1.5430    -0.2140 O.3   1 <1>  -0.5600 
 13 C        4.2130     3.7920    -0.7280 C.2   1 <1>   0.5690 
 14 O        3.8370    -0.9230     2.0300 O.2   1 <1>  -0.5700 
 15 C        4.6920     0.1970     0.1140 C.3   1 <1>   0.1810 
 16 O        3.4120     4.6920    -0.6370 O.2   1 <1>  -0.5700 
 17 N        5.4940     4.0300    -1.1150 N.am  1 <1>  -0.7300 
 18 C        6.0510     5.3470    -1.5080 C.3   1 <1>   0.1400 
 19 C        6.4320     6.1530    -0.2680 C.3   1 <1>   0.1200 
 20 O        7.1020     7.3030    -0.6780 O.3   1 <1>  -0.5600 
 21 C        7.4470     8.1580     0.3660 C.3   1 <1>   0.1200 
 22 C        8.2300     9.3350    -0.2150 C.3   1 <1>   0.1200 
 23 O        8.5100    10.2470     0.7950 O.3   1 <1>  -0.6800 
 24 H       -1.2810     1.3210    -1.0670 H     1 <1>   0.1500 
 25 H        1.3840     4.4670     1.6140 H     1 <1>   0.1500 
 26 H        3.2260     3.1350     1.5160 H     1 <1>   0.0800 
 27 H       -2.3150     3.3840    -0.1820 H     1 <1>   0.1500 
 28 H       -0.9610     4.9440     1.1550 H     1 <1>   0.1500 
 29 H        2.3410     0.9810     2.4530 H     1 <1>   0.3700 
 30 H        3.2630     1.9690    -1.2340 H     1 <1>   0.0800 
 31 H        4.2130    -0.2750    -0.7250 H     1 <1>   0.0800 
 32 H        5.6310    -0.2890     0.3010 H     1 <1>   0.0800 
 33 H        6.1410     3.2340    -1.0980 H     1 <1>   0.3700 
 34 H        6.9200     5.1940    -2.1240 H     1 <1>   0.0800 
 35 H        5.3130     5.8930    -2.0720 H     1 <1>   0.0800 
 36 H        7.0910     5.5820     0.3630 H     1 <1>   0.0800 
 37 H        5.5450     6.4380     0.2720 H     1 <1>   0.0800 
 38 H        6.5420     8.5010     0.8370 H     1 <1>   0.0800 
 39 H        8.0600     7.6190     1.0680 H     1 <1>   0.0800 
 40 H        7.6600     9.8370    -0.9770 H     1 <1>   0.0800 
 41 H        9.1660     8.9940    -0.6220 H     1 <1>   0.0800 
 42 H        7.6970    10.7070     1.0810 H     1 <1>   0.4000 
@<TRIPOS>BOND
  1   1   2  1   
  2   2   3  ar  
  3   2   4  ar  
  4   3   5  ar  
  5   3   6  1   
  6   4   7  ar  
  7   4  24  1   
  8   5   8  ar  
  9   5  25  1   
 10   6   9  1   
 11   6  10  1   
 12   6  26  1   
 13   7   8  ar  
 14   7  27  1   
 15   8  28  1   
 16   9  11  am  
 17   9  29  1   
 18  10  12  1   
 19  10  13  1   
 20  10  30  1   
 21  11  14  2   
 22  11  15  1   
 23  12  15  1   
 24  13  16  2   
 25  13  17  am  
 26  15  31  1   
 27  15  32  1   
 28  17  18  1   
 29  17  33  1   
 30  18  19  1   
 31  18  34  1   
 32  18  35  1   
 33  19  20  1   
 34  19  36  1   
 35  19  37  1   
 36  20  21  1   
 37  21  22  1   
 38  21  38  1   
 39  21  39  1   
 40  22  23  1   
 41  22  40  1   
 42  22  41  1   
 43  23  42  1   
@<TRIPOS>SUBSTRUCTURE
  1 ****  13 GROUP 4 **** **** 0

# MOE 2024.06 (io_trps.svl 2023.06)
