@<TRIPOS>MOLECULE
NONAME
51 52 1 0 0 
SMALL
USER_CHARGES


@<TRIPOS>ATOM
  1 N       -0.2990     5.1960    -2.1640 N.1   1 <1>  -0.5570 
  2 C       -1.2440     4.6230    -1.8710 C.1   1 <1>   0.4840 
  3 C       -2.4580     3.9870    -1.4670 C.ar  1 <1>   0.0730 
  4 C       -2.7580     3.8070    -0.1070 C.ar  1 <1>   0.4100 
  5 C       -3.3680     3.5490    -2.4100 C.ar  1 <1>  -0.1500 
  6 N       -3.8860     3.2500     0.3190 N.ar  1 <1>  -0.6200 
  7 N       -1.8820     4.2150     0.8960 N.pl3 1 <1>  -0.8380 
  8 C       -4.5310     2.9650    -1.9570 C.ar  1 <1>  -0.1500 
  9 C       -4.7480     2.8380    -0.5950 C.ar  1 <1>   0.1670 
 10 C       -1.7040     5.6670     1.1270 C.3   1 <1>   0.2090 
 11 C       -1.7940     3.3780     2.1320 C.3   1 <1>   0.1290 
 12 C       -6.0360     2.1970    -0.0720 C.3   1 <1>   0.0640 
 13 C       -0.2030     5.9890     1.1300 C.3   1 <1>  -0.1600 
 14 C       -6.1600     0.7350    -0.5230 C.3   1 <1>  -0.2400 
 15 C       -7.2750     3.0000    -0.4900 C.3   1 <1>  -0.2400 
 16 C        0.0990     7.3340     0.4520 C.3   1 <1>   0.4230 
 17 N        1.5730     7.4950     0.2900 N.4   1 <1>  -0.9590 
 18 C       -0.4580     8.4920     1.2880 C.3   1 <1>  -0.2400 
 19 C        2.0170     8.8230    -0.2080 C.3   1 <1>   0.3430 
 20 C        2.1680     6.5270    -0.6700 C.3   1 <1>   0.3430 
 21 C        3.4390     8.5960    -0.7020 C.3   1 <1>  -0.1600 
 22 C        3.5450     7.0950    -0.9790 C.3   1 <1>  -0.1600 
 23 H       -3.1820     3.6590    -3.4650 H     1 <1>   0.1500 
 24 H       -5.2630     2.6120    -2.6600 H     1 <1>   0.1500 
 25 H       -2.1580     5.9500     2.0620 H     1 <1>   0.0800 
 26 H       -2.2060     6.2090     0.3430 H     1 <1>   0.0800 
 27 H       -1.8950     2.3360     1.8760 H     1 <1>   0.0800 
 28 H       -2.5860     3.6420     2.8110 H     1 <1>   0.0800 
 29 H       -0.8440     3.5220     2.6140 H     1 <1>   0.0800 
 30 H       -5.9940     2.2020     1.0050 H     1 <1>   0.0800 
 31 H        0.3030     5.2010     0.6040 H     1 <1>   0.0800 
 32 H        0.1480     5.9940     2.1460 H     1 <1>   0.0800 
 33 H       -6.2540     0.6660    -1.5910 H     1 <1>   0.0800 
 34 H       -7.0230     0.2800    -0.0710 H     1 <1>   0.0800 
 35 H       -5.2870     0.1860    -0.2170 H     1 <1>   0.0800 
 36 H       -7.4000     2.9910    -1.5570 H     1 <1>   0.0800 
 37 H       -7.1740     4.0200    -0.1630 H     1 <1>   0.0800 
 38 H       -8.1570     2.5840    -0.0360 H     1 <1>   0.0800 
 39 H       -0.3640     7.3440    -0.5230 H     1 <1>   0.0800 
 40 H        2.0180     7.3390     1.2010 H     1 <1>   0.4500 
 41 H        0.0360     8.5510     2.2420 H     1 <1>   0.0800 
 42 H       -1.5080     8.3540     1.4670 H     1 <1>   0.0800 
 43 H       -0.3580     9.4290     0.7730 H     1 <1>   0.0800 
 44 H        1.9780     9.5740     0.5640 H     1 <1>   0.0800 
 45 H        1.3940     9.1250    -1.0350 H     1 <1>   0.0800 
 46 H        1.5840     6.5080    -1.5760 H     1 <1>   0.0800 
 47 H        2.2270     5.5300    -0.2630 H     1 <1>   0.0800 
 48 H        4.1440     8.8900     0.0570 H     1 <1>   0.0800 
 49 H        3.6260     9.1800    -1.5870 H     1 <1>   0.0800 
 50 H        3.8130     6.8920    -2.0020 H     1 <1>   0.0800 
 51 H        4.2790     6.6420    -0.3350 H     1 <1>   0.0800 
@<TRIPOS>BOND
  1   1   2  3   
  2   2   3  1   
  3   3   4  ar  
  4   3   5  ar  
  5   4   6  ar  
  6   4   7  1   
  7   5   8  ar  
  8   5  23  1   
  9   6   9  ar  
 10   7  10  1   
 11   7  11  1   
 12   8   9  ar  
 13   8  24  1   
 14   9  12  1   
 15  10  13  1   
 16  10  25  1   
 17  10  26  1   
 18  11  27  1   
 19  11  28  1   
 20  11  29  1   
 21  12  14  1   
 22  12  15  1   
 23  12  30  1   
 24  13  16  1   
 25  13  31  1   
 26  13  32  1   
 27  14  33  1   
 28  14  34  1   
 29  14  35  1   
 30  15  36  1   
 31  15  37  1   
 32  15  38  1   
 33  16  17  1   
 34  16  18  1   
 35  16  39  1   
 36  17  19  1   
 37  17  20  1   
 38  17  40  1   
 39  18  41  1   
 40  18  42  1   
 41  18  43  1   
 42  19  21  1   
 43  19  44  1   
 44  19  45  1   
 45  20  22  1   
 46  20  46  1   
 47  20  47  1   
 48  21  22  1   
 49  21  48  1   
 50  21  49  1   
 51  22  50  1   
 52  22  51  1   
@<TRIPOS>SUBSTRUCTURE
  1 ****   7 GROUP 4 **** **** 0

# MOE 2024.06 (io_trps.svl 2023.06)
