@<TRIPOS>MOLECULE
NONAME
39 41 1 0 0 
SMALL
USER_CHARGES


@<TRIPOS>ATOM
  1 O        1.0390    -0.4610    -1.6010 O.2   1 <1>  -0.5760 
  2 C        1.6280    -0.8590    -0.6310 C.2   1 <1>   0.8490 
  3 N        2.3520    -0.0110     0.1460 N.pl3 1 <1>  -0.7340 
  4 C        1.5760    -2.3230    -0.2440 C.3   1 <1>  -0.0290 
  5 C        2.5150     1.3010    -0.0330 C.cat 1 <1>   1.0690 
  6 C        1.9720    -3.2190    -1.4180 C.3   1 <1>   0.1100 
  7 C        0.1820    -2.7420     0.2380 C.3   1 <1>  -0.0270 
  8 N        1.9880     2.0210    -1.0040 N.pl3 1 <1>  -0.7050 
  9 N        3.2460     2.0860     0.7610 N.pl3 1 <1>  -0.7680 
 10 O        2.0820    -4.5440    -0.9540 O.3   1 <1>  -0.3700 
 11 C        0.1500    -4.2460     0.4390 C.ar  1 <1>  -0.1530 
 12 C        2.3820     3.3280    -0.8510 C.2   1 <1>   0.1910 
 13 C        3.1630     3.3710     0.2440 C.2   1 <1>   0.1910 
 14 C        4.0380     1.7690     1.9810 C.3   1 <1>   0.2660 
 15 C        1.1000    -5.0690    -0.1650 C.ar  1 <1>   0.0730 
 16 C       -0.8350    -4.8070     1.2350 C.ar  1 <1>  -0.1590 
 17 C        1.0700    -6.4500     0.0420 C.ar  1 <1>   0.0730 
 18 C       -0.8730    -6.1750     1.4380 C.ar  1 <1>  -0.1590 
 19 O        2.0290    -7.2090    -0.5610 O.3   1 <1>  -0.3700 
 20 C        0.0740    -6.9940     0.8480 C.ar  1 <1>  -0.1590 
 21 C        2.0520    -8.6120    -0.4240 C.3   1 <1>   0.0300 
 22 H        2.8240    -0.4140     0.9420 H     1 <1>   0.4430 
 23 H        2.2820    -2.4980     0.5480 H     1 <1>   0.0700 
 24 H        2.9280    -2.9410    -1.8260 H     1 <1>   0.0700 
 25 H        1.2310    -3.2010    -2.1980 H     1 <1>   0.0700 
 26 H       -0.5610    -2.4810    -0.4970 H     1 <1>   0.0700 
 27 H       -0.0590    -2.2430     1.1600 H     1 <1>   0.0700 
 28 H        1.3890     1.6000    -1.7250 H     1 <1>   0.4430 
 29 H        2.0840     4.1210    -1.5210 H     1 <1>   0.1410 
 30 H        3.6610     4.2210     0.6870 H     1 <1>   0.1410 
 31 H        3.9890     0.7200     2.2150 H     1 <1>   0.0700 
 32 H        3.6550     2.3280     2.8190 H     1 <1>   0.0700 
 33 H        5.0690     2.0410     1.8270 H     1 <1>   0.0700 
 34 H       -1.5800    -4.1860     1.7020 H     1 <1>   0.1410 
 35 H       -1.6400    -6.6040     2.0570 H     1 <1>   0.1410 
 36 H        0.0170    -8.0500     1.0280 H     1 <1>   0.1410 
 37 H        2.8840    -8.9870    -0.9920 H     1 <1>   0.0700 
 38 H        1.1330    -9.0140    -0.8100 H     1 <1>   0.0700 
 39 H        2.1770    -8.8570     0.6160 H     1 <1>   0.0700 
@<TRIPOS>BOND
  1   1   2  2   
  2   2   3  1   
  3   2   4  1   
  4   3   5  ar  
  5   3  22  1   
  6   4   6  1   
  7   4   7  1   
  8   4  23  1   
  9   5   8  ar  
 10   5   9  ar  
 11   6  10  1   
 12   6  24  1   
 13   6  25  1   
 14   7  11  1   
 15   7  26  1   
 16   7  27  1   
 17   8  12  1   
 18   8  28  1   
 19   9  13  1   
 20   9  14  1   
 21  10  15  1   
 22  11  15  ar  
 23  11  16  ar  
 24  12  13  2   
 25  12  29  1   
 26  13  30  1   
 27  14  31  1   
 28  14  32  1   
 29  14  33  1   
 30  15  17  ar  
 31  16  18  ar  
 32  16  34  1   
 33  17  19  1   
 34  17  20  ar  
 35  18  20  ar  
 36  18  35  1   
 37  19  21  1   
 38  20  36  1   
 39  21  37  1   
 40  21  38  1   
 41  21  39  1   
@<TRIPOS>SUBSTRUCTURE
  1 ****   4 GROUP 4 **** **** 0

# MOE 2024.06 (io_trps.svl 2023.06)
