@<TRIPOS>MOLECULE
NONAME
46 48 1 0 0 
SMALL
USER_CHARGES


@<TRIPOS>ATOM
  1 CL       0.8340    -0.0810    -0.6670 Cl    1 <1>  -0.1770 
  2 C        1.9540     1.2690    -0.6460 C.ar  1 <1>   0.1770 
  3 C        3.1130     1.1980    -1.4100 C.ar  1 <1>  -0.1440 
  4 C        1.6560     2.3820     0.1320 C.ar  1 <1>  -0.1440 
  5 C        3.9930     2.2670    -1.3820 C.ar  1 <1>  -0.1500 
  6 C        3.4190    -0.0220    -2.2670 C.3   1 <1>  -0.0960 
  7 C        2.5500     3.4410     0.1450 C.ar  1 <1>  -0.1500 
  8 C        0.3770     2.4510     0.9530 C.3   1 <1>  -0.0960 
  9 C        3.7210     3.3760    -0.5940 C.ar  1 <1>   0.0820 
 10 O        4.5820     4.4190    -0.5850 O.3   1 <1>  -0.3630 
 11 C        5.6510     4.5160     0.3660 C.3   1 <1>   0.3410 
 12 C        6.4470     5.8090     0.0490 C.2   1 <1>   0.5690 
 13 C        6.5650     3.2850     0.2310 C.3   1 <1>  -0.2400 
 14 C        5.0590     4.5890     1.7840 C.3   1 <1>  -0.2400 
 15 O        7.4070     6.1030     0.7250 O.2   1 <1>  -0.5700 
 16 N        6.0470     6.5820    -1.0030 N.am  1 <1>  -0.4940 
 17 C        6.6220     7.7140    -1.5900 C.2   1 <1>   0.2510 
 18 N        6.4870     7.9350    -2.8590 N.2   1 <1>  -0.3380 
 19 N        7.3350     8.6900    -0.9840 N.pl3 1 <1>   0.3340 
 20 N        7.1330     9.0640    -3.1430 N.2   1 <1>  -0.3380 
 21 C        7.6360     9.5120    -2.0310 C.2   1 <1>   0.3120 
 22 C        7.7020     9.0720     0.3030 C.2   1 <1>  -0.1810 
 23 N        8.3680    10.6710    -1.8890 N.2   1 <1>  -0.5760 
 24 C        8.4080    10.2200     0.4490 C.2   1 <1>  -0.1360 
 25 C        8.7340    10.9970    -0.6990 C.2   1 <1>   0.3750 
 26 C        9.5420    12.2610    -0.5020 C.3   1 <1>  -0.1790 
 27 H        4.8910     2.2510    -1.9720 H     1 <1>   0.1500 
 28 H        2.6380    -0.1670    -2.9910 H     1 <1>   0.0800 
 29 H        3.4850    -0.8990    -1.6480 H     1 <1>   0.0800 
 30 H        4.3510     0.0970    -2.7900 H     1 <1>   0.0800 
 31 H        2.3430     4.3220     0.7240 H     1 <1>   0.1500 
 32 H        0.3560     1.6480     1.6680 H     1 <1>   0.0800 
 33 H       -0.4790     2.3630     0.3080 H     1 <1>   0.0800 
 34 H        0.3070     3.3830     1.4850 H     1 <1>   0.0800 
 35 H        6.9360     3.2050    -0.7750 H     1 <1>   0.0800 
 36 H        6.0460     2.3830     0.5000 H     1 <1>   0.0800 
 37 H        7.4090     3.3870     0.8900 H     1 <1>   0.0800 
 38 H        4.3740     5.4140     1.8600 H     1 <1>   0.0800 
 39 H        5.8480     4.7420     2.4990 H     1 <1>   0.0800 
 40 H        4.5570     3.6750     2.0430 H     1 <1>   0.0800 
 41 H        5.2990     6.1650    -1.5650 H     1 <1>   0.3700 
 42 H        7.4070     8.4400     1.1190 H     1 <1>   0.1500 
 43 H        8.7330    10.5710     1.4120 H     1 <1>   0.1500 
 44 H       10.4890    12.0240    -0.0540 H     1 <1>   0.0800 
 45 H        9.0060    12.9420     0.1340 H     1 <1>   0.0800 
 46 H        9.7180    12.7390    -1.4480 H     1 <1>   0.0800 
@<TRIPOS>BOND
  1   1   2  1   
  2   2   3  ar  
  3   2   4  ar  
  4   3   5  ar  
  5   3   6  1   
  6   4   7  ar  
  7   4   8  1   
  8   5   9  ar  
  9   5  27  1   
 10   6  28  1   
 11   6  29  1   
 12   6  30  1   
 13   7   9  ar  
 14   7  31  1   
 15   8  32  1   
 16   8  33  1   
 17   8  34  1   
 18   9  10  1   
 19  10  11  1   
 20  11  12  1   
 21  11  13  1   
 22  11  14  1   
 23  12  15  2   
 24  12  16  am  
 25  13  35  1   
 26  13  36  1   
 27  13  37  1   
 28  14  38  1   
 29  14  39  1   
 30  14  40  1   
 31  16  17  1   
 32  16  41  1   
 33  17  18  2   
 34  17  19  1   
 35  18  20  1   
 36  19  21  1   
 37  19  22  1   
 38  20  21  2   
 39  21  23  1   
 40  22  24  2   
 41  22  42  1   
 42  23  25  2   
 43  24  25  1   
 44  24  43  1   
 45  25  26  1   
 46  26  44  1   
 47  26  45  1   
 48  26  46  1   
@<TRIPOS>SUBSTRUCTURE
  1 ****  16 GROUP 4 **** **** 0

# MOE 2024.06 (io_trps.svl 2023.06)
