@<TRIPOS>MOLECULE
NONAME
49 51 1 0 0 
SMALL
USER_CHARGES


@<TRIPOS>ATOM
  1 O       -0.5390    -0.4150     2.1990 O.2   1 <1>  -0.5700 
  2 C       -1.1340     0.4610     1.6160 C.2   1 <1>   0.5690 
  3 N       -2.1250     0.1440     0.7150 N.am  1 <1>  -0.6600 
  4 C       -0.7500     1.9020     1.9360 C.3   1 <1>   0.0440 
  5 C       -2.3470    -1.2670     0.2930 C.3   1 <1>   0.1400 
  6 C       -3.0530     1.1240     0.0830 C.3   1 <1>   0.1400 
  7 C       -0.2790     2.6860     0.7140 C.ar  1 <1>  -0.1440 
  8 C       -3.7950    -1.6940     0.6140 C.3   1 <1>   0.4230 
  9 C       -4.4950     0.7160     0.4120 C.3   1 <1>  -0.1600 
 10 C        0.6750     2.1470    -0.1370 C.ar  1 <1>  -0.1500 
 11 C       -0.7940     3.9450     0.4420 C.ar  1 <1>  -0.1500 
 12 N       -4.0710    -3.1720     0.3630 N.4   1 <1>  -0.9590 
 13 C       -4.8480    -0.7370    -0.0210 C.3   1 <1>   0.0000 
 14 C        1.0980     2.8500    -1.2510 C.ar  1 <1>  -0.1500 
 15 C       -0.3720     4.6490    -0.6730 C.ar  1 <1>  -0.1500 
 16 C       -5.5270    -3.5160     0.2620 C.3   1 <1>   0.3430 
 17 C       -3.3220    -3.7820    -0.7860 C.3   1 <1>   0.2630 
 18 C       -6.2610    -1.0920     0.5300 C.3   1 <1>  -0.1600 
 19 C       -4.8210    -0.8580    -1.5720 C.3   1 <1>   0.1200 
 20 C        0.5740     4.1020    -1.5210 C.ar  1 <1>  -0.1500 
 21 C       -6.3780    -2.5330     1.0630 C.3   1 <1>  -0.1600 
 22 O       -5.6010     0.1140    -2.1750 O.3   1 <1>  -0.6800 
 23 H       -1.5900     2.3860     2.3960 H     1 <1>   0.0800 
 24 H        0.0470     1.8920     2.6570 H     1 <1>   0.0800 
 25 H       -2.1430    -1.3360    -0.7600 H     1 <1>   0.0800 
 26 H       -1.6650    -1.9210     0.8080 H     1 <1>   0.0800 
 27 H       -2.8810     2.1190     0.4510 H     1 <1>   0.0800 
 28 H       -2.8930     1.1410    -0.9830 H     1 <1>   0.0800 
 29 H       -3.8930    -1.5490     1.6780 H     1 <1>   0.0800 
 30 H       -4.6220     0.8230     1.4750 H     1 <1>   0.0800 
 31 H       -5.1650     1.4210    -0.0490 H     1 <1>   0.0800 
 32 H        1.0960     1.1760     0.0640 H     1 <1>   0.1500 
 33 H       -1.5260     4.3890     1.0940 H     1 <1>   0.1500 
 34 H       -3.7290    -3.6420     1.2150 H     1 <1>   0.4500 
 35 H        1.8380     2.4240    -1.9070 H     1 <1>   0.1500 
 36 H       -0.7760     5.6250    -0.8790 H     1 <1>   0.1500 
 37 H       -5.8400    -3.4770    -0.7690 H     1 <1>   0.0800 
 38 H       -5.6920    -4.5200     0.6210 H     1 <1>   0.0800 
 39 H       -3.5950    -3.3040    -1.7120 H     1 <1>   0.0800 
 40 H       -3.5480    -4.8330    -0.8630 H     1 <1>   0.0800 
 41 H       -2.2580    -3.6760    -0.6440 H     1 <1>   0.0800 
 42 H       -6.5310    -0.4300     1.3360 H     1 <1>   0.0800 
 43 H       -7.0040    -0.9420    -0.2350 H     1 <1>   0.0800 
 44 H       -5.1880    -1.8130    -1.9020 H     1 <1>   0.0800 
 45 H       -3.8250    -0.7260    -1.9580 H     1 <1>   0.0800 
 46 H        0.9040     4.6490    -2.3870 H     1 <1>   0.1500 
 47 H       -7.4090    -2.8410     1.0200 H     1 <1>   0.0800 
 48 H       -6.0820    -2.5720     2.0980 H     1 <1>   0.0800 
 49 H       -6.5470     0.0270    -1.9480 H     1 <1>   0.4000 
@<TRIPOS>BOND
  1   1   2  2   
  2   2   3  am  
  3   2   4  1   
  4   3   5  1   
  5   3   6  1   
  6   4   7  1   
  7   4  23  1   
  8   4  24  1   
  9   5   8  1   
 10   5  25  1   
 11   5  26  1   
 12   6   9  1   
 13   6  27  1   
 14   6  28  1   
 15   7  10  ar  
 16   7  11  ar  
 17   8  12  1   
 18   8  13  1   
 19   8  29  1   
 20   9  13  1   
 21   9  30  1   
 22   9  31  1   
 23  10  14  ar  
 24  10  32  1   
 25  11  15  ar  
 26  11  33  1   
 27  12  16  1   
 28  12  17  1   
 29  12  34  1   
 30  13  18  1   
 31  13  19  1   
 32  14  20  ar  
 33  14  35  1   
 34  15  20  ar  
 35  15  36  1   
 36  16  21  1   
 37  16  37  1   
 38  16  38  1   
 39  17  39  1   
 40  17  40  1   
 41  17  41  1   
 42  18  21  1   
 43  18  42  1   
 44  18  43  1   
 45  19  22  1   
 46  19  44  1   
 47  19  45  1   
 48  20  46  1   
 49  21  47  1   
 50  21  48  1   
 51  22  49  1   
@<TRIPOS>SUBSTRUCTURE
  1 ****   3 GROUP 4 **** **** 0

# MOE 2024.06 (io_trps.svl 2023.06)
