@<TRIPOS>MOLECULE
NONAME
47 50 1 0 0 
SMALL
USER_CHARGES


@<TRIPOS>ATOM
  1 O       -0.3660     0.1380    -0.2860 O.2   1 <1>  -0.5700 
  2 C       -1.3580     0.7560     0.0190 C.2   1 <1>   0.5690 
  3 N       -2.5270     0.1150     0.3390 N.am  1 <1>  -0.6600 
  4 C       -1.2930     2.2760     0.0370 C.3   1 <1>  -0.0990 
  5 C       -2.6070    -1.3810     0.4030 C.3   1 <1>   0.1400 
  6 C       -3.8490     0.7710     0.5880 C.3   1 <1>   0.1400 
  7 C        0.1270     2.8350    -0.1230 C.3   1 <1>   0.0210 
  8 C       -3.7880    -1.9180    -0.4280 C.3   1 <1>   0.3440 
  9 C       -4.9590     0.1170    -0.2590 C.3   1 <1>   0.2950 
 10 C        0.1010     4.3510    -0.0760 C.2   1 <1>  -0.1810 
 11 O       -4.9750    -1.2650    -0.0600 O.3   1 <1>  -0.5600 
 12 C       -3.9450    -3.4230    -0.2290 C.ar  1 <1>  -0.1440 
 13 C       -6.3420     0.6530     0.1200 C.3   1 <1>  -0.1950 
 14 C       -0.0920     5.1450     1.0500 C.2   1 <1>   0.1390 
 15 C        0.2540     5.2280    -1.0910 C.2   1 <1>  -0.3020 
 16 C       -4.7400    -3.9420     0.7840 C.ar  1 <1>  -0.1500 
 17 C       -3.2680    -4.2980    -1.0670 C.ar  1 <1>  -0.1500 
 18 C       -7.4930     0.5660    -0.8320 C.3   1 <1>  -0.2000 
 19 C       -6.8860     1.9010    -0.5030 C.3   1 <1>  -0.2000 
 20 N       -0.0700     6.4120     0.7690 N.2   1 <1>  -0.7070 
 21 N        0.1490     6.4610    -0.5590 N.pl3 1 <1>   0.3000 
 22 C       -4.8570    -5.3100     0.9570 C.ar  1 <1>  -0.1500 
 23 C       -3.3830    -5.6670    -0.8960 C.ar  1 <1>  -0.1500 
 24 C       -4.1780    -6.1740     0.1160 C.ar  1 <1>  -0.1500 
 25 H       -1.9040     2.6530    -0.7610 H     1 <1>   0.0800 
 26 H       -1.6950     2.6230     0.9700 H     1 <1>   0.0800 
 27 H       -1.6980    -1.8280     0.0430 H     1 <1>   0.0800 
 28 H       -2.7340    -1.6850     1.4270 H     1 <1>   0.0800 
 29 H       -4.0990     0.6720     1.6300 H     1 <1>   0.0800 
 30 H       -3.8140     1.8190     0.3550 H     1 <1>   0.0800 
 31 H        0.5400     2.5140    -1.0650 H     1 <1>   0.0800 
 32 H        0.7620     2.4620     0.6610 H     1 <1>   0.0800 
 33 H       -3.6120    -1.7190    -1.4720 H     1 <1>   0.0800 
 34 H       -4.7770     0.3020    -1.3040 H     1 <1>   0.0800 
 35 H       -6.5620     0.4920     1.1610 H     1 <1>   0.1000 
 36 H       -0.2440     4.7660     2.0470 H     1 <1>   0.1500 
 37 H        0.4280     5.0490    -2.1360 H     1 <1>   0.1500 
 38 H       -5.2760    -3.2790     1.4420 H     1 <1>   0.1500 
 39 H       -2.6450    -3.9190    -1.8590 H     1 <1>   0.1500 
 40 H       -7.3260     0.1360    -1.8040 H     1 <1>   0.1000 
 41 H       -8.4640     0.3190    -0.4360 H     1 <1>   0.1000 
 42 H       -7.4510     2.5840     0.1080 H     1 <1>   0.1000 
 43 H       -6.3280     2.4050    -1.2740 H     1 <1>   0.1000 
 44 H        0.2230     7.3510    -1.0680 H     1 <1>   0.2700 
 45 H       -5.4770    -5.7010     1.7440 H     1 <1>   0.1500 
 46 H       -2.8550    -6.3370    -1.5510 H     1 <1>   0.1500 
 47 H       -4.2680    -7.2380     0.2500 H     1 <1>   0.1500 
@<TRIPOS>BOND
  1   1   2  2   
  2   2   3  am  
  3   2   4  1   
  4   3   5  1   
  5   3   6  1   
  6   4   7  1   
  7   4  25  1   
  8   4  26  1   
  9   5   8  1   
 10   5  27  1   
 11   5  28  1   
 12   6   9  1   
 13   6  29  1   
 14   6  30  1   
 15   7  10  1   
 16   7  31  1   
 17   7  32  1   
 18   8  11  1   
 19   8  12  1   
 20   8  33  1   
 21   9  11  1   
 22   9  13  1   
 23   9  34  1   
 24  10  14  1   
 25  10  15  2   
 26  12  16  ar  
 27  12  17  ar  
 28  13  18  1   
 29  13  19  1   
 30  13  35  1   
 31  14  20  2   
 32  14  36  1   
 33  15  21  1   
 34  15  37  1   
 35  16  22  ar  
 36  16  38  1   
 37  17  23  ar  
 38  17  39  1   
 39  18  19  1   
 40  18  40  1   
 41  18  41  1   
 42  19  42  1   
 43  19  43  1   
 44  20  21  1   
 45  21  44  1   
 46  22  24  ar  
 47  22  45  1   
 48  23  24  ar  
 49  23  46  1   
 50  24  47  1   
@<TRIPOS>SUBSTRUCTURE
  1 ****   3 GROUP 4 **** **** 0

# MOE 2024.06 (io_trps.svl 2023.06)
