@<TRIPOS>MOLECULE
NONAME
51 53 1 0 0 
SMALL
USER_CHARGES


@<TRIPOS>ATOM
  1 CL       0.8410    -2.1420    -3.7830 Cl    1 <1>  -0.1770 
  2 C        0.4620    -3.3090    -2.5460 C.ar  1 <1>   0.1770 
  3 C        1.1420    -4.5110    -2.5150 C.ar  1 <1>  -0.1500 
  4 C       -0.5130    -3.0150    -1.6120 C.ar  1 <1>  -0.1500 
  5 C        0.8370    -5.4400    -1.5340 C.ar  1 <1>  -0.1500 
  6 C       -0.8180    -3.9450    -0.6320 C.ar  1 <1>  -0.1500 
  7 C       -0.1490    -5.1630    -0.5940 C.ar  1 <1>  -0.1430 
  8 C       -0.4860    -6.1950     0.4620 C.3   1 <1>   0.4870 
  9 N       -1.3540    -7.2160    -0.1810 N.4   1 <1>  -0.9590 
 10 C       -1.3300    -8.5300     0.5420 C.3   1 <1>   0.5660 
 11 C       -2.7510    -6.7190    -0.4180 C.3   1 <1>   0.3430 
 12 C        0.0990    -9.0490     0.5030 C.ar  1 <1>  -0.1430 
 13 C       -2.3290    -9.5470    -0.0660 C.3   1 <1>   0.2000 
 14 C       -3.6620    -7.8250    -0.9850 C.3   1 <1>   0.1200 
 15 C        0.7510    -9.2460    -0.7060 C.ar  1 <1>  -0.1500 
 16 C        0.7810    -9.3090     1.6810 C.ar  1 <1>  -0.1500 
 17 O       -3.6070    -8.9620    -0.1710 O.3   1 <1>  -0.5600 
 18 C       -2.4360   -10.8210     0.7850 C.3   1 <1>   0.1200 
 19 C        2.0670    -9.6680    -0.7590 C.ar  1 <1>   0.0830 
 20 C        2.0950    -9.7390     1.6470 C.ar  1 <1>  -0.1500 
 21 O       -3.4220   -11.6390     0.2620 O.3   1 <1>  -0.6800 
 22 O        2.5510    -9.7870    -2.0270 O.3   1 <1>  -0.3630 
 23 C        2.7630    -9.9160     0.4370 C.ar  1 <1>   0.0830 
 24 C        3.6810   -10.5740    -2.3400 C.3   1 <1>   0.0400 
 25 O        4.0690   -10.3050     0.4020 O.3   1 <1>  -0.3630 
 26 C        4.8080   -10.6050     1.5670 C.3   1 <1>   0.0400 
 27 H        1.9030    -4.7100    -3.2500 H     1 <1>   0.1500 
 28 H       -1.0200    -2.0670    -1.6580 H     1 <1>   0.1500 
 29 H        1.3840    -6.3700    -1.5150 H     1 <1>   0.1500 
 30 H       -1.5740    -3.7000     0.0960 H     1 <1>   0.1500 
 31 H       -0.9870    -5.7370     1.2980 H     1 <1>   0.0800 
 32 H        0.4320    -6.6420     0.8130 H     1 <1>   0.0800 
 33 H       -0.9240    -7.3880    -1.0970 H     1 <1>   0.4500 
 34 H       -1.6120    -8.3720     1.5700 H     1 <1>   0.0800 
 35 H       -3.1780    -6.3720     0.5090 H     1 <1>   0.0800 
 36 H       -2.7330    -5.8870    -1.1040 H     1 <1>   0.0800 
 37 H       -2.0060    -9.8310    -1.0530 H     1 <1>   0.0800 
 38 H       -3.3720    -8.0970    -1.9860 H     1 <1>   0.0800 
 39 H       -4.6850    -7.4870    -1.0070 H     1 <1>   0.0800 
 40 H        0.2570    -9.0800    -1.6470 H     1 <1>   0.1500 
 41 H        0.3060    -9.1810     2.6410 H     1 <1>   0.1500 
 42 H       -2.7000   -10.5870     1.8010 H     1 <1>   0.0800 
 43 H       -1.5120   -11.3740     0.7780 H     1 <1>   0.0800 
 44 H        2.5860    -9.9280     2.5840 H     1 <1>   0.1500 
 45 H       -4.2390   -11.1150     0.1160 H     1 <1>   0.4000 
 46 H        3.7170   -10.7020    -3.4060 H     1 <1>   0.0800 
 47 H        3.5880   -11.5310    -1.8570 H     1 <1>   0.0800 
 48 H        4.5660   -10.0610    -2.0070 H     1 <1>   0.0800 
 49 H        5.7980   -10.9000     1.2670 H     1 <1>   0.0800 
 50 H        4.3290   -11.4150     2.0880 H     1 <1>   0.0800 
 51 H        4.8640    -9.7250     2.1840 H     1 <1>   0.0800 
@<TRIPOS>BOND
  1   1   2  1   
  2   2   3  ar  
  3   2   4  ar  
  4   3   5  ar  
  5   3  27  1   
  6   4   6  ar  
  7   4  28  1   
  8   5   7  ar  
  9   5  29  1   
 10   6   7  ar  
 11   6  30  1   
 12   7   8  1   
 13   8   9  1   
 14   8  31  1   
 15   8  32  1   
 16   9  10  1   
 17   9  11  1   
 18   9  33  1   
 19  10  12  1   
 20  10  13  1   
 21  10  34  1   
 22  11  14  1   
 23  11  35  1   
 24  11  36  1   
 25  12  15  ar  
 26  12  16  ar  
 27  13  17  1   
 28  13  18  1   
 29  13  37  1   
 30  14  17  1   
 31  14  38  1   
 32  14  39  1   
 33  15  19  ar  
 34  15  40  1   
 35  16  20  ar  
 36  16  41  1   
 37  18  21  1   
 38  18  42  1   
 39  18  43  1   
 40  19  22  1   
 41  19  23  ar  
 42  20  23  ar  
 43  20  44  1   
 44  21  45  1   
 45  22  24  1   
 46  23  25  1   
 47  24  46  1   
 48  24  47  1   
 49  24  48  1   
 50  25  26  1   
 51  26  49  1   
 52  26  50  1   
 53  26  51  1   
@<TRIPOS>SUBSTRUCTURE
  1 ****  15 GROUP 4 **** **** 0

# MOE 2024.06 (io_trps.svl 2023.06)
