@<TRIPOS>MOLECULE
NONAME
51 53 1 0 0 
SMALL
USER_CHARGES


@<TRIPOS>ATOM
  1 O       -1.4190     1.1880     0.2500 O.2   1 <1>  -0.5700 
  2 C       -0.8990     2.2730     0.2770 C.2   1 <1>   0.5690 
  3 N       -0.6200     2.8730     1.4560 N.am  1 <1>  -0.7300 
  4 C       -0.5420     2.9630    -1.0290 C.3   1 <1>  -0.0990 
  5 C       -0.1190     4.2590     1.6330 C.3   1 <1>   0.1400 
  6 C       -0.2860     4.4740    -0.8740 C.3   1 <1>  -0.1600 
  7 C        0.5960     4.7510     0.3600 C.3   1 <1>  -0.0190 
  8 C        0.9640     6.2330     0.4660 C.2   1 <1>   0.5690 
  9 O        0.2950     6.9310     1.1930 O.2   1 <1>  -0.5700 
 10 N        2.0230     6.7560    -0.2360 N.am  1 <1>  -0.6600 
 11 C        2.9450     6.0010    -1.1500 C.3   1 <1>   0.1400 
 12 C        2.3470     8.2080    -0.1390 C.3   1 <1>   0.1400 
 13 C        4.3130     5.7250    -0.5020 C.3   1 <1>   0.1400 
 14 C        3.2700     8.4990     1.0540 C.3   1 <1>  -0.1600 
 15 N        4.9540     6.9770     0.0080 N.am  1 <1>  -0.6600 
 16 C        4.3740     7.4590     1.2930 C.3   1 <1>   0.1400 
 17 C        5.7510     7.7390    -0.8220 C.2   1 <1>   0.6160 
 18 O        5.8550     7.4030    -1.9880 O.2   1 <1>  -0.5700 
 19 C        6.4350     8.9190    -0.3640 C.2   1 <1>  -0.1360 
 20 C        7.0750     9.8340    -1.1290 C.2   1 <1>  -0.1780 
 21 C        7.7700    11.0290    -0.7170 C.ar  1 <1>   0.0280 
 22 C        8.1550    11.9680    -1.6720 C.ar  1 <1>  -0.1500 
 23 C        8.0850    11.3010     0.6140 C.ar  1 <1>  -0.1500 
 24 C        8.8170    13.1290    -1.3180 C.ar  1 <1>  -0.1500 
 25 C        8.7470    12.4600     0.9760 C.ar  1 <1>  -0.1500 
 26 C        9.1140    13.3790     0.0090 C.ar  1 <1>  -0.1500 
 27 H       -0.9270     2.3750     2.2950 H     1 <1>   0.3700 
 28 H        0.3400     2.4860    -1.4140 H     1 <1>   0.0800 
 29 H       -1.3370     2.8010    -1.7340 H     1 <1>   0.0800 
 30 H       -0.9590     4.8970     1.8540 H     1 <1>   0.0800 
 31 H        0.5610     4.2960     2.4670 H     1 <1>   0.0800 
 32 H       -1.2270     4.9830    -0.7500 H     1 <1>   0.0800 
 33 H        0.1770     4.8560    -1.7670 H     1 <1>   0.0800 
 34 H        1.5060     4.1870     0.2840 H     1 <1>   0.0800 
 35 H        2.5070     5.0690    -1.4520 H     1 <1>   0.0800 
 36 H        3.1020     6.5740    -2.0480 H     1 <1>   0.0800 
 37 H        2.8280     8.5270    -1.0480 H     1 <1>   0.0800 
 38 H        1.4390     8.7800    -0.0390 H     1 <1>   0.0800 
 39 H        4.9570     5.2630    -1.2310 H     1 <1>   0.0800 
 40 H        4.1950     5.0240     0.3050 H     1 <1>   0.0800 
 41 H        3.7160     9.4660     0.9100 H     1 <1>   0.0800 
 42 H        2.6680     8.5650     1.9420 H     1 <1>   0.0800 
 43 H        3.9470     6.6230     1.8200 H     1 <1>   0.0800 
 44 H        5.1420     7.8660     1.9270 H     1 <1>   0.0800 
 45 H        6.4140     9.0510     0.6940 H     1 <1>   0.1500 
 46 H        7.0790     9.6780    -2.1960 H     1 <1>   0.1500 
 47 H        7.9310    11.7890    -2.7080 H     1 <1>   0.1500 
 48 H        7.8190    10.6010     1.3830 H     1 <1>   0.1500 
 49 H        9.1020    13.8400    -2.0750 H     1 <1>   0.1500 
 50 H        8.9800    12.6500     2.0090 H     1 <1>   0.1500 
 51 H        9.6290    14.2820     0.2880 H     1 <1>   0.1500 
@<TRIPOS>BOND
  1   1   2  2   
  2   2   3  am  
  3   2   4  1   
  4   3   5  1   
  5   3  27  1   
  6   4   6  1   
  7   4  28  1   
  8   4  29  1   
  9   5   7  1   
 10   5  30  1   
 11   5  31  1   
 12   6   7  1   
 13   6  32  1   
 14   6  33  1   
 15   7   8  1   
 16   7  34  1   
 17   8   9  2   
 18   8  10  am  
 19  10  11  1   
 20  10  12  1   
 21  11  13  1   
 22  11  35  1   
 23  11  36  1   
 24  12  14  1   
 25  12  37  1   
 26  12  38  1   
 27  13  15  1   
 28  13  39  1   
 29  13  40  1   
 30  14  16  1   
 31  14  41  1   
 32  14  42  1   
 33  15  16  1   
 34  15  17  am  
 35  16  43  1   
 36  16  44  1   
 37  17  18  2   
 38  17  19  1   
 39  19  20  2   
 40  19  45  1   
 41  20  21  1   
 42  20  46  1   
 43  21  22  ar  
 44  21  23  ar  
 45  22  24  ar  
 46  22  47  1   
 47  23  25  ar  
 48  23  48  1   
 49  24  26  ar  
 50  24  49  1   
 51  25  26  ar  
 52  25  50  1   
 53  26  51  1   
@<TRIPOS>SUBSTRUCTURE
  1 ****  15 GROUP 4 **** **** 0

# MOE 2024.06 (io_trps.svl 2023.06)
