@<TRIPOS>MOLECULE
NONAME
62 65 1 0 0 
SMALL
USER_CHARGES


@<TRIPOS>ATOM
  1 O       -0.3830     1.3040    -0.2300 O.2   1 <1>  -0.5700 
  2 C       -1.5140     1.4820     0.1730 C.2   1 <1>   0.5690 
  3 N       -2.2700     0.4340     0.6420 N.am  1 <1>  -0.6600 
  4 C       -2.0910     2.9150     0.1460 C.3   1 <1>   0.1710 
  5 C       -1.7000    -0.9400     0.7820 C.3   1 <1>   0.1400 
  6 C       -3.6970     0.5190     1.0750 C.3   1 <1>   0.1400 
  7 N       -1.1370     4.0550    -0.0190 N.3   1 <1>  -0.8100 
  8 C       -2.5290    -1.9300    -0.0400 C.3   1 <1>  -0.1600 
  9 C       -4.5400    -0.4550     0.2470 C.3   1 <1>  -0.1600 
 10 C       -0.4840     4.2340    -1.3330 C.3   1 <1>   0.1100 
 11 C       -0.5740     4.6800     1.1820 C.3   1 <1>   0.1100 
 12 C       -4.0140    -1.8960     0.3500 C.3   1 <1>   0.4240 
 13 C        1.0560     4.2690    -1.2930 C.3   1 <1>   0.3430 
 14 C        0.5390     3.8290     1.8020 C.3   1 <1>  -0.1600 
 15 O       -4.0490    -2.2740     1.7070 O.3   1 <1>  -0.5600 
 16 C       -4.8310    -2.8600    -0.5380 C.ar  1 <1>  -0.1430 
 17 N        1.6040     3.2370    -0.3660 N.4   1 <1>  -0.9590 
 18 C        1.8380     3.7720     0.9960 C.3   1 <1>   0.3430 
 19 C       -5.2510    -2.7690     2.2080 C.3   1 <1>   0.1200 
 20 C       -5.5640    -3.9030     0.0170 C.ar  1 <1>  -0.1430 
 21 C       -4.8540    -2.6970    -1.9200 C.ar  1 <1>  -0.1500 
 22 C        2.7980     2.5430    -0.9200 C.3   1 <1>   0.2630 
 23 C       -5.5640    -4.0950     1.5210 C.3   1 <1>  -0.0170 
 24 C       -6.2910    -4.7660    -0.7880 C.ar  1 <1>  -0.1500 
 25 C       -5.5810    -3.5550    -2.7240 C.ar  1 <1>  -0.1500 
 26 C       -6.3040    -4.5950    -2.1680 C.ar  1 <1>   0.0830 
 27 O       -6.9890    -5.3920    -3.0250 O.3   1 <1>  -0.3630 
 28 C       -7.7390    -6.4930    -2.5620 C.3   1 <1>   0.0400 
 29 H       -2.6310     3.0720     1.0610 H     1 <1>   0.0800 
 30 H       -2.8070     2.9560    -0.6550 H     1 <1>   0.0800 
 31 H       -1.7170    -1.2240     1.8210 H     1 <1>   0.0800 
 32 H       -0.6770    -0.9710     0.4500 H     1 <1>   0.0800 
 33 H       -4.0910     1.5110     0.9520 H     1 <1>   0.0800 
 34 H       -3.7630     0.2610     2.1190 H     1 <1>   0.0800 
 35 H       -2.1540    -2.9270     0.1030 H     1 <1>   0.0800 
 36 H       -2.4100    -1.6870    -1.0780 H     1 <1>   0.0800 
 37 H       -4.5170    -0.1370    -0.7780 H     1 <1>   0.0800 
 38 H       -5.5640    -0.4170     0.5650 H     1 <1>   0.0800 
 39 H       -0.8360     5.1530    -1.7690 H     1 <1>   0.0800 
 40 H       -0.7890     3.4380    -1.9910 H     1 <1>   0.0800 
 41 H       -1.3620     4.8080     1.9050 H     1 <1>   0.0800 
 42 H       -0.2030     5.6620     0.9390 H     1 <1>   0.0800 
 43 H        1.3810     5.2480    -0.9840 H     1 <1>   0.0800 
 44 H        1.4240     4.1020    -2.2910 H     1 <1>   0.0800 
 45 H        0.1830     2.8340     1.9970 H     1 <1>   0.0800 
 46 H        0.7790     4.2580     2.7590 H     1 <1>   0.0800 
 47 H        0.8360     2.5340    -0.2670 H     1 <1>   0.4500 
 48 H        2.5290     3.1310     1.5180 H     1 <1>   0.0800 
 49 H        2.2760     4.7550     0.9330 H     1 <1>   0.0800 
 50 H       -6.0320    -2.0500     2.0350 H     1 <1>   0.0800 
 51 H       -5.1320    -2.9140     3.2670 H     1 <1>   0.0800 
 52 H       -4.3050    -1.8990    -2.3870 H     1 <1>   0.1500 
 53 H        3.6120     3.2380    -1.0470 H     1 <1>   0.0800 
 54 H        2.5600     2.1030    -1.8740 H     1 <1>   0.0800 
 55 H        3.1100     1.7560    -0.2520 H     1 <1>   0.0800 
 56 H       -6.5240    -4.4470     1.8520 H     1 <1>   0.0800 
 57 H       -4.8220    -4.8230     1.7940 H     1 <1>   0.0800 
 58 H       -6.8420    -5.5640    -0.3290 H     1 <1>   0.1500 
 59 H       -5.5940    -3.4240    -3.7910 H     1 <1>   0.1500 
 60 H       -8.1820    -6.9760    -3.4140 H     1 <1>   0.0800 
 61 H       -8.5100    -6.1360    -1.9020 H     1 <1>   0.0800 
 62 H       -7.0800    -7.1750    -2.0560 H     1 <1>   0.0800 
@<TRIPOS>BOND
  1   1   2  2   
  2   2   3  am  
  3   2   4  1   
  4   3   5  1   
  5   3   6  1   
  6   4   7  1   
  7   4  29  1   
  8   4  30  1   
  9   5   8  1   
 10   5  31  1   
 11   5  32  1   
 12   6   9  1   
 13   6  33  1   
 14   6  34  1   
 15   7  10  1   
 16   7  11  1   
 17   8  12  1   
 18   8  35  1   
 19   8  36  1   
 20   9  12  1   
 21   9  37  1   
 22   9  38  1   
 23  10  13  1   
 24  10  39  1   
 25  10  40  1   
 26  11  14  1   
 27  11  41  1   
 28  11  42  1   
 29  12  15  1   
 30  12  16  1   
 31  13  17  1   
 32  13  43  1   
 33  13  44  1   
 34  14  18  1   
 35  14  45  1   
 36  14  46  1   
 37  15  19  1   
 38  16  20  ar  
 39  16  21  ar  
 40  17  18  1   
 41  17  22  1   
 42  17  47  1   
 43  18  48  1   
 44  18  49  1   
 45  19  23  1   
 46  19  50  1   
 47  19  51  1   
 48  20  23  1   
 49  20  24  ar  
 50  21  25  ar  
 51  21  52  1   
 52  22  53  1   
 53  22  54  1   
 54  22  55  1   
 55  23  56  1   
 56  23  57  1   
 57  24  26  ar  
 58  24  58  1   
 59  25  26  ar  
 60  25  59  1   
 61  26  27  1   
 62  27  28  1   
 63  28  60  1   
 64  28  61  1   
 65  28  62  1   
@<TRIPOS>SUBSTRUCTURE
  1 ****   3 GROUP 4 **** **** 0

# MOE 2024.06 (io_trps.svl 2023.06)
