@<TRIPOS>MOLECULE
NONAME
45 48 1 0 0 
SMALL
USER_CHARGES


@<TRIPOS>ATOM
  1 O       -2.2890     1.5060     2.8420 O.2   1 <1>  -0.5700 
  2 C       -2.6550     1.8270     1.7350 C.2   1 <1>   0.5690 
  3 N       -3.0340     0.8850     0.8170 N.am  1 <1>  -0.6600 
  4 C       -2.6980     3.3050     1.4160 C.3   1 <1>   0.1570 
  5 C       -3.4880     1.1310    -0.5800 C.3   1 <1>   0.1400 
  6 C       -2.9040    -0.5730     1.0620 C.3   1 <1>   0.1400 
  7 N       -1.7440     3.6220     0.3460 N.pl3 1 <1>   0.3140 
  8 C       -4.0900    -0.2030    -1.0180 C.3   1 <1>   0.2000 
  9 C       -3.2360    -1.2390    -0.2790 C.3   1 <1>  -0.0800 
 10 N       -2.1570     4.1110    -0.8480 N.2   1 <1>  -0.7070 
 11 C       -0.3840     3.4880     0.3950 C.ar  1 <1>  -0.1520 
 12 O       -5.3950    -0.2610    -0.5520 O.3   1 <1>  -0.6800 
 13 C       -3.8650    -2.6380    -0.1430 C.3   1 <1>  -0.0170 
 14 C       -1.0740     4.2900    -1.5290 C.2   1 <1>   0.1390 
 15 C        0.0840     3.9230    -0.8260 C.ar  1 <1>   0.0000 
 16 C        0.4960     3.0260     1.3810 C.ar  1 <1>  -0.1500 
 17 C       -2.9080    -3.5990     0.5450 C.ar  1 <1>  -0.1440 
 18 C        1.4600     3.9130    -1.0920 C.ar  1 <1>  -0.1500 
 19 C        1.8440     3.0170     1.1130 C.ar  1 <1>  -0.1500 
 20 C       -3.0160    -3.9050     1.8870 C.ar  1 <1>  -0.1500 
 21 C       -1.8790    -4.2130    -0.1390 C.ar  1 <1>  -0.1500 
 22 C        2.3280     3.4620    -0.1250 C.ar  1 <1>  -0.1500 
 23 C       -2.1120    -4.7820     2.4640 C.ar  1 <1>   0.1600 
 24 C       -1.0290    -5.0760     0.5330 C.ar  1 <1>   0.1600 
 25 N       -1.1200    -5.3740     1.8190 N.ar  1 <1>  -0.6200 
 26 H       -2.4370     3.8730     2.2870 H     1 <1>   0.0800 
 27 H       -3.6850     3.5810     1.1000 H     1 <1>   0.0800 
 28 H       -4.2020     1.9340    -0.6450 H     1 <1>   0.0800 
 29 H       -2.6330     1.3610    -1.1920 H     1 <1>   0.0800 
 30 H       -1.9070    -0.8190     1.3890 H     1 <1>   0.0800 
 31 H       -3.6080    -0.8630     1.8240 H     1 <1>   0.0800 
 32 H       -4.1000    -0.3330    -2.0870 H     1 <1>   0.0800 
 33 H       -2.3110    -1.3380    -0.8190 H     1 <1>   0.0800 
 34 H       -5.4030     0.0050     0.3900 H     1 <1>   0.4000 
 35 H       -4.1070    -3.0160    -1.1210 H     1 <1>   0.0800 
 36 H       -4.7820    -2.5850     0.4160 H     1 <1>   0.0800 
 37 H       -1.0550     4.6800    -2.5330 H     1 <1>   0.1500 
 38 H        0.1200     2.6820     2.3300 H     1 <1>   0.1500 
 39 H        1.8150     4.2570    -2.0460 H     1 <1>   0.1500 
 40 H        2.5430     2.6660     1.8530 H     1 <1>   0.1500 
 41 H       -3.7920    -3.4720     2.4910 H     1 <1>   0.1500 
 42 H       -1.7290    -4.0300    -1.1870 H     1 <1>   0.1500 
 43 H        3.3880     3.4460    -0.3080 H     1 <1>   0.1500 
 44 H       -2.2110    -5.0090     3.5120 H     1 <1>   0.1500 
 45 H       -0.2310    -5.5460    -0.0160 H     1 <1>   0.1500 
@<TRIPOS>BOND
  1   1   2  2   
  2   2   3  am  
  3   2   4  1   
  4   3   5  1   
  5   3   6  1   
  6   4   7  1   
  7   4  26  1   
  8   4  27  1   
  9   5   8  1   
 10   5  28  1   
 11   5  29  1   
 12   6   9  1   
 13   6  30  1   
 14   6  31  1   
 15   7  10  1   
 16   7  11  1   
 17   8   9  1   
 18   8  12  1   
 19   8  32  1   
 20   9  13  1   
 21   9  33  1   
 22  10  14  2   
 23  11  15  ar  
 24  11  16  ar  
 25  12  34  1   
 26  13  17  1   
 27  13  35  1   
 28  13  36  1   
 29  14  15  1   
 30  14  37  1   
 31  15  18  ar  
 32  16  19  ar  
 33  16  38  1   
 34  17  20  ar  
 35  17  21  ar  
 36  18  22  ar  
 37  18  39  1   
 38  19  22  ar  
 39  19  40  1   
 40  20  23  ar  
 41  20  41  1   
 42  21  24  ar  
 43  21  42  1   
 44  22  43  1   
 45  23  25  ar  
 46  23  44  1   
 47  24  25  ar  
 48  24  45  1   
@<TRIPOS>SUBSTRUCTURE
  1 ****   3 GROUP 4 **** **** 0

# MOE 2024.06 (io_trps.svl 2023.06)
