@<TRIPOS>MOLECULE
NONAME
44 46 1 0 0 
SMALL
USER_CHARGES


@<TRIPOS>ATOM
  1 CL       0.9670     1.1400     0.3890 Cl    1 <1>  -0.1770 
  2 C        1.1780     2.8090     0.8730 C.ar  1 <1>   0.1770 
  3 C        2.4440     3.3670     1.0280 C.ar  1 <1>  -0.1440 
  4 C        0.0310     3.5470     1.1020 C.ar  1 <1>  -0.1500 
  5 C        2.5260     4.6940     1.4320 C.ar  1 <1>  -0.1500 
  6 C        3.7390     2.6000     0.7800 C.3   1 <1>   0.3640 
  7 C        0.1320     4.8680     1.4980 C.ar  1 <1>  -0.1500 
  8 C        1.3820     5.4380     1.6640 C.ar  1 <1>  -0.1500 
  9 N        3.8350     1.4760     1.7400 N.am  1 <1>  -0.7300 
 10 C        3.9320     2.1340    -0.6870 C.3   1 <1>   0.2610 
 11 C        4.3160     0.2570     1.4060 C.2   1 <1>   0.5690 
 12 O        4.9880     1.1850    -0.7640 O.3   1 <1>  -0.5600 
 13 C        4.2300     3.3550    -1.5530 C.2   1 <1>   0.5690 
 14 O        4.4130    -0.6150     2.2310 O.2   1 <1>  -0.5700 
 15 C        4.7300    -0.0050    -0.0470 C.3   1 <1>   0.1810 
 16 O        3.3250     3.9120    -2.1280 O.2   1 <1>  -0.5700 
 17 N        5.5030     3.8200    -1.6090 N.am  1 <1>  -0.7300 
 18 C        5.8600     5.2010    -1.9570 C.3   1 <1>   0.3210 
 19 C        5.9310     5.9760    -0.6560 C.2   1 <1>  -0.1810 
 20 C        4.9440     6.8210    -0.1530 C.2   1 <1>   0.1080 
 21 C        6.9130     5.9990     0.2750 C.2   1 <1>  -0.3320 
 22 N        5.2680     7.3220     0.9970 N.2   1 <1>  -0.7070 
 23 C        3.6290     7.1510    -0.8270 C.3   1 <1>  -0.0590 
 24 N        6.4890     6.8220     1.2570 N.pl3 1 <1>   0.3000 
 25 C        8.2530     5.2840     0.3090 C.3   1 <1>  -0.0600 
 26 H       -0.9320     3.0880     0.9700 H     1 <1>   0.1500 
 27 H        3.4840     5.1700     1.5700 H     1 <1>   0.1500 
 28 H        4.5570     3.2650     1.0030 H     1 <1>   0.0800 
 29 H       -0.7550     5.4500     1.6770 H     1 <1>   0.1500 
 30 H        1.4700     6.4670     1.9720 H     1 <1>   0.1500 
 31 H        3.5220     1.6380     2.6980 H     1 <1>   0.3700 
 32 H        3.0430     1.6700    -1.0680 H     1 <1>   0.0800 
 33 H        3.9480    -0.5440    -0.5500 H     1 <1>   0.0800 
 34 H        5.6260    -0.5990    -0.0610 H     1 <1>   0.0800 
 35 H        6.2310     3.2870    -1.1300 H     1 <1>   0.3700 
 36 H        6.8130     5.2160    -2.4560 H     1 <1>   0.0800 
 37 H        5.1210     5.6260    -2.6160 H     1 <1>   0.0800 
 38 H        3.0610     6.2550    -0.9910 H     1 <1>   0.0800 
 39 H        3.8110     7.6320    -1.7700 H     1 <1>   0.0800 
 40 H        3.0550     7.8130    -0.2060 H     1 <1>   0.0800 
 41 H        7.0040     7.0640     2.1110 H     1 <1>   0.2700 
 42 H        8.3870     4.6870    -0.5750 H     1 <1>   0.0800 
 43 H        8.3070     4.6380     1.1680 H     1 <1>   0.0800 
 44 H        9.0530     6.0010     0.3600 H     1 <1>   0.0800 
@<TRIPOS>BOND
  1   1   2  1   
  2   2   3  ar  
  3   2   4  ar  
  4   3   5  ar  
  5   3   6  1   
  6   4   7  ar  
  7   4  26  1   
  8   5   8  ar  
  9   5  27  1   
 10   6   9  1   
 11   6  10  1   
 12   6  28  1   
 13   7   8  ar  
 14   7  29  1   
 15   8  30  1   
 16   9  11  am  
 17   9  31  1   
 18  10  12  1   
 19  10  13  1   
 20  10  32  1   
 21  11  14  2   
 22  11  15  1   
 23  12  15  1   
 24  13  16  2   
 25  13  17  am  
 26  15  33  1   
 27  15  34  1   
 28  17  18  1   
 29  17  35  1   
 30  18  19  1   
 31  18  36  1   
 32  18  37  1   
 33  19  20  1   
 34  19  21  2   
 35  20  22  2   
 36  20  23  1   
 37  21  24  1   
 38  21  25  1   
 39  22  24  1   
 40  23  38  1   
 41  23  39  1   
 42  23  40  1   
 43  24  41  1   
 44  25  42  1   
 45  25  43  1   
 46  25  44  1   
@<TRIPOS>SUBSTRUCTURE
  1 ****   6 GROUP 4 **** **** 0

# MOE 2024.06 (io_trps.svl 2023.06)
