@<TRIPOS>MOLECULE
NONAME
45 47 1 0 0 
SMALL
USER_CHARGES


@<TRIPOS>ATOM
  1 O       -1.5960     0.5370    -2.5280 O.2   1 <1>  -0.5700 
  2 C       -1.8730     0.9200    -1.4150 C.2   1 <1>   0.5690 
  3 N       -2.4680     0.0800    -0.5100 N.am  1 <1>  -0.6600 
  4 C       -1.5620     2.3710    -1.0640 C.3   1 <1>   0.0820 
  5 C       -2.8450     0.4080     0.8880 C.3   1 <1>   0.1400 
  6 C       -2.6960    -1.3560    -0.7910 C.3   1 <1>   0.1400 
  7 C       -0.6220     2.5180     0.1290 C.2   1 <1>  -0.1810 
  8 C       -3.4920    -0.8680     1.4260 C.3   1 <1>   0.2000 
  9 C       -2.9160    -2.0000     0.5780 C.3   1 <1>  -0.0800 
 10 C       -0.8440     3.2630     1.2860 C.2   1 <1>   0.1080 
 11 C        0.5940     1.9550     0.3120 C.2   1 <1>  -0.3320 
 12 O       -3.1930    -1.0680     2.7640 O.3   1 <1>  -0.6800 
 13 C       -3.8190    -3.2430     0.5410 C.3   1 <1>  -0.0170 
 14 N        0.1320     3.1610     2.1290 N.2   1 <1>  -0.7070 
 15 C       -2.0600     4.1130     1.5860 C.3   1 <1>  -0.0590 
 16 N        1.0250     2.3580     1.5240 N.pl3 1 <1>   0.3000 
 17 C        1.4020     1.0400    -0.5940 C.3   1 <1>  -0.0600 
 18 C       -3.2030    -4.3380    -0.3150 C.ar  1 <1>  -0.1440 
 19 C       -3.5790    -4.5460    -1.6270 C.ar  1 <1>  -0.1500 
 20 C       -2.2290    -5.1800     0.1810 C.ar  1 <1>  -0.1500 
 21 C       -2.9760    -5.5560    -2.3590 C.ar  1 <1>   0.1600 
 22 C       -1.6910    -6.1610    -0.6360 C.ar  1 <1>   0.1600 
 23 N       -2.0410    -6.3690    -1.8950 N.ar  1 <1>  -0.6200 
 24 H       -1.1070     2.8420    -1.9160 H     1 <1>   0.0800 
 25 H       -2.4900     2.8740    -0.8750 H     1 <1>   0.0800 
 26 H       -1.9590     0.6460     1.4500 H     1 <1>   0.0800 
 27 H       -3.5390     1.2290     0.9110 H     1 <1>   0.0800 
 28 H       -3.5710    -1.4530    -1.4100 H     1 <1>   0.0800 
 29 H       -1.8510    -1.7900    -1.3000 H     1 <1>   0.0800 
 30 H       -4.5620    -0.8080     1.3220 H     1 <1>   0.0800 
 31 H       -1.9480    -2.2730     0.9600 H     1 <1>   0.0800 
 32 H       -2.2260    -1.0540     2.9030 H     1 <1>   0.4000 
 33 H       -4.7890    -2.9820     0.1570 H     1 <1>   0.0800 
 34 H       -3.9570    -3.6120     1.5430 H     1 <1>   0.0800 
 35 H       -2.2590     4.7720     0.7620 H     1 <1>   0.0800 
 36 H       -1.8790     4.7060     2.4640 H     1 <1>   0.0800 
 37 H       -2.9120     3.4860     1.7620 H     1 <1>   0.0800 
 38 H        1.9200     2.1100     1.9620 H     1 <1>   0.2700 
 39 H        0.9360     0.9470    -1.5590 H     1 <1>   0.0800 
 40 H        1.4790     0.0600    -0.1590 H     1 <1>   0.0800 
 41 H        2.3900     1.4390    -0.7380 H     1 <1>   0.0800 
 42 H       -4.3320    -3.9350    -2.0900 H     1 <1>   0.1500 
 43 H       -1.8840    -5.0840     1.1940 H     1 <1>   0.1500 
 44 H       -3.2800    -5.7030    -3.3810 H     1 <1>   0.1500 
 45 H       -0.9320    -6.8090    -0.2320 H     1 <1>   0.1500 
@<TRIPOS>BOND
  1   1   2  2   
  2   2   3  am  
  3   2   4  1   
  4   3   5  1   
  5   3   6  1   
  6   4   7  1   
  7   4  24  1   
  8   4  25  1   
  9   5   8  1   
 10   5  26  1   
 11   5  27  1   
 12   6   9  1   
 13   6  28  1   
 14   6  29  1   
 15   7  10  1   
 16   7  11  2   
 17   8   9  1   
 18   8  12  1   
 19   8  30  1   
 20   9  13  1   
 21   9  31  1   
 22  10  14  2   
 23  10  15  1   
 24  11  16  1   
 25  11  17  1   
 26  12  32  1   
 27  13  18  1   
 28  13  33  1   
 29  13  34  1   
 30  14  16  1   
 31  15  35  1   
 32  15  36  1   
 33  15  37  1   
 34  16  38  1   
 35  17  39  1   
 36  17  40  1   
 37  17  41  1   
 38  18  19  ar  
 39  18  20  ar  
 40  19  21  ar  
 41  19  42  1   
 42  20  22  ar  
 43  20  43  1   
 44  21  23  ar  
 45  21  44  1   
 46  22  23  ar  
 47  22  45  1   
@<TRIPOS>SUBSTRUCTURE
  1 ****   3 GROUP 4 **** **** 0

# MOE 2024.06 (io_trps.svl 2023.06)
