@<TRIPOS>MOLECULE
NONAME
49 51 1 0 0 
SMALL
USER_CHARGES


@<TRIPOS>ATOM
  1 S        1.5540     1.8600    -0.2000 S.o2  1 <1>   1.3330 
  2 O        0.8710     2.4900    -1.3040 O.2   1 <1>  -0.6500 
  3 O        2.6710     2.5610     0.3980 O.2   1 <1>  -0.6500 
  4 N        2.0280     0.2950    -0.6320 N.am  1 <1>  -0.8490 
  5 C        0.3560     1.6150     1.1160 C.3   1 <1>  -0.0550 
  6 C        1.1070    -0.3570    -1.5730 C.3   1 <1>   0.1160 
  7 C        3.3930     0.2480    -1.1700 C.3   1 <1>   0.1160 
  8 C       -0.2140     2.9020     1.7730 C.3   1 <1>  -0.0800 
  9 C       -0.9460     3.8190     0.7850 C.3   1 <1>   0.2000 
 10 C        0.8600     3.8120     2.3780 C.3   1 <1>   0.3430 
 11 O       -2.0060     4.4180     1.4540 O.3   1 <1>  -0.6800 
 12 C        0.0670     4.8960     0.3660 C.3   1 <1>   0.3430 
 13 N        1.2340     4.7640     1.3010 N.4   1 <1>  -0.9590 
 14 C        1.8120     6.0550     1.7620 C.3   1 <1>   0.4860 
 15 C        2.1560     6.8980     0.5510 C.ar  1 <1>  -0.1440 
 16 C        3.2530     6.5460    -0.2780 C.ar  1 <1>   0.0000 
 17 C        1.3790     7.9910     0.2640 C.ar  1 <1>  -0.1500 
 18 C        3.4910     7.3230    -1.4360 C.ar  1 <1>   0.0000 
 19 C        4.1310     5.4640    -0.0240 C.ar  1 <1>  -0.1500 
 20 C        1.6370     8.7670    -0.8690 C.ar  1 <1>  -0.1500 
 21 C        2.6670     8.4340    -1.7000 C.ar  1 <1>  -0.1500 
 22 C        4.5480     6.9720    -2.2980 C.ar  1 <1>  -0.1500 
 23 C        5.1510     5.1490    -0.8770 C.ar  1 <1>  -0.1500 
 24 C        5.3610     5.9080    -2.0310 C.ar  1 <1>  -0.1500 
 25 H       -0.4650     1.0420     0.7300 H     1 <1>   0.0800 
 26 H        0.8160     1.0190     1.8810 H     1 <1>   0.0800 
 27 H        1.4160    -1.3740    -1.7480 H     1 <1>   0.0800 
 28 H        1.0930     0.1700    -2.5140 H     1 <1>   0.0800 
 29 H        0.1090    -0.3720    -1.1700 H     1 <1>   0.0800 
 30 H        3.6670    -0.7660    -1.4040 H     1 <1>   0.0800 
 31 H        4.0920     0.6230    -0.4410 H     1 <1>   0.0800 
 32 H        3.4670     0.8490    -2.0620 H     1 <1>   0.0800 
 33 H       -0.8870     2.5780     2.5490 H     1 <1>   0.0800 
 34 H       -1.3550     3.2980    -0.0660 H     1 <1>   0.0800 
 35 H        1.7160     3.2490     2.7200 H     1 <1>   0.0800 
 36 H        0.4380     4.3530     3.2100 H     1 <1>   0.0800 
 37 H       -1.7370     4.9060     2.2550 H     1 <1>   0.4000 
 38 H       -0.3840     5.8730     0.4240 H     1 <1>   0.0800 
 39 H        0.3960     4.7240    -0.6470 H     1 <1>   0.0800 
 40 H        1.9880     4.3050     0.7460 H     1 <1>   0.4500 
 41 H        1.0990     6.5800     2.3760 H     1 <1>   0.0800 
 42 H        2.7020     5.8800     2.3450 H     1 <1>   0.0800 
 43 H        0.5520     8.2820     0.8890 H     1 <1>   0.1500 
 44 H        4.0140     4.8640     0.8580 H     1 <1>   0.1500 
 45 H        1.0160     9.6230    -1.0770 H     1 <1>   0.1500 
 46 H        2.8680     9.0230    -2.5770 H     1 <1>   0.1500 
 47 H        4.7090     7.5640    -3.1810 H     1 <1>   0.1500 
 48 H        5.8070     4.3190    -0.6750 H     1 <1>   0.1500 
 49 H        6.1680     5.6450    -2.6940 H     1 <1>   0.1500 
@<TRIPOS>BOND
  1   1   2  2   
  2   1   3  2   
  3   1   4  am  
  4   1   5  1   
  5   4   6  1   
  6   4   7  1   
  7   5   8  1   
  8   5  25  1   
  9   5  26  1   
 10   6  27  1   
 11   6  28  1   
 12   6  29  1   
 13   7  30  1   
 14   7  31  1   
 15   7  32  1   
 16   8   9  1   
 17   8  10  1   
 18   8  33  1   
 19   9  11  1   
 20   9  12  1   
 21   9  34  1   
 22  10  13  1   
 23  10  35  1   
 24  10  36  1   
 25  11  37  1   
 26  12  13  1   
 27  12  38  1   
 28  12  39  1   
 29  13  14  1   
 30  13  40  1   
 31  14  15  1   
 32  14  41  1   
 33  14  42  1   
 34  15  16  ar  
 35  15  17  ar  
 36  16  18  ar  
 37  16  19  ar  
 38  17  20  ar  
 39  17  43  1   
 40  18  21  ar  
 41  18  22  ar  
 42  19  23  ar  
 43  19  44  1   
 44  20  21  ar  
 45  20  45  1   
 46  21  46  1   
 47  22  24  ar  
 48  22  47  1   
 49  23  24  ar  
 50  23  48  1   
 51  24  49  1   
@<TRIPOS>SUBSTRUCTURE
  1 ****  13 GROUP 4 **** **** 0

# MOE 2024.06 (io_trps.svl 2023.06)
