@<TRIPOS>MOLECULE
NONAME
21 22 1 0 0 
SMALL
USER_CHARGES


@<TRIPOS>ATOM
  1 O        0.7980    -1.2870    -0.8470 O.co2 1 <1>  -0.9000 
  2 C       -0.1490    -1.4230    -0.0640 C.2   1 <1>   0.9060 
  3 O       -0.0740    -1.0600     1.1170 O.co2 1 <1>  -0.9000 
  4 C       -1.4350    -2.0540    -0.6030 C.3   1 <1>  -0.1860 
  5 C       -2.6960    -1.8310     0.2640 C.3   1 <1>  -0.0800 
  6 C       -1.3580    -3.5960    -0.6900 C.3   1 <1>  -0.1600 
  7 C       -2.6610    -3.0320     1.1950 C.3   1 <1>  -0.1600 
  8 C       -3.9310    -2.1590    -0.5930 C.3   1 <1>  -0.1600 
  9 C       -2.6070    -4.0590     0.0780 C.3   1 <1>  -0.0800 
 10 C       -3.8540    -3.6890    -0.7430 C.3   1 <1>  -0.1600 
 11 H       -1.5830    -1.6360    -1.5810 H     1 <1>   0.0800 
 12 H       -2.7290    -0.8710     0.7510 H     1 <1>   0.0800 
 13 H       -1.3490    -3.9380    -1.7100 H     1 <1>   0.0800 
 14 H       -0.4680    -3.9480    -0.1950 H     1 <1>   0.0800 
 15 H       -1.7790    -3.0400     1.8150 H     1 <1>   0.0800 
 16 H       -3.5440    -3.1140     1.8030 H     1 <1>   0.0800 
 17 H       -4.8280    -1.8780    -0.0690 H     1 <1>   0.0800 
 18 H       -3.9020    -1.6560    -1.5440 H     1 <1>   0.0800 
 19 H       -2.5700    -5.0860     0.3970 H     1 <1>   0.0800 
 20 H       -3.7540    -3.9870    -1.7720 H     1 <1>   0.0800 
 21 H       -4.7300    -4.1490    -0.3200 H     1 <1>   0.0800 
@<TRIPOS>BOND
  1   1   2  ar  
  2   2   3  ar  
  3   2   4  1   
  4   4   5  1   
  5   4   6  1   
  6   4  11  1   
  7   5   7  1   
  8   5   8  1   
  9   5  12  1   
 10   6   9  1   
 11   6  13  1   
 12   6  14  1   
 13   7   9  1   
 14   7  15  1   
 15   7  16  1   
 16   8  10  1   
 17   8  17  1   
 18   8  18  1   
 19   9  10  1   
 20   9  19  1   
 21  10  20  1   
 22  10  21  1   
@<TRIPOS>SUBSTRUCTURE
  1 ****   4 GROUP 4 **** **** 0

# MOE 2024.06 (io_trps.svl 2023.06)
