@<TRIPOS>MOLECULE
NONAME
51 53 1 0 0 
SMALL
USER_CHARGES


@<TRIPOS>ATOM
  1 O       -3.0760     0.9330    -2.3840 O.2   1 <1>  -0.5700 
  2 C       -2.6490     0.9560    -1.2570 C.2   1 <1>   0.5690 
  3 N       -2.2800    -0.1740    -0.6100 N.am  1 <1>  -0.7300 
  4 C       -2.5290     2.2790    -0.5300 C.3   1 <1>  -0.0990 
  5 C       -2.2850    -1.5310    -1.2020 C.3   1 <1>   0.2200 
  6 C       -1.0710     2.7700    -0.4680 C.3   1 <1>  -0.1600 
  7 C       -3.4310    -2.3710    -0.6540 C.3   1 <1>  -0.0800 
  8 C       -1.0900    -2.3050    -0.6620 C.3   1 <1>   0.1200 
  9 C       -0.8840     4.0400     0.3830 C.3   1 <1>  -0.0800 
 10 C       -2.8580    -2.9270     0.6550 C.3   1 <1>   0.1200 
 11 C       -4.7810    -1.6470    -0.5010 C.3   1 <1>  -0.0160 
 12 O       -1.4750    -2.7170     0.6140 O.3   1 <1>  -0.5600 
 13 C       -1.6240     5.2550    -0.2120 C.3   1 <1>  -0.1600 
 14 C        0.6180     4.3490     0.5230 C.3   1 <1>  -0.1600 
 15 C       -5.8640    -2.6110    -0.0400 C.ar  1 <1>  -0.1440 
 16 C       -1.3730     6.5290     0.6060 C.3   1 <1>  -0.1600 
 17 C        0.8640     5.6190     1.3470 C.3   1 <1>  -0.1600 
 18 C       -6.5170    -3.4440    -0.9260 C.ar  1 <1>  -0.1500 
 19 C       -6.2490    -2.7060     1.2820 C.ar  1 <1>  -0.1500 
 20 C        0.1260     6.8190     0.7430 C.3   1 <1>  -0.1600 
 21 C       -7.4910    -4.3110    -0.4600 C.ar  1 <1>   0.1600 
 22 C       -7.2360    -3.6080     1.6440 C.ar  1 <1>   0.1600 
 23 N       -7.8640    -4.4150     0.8050 N.ar  1 <1>  -0.6200 
 24 H       -1.9280    -0.1390     0.3500 H     1 <1>   0.3700 
 25 H       -3.1390     2.9960    -1.0470 H     1 <1>   0.0800 
 26 H       -2.9220     2.1640     0.4640 H     1 <1>   0.0800 
 27 H       -2.2850    -1.4770    -2.2780 H     1 <1>   0.0800 
 28 H       -0.7200     2.9510    -1.4710 H     1 <1>   0.0800 
 29 H       -0.4640     1.9850    -0.0520 H     1 <1>   0.0800 
 30 H       -3.5720    -3.2040    -1.3200 H     1 <1>   0.0800 
 31 H       -0.1980    -1.7070    -0.5990 H     1 <1>   0.0800 
 32 H       -0.9050    -3.1850    -1.2530 H     1 <1>   0.0800 
 33 H       -1.2770     3.8530     1.3680 H     1 <1>   0.0800 
 34 H       -3.0500    -3.9810     0.7570 H     1 <1>   0.0800 
 35 H       -3.2410    -2.4030     1.5130 H     1 <1>   0.0800 
 36 H       -5.0650    -1.2170    -1.4460 H     1 <1>   0.0800 
 37 H       -4.6990    -0.8410     0.2070 H     1 <1>   0.0800 
 38 H       -1.2930     5.4150    -1.2240 H     1 <1>   0.0800 
 39 H       -2.6830     5.0720    -0.2350 H     1 <1>   0.0800 
 40 H        1.1170     3.5220     0.9980 H     1 <1>   0.0800 
 41 H        1.0510     4.4770    -0.4550 H     1 <1>   0.0800 
 42 H       -1.8580     7.3640     0.1300 H     1 <1>   0.0800 
 43 H       -1.8030     6.4130     1.5860 H     1 <1>   0.0800 
 44 H        0.5230     5.4620     2.3560 H     1 <1>   0.0800 
 45 H        1.9190     5.8270     1.3830 H     1 <1>   0.0800 
 46 H       -6.2770    -3.4260    -1.9740 H     1 <1>   0.1500 
 47 H       -5.7940    -2.0890     2.0340 H     1 <1>   0.1500 
 48 H        0.2710     7.6840     1.3660 H     1 <1>   0.0800 
 49 H        0.5370     7.0390    -0.2280 H     1 <1>   0.0800 
 50 H       -7.9890    -4.9530    -1.1660 H     1 <1>   0.1500 
 51 H       -7.5230    -3.6690     2.6800 H     1 <1>   0.1500 
@<TRIPOS>BOND
  1   1   2  2   
  2   2   3  am  
  3   2   4  1   
  4   3   5  1   
  5   3  24  1   
  6   4   6  1   
  7   4  25  1   
  8   4  26  1   
  9   5   7  1   
 10   5   8  1   
 11   5  27  1   
 12   6   9  1   
 13   6  28  1   
 14   6  29  1   
 15   7  10  1   
 16   7  11  1   
 17   7  30  1   
 18   8  12  1   
 19   8  31  1   
 20   8  32  1   
 21   9  13  1   
 22   9  14  1   
 23   9  33  1   
 24  10  12  1   
 25  10  34  1   
 26  10  35  1   
 27  11  15  1   
 28  11  36  1   
 29  11  37  1   
 30  13  16  1   
 31  13  38  1   
 32  13  39  1   
 33  14  17  1   
 34  14  40  1   
 35  14  41  1   
 36  15  18  ar  
 37  15  19  ar  
 38  16  20  1   
 39  16  42  1   
 40  16  43  1   
 41  17  20  1   
 42  17  44  1   
 43  17  45  1   
 44  18  21  ar  
 45  18  46  1   
 46  19  22  ar  
 47  19  47  1   
 48  20  48  1   
 49  20  49  1   
 50  21  23  ar  
 51  21  50  1   
 52  22  23  ar  
 53  22  51  1   
@<TRIPOS>SUBSTRUCTURE
  1 ****   3 GROUP 4 **** **** 0

# MOE 2024.06 (io_trps.svl 2023.06)
