@<TRIPOS>MOLECULE
NONAME
53 55 1 0 0 
SMALL
USER_CHARGES


@<TRIPOS>ATOM
  1 CL      -2.1670    -0.7250    -2.1070 Cl    1 <1>  -0.1770 
  2 C       -2.4470     0.7120    -1.1580 C.ar  1 <1>   0.1770 
  3 C       -2.9540     0.5860     0.1190 C.ar  1 <1>  -0.1500 
  4 C       -2.1510     1.9450    -1.7040 C.ar  1 <1>  -0.1500 
  5 C       -3.1730     1.7360     0.8690 C.ar  1 <1>   0.0830 
  6 C       -2.3570     3.1070    -0.9630 C.ar  1 <1>   0.0860 
  7 O       -3.6660     1.7280     2.1310 O.3   1 <1>  -0.3630 
  8 C       -2.8790     2.9750     0.3220 C.ar  1 <1>  -0.1500 
  9 C       -2.0370     4.4100    -1.5060 C.2   1 <1>   0.5440 
 10 C       -4.0700     0.5280     2.7550 C.3   1 <1>   0.0400 
 11 O       -2.9400     5.1680    -1.8010 O.2   1 <1>  -0.5700 
 12 N       -0.7320     4.8220    -1.6760 N.am  1 <1>  -0.6600 
 13 C        0.4580     4.0850    -1.1470 C.3   1 <1>   0.1400 
 14 C       -0.4170     6.1340    -2.2980 C.3   1 <1>   0.1400 
 15 C        0.9500     4.6610     0.1920 C.3   1 <1>   0.1400 
 16 C       -0.5330     7.2790    -1.2820 C.3   1 <1>  -0.1600 
 17 N        1.2020     6.1410     0.1280 N.am  1 <1>  -0.6600 
 18 C       -0.0520     6.9520     0.1390 C.3   1 <1>   0.1400 
 19 C        2.4770     6.6390     0.1100 C.2   1 <1>   0.5690 
 20 O        3.4420     5.9070     0.1080 O.2   1 <1>  -0.5700 
 21 C        2.7440     8.1450     0.1200 C.3   1 <1>  -0.0190 
 22 C        4.0690     8.4350    -0.5710 C.3   1 <1>   0.3430 
 23 C        2.9800     8.6620     1.5460 C.3   1 <1>  -0.1600 
 24 N        5.0760     8.1630     0.4830 N.4   1 <1>  -0.9590 
 25 C        4.4950     8.6410     1.7650 C.3   1 <1>   0.3430 
 26 C        6.4440     8.6750     0.1860 C.3   1 <1>   0.2630 
 27 H       -3.1650    -0.3950     0.4980 H     1 <1>   0.1500 
 28 H       -1.7620     2.0090    -2.7040 H     1 <1>   0.1500 
 29 H       -3.0650     3.8590     0.9060 H     1 <1>   0.1500 
 30 H       -4.4500     0.7720     3.7310 H     1 <1>   0.0800 
 31 H       -3.2180    -0.1230     2.8480 H     1 <1>   0.0800 
 32 H       -4.8440     0.0710     2.1650 H     1 <1>   0.0800 
 33 H        1.2580     4.1350    -1.8650 H     1 <1>   0.0800 
 34 H        0.2260     3.0450    -1.0090 H     1 <1>   0.0800 
 35 H       -1.0910     6.3130    -3.1210 H     1 <1>   0.0800 
 36 H        0.5820     6.1060    -2.6980 H     1 <1>   0.0800 
 37 H        1.8490     4.1430     0.4770 H     1 <1>   0.0800 
 38 H        0.2170     4.4550     0.9520 H     1 <1>   0.0800 
 39 H       -1.5680     7.5680    -1.2220 H     1 <1>   0.0800 
 40 H       -0.0010     8.1300    -1.6630 H     1 <1>   0.0800 
 41 H       -0.8260     6.3950     0.6400 H     1 <1>   0.0800 
 42 H        0.0890     7.8600     0.7000 H     1 <1>   0.0800 
 43 H        1.9540     8.6740    -0.3780 H     1 <1>   0.0800 
 44 H        4.1120     9.4710    -0.8660 H     1 <1>   0.0800 
 45 H        4.2140     7.8010    -1.4320 H     1 <1>   0.0800 
 46 H        2.4760     8.0580     2.2820 H     1 <1>   0.0800 
 47 H        2.6280     9.6750     1.6420 H     1 <1>   0.0800 
 48 H        5.0930     7.1230     0.5430 H     1 <1>   0.4500 
 49 H        4.7620     7.9790     2.5730 H     1 <1>   0.0800 
 50 H        4.8450     9.6360     1.9900 H     1 <1>   0.0800 
 51 H        6.4330     9.7490     0.1000 H     1 <1>   0.0800 
 52 H        6.8040     8.2570    -0.7410 H     1 <1>   0.0800 
 53 H        7.1250     8.3970     0.9740 H     1 <1>   0.0800 
@<TRIPOS>BOND
  1   1   2  1   
  2   2   3  ar  
  3   2   4  ar  
  4   3   5  ar  
  5   3  27  1   
  6   4   6  ar  
  7   4  28  1   
  8   5   7  1   
  9   5   8  ar  
 10   6   8  ar  
 11   6   9  1   
 12   7  10  1   
 13   8  29  1   
 14   9  11  2   
 15   9  12  am  
 16  10  30  1   
 17  10  31  1   
 18  10  32  1   
 19  12  13  1   
 20  12  14  1   
 21  13  15  1   
 22  13  33  1   
 23  13  34  1   
 24  14  16  1   
 25  14  35  1   
 26  14  36  1   
 27  15  17  1   
 28  15  37  1   
 29  15  38  1   
 30  16  18  1   
 31  16  39  1   
 32  16  40  1   
 33  17  18  1   
 34  17  19  am  
 35  18  41  1   
 36  18  42  1   
 37  19  20  2   
 38  19  21  1   
 39  21  22  1   
 40  21  23  1   
 41  21  43  1   
 42  22  24  1   
 43  22  44  1   
 44  22  45  1   
 45  23  25  1   
 46  23  46  1   
 47  23  47  1   
 48  24  25  1   
 49  24  26  1   
 50  24  48  1   
 51  25  49  1   
 52  25  50  1   
 53  26  51  1   
 54  26  52  1   
 55  26  53  1   
@<TRIPOS>SUBSTRUCTURE
  1 ****  15 GROUP 4 **** **** 0

# MOE 2024.06 (io_trps.svl 2023.06)
