@<TRIPOS>MOLECULE
NONAME
46 48 1 0 0 
SMALL
USER_CHARGES


@<TRIPOS>ATOM
  1 O        1.3120     1.2930    -3.1790 O.2   1 <1>  -0.5700 
  2 C        1.8580     1.5630    -2.1240 C.2   1 <1>   0.5410 
  3 C        2.1880     2.8910    -1.7600 C.2   1 <1>  -0.1360 
  4 C        2.2100     0.5600    -1.1820 C.2   1 <1>  -0.1360 
  5 C        2.8170     3.1790    -0.5850 C.2   1 <1>   0.0910 
  6 C        2.8250     0.8920    -0.0250 C.2   1 <1>  -0.0620 
  7 O        3.1120     2.1670     0.2580 O.3   1 <1>  -0.1530 
  8 C        3.1750     4.5170    -0.1540 C.2   1 <1>   0.6160 
  9 C        3.2470    -0.0900     1.0510 C.3   1 <1>  -0.1020 
 10 O        2.4970     5.4530    -0.5360 O.2   1 <1>  -0.5700 
 11 N        4.2610     4.7890     0.6560 N.am  1 <1>  -0.6600 
 12 C        5.4980     3.9480     0.6930 C.3   1 <1>   0.1400 
 13 C        4.3700     6.0720     1.4030 C.3   1 <1>   0.1400 
 14 C        6.7030     4.7430     0.1760 C.3   1 <1>   0.2000 
 15 C        5.5220     6.8990     0.8270 C.3   1 <1>  -0.1600 
 16 O        7.8450     3.9840     0.3980 O.3   1 <1>  -0.6800 
 17 C        6.8370     6.1150     0.8740 C.3   1 <1>   0.2200 
 18 N        7.8940     6.9480     0.2460 N.am  1 <1>  -0.7300 
 19 C        9.2360     6.8350     0.4680 C.2   1 <1>   0.5440 
 20 O        9.6200     5.9060     1.1500 O.2   1 <1>  -0.5700 
 21 C       10.1750     7.7740    -0.1230 C.ar  1 <1>   0.0860 
 22 C        9.8130     9.0880    -0.4290 C.ar  1 <1>  -0.1500 
 23 C       11.4850     7.3900    -0.4100 C.ar  1 <1>  -0.1500 
 24 C       10.7100     9.9700    -1.0050 C.ar  1 <1>  -0.1500 
 25 C       12.3880     8.2660    -0.9850 C.ar  1 <1>  -0.1500 
 26 C       12.0000     9.5590    -1.2860 C.ar  1 <1>  -0.1500 
 27 H        1.9150     3.6600    -2.4580 H     1 <1>   0.1500 
 28 H        1.9610    -0.4500    -1.4490 H     1 <1>   0.1500 
 29 H        2.7600     0.1530     1.9780 H     1 <1>   0.0800 
 30 H        4.3110    -0.0390     1.1950 H     1 <1>   0.0800 
 31 H        2.9830    -1.0940     0.7740 H     1 <1>   0.0800 
 32 H        5.6770     3.6390     1.7080 H     1 <1>   0.0800 
 33 H        5.3870     3.0730     0.0800 H     1 <1>   0.0800 
 34 H        3.4510     6.6300     1.3360 H     1 <1>   0.0800 
 35 H        4.5510     5.8590     2.4430 H     1 <1>   0.0800 
 36 H        6.6050     4.8840    -0.8860 H     1 <1>   0.0800 
 37 H        5.6200     7.8020     1.4010 H     1 <1>   0.0800 
 38 H        5.2760     7.1600    -0.1870 H     1 <1>   0.0800 
 39 H        8.5990     4.5950     0.6190 H     1 <1>   0.4000 
 40 H        7.0920     5.9440     1.9080 H     1 <1>   0.0800 
 41 H        7.5680     7.6040    -0.4650 H     1 <1>   0.3700 
 42 H        8.8190     9.4330    -0.2060 H     1 <1>   0.1500 
 43 H       11.7970     6.3860    -0.1760 H     1 <1>   0.1500 
 44 H       10.4090    10.9780    -1.2330 H     1 <1>   0.1500 
 45 H       13.3930     7.9420    -1.1970 H     1 <1>   0.1500 
 46 H       12.7010    10.2420    -1.7340 H     1 <1>   0.1500 
@<TRIPOS>BOND
  1   1   2  2   
  2   2   3  1   
  3   2   4  1   
  4   3   5  2   
  5   3  27  1   
  6   4   6  2   
  7   4  28  1   
  8   5   7  1   
  9   5   8  1   
 10   6   7  1   
 11   6   9  1   
 12   8  10  2   
 13   8  11  am  
 14   9  29  1   
 15   9  30  1   
 16   9  31  1   
 17  11  12  1   
 18  11  13  1   
 19  12  14  1   
 20  12  32  1   
 21  12  33  1   
 22  13  15  1   
 23  13  34  1   
 24  13  35  1   
 25  14  16  1   
 26  14  17  1   
 27  14  36  1   
 28  15  17  1   
 29  15  37  1   
 30  15  38  1   
 31  16  39  1   
 32  17  18  1   
 33  17  40  1   
 34  18  19  am  
 35  18  41  1   
 36  19  20  2   
 37  19  21  1   
 38  21  22  ar  
 39  21  23  ar  
 40  22  24  ar  
 41  22  42  1   
 42  23  25  ar  
 43  23  43  1   
 44  24  26  ar  
 45  24  44  1   
 46  25  26  ar  
 47  25  45  1   
 48  26  46  1   
@<TRIPOS>SUBSTRUCTURE
  1 ****  14 GROUP 4 **** **** 0

# MOE 2024.06 (io_trps.svl 2023.06)
