@<TRIPOS>MOLECULE
NONAME
51 54 1 0 0 
SMALL
USER_CHARGES


@<TRIPOS>ATOM
  1 O       -0.0060    -0.3950     0.4430 O.2   1 <1>  -0.5700 
  2 C       -1.0520     0.1680     0.1790 C.2   1 <1>   0.7160 
  3 N       -2.1400    -0.5970    -0.0930 N.am  1 <1>  -0.7300 
  4 C       -1.1610     1.5980     0.1550 C.2   1 <1>  -0.0860 
  5 C       -2.2670    -2.0570    -0.0350 C.3   1 <1>   0.2200 
  6 C       -2.3490     2.3300    -0.0010 C.2   1 <1>   0.3720 
  7 C       -0.2180     2.5730     0.2940 C.2   1 <1>   0.0870 
  8 C       -2.8930    -2.5380    -1.3380 C.3   1 <1>  -0.1600 
  9 C       -3.3230    -2.4060     1.0060 C.3   1 <1>  -0.1600 
 10 N       -2.1320     3.5960     0.0550 N.2   1 <1>  -0.4100 
 11 N       -3.6300     1.7880    -0.1960 N.pl3 1 <1>  -0.8210 
 12 O       -0.8460     3.7210     0.2350 O.3   1 <1>  -0.0190 
 13 C        1.2120     2.5710     0.4720 C.ar  1 <1>   0.0530 
 14 C       -4.3990    -2.2840    -1.1940 C.3   1 <1>  -0.1600 
 15 C       -4.6740    -2.1910     0.3130 C.3   1 <1>  -0.1600 
 16 C       -4.6240     2.1750     0.8450 C.3   1 <1>   0.2090 
 17 C       -4.2100     2.0760    -1.5350 C.3   1 <1>   0.2090 
 18 C        2.0480     1.6990    -0.2270 C.ar  1 <1>  -0.1500 
 19 C        1.8170     3.4720     1.3480 C.ar  1 <1>  -0.1500 
 20 C       -5.7820     2.8290     0.1040 C.3   1 <1>  -0.1600 
 21 C       -5.7020     2.2560    -1.3020 C.3   1 <1>  -0.1600 
 22 C        3.4200     1.7140    -0.0540 C.ar  1 <1>  -0.1500 
 23 C        3.1880     3.4960     1.5250 C.ar  1 <1>  -0.1500 
 24 C        4.0020     2.6190     0.8290 C.ar  1 <1>   0.0830 
 25 O        5.3340     2.7010     1.0580 O.3   1 <1>  -0.3630 
 26 C        6.2440     1.8220     0.4350 C.3   1 <1>   0.0400 
 27 H       -3.0180    -0.0760    -0.2230 H     1 <1>   0.3700 
 28 H       -1.3140    -2.5200     0.1660 H     1 <1>   0.0800 
 29 H       -2.7230    -3.5970    -1.4250 H     1 <1>   0.0800 
 30 H       -2.4680    -2.0490    -2.1970 H     1 <1>   0.0800 
 31 H       -3.2170    -1.8220     1.9040 H     1 <1>   0.0800 
 32 H       -3.2200    -3.4470     1.2590 H     1 <1>   0.0800 
 33 H       -4.9670    -3.0760    -1.6510 H     1 <1>   0.0800 
 34 H       -4.6590    -1.3510    -1.6650 H     1 <1>   0.0800 
 35 H       -5.0530    -1.2110     0.5500 H     1 <1>   0.0800 
 36 H       -5.3910    -2.9280     0.6310 H     1 <1>   0.0800 
 37 H       -4.2010     2.8480     1.5730 H     1 <1>   0.0800 
 38 H       -4.9610     1.2850     1.3470 H     1 <1>   0.0800 
 39 H       -4.0150     1.2650    -2.2160 H     1 <1>   0.0800 
 40 H       -3.7890     2.9850    -1.9350 H     1 <1>   0.0800 
 41 H        1.6150     0.9970    -0.9160 H     1 <1>   0.1500 
 42 H        1.2020     4.1610     1.8990 H     1 <1>   0.1500 
 43 H       -5.6180     3.8920     0.0760 H     1 <1>   0.0800 
 44 H       -6.7260     2.6300     0.5800 H     1 <1>   0.0800 
 45 H       -6.1820     1.2940    -1.3380 H     1 <1>   0.0800 
 46 H       -6.1460     2.9030    -2.0370 H     1 <1>   0.0800 
 47 H        4.0160     1.0180    -0.6120 H     1 <1>   0.1500 
 48 H        3.6380     4.1960     2.2050 H     1 <1>   0.1500 
 49 H        7.2320     2.0650     0.7800 H     1 <1>   0.0800 
 50 H        6.1840     1.9560    -0.6310 H     1 <1>   0.0800 
 51 H        5.9970     0.8120     0.7110 H     1 <1>   0.0800 
@<TRIPOS>BOND
  1   1   2  2   
  2   2   3  am  
  3   2   4  1   
  4   3   5  1   
  5   3  27  1   
  6   4   6  1   
  7   4   7  2   
  8   5   8  1   
  9   5   9  1   
 10   5  28  1   
 11   6  10  2   
 12   6  11  1   
 13   7  12  1   
 14   7  13  1   
 15   8  14  1   
 16   8  29  1   
 17   8  30  1   
 18   9  15  1   
 19   9  31  1   
 20   9  32  1   
 21  10  12  1   
 22  11  16  1   
 23  11  17  1   
 24  13  18  ar  
 25  13  19  ar  
 26  14  15  1   
 27  14  33  1   
 28  14  34  1   
 29  15  35  1   
 30  15  36  1   
 31  16  20  1   
 32  16  37  1   
 33  16  38  1   
 34  17  21  1   
 35  17  39  1   
 36  17  40  1   
 37  18  22  ar  
 38  18  41  1   
 39  19  23  ar  
 40  19  42  1   
 41  20  21  1   
 42  20  43  1   
 43  20  44  1   
 44  21  45  1   
 45  21  46  1   
 46  22  24  ar  
 47  22  47  1   
 48  23  24  ar  
 49  23  48  1   
 50  24  25  1   
 51  25  26  1   
 52  26  49  1   
 53  26  50  1   
 54  26  51  1   
@<TRIPOS>SUBSTRUCTURE
  1 ****   4 GROUP 4 **** **** 0

# MOE 2024.06 (io_trps.svl 2023.06)
