@<TRIPOS>MOLECULE
NONAME
34 35 1 0 0 
SMALL
USER_CHARGES


@<TRIPOS>ATOM
  1 CL       2.0900    -1.7410     1.3310 Cl    1 <1>  -0.1770 
  2 C        0.9910    -2.9760     0.7730 C.ar  1 <1>   0.1770 
  3 C        1.1000    -4.2580     1.2760 C.ar  1 <1>  -0.1500 
  4 C        0.0290    -2.6530    -0.1650 C.ar  1 <1>  -0.1500 
  5 C        0.2240    -5.2360     0.8340 C.ar  1 <1>  -0.1500 
  6 C       -0.8460    -3.6340    -0.6050 C.ar  1 <1>  -0.1500 
  7 C       -0.7540    -4.9260    -0.1030 C.ar  1 <1>  -0.1430 
  8 C       -1.7150    -6.0070    -0.5670 C.3   1 <1>   0.4870 
  9 N       -3.0100    -5.8040     0.1460 N.4   1 <1>  -0.9590 
 10 C       -2.8980    -6.2750     1.5790 C.3   1 <1>   0.3430 
 11 C       -4.1220    -6.4610    -0.6260 C.3   1 <1>   0.3430 
 12 C       -2.8970    -7.8150     1.7460 C.3   1 <1>   0.2000 
 13 C       -4.8930    -7.4900     0.2150 C.3   1 <1>  -0.1600 
 14 O       -1.6070    -8.2780     1.5540 O.3   1 <1>  -0.6800 
 15 C       -3.9040    -8.5210     0.8000 C.3   1 <1>  -0.1860 
 16 C       -3.2830    -9.2700    -0.3700 C.2   1 <1>   0.9060 
 17 O       -3.9030   -10.2060    -0.8600 O.co2 1 <1>  -0.9000 
 18 O       -2.2350    -8.8310    -0.8660 O.co2 1 <1>  -0.9000 
 19 H        1.8620    -4.4860     2.0010 H     1 <1>   0.1500 
 20 H       -0.0270    -1.6470    -0.5420 H     1 <1>   0.1500 
 21 H        0.3120    -6.2400     1.2220 H     1 <1>   0.1500 
 22 H       -1.5880    -3.3790    -1.3430 H     1 <1>   0.1500 
 23 H       -1.3000    -6.9740    -0.3510 H     1 <1>   0.0800 
 24 H       -1.8560    -5.9350    -1.6320 H     1 <1>   0.0800 
 25 H       -3.1570    -4.7910     0.1570 H     1 <1>   0.4500 
 26 H       -2.0140    -5.8710     2.0430 H     1 <1>   0.0800 
 27 H       -3.7480    -5.8960     2.1200 H     1 <1>   0.0800 
 28 H       -4.8070    -5.7140    -0.9920 H     1 <1>   0.0800 
 29 H       -3.7080    -6.9740    -1.4820 H     1 <1>   0.0800 
 30 H       -3.1460    -8.0390     2.7690 H     1 <1>   0.0800 
 31 H       -5.4610    -7.0060     0.9890 H     1 <1>   0.0800 
 32 H       -5.5930    -8.0010    -0.4250 H     1 <1>   0.0800 
 33 H       -1.5580    -8.6280     0.6100 H     1 <1>   0.4000 
 34 H       -4.4570    -9.2440     1.3710 H     1 <1>   0.0800 
@<TRIPOS>BOND
  1   1   2  1   
  2   2   3  ar  
  3   2   4  ar  
  4   3   5  ar  
  5   3  19  1   
  6   4   6  ar  
  7   4  20  1   
  8   5   7  ar  
  9   5  21  1   
 10   6   7  ar  
 11   6  22  1   
 12   7   8  1   
 13   8   9  1   
 14   8  23  1   
 15   8  24  1   
 16   9  10  1   
 17   9  11  1   
 18   9  25  1   
 19  10  12  1   
 20  10  26  1   
 21  10  27  1   
 22  11  13  1   
 23  11  28  1   
 24  11  29  1   
 25  12  14  1   
 26  12  15  1   
 27  12  30  1   
 28  13  15  1   
 29  13  31  1   
 30  13  32  1   
 31  14  33  1   
 32  15  16  1   
 33  15  34  1   
 34  16  17  ar  
 35  16  18  ar  
@<TRIPOS>SUBSTRUCTURE
  1 ****   8 GROUP 4 **** **** 0

# MOE 2024.06 (io_trps.svl 2023.06)
