@<TRIPOS>MOLECULE
NONAME
42 43 1 0 0 
SMALL
USER_CHARGES


@<TRIPOS>ATOM
  1 S        0.1050    -0.6040     0.8740 S.o2  1 <1>   1.4470 
  2 O        0.6770    -1.8030     1.4350 O.2   1 <1>  -0.6500 
  3 O       -0.9850     0.0430     1.5630 O.2   1 <1>  -0.6500 
  4 N       -0.5680    -1.0070    -0.6150 N.am  1 <1>  -0.9140 
  5 C        1.3590     0.6210     0.4570 C.ar  1 <1>  -0.0090 
  6 C       -1.1620    -2.3340    -0.8230 C.3   1 <1>   0.2760 
  7 C        1.0540     1.7210    -0.3290 C.ar  1 <1>   0.1900 
  8 C        2.6710     0.5580     0.9010 C.ar  1 <1>   0.1900 
  9 C       -2.1530    -2.8090     0.2490 C.3   1 <1>  -0.0800 
 10 C       -0.1520    -3.4820    -0.9460 C.3   1 <1>   0.1200 
 11 F       -0.1640     1.8760    -0.7760 F     1 <1>  -0.1900 
 12 C        1.9780     2.6930    -0.6750 C.ar  1 <1>  -0.1500 
 13 F        3.0550    -0.4250     1.6660 F     1 <1>  -0.1900 
 14 C        3.6290     1.5060     0.5800 C.ar  1 <1>  -0.1500 
 15 C       -1.4850    -4.0860     0.7680 C.3   1 <1>   0.1200 
 16 C       -3.5250    -3.1190    -0.3840 C.3   1 <1>  -0.0550 
 17 O       -0.7570    -4.5640    -0.3130 O.3   1 <1>  -0.5600 
 18 C        3.2800     2.5830    -0.2170 C.ar  1 <1>  -0.1500 
 19 S       -4.8400    -3.4040     0.8030 S.o2  1 <1>   1.3330 
 20 O       -4.5760    -4.5990     1.5730 O.2   1 <1>  -0.6500 
 21 O       -5.0910    -2.1540     1.4810 O.2   1 <1>  -0.6500 
 22 N       -6.1690    -3.7290    -0.2040 N.am  1 <1>  -0.8490 
 23 C       -6.2360    -5.1280    -0.6430 C.3   1 <1>   0.1160 
 24 C       -7.4400    -3.3410     0.4150 C.3   1 <1>   0.1160 
 25 H       -1.3200    -0.3220    -0.7010 H     1 <1>   0.4200 
 26 H       -1.6710    -2.2920    -1.7720 H     1 <1>   0.0800 
 27 H       -2.2860    -2.1050     1.0510 H     1 <1>   0.0800 
 28 H        0.7760    -3.2790    -0.4450 H     1 <1>   0.0800 
 29 H        0.0340    -3.7460    -1.9710 H     1 <1>   0.0800 
 30 H        1.6790     3.5230    -1.2920 H     1 <1>   0.1500 
 31 H        4.6330     1.4000     0.9530 H     1 <1>   0.1500 
 32 H       -2.1730    -4.8460     1.0930 H     1 <1>   0.0800 
 33 H       -0.7930    -3.8680     1.5660 H     1 <1>   0.0800 
 34 H       -3.4290    -3.9740    -1.0250 H     1 <1>   0.0800 
 35 H       -3.8180    -2.2870    -0.9930 H     1 <1>   0.0800 
 36 H        4.0140     3.3290    -0.4760 H     1 <1>   0.1500 
 37 H       -7.0380    -5.2550    -1.3500 H     1 <1>   0.0800 
 38 H       -6.4050    -5.7800     0.1990 H     1 <1>   0.0800 
 39 H       -5.3140    -5.4140    -1.1190 H     1 <1>   0.0800 
 40 H       -8.2590    -3.5490    -0.2520 H     1 <1>   0.0800 
 41 H       -7.4400    -2.2850     0.6280 H     1 <1>   0.0800 
 42 H       -7.5870    -3.8800     1.3370 H     1 <1>   0.0800 
@<TRIPOS>BOND
  1   1   2  2   
  2   1   3  2   
  3   1   4  am  
  4   1   5  1   
  5   4   6  1   
  6   4  25  1   
  7   5   7  ar  
  8   5   8  ar  
  9   6   9  1   
 10   6  10  1   
 11   6  26  1   
 12   7  11  1   
 13   7  12  ar  
 14   8  13  1   
 15   8  14  ar  
 16   9  15  1   
 17   9  16  1   
 18   9  27  1   
 19  10  17  1   
 20  10  28  1   
 21  10  29  1   
 22  12  18  ar  
 23  12  30  1   
 24  14  18  ar  
 25  14  31  1   
 26  15  17  1   
 27  15  32  1   
 28  15  33  1   
 29  16  19  1   
 30  16  34  1   
 31  16  35  1   
 32  18  36  1   
 33  19  20  2   
 34  19  21  2   
 35  19  22  am  
 36  22  23  1   
 37  22  24  1   
 38  23  37  1   
 39  23  38  1   
 40  23  39  1   
 41  24  40  1   
 42  24  41  1   
 43  24  42  1   
@<TRIPOS>SUBSTRUCTURE
  1 ****   4 GROUP 4 **** **** 0

# MOE 2024.06 (io_trps.svl 2023.06)
