@<TRIPOS>MOLECULE
NONAME
59 63 1 0 0 
SMALL
USER_CHARGES


@<TRIPOS>ATOM
  1 O       -0.8980     0.4240     1.6300 O.2   1 <1>  -0.5740 
  2 C       -1.8160     1.0260     1.1110 C.2   1 <1>   0.5400 
  3 N       -2.8510     0.3050     0.5590 N.am  1 <1>  -0.6630 
  4 C       -1.7550     2.4740     1.0850 C.ar  1 <1>   0.0800 
  5 C       -3.8450     0.8030    -0.4300 C.3   1 <1>   0.1340 
  6 C       -2.8710    -1.1840     0.5790 C.3   1 <1>   0.1340 
  7 C       -0.5690     3.1070     0.7250 C.ar  1 <1>  -0.1150 
  8 C       -2.8460     3.2820     1.4570 C.ar  1 <1>  -0.1560 
  9 C       -4.7800    -0.3820    -0.6730 C.3   1 <1>   0.1940 
 10 C       -3.8650    -1.5990    -0.5120 C.3   1 <1>  -0.0860 
 11 C       -0.4920     4.4900     0.7350 C.ar  1 <1>   0.3040 
 12 C       -2.7700     4.6620     1.4600 C.ar  1 <1>  -0.1150 
 13 O       -5.7410    -0.3850     0.3270 O.3   1 <1>  -0.6830 
 14 C       -4.5820    -2.9330    -0.2310 C.3   1 <1>  -0.0230 
 15 N        0.5360     5.3610     0.4390 N.pl3 1 <1>  -0.7030 
 16 C       -1.5730     5.2700     1.0960 C.ar  1 <1>   0.3040 
 17 C       -3.5910    -4.0860    -0.1950 C.ar  1 <1>  -0.1500 
 18 C        0.1130     6.6130     0.5920 C.cat 1 <1>   1.0690 
 19 N       -1.1700     6.5990     1.0140 N.pl3 1 <1>  -0.7670 
 20 C       -3.0620    -4.5620     0.9880 C.ar  1 <1>  -0.1560 
 21 C       -3.1680    -4.7160    -1.3480 C.ar  1 <1>  -0.1560 
 22 N        0.8900     7.6880     0.3440 N.pl3 1 <1>  -0.5950 
 23 C       -1.9920     7.7070     1.5750 C.3   1 <1>   0.2690 
 24 C       -2.1600    -5.6130     0.9600 C.ar  1 <1>   0.1540 
 25 C       -2.2620    -5.7600    -1.2650 C.ar  1 <1>   0.1540 
 26 C        0.3700     9.0420    -0.0410 C.3   1 <1>   0.1620 
 27 C        2.3910     7.6410     0.3490 C.3   1 <1>   0.1620 
 28 N       -1.7460    -6.2240    -0.1380 N.ar  1 <1>  -0.6230 
 29 C        1.0810     9.5800    -1.2950 C.3   1 <1>   0.1140 
 30 C        2.9760     8.2470    -0.9360 C.3   1 <1>   0.1140 
 31 O        2.4630     9.5290    -1.1260 O.3   1 <1>  -0.5640 
 32 H       -4.3920     1.6570    -0.0750 H     1 <1>   0.0740 
 33 H       -3.3330     1.0520    -1.3430 H     1 <1>   0.0740 
 34 H       -1.8920    -1.5890     0.3860 H     1 <1>   0.0740 
 35 H       -3.2040    -1.5140     1.5490 H     1 <1>   0.0740 
 36 H        0.2880     2.5150     0.4510 H     1 <1>   0.1440 
 37 H       -3.7610     2.7990     1.7610 H     1 <1>   0.1440 
 38 H       -5.2780    -0.3410    -1.6260 H     1 <1>   0.0740 
 39 H       -3.3060    -1.7060    -1.4250 H     1 <1>   0.0740 
 40 H       -3.6200     5.2570     1.7450 H     1 <1>   0.1440 
 41 H       -5.2880    -0.3810     1.1940 H     1 <1>   0.3950 
 42 H       -5.3100    -3.1150    -1.0020 H     1 <1>   0.0740 
 43 H       -5.1110    -2.8870     0.7050 H     1 <1>   0.0740 
 44 H        1.4580     5.0920     0.1090 H     1 <1>   0.4460 
 45 H       -3.3410    -4.1280     1.9300 H     1 <1>   0.1440 
 46 H       -3.5340    -4.4040    -2.3080 H     1 <1>   0.1440 
 47 H       -2.6020     7.3430     2.3850 H     1 <1>   0.0740 
 48 H       -2.6350     8.1120     0.8120 H     1 <1>   0.0740 
 49 H       -1.3610     8.4880     1.9640 H     1 <1>   0.0740 
 50 H       -1.7570    -5.9690     1.8930 H     1 <1>   0.1440 
 51 H       -1.9440    -6.2380    -2.1750 H     1 <1>   0.1440 
 52 H       -0.6820     9.0010    -0.2560 H     1 <1>   0.0740 
 53 H        0.5270     9.7320     0.7710 H     1 <1>   0.0740 
 54 H        2.7550     8.2120     1.1870 H     1 <1>   0.0740 
 55 H        2.7550     6.6360     0.4640 H     1 <1>   0.0740 
 56 H        0.8110    10.6080    -1.4640 H     1 <1>   0.0740 
 57 H        0.8170     9.0090    -2.1690 H     1 <1>   0.0740 
 58 H        2.7420     7.6470    -1.7990 H     1 <1>   0.0740 
 59 H        4.0460     8.3330    -0.8550 H     1 <1>   0.0740 
@<TRIPOS>BOND
  1   1   2  2   
  2   2   3  am  
  3   2   4  1   
  4   3   5  1   
  5   3   6  1   
  6   4   7  ar  
  7   4   8  ar  
  8   5   9  1   
  9   5  32  1   
 10   5  33  1   
 11   6  10  1   
 12   6  34  1   
 13   6  35  1   
 14   7  11  ar  
 15   7  36  1   
 16   8  12  ar  
 17   8  37  1   
 18   9  10  1   
 19   9  13  1   
 20   9  38  1   
 21  10  14  1   
 22  10  39  1   
 23  11  15  1   
 24  11  16  ar  
 25  12  16  ar  
 26  12  40  1   
 27  13  41  1   
 28  14  17  1   
 29  14  42  1   
 30  14  43  1   
 31  15  18  ar  
 32  15  44  1   
 33  16  19  1   
 34  17  20  ar  
 35  17  21  ar  
 36  18  19  ar  
 37  18  22  ar  
 38  19  23  1   
 39  20  24  ar  
 40  20  45  1   
 41  21  25  ar  
 42  21  46  1   
 43  22  26  1   
 44  22  27  1   
 45  23  47  1   
 46  23  48  1   
 47  23  49  1   
 48  24  28  ar  
 49  24  50  1   
 50  25  28  ar  
 51  25  51  1   
 52  26  29  1   
 53  26  52  1   
 54  26  53  1   
 55  27  30  1   
 56  27  54  1   
 57  27  55  1   
 58  29  31  1   
 59  29  56  1   
 60  29  57  1   
 61  30  31  1   
 62  30  58  1   
 63  30  59  1   
@<TRIPOS>SUBSTRUCTURE
  1 ****   4 GROUP 4 **** **** 0

# MOE 2024.06 (io_trps.svl 2023.06)
