@<TRIPOS>MOLECULE
NONAME
52 56 1 0 0 
SMALL
USER_CHARGES


@<TRIPOS>ATOM
  1 S        0.3270     1.3350    -2.0270 S.3   1 <1>  -0.0800 
  2 C       -0.8730     1.7900    -0.8270 C.2   1 <1>  -0.1400 
  3 C       -0.7820     0.1700    -2.7380 C.2   1 <1>  -0.1100 
  4 C       -2.0050     1.0980    -1.0030 C.2   1 <1>  -0.1810 
  5 C       -0.6080     2.8400     0.2460 C.3   1 <1>   0.4600 
  6 C       -1.9610     0.1660    -2.0870 C.2   1 <1>  -0.1500 
  7 C       -3.1800     1.3470    -0.0840 C.3   1 <1>   0.0210 
  8 O       -1.7100     2.8670     1.1350 O.3   1 <1>  -0.5600 
  9 C       -0.4290     4.2360    -0.3650 C.3   1 <1>  -0.1600 
 10 C        0.6140     2.4630     1.0900 C.3   1 <1>  -0.1600 
 11 C       -3.0040     2.7190     0.5960 C.3   1 <1>   0.1200 
 12 C       -0.1130     5.2830     0.7030 C.3   1 <1>   0.1400 
 13 C        0.9220     3.5290     2.1420 C.3   1 <1>   0.1400 
 14 N        1.0900     4.8490     1.4690 N.am  1 <1>  -0.6600 
 15 C        2.3260     5.4580     1.3770 C.2   1 <1>   0.5440 
 16 O        3.3230     4.8220     1.6610 O.2   1 <1>  -0.5700 
 17 C        2.4750     6.8160     0.9350 C.ar  1 <1>   0.0860 
 18 C        3.3920     7.1740    -0.0330 C.ar  1 <1>   0.1600 
 19 C        1.7240     7.8580     1.4430 C.ar  1 <1>   0.1600 
 20 N        3.5240     8.4000    -0.4780 N.ar  1 <1>  -0.6200 
 21 N        1.8290     9.0930     1.0210 N.ar  1 <1>  -0.6200 
 22 C        2.7300     9.3240     0.0640 C.ar  1 <1>   0.7200 
 23 N        2.8490    10.6120    -0.3970 N.pl3 1 <1>  -0.8380 
 24 C        2.0790    11.7670     0.1630 C.3   1 <1>   0.2090 
 25 C        3.8520    11.0300    -1.4270 C.3   1 <1>   0.2090 
 26 C        1.5500    12.6720    -0.9630 C.3   1 <1>   0.1200 
 27 C        3.2160    11.9800    -2.4580 C.3   1 <1>   0.1200 
 28 O        2.5810    13.0590    -1.8290 O.3   1 <1>  -0.5600 
 29 H       -0.4270    -0.3980    -3.5800 H     1 <1>   0.1500 
 30 H       -2.8060    -0.4560    -2.3240 H     1 <1>   0.1500 
 31 H       -3.2320     0.5720     0.6600 H     1 <1>   0.0800 
 32 H       -4.0970     1.3430    -0.6460 H     1 <1>   0.0800 
 33 H       -1.3100     4.5160    -0.9110 H     1 <1>   0.0800 
 34 H        0.3830     4.2090    -1.0680 H     1 <1>   0.0800 
 35 H        1.4760     2.3550     0.4560 H     1 <1>   0.0800 
 36 H        0.4390     1.5150     1.5650 H     1 <1>   0.0800 
 37 H       -3.7080     2.8250     1.4020 H     1 <1>   0.0800 
 38 H       -3.1700     3.5100    -0.1130 H     1 <1>   0.0800 
 39 H       -0.9460     5.3810     1.3800 H     1 <1>   0.0800 
 40 H        0.0470     6.2330     0.2250 H     1 <1>   0.0800 
 41 H        1.8120     3.2590     2.6850 H     1 <1>   0.0800 
 42 H        0.1110     3.5930     2.8480 H     1 <1>   0.0800 
 43 H        4.0280     6.4100    -0.4470 H     1 <1>   0.1500 
 44 H        1.0120     7.6500     2.2230 H     1 <1>   0.1500 
 45 H        2.7250    12.3410     0.8040 H     1 <1>   0.0800 
 46 H        1.2440    11.4330     0.7530 H     1 <1>   0.0800 
 47 H        4.2550    10.1820    -1.9500 H     1 <1>   0.0800 
 48 H        4.6680    11.5330    -0.9390 H     1 <1>   0.0800 
 49 H        1.1170    13.5640    -0.5480 H     1 <1>   0.0800 
 50 H        0.7980    12.1550    -1.5330 H     1 <1>   0.0800 
 51 H        2.4910    11.4520    -3.0520 H     1 <1>   0.0800 
 52 H        3.9730    12.3790    -3.1090 H     1 <1>   0.0800 
@<TRIPOS>BOND
  1   1   2  1   
  2   1   3  1   
  3   2   4  2   
  4   2   5  1   
  5   3   6  2   
  6   3  29  1   
  7   4   6  1   
  8   4   7  1   
  9   5   8  1   
 10   5   9  1   
 11   5  10  1   
 12   6  30  1   
 13   7  11  1   
 14   7  31  1   
 15   7  32  1   
 16   8  11  1   
 17   9  12  1   
 18   9  33  1   
 19   9  34  1   
 20  10  13  1   
 21  10  35  1   
 22  10  36  1   
 23  11  37  1   
 24  11  38  1   
 25  12  14  1   
 26  12  39  1   
 27  12  40  1   
 28  13  14  1   
 29  13  41  1   
 30  13  42  1   
 31  14  15  am  
 32  15  16  2   
 33  15  17  1   
 34  17  18  ar  
 35  17  19  ar  
 36  18  20  ar  
 37  18  43  1   
 38  19  21  ar  
 39  19  44  1   
 40  20  22  ar  
 41  21  22  ar  
 42  22  23  1   
 43  23  24  1   
 44  23  25  1   
 45  24  26  1   
 46  24  45  1   
 47  24  46  1   
 48  25  27  1   
 49  25  47  1   
 50  25  48  1   
 51  26  28  1   
 52  26  49  1   
 53  26  50  1   
 54  27  28  1   
 55  27  51  1   
 56  27  52  1   
@<TRIPOS>SUBSTRUCTURE
  1 ****  12 GROUP 4 **** **** 0

# MOE 2024.06 (io_trps.svl 2023.06)
