@<TRIPOS>MOLECULE
NONAME
44 45 1 0 0 
SMALL
USER_CHARGES


@<TRIPOS>ATOM
  1 S       -0.2840     0.1910     0.2580 S.3   1 <1>  -0.0800 
  2 C        1.3490    -0.4470     0.0960 C.2   1 <1>   0.1040 
  3 C       -0.9810    -1.4190     0.2440 C.2   1 <1>   0.1240 
  4 N        2.4850     0.3870     0.0800 N.am  1 <1>  -0.4240 
  5 C        1.3090    -1.7940     0.0400 C.2   1 <1>  -0.1810 
  6 N       -2.3420    -1.4850     0.3470 N.pl3 1 <1>  -0.8840 
  7 C       -0.0120    -2.3850     0.1340 C.2   1 <1>  -0.0860 
  8 C        2.5050     1.7570    -0.1110 C.2   1 <1>   0.7800 
  9 C        3.7670    -0.3420     0.3080 C.3   1 <1>   0.1400 
 10 C        2.6040    -2.5870    -0.0950 C.3   1 <1>   0.0210 
 11 C       -0.2790    -3.7990     0.1300 C.2   1 <1>   0.8060 
 12 O        1.5940     2.3750    -0.6250 O.2   1 <1>  -0.5700 
 13 O        3.6100     2.4020     0.2870 O.3   1 <1>  -0.4300 
 14 C        3.7810    -1.6680    -0.4700 C.3   1 <1>  -0.1600 
 15 O        0.5860    -4.6570     0.1770 O.2   1 <1>  -0.5700 
 16 O       -1.5550    -4.2150     0.0770 O.3   1 <1>  -0.4300 
 17 C        3.8770     3.7860     0.2070 C.3   1 <1>   0.2800 
 18 C       -1.8910    -5.5840     0.0720 C.3   1 <1>   0.1200 
 19 C        3.9080     4.2380    -1.2580 C.3   1 <1>  -0.2400 
 20 C        5.2710     3.9570     0.8140 C.3   1 <1>  -0.2400 
 21 C        2.8630     4.5740     1.0440 C.3   1 <1>  -0.2400 
 22 C       -3.4110    -5.6970     0.0120 C.3   1 <1>  -0.2400 
 23 H       -2.8470    -2.3790     0.3130 H     1 <1>   0.4000 
 24 H       -2.9260    -0.6450     0.3960 H     1 <1>   0.4000 
 25 H        3.8710    -0.5320     1.3620 H     1 <1>   0.0800 
 26 H        4.6030     0.2550    -0.0140 H     1 <1>   0.0800 
 27 H        2.5020    -3.3390    -0.8570 H     1 <1>   0.0800 
 28 H        2.8070    -3.0790     0.8400 H     1 <1>   0.0800 
 29 H        4.7070    -2.1830    -0.2910 H     1 <1>   0.0800 
 30 H        3.7300    -1.4430    -1.5210 H     1 <1>   0.0800 
 31 H       -1.5050    -6.0350     0.9710 H     1 <1>   0.0800 
 32 H       -1.4360    -6.0450    -0.7890 H     1 <1>   0.0800 
 33 H        4.5740     3.6170    -1.8290 H     1 <1>   0.0800 
 34 H        4.2510     5.2540    -1.3210 H     1 <1>   0.0800 
 35 H        2.9280     4.2010    -1.6960 H     1 <1>   0.0800 
 36 H        5.9940     3.3930     0.2540 H     1 <1>   0.0800 
 37 H        5.2760     3.6210     1.8350 H     1 <1>   0.0800 
 38 H        5.5610     4.9920     0.7970 H     1 <1>   0.0800 
 39 H        1.8830     4.5350     0.6040 H     1 <1>   0.0800 
 40 H        3.1530     5.6070     1.0950 H     1 <1>   0.0800 
 41 H        2.8170     4.1820     2.0440 H     1 <1>   0.0800 
 42 H       -3.8520    -5.2280     0.8740 H     1 <1>   0.0800 
 43 H       -3.6970    -6.7330     0.0040 H     1 <1>   0.0800 
 44 H       -3.7830    -5.2320    -0.8830 H     1 <1>   0.0800 
@<TRIPOS>BOND
  1   1   2  1   
  2   1   3  1   
  3   2   4  1   
  4   2   5  2   
  5   3   6  1   
  6   3   7  2   
  7   4   8  am  
  8   4   9  1   
  9   5   7  1   
 10   5  10  1   
 11   6  23  1   
 12   6  24  1   
 13   7  11  1   
 14   8  12  2   
 15   8  13  1   
 16   9  14  1   
 17   9  25  1   
 18   9  26  1   
 19  10  14  1   
 20  10  27  1   
 21  10  28  1   
 22  11  15  2   
 23  11  16  1   
 24  13  17  1   
 25  14  29  1   
 26  14  30  1   
 27  16  18  1   
 28  17  19  1   
 29  17  20  1   
 30  17  21  1   
 31  18  22  1   
 32  18  31  1   
 33  18  32  1   
 34  19  33  1   
 35  19  34  1   
 36  19  35  1   
 37  20  36  1   
 38  20  37  1   
 39  20  38  1   
 40  21  39  1   
 41  21  40  1   
 42  21  41  1   
 43  22  42  1   
 44  22  43  1   
 45  22  44  1   
@<TRIPOS>SUBSTRUCTURE
  1 ****   2 GROUP 4 **** **** 0

# MOE 2024.06 (io_trps.svl 2023.06)
