@<TRIPOS>MOLECULE
NONAME
48 50 1 0 0 
SMALL
USER_CHARGES


@<TRIPOS>ATOM
  1 O        4.8210    -1.9940     0.4160 O.2   1 <1>  -0.5700 
  2 C        3.6240    -1.8980     0.2150 C.2   1 <1>   0.5440 
  3 N        3.1290    -0.6220     0.1340 N.am  1 <1>  -0.6600 
  4 C        2.7900    -3.0670    -0.0110 C.ar  1 <1>   0.0860 
  5 C        3.6280     0.4350     1.0950 C.3   1 <1>   0.2200 
  6 C        2.4780    -0.1700    -1.1330 C.3   1 <1>   0.1400 
  7 C        1.4030    -3.0150     0.1310 C.ar  1 <1>  -0.1500 
  8 C        3.3470    -4.2910    -0.3840 C.ar  1 <1>  -0.1500 
  9 C        2.5800     1.5270     1.4070 C.3   1 <1>   0.1200 
 10 C        4.9740     1.0560     0.6390 C.3   1 <1>   0.3430 
 11 C        3.0580     1.1660    -1.6470 C.3   1 <1>  -0.0800 
 12 C        0.6020    -4.1170    -0.1060 C.ar  1 <1>   0.0820 
 13 C        2.5590    -5.4030    -0.6190 C.ar  1 <1>  -0.1500 
 14 O        1.8790     2.0100     0.2940 O.3   1 <1>  -0.5600 
 15 N        5.3840     0.5840    -0.7220 N.4   1 <1>  -0.9590 
 16 C        2.6000     2.3960    -0.8320 C.3   1 <1>   0.1200 
 17 C        4.5860     1.1420    -1.8610 C.3   1 <1>   0.3430 
 18 O       -0.7320    -3.9410     0.0520 O.3   1 <1>  -0.3630 
 19 C        1.1860    -5.3220    -0.4840 C.ar  1 <1>  -0.1500 
 20 C        6.8540     0.6950    -0.9410 C.3   1 <1>   0.2630 
 21 C       -1.6470    -5.0070    -0.1760 C.3   1 <1>   0.1810 
 22 C       -3.0920    -4.5700     0.0450 C.2   1 <1>   0.5690 
 23 O       -3.9800    -5.3490    -0.1870 O.2   1 <1>  -0.5700 
 24 N       -3.3830    -3.3330     0.4960 N.am  1 <1>  -0.8000 
 25 H        3.8340    -0.0530     2.0330 H     1 <1>   0.0800 
 26 H        2.6110    -0.9270    -1.8890 H     1 <1>   0.0800 
 27 H        1.4170    -0.0680    -0.9680 H     1 <1>   0.0800 
 28 H        0.9300    -2.1000     0.4360 H     1 <1>   0.1500 
 29 H        4.4160    -4.3730    -0.4880 H     1 <1>   0.1500 
 30 H        3.0360     2.3650     1.9040 H     1 <1>   0.0800 
 31 H        1.8420     1.1180     2.0760 H     1 <1>   0.0800 
 32 H        5.7240     0.7590     1.3540 H     1 <1>   0.0800 
 33 H        4.9150     2.1310     0.6620 H     1 <1>   0.0800 
 34 H        2.6400     1.3140    -2.6270 H     1 <1>   0.0800 
 35 H        3.0170    -6.3350    -0.9060 H     1 <1>   0.1500 
 36 H        5.1540    -0.4340    -0.6600 H     1 <1>   0.4500 
 37 H        1.9280     2.9890    -1.4310 H     1 <1>   0.0800 
 38 H        3.4140     3.0310    -0.5290 H     1 <1>   0.0800 
 39 H        4.9180     2.1460    -2.0700 H     1 <1>   0.0800 
 40 H        4.7920     0.5490    -2.7380 H     1 <1>   0.0800 
 41 H        0.5990    -6.2010    -0.6750 H     1 <1>   0.1500 
 42 H        7.1560     1.7290    -0.9550 H     1 <1>   0.0800 
 43 H        7.1260     0.2390    -1.8800 H     1 <1>   0.0800 
 44 H        7.3850     0.1870    -0.1520 H     1 <1>   0.0800 
 45 H       -1.5340    -5.3410    -1.1910 H     1 <1>   0.0800 
 46 H       -1.4140    -5.8060     0.5030 H     1 <1>   0.0800 
 47 H       -4.3530    -3.0500     0.6370 H     1 <1>   0.3700 
 48 H       -2.6560    -2.6450     0.6970 H     1 <1>   0.3700 
@<TRIPOS>BOND
  1   1   2  2   
  2   2   3  am  
  3   2   4  1   
  4   3   5  1   
  5   3   6  1   
  6   4   7  ar  
  7   4   8  ar  
  8   5   9  1   
  9   5  10  1   
 10   5  25  1   
 11   6  11  1   
 12   6  26  1   
 13   6  27  1   
 14   7  12  ar  
 15   7  28  1   
 16   8  13  ar  
 17   8  29  1   
 18   9  14  1   
 19   9  30  1   
 20   9  31  1   
 21  10  15  1   
 22  10  32  1   
 23  10  33  1   
 24  11  16  1   
 25  11  17  1   
 26  11  34  1   
 27  12  18  1   
 28  12  19  ar  
 29  13  19  ar  
 30  13  35  1   
 31  14  16  1   
 32  15  17  1   
 33  15  20  1   
 34  15  36  1   
 35  16  37  1   
 36  16  38  1   
 37  17  39  1   
 38  17  40  1   
 39  18  21  1   
 40  19  41  1   
 41  20  42  1   
 42  20  43  1   
 43  20  44  1   
 44  21  22  1   
 45  21  45  1   
 46  21  46  1   
 47  22  23  2   
 48  22  24  am  
 49  24  47  1   
 50  24  48  1   
@<TRIPOS>SUBSTRUCTURE
  1 ****   7 GROUP 4 **** **** 0

# MOE 2024.06 (io_trps.svl 2023.06)
