@<TRIPOS>MOLECULE
NONAME
19 19 1 0 0 
SMALL
USER_CHARGES


@<TRIPOS>ATOM
  1 O        1.0330     4.4770    -0.5130 O.3   1 <1>  -0.5600 
  2 C        1.0140     5.3010     0.6210 C.3   1 <1>   0.1200 
  3 C       -0.0110     3.5400    -0.6190 C.3   1 <1>   0.1200 
  4 C       -0.1730     6.2570     0.4300 C.3   1 <1>   0.4230 
  5 C       -1.2670     3.9280     0.1950 C.3   1 <1>  -0.1600 
  6 N        0.0010     6.8640    -0.9050 N.4   1 <1>  -0.8530 
  7 C       -1.4810     5.4450     0.4130 C.3   1 <1>  -0.1600 
  8 H        0.9210     4.6960     1.5090 H     1 <1>   0.0800 
  9 H        1.9450     5.8380     0.6660 H     1 <1>   0.0800 
 10 H       -0.2560     3.4530    -1.6650 H     1 <1>   0.0800 
 11 H        0.3660     2.5860    -0.2880 H     1 <1>   0.0800 
 12 H       -0.2040     7.0140     1.1980 H     1 <1>   0.0800 
 13 H       -2.1390     3.4900    -0.2620 H     1 <1>   0.0800 
 14 H       -1.1740     3.4570     1.1600 H     1 <1>   0.0800 
 15 H        0.3170     6.0810    -1.5000 H     1 <1>   0.4500 
 16 H        0.7430     7.5690    -0.9120 H     1 <1>   0.4500 
 17 H       -0.8680     7.2520    -1.2790 H     1 <1>   0.4500 
 18 H       -1.9660     5.5690     1.3670 H     1 <1>   0.0800 
 19 H       -2.1620     5.8270    -0.3280 H     1 <1>   0.0800 
@<TRIPOS>BOND
  1   1   2  1   
  2   1   3  1   
  3   2   4  1   
  4   2   8  1   
  5   2   9  1   
  6   3   5  1   
  7   3  10  1   
  8   3  11  1   
  9   4   6  1   
 10   4   7  1   
 11   4  12  1   
 12   5   7  1   
 13   5  13  1   
 14   5  14  1   
 15   6  15  1   
 16   6  16  1   
 17   6  17  1   
 18   7  18  1   
 19   7  19  1   
@<TRIPOS>SUBSTRUCTURE
  1 ****   4 GROUP 4 **** **** 0

# MOE 2024.06 (io_trps.svl 2023.06)
