@<TRIPOS>MOLECULE
NONAME
44 46 1 0 0 
SMALL
USER_CHARGES


@<TRIPOS>ATOM
  1 S        0.9260     0.0230    -1.2720 S.o2  1 <1>   1.3330 
  2 O        0.4640     0.1410    -2.6360 O.2   1 <1>  -0.6500 
  3 O        0.4720    -1.0810    -0.4570 O.2   1 <1>  -0.6500 
  4 N        0.5160     1.4630    -0.4700 N.am  1 <1>  -0.8490 
  5 C        2.7180     0.0100    -1.2640 C.3   1 <1>  -0.0550 
  6 C       -0.8800     1.4580    -0.0270 C.3   1 <1>   0.1160 
  7 C        0.7850     2.6710    -1.2590 C.3   1 <1>   0.1160 
  8 C        3.3350     0.1320     0.1410 C.3   1 <1>  -0.0800 
  9 C        4.8300     0.4360     0.0930 C.3   1 <1>   0.2890 
 10 C        3.2400    -1.1400     0.9810 C.3   1 <1>   0.1200 
 11 N        5.0590     1.8070     0.6060 N.pl3 1 <1>  -0.8690 
 12 C        5.4440    -0.6190     1.0140 C.3   1 <1>   0.1200 
 13 O        4.3910    -1.1420     1.7610 O.3   1 <1>  -0.5600 
 14 C        4.7530     2.9230    -0.1260 C.ar  1 <1>   0.4100 
 15 N        4.7290     2.8220    -1.4390 N.ar  1 <1>  -0.6200 
 16 C        4.4560     4.1140     0.5020 C.ar  1 <1>  -0.1500 
 17 C        4.4090     3.9240    -2.0890 C.ar  1 <1>   0.4700 
 18 C        4.1210     5.1870    -0.2780 C.ar  1 <1>   0.2780 
 19 N        4.0830     5.1030    -1.5930 N.ar  1 <1>  -0.6200 
 20 C        3.7650     6.5300     0.3400 C.3   1 <1>  -0.0680 
 21 C        4.7130     7.6830     0.2140 C.3   1 <1>  -0.2000 
 22 C        4.4650     7.0640     1.5560 C.3   1 <1>  -0.2000 
 23 H        3.0690    -0.8870    -1.7340 H     1 <1>   0.0800 
 24 H        3.0590     0.8330    -1.8600 H     1 <1>   0.0800 
 25 H       -1.1060     2.3650     0.5050 H     1 <1>   0.0800 
 26 H       -1.0520     0.6260     0.6360 H     1 <1>   0.0800 
 27 H       -1.5410     1.3670    -0.8740 H     1 <1>   0.0800 
 28 H        0.5540     3.5490    -0.6810 H     1 <1>   0.0800 
 29 H        0.1900     2.6760    -2.1580 H     1 <1>   0.0800 
 30 H        1.8250     2.7160    -1.5300 H     1 <1>   0.0800 
 31 H        2.8270     0.9110     0.6820 H     1 <1>   0.0800 
 32 H        5.2460     0.3390    -0.8960 H     1 <1>   0.0800 
 33 H        3.2490    -2.0270     0.3720 H     1 <1>   0.0800 
 34 H        2.3750    -1.1460     1.6230 H     1 <1>   0.0800 
 35 H        4.9340     1.8660     1.6190 H     1 <1>   0.4000 
 36 H        6.1870    -0.2120     1.6760 H     1 <1>   0.0800 
 37 H        5.8650    -1.4230     0.4370 H     1 <1>   0.0800 
 38 H        4.4820     4.1830     1.5700 H     1 <1>   0.1500 
 39 H        4.4050     3.8520    -3.1640 H     1 <1>   0.1500 
 40 H        2.7190     6.7530     0.2250 H     1 <1>   0.1000 
 41 H        5.6560     7.5130    -0.2760 H     1 <1>   0.1000 
 42 H        4.3060     8.6560    -0.0010 H     1 <1>   0.1000 
 43 H        3.8930     7.6190     2.2790 H     1 <1>   0.1000 
 44 H        5.2720     6.5120     2.0040 H     1 <1>   0.1000 
@<TRIPOS>BOND
  1   1   2  2   
  2   1   3  2   
  3   1   4  am  
  4   1   5  1   
  5   4   6  1   
  6   4   7  1   
  7   5   8  1   
  8   5  23  1   
  9   5  24  1   
 10   6  25  1   
 11   6  26  1   
 12   6  27  1   
 13   7  28  1   
 14   7  29  1   
 15   7  30  1   
 16   8   9  1   
 17   8  10  1   
 18   8  31  1   
 19   9  11  1   
 20   9  12  1   
 21   9  32  1   
 22  10  13  1   
 23  10  33  1   
 24  10  34  1   
 25  11  14  1   
 26  11  35  1   
 27  12  13  1   
 28  12  36  1   
 29  12  37  1   
 30  14  15  ar  
 31  14  16  ar  
 32  15  17  ar  
 33  16  18  ar  
 34  16  38  1   
 35  17  19  ar  
 36  17  39  1   
 37  18  19  ar  
 38  18  20  1   
 39  20  21  1   
 40  20  22  1   
 41  20  40  1   
 42  21  22  1   
 43  21  41  1   
 44  21  42  1   
 45  22  43  1   
 46  22  44  1   
@<TRIPOS>SUBSTRUCTURE
  1 ****  14 GROUP 4 **** **** 0

# MOE 2024.06 (io_trps.svl 2023.06)
