@<TRIPOS>MOLECULE
NONAME
53 56 1 0 0 
SMALL
USER_CHARGES


@<TRIPOS>ATOM
  1 O        3.5550    -0.8790    -2.7800 O.2   1 <1>  -0.5700 
  2 C        2.9170    -1.0700    -1.7700 C.2   1 <1>   0.5690 
  3 N        2.6240    -0.1020    -0.8630 N.am  1 <1>  -0.4930 
  4 C        2.3900    -2.4750    -1.4680 C.3   1 <1>   0.1710 
  5 C        2.9010     1.2850    -0.8730 C.2   1 <1>   0.0630 
  6 N        1.2790    -2.5060    -0.4680 N.3   1 <1>  -0.8100 
  7 C        2.4070     2.2080    -0.0200 C.2   1 <1>  -0.3320 
  8 C        3.7220     2.0040    -1.7410 C.2   1 <1>   0.1390 
  9 C        0.0130    -1.9850    -1.0070 C.3   1 <1>   0.1100 
 10 C        0.9700    -3.8790    -0.0360 C.3   1 <1>   0.1100 
 11 N        2.9370     3.3990    -0.3950 N.pl3 1 <1>   0.3140 
 12 C        1.4440     2.0300     1.1460 C.3   1 <1>  -0.0600 
 13 N        3.7490     3.2720    -1.4580 N.2   1 <1>  -0.7070 
 14 C       -1.0350    -2.5070    -0.0330 C.3   1 <1>   0.2000 
 15 C       -0.5380    -3.9170     0.2860 C.3   1 <1>  -0.0800 
 16 C        2.7020     4.7100     0.2240 C.3   1 <1>   0.0160 
 17 O       -0.9390    -1.7570     1.1240 O.3   1 <1>  -0.6800 
 18 C       -1.2850    -4.9720    -0.5520 C.3   1 <1>  -0.0170 
 19 C       -0.7800    -6.3770    -0.2700 C.ar  1 <1>   0.1670 
 20 N        0.0670    -6.8910    -1.1090 N.ar  1 <1>  -0.6200 
 21 C       -1.2420    -7.0450     0.8760 C.ar  1 <1>  -0.1500 
 22 C        0.5270    -8.1430    -0.8570 C.ar  1 <1>   0.3100 
 23 C       -0.7950    -8.3000     1.1540 C.ar  1 <1>  -0.1500 
 24 C        0.1230    -8.8910     0.2710 C.ar  1 <1>   0.0000 
 25 C        1.4430    -8.7220    -1.7490 C.ar  1 <1>  -0.1500 
 26 C        0.6530   -10.1830     0.4620 C.ar  1 <1>  -0.1500 
 27 C        1.9470    -9.9800    -1.5460 C.ar  1 <1>  -0.1500 
 28 C        1.5460   -10.7170    -0.4270 C.ar  1 <1>  -0.1500 
 29 H        2.0460    -0.4430    -0.0920 H     1 <1>   0.3700 
 30 H        3.2170    -3.0490    -1.0900 H     1 <1>   0.0800 
 31 H        2.0700    -2.9280    -2.3900 H     1 <1>   0.0800 
 32 H        4.2720     1.5600    -2.5530 H     1 <1>   0.1500 
 33 H        0.0020    -0.9100    -1.0640 H     1 <1>   0.0800 
 34 H       -0.1710    -2.3960    -1.9860 H     1 <1>   0.0800 
 35 H        1.2050    -4.5740    -0.8250 H     1 <1>   0.0800 
 36 H        1.5560    -4.1340     0.8310 H     1 <1>   0.0800 
 37 H        1.1390     1.0030     1.2360 H     1 <1>   0.0800 
 38 H        0.5640     2.6300     0.9930 H     1 <1>   0.0800 
 39 H        1.9150     2.3270     2.0650 H     1 <1>   0.0800 
 40 H       -2.0450    -2.4540    -0.4030 H     1 <1>   0.0800 
 41 H       -0.6900    -4.1460     1.3270 H     1 <1>   0.0800 
 42 H        3.0190     4.6770     1.2490 H     1 <1>   0.0800 
 43 H        1.6570     4.9440     0.1660 H     1 <1>   0.0800 
 44 H        3.2680     5.4540    -0.3050 H     1 <1>   0.0800 
 45 H        0.0060    -1.7630     1.3790 H     1 <1>   0.4000 
 46 H       -1.1660    -4.7610    -1.6010 H     1 <1>   0.0800 
 47 H       -2.3370    -4.9300    -0.3310 H     1 <1>   0.0800 
 48 H       -1.9450    -6.5530     1.5240 H     1 <1>   0.1500 
 49 H       -1.1250    -8.8430     2.0220 H     1 <1>   0.1500 
 50 H        1.7370    -8.1400    -2.6030 H     1 <1>   0.1500 
 51 H        0.3410   -10.7450     1.3230 H     1 <1>   0.1500 
 52 H        2.6490   -10.4120    -2.2380 H     1 <1>   0.1500 
 53 H        1.9490   -11.7050    -0.2800 H     1 <1>   0.1500 
@<TRIPOS>BOND
  1   1   2  2   
  2   2   3  am  
  3   2   4  1   
  4   3   5  1   
  5   3  29  1   
  6   4   6  1   
  7   4  30  1   
  8   4  31  1   
  9   5   7  2   
 10   5   8  1   
 11   6   9  1   
 12   6  10  1   
 13   7  11  1   
 14   7  12  1   
 15   8  13  2   
 16   8  32  1   
 17   9  14  1   
 18   9  33  1   
 19   9  34  1   
 20  10  15  1   
 21  10  35  1   
 22  10  36  1   
 23  11  13  1   
 24  11  16  1   
 25  12  37  1   
 26  12  38  1   
 27  12  39  1   
 28  14  15  1   
 29  14  17  1   
 30  14  40  1   
 31  15  18  1   
 32  15  41  1   
 33  16  42  1   
 34  16  43  1   
 35  16  44  1   
 36  17  45  1   
 37  18  19  1   
 38  18  46  1   
 39  18  47  1   
 40  19  20  ar  
 41  19  21  ar  
 42  20  22  ar  
 43  21  23  ar  
 44  21  48  1   
 45  22  24  ar  
 46  22  25  ar  
 47  23  24  ar  
 48  23  49  1   
 49  24  26  ar  
 50  25  27  ar  
 51  25  50  1   
 52  26  28  ar  
 53  26  51  1   
 54  27  28  ar  
 55  27  52  1   
 56  28  53  1   
@<TRIPOS>SUBSTRUCTURE
  1 ****  10 GROUP 4 **** **** 0

# MOE 2024.06 (io_trps.svl 2023.06)
