@<TRIPOS>MOLECULE
NONAME
54 57 1 0 0 
SMALL
USER_CHARGES


@<TRIPOS>ATOM
  1 O       -3.1630     2.3810     2.2630 O.2   1 <1>  -0.5700 
  2 C       -3.2370     2.2210     1.0570 C.2   1 <1>   0.6160 
  3 N       -4.2060     1.3750     0.5530 N.am  1 <1>  -0.6600 
  4 C       -2.2640     2.8530     0.2130 C.2   1 <1>   0.0290 
  5 C       -5.2520     0.7600     1.4140 C.3   1 <1>   0.1400 
  6 C       -4.3360     1.0120    -0.8840 C.3   1 <1>   0.1400 
  7 C       -2.7140     3.9590    -0.5740 C.2   1 <1>   0.6160 
  8 C       -0.9420     2.4640     0.1240 C.2   1 <1>  -0.1380 
  9 C       -5.1480    -0.7620     1.3090 C.3   1 <1>  -0.1600 
 10 C       -4.2200    -0.5070    -1.0230 C.3   1 <1>  -0.1600 
 11 O       -3.8650     4.3680    -0.6090 O.2   1 <1>  -0.5700 
 12 N       -1.8120     4.6020    -1.3770 N.am  1 <1>  -0.5390 
 13 C       -0.0630     3.1690    -0.7290 C.2   1 <1>  -0.1500 
 14 C       -0.3560     1.2980     0.9110 C.3   1 <1>  -0.1020 
 15 C       -5.2480    -1.2450    -0.1500 C.3   1 <1>   0.4240 
 16 C       -0.5030     4.2250    -1.4660 C.2   1 <1>  -0.0290 
 17 O       -6.5020    -0.8560    -0.6570 O.3   1 <1>  -0.5600 
 18 C       -5.0380    -2.7720    -0.2490 C.ar  1 <1>  -0.1430 
 19 C        0.3870     5.0260    -2.3940 C.3   1 <1>  -0.1020 
 20 C       -7.5910    -1.6820    -0.3870 C.3   1 <1>   0.1200 
 21 C       -6.0510    -3.6100    -0.7060 C.ar  1 <1>  -0.1430 
 22 C       -3.8260    -3.3420     0.1270 C.ar  1 <1>  -0.1500 
 23 C       -7.3870    -3.0130    -1.1040 C.3   1 <1>  -0.0170 
 24 C       -5.8510    -4.9780    -0.7970 C.ar  1 <1>  -0.1500 
 25 C       -3.6270    -4.7080     0.0400 C.ar  1 <1>  -0.1500 
 26 C       -4.6330    -5.5360    -0.4240 C.ar  1 <1>   0.0820 
 27 O       -4.3560    -6.8620    -0.4820 O.3   1 <1>  -0.3620 
 28 C       -5.3050    -7.7890    -0.9600 C.3   1 <1>   0.0400 
 29 H       -6.2210     1.0900     1.0790 H     1 <1>   0.0800 
 30 H       -5.1350     1.0630     2.4410 H     1 <1>   0.0800 
 31 H       -3.5760     1.4860    -1.4790 H     1 <1>   0.0800 
 32 H       -5.2960     1.3460    -1.2450 H     1 <1>   0.0800 
 33 H       -5.9100    -1.2260     1.9050 H     1 <1>   0.0800 
 34 H       -4.2030    -1.0580     1.7230 H     1 <1>   0.0800 
 35 H       -3.2230    -0.7920    -0.7440 H     1 <1>   0.0800 
 36 H       -4.3630    -0.7920    -2.0490 H     1 <1>   0.0800 
 37 H       -2.1970     5.3890    -1.9000 H     1 <1>   0.3700 
 38 H        0.9650     2.8530    -0.7800 H     1 <1>   0.1500 
 39 H        0.1280     0.6090     0.2410 H     1 <1>   0.0800 
 40 H       -1.1080     0.7590     1.4570 H     1 <1>   0.0800 
 41 H        0.3700     1.6650     1.6140 H     1 <1>   0.0800 
 42 H        0.0120     4.9740    -3.4000 H     1 <1>   0.0800 
 43 H        1.3910     4.6420    -2.3830 H     1 <1>   0.0800 
 44 H        0.4110     6.0550    -2.0820 H     1 <1>   0.0800 
 45 H       -8.4760    -1.1900    -0.7510 H     1 <1>   0.0800 
 46 H       -7.6770    -1.8220     0.6760 H     1 <1>   0.0800 
 47 H       -3.0230    -2.7290     0.4930 H     1 <1>   0.1500 
 48 H       -7.4110    -2.8550    -2.1670 H     1 <1>   0.0800 
 49 H       -8.1860    -3.6820    -0.8420 H     1 <1>   0.0800 
 50 H       -6.6500    -5.5970    -1.1580 H     1 <1>   0.1500 
 51 H       -2.6880    -5.1420     0.3310 H     1 <1>   0.1500 
 52 H       -4.8630    -8.7680    -0.9220 H     1 <1>   0.0800 
 53 H       -5.5560    -7.5390    -1.9750 H     1 <1>   0.0800 
 54 H       -6.1740    -7.7560    -0.3270 H     1 <1>   0.0800 
@<TRIPOS>BOND
  1   1   2  2   
  2   2   3  am  
  3   2   4  1   
  4   3   5  1   
  5   3   6  1   
  6   4   7  1   
  7   4   8  2   
  8   5   9  1   
  9   5  29  1   
 10   5  30  1   
 11   6  10  1   
 12   6  31  1   
 13   6  32  1   
 14   7  11  2   
 15   7  12  am  
 16   8  13  1   
 17   8  14  1   
 18   9  15  1   
 19   9  33  1   
 20   9  34  1   
 21  10  15  1   
 22  10  35  1   
 23  10  36  1   
 24  12  16  1   
 25  12  37  1   
 26  13  16  2   
 27  13  38  1   
 28  14  39  1   
 29  14  40  1   
 30  14  41  1   
 31  15  17  1   
 32  15  18  1   
 33  16  19  1   
 34  17  20  1   
 35  18  21  ar  
 36  18  22  ar  
 37  19  42  1   
 38  19  43  1   
 39  19  44  1   
 40  20  23  1   
 41  20  45  1   
 42  20  46  1   
 43  21  23  1   
 44  21  24  ar  
 45  22  25  ar  
 46  22  47  1   
 47  23  48  1   
 48  23  49  1   
 49  24  26  ar  
 50  24  50  1   
 51  25  26  ar  
 52  25  51  1   
 53  26  27  1   
 54  27  28  1   
 55  28  52  1   
 56  28  53  1   
 57  28  54  1   
@<TRIPOS>SUBSTRUCTURE
  1 ****  10 GROUP 4 **** **** 0

# MOE 2024.06 (io_trps.svl 2023.06)
