@<TRIPOS>MOLECULE
NONAME
38 39 1 0 0 
SMALL
USER_CHARGES


@<TRIPOS>ATOM
  1 F        2.8340    -0.1840    -1.6310 F     1 <1>  -0.1900 
  2 C        2.5370    -1.1760    -0.8330 C.ar  1 <1>   0.1900 
  3 C        1.9120    -2.2880    -1.3600 C.ar  1 <1>  -0.1500 
  4 C        2.8570    -1.0730     0.5050 C.ar  1 <1>  -0.1500 
  5 C        1.5860    -3.3430    -0.5190 C.ar  1 <1>  -0.1440 
  6 C        2.5380    -2.1260     1.3440 C.ar  1 <1>  -0.1500 
  7 C        1.9020    -3.2630     0.8410 C.ar  1 <1>   0.0830 
  8 C        0.8920    -4.5640    -1.1100 C.3   1 <1>   0.2540 
  9 O        1.5650    -4.3090     1.6450 O.3   1 <1>  -0.3630 
 10 N       -0.4670    -4.7510    -0.5490 N.3   1 <1>  -0.8100 
 11 C        1.4170    -4.1250     3.0380 C.3   1 <1>   0.0400 
 12 C       -0.9970    -6.0940    -0.8850 C.3   1 <1>   0.2900 
 13 C       -1.4190    -3.6830    -0.9620 C.3   1 <1>   0.1100 
 14 C       -0.2450    -7.2070    -0.1680 C.2   1 <1>   0.0060 
 15 C       -1.4290    -2.4990     0.0210 C.3   1 <1>   0.1200 
 16 N       -0.2300    -8.4460    -0.5460 N.2   1 <1>  -0.5650 
 17 N        0.4780    -6.9770     0.9480 N.pl3 1 <1>   0.0330 
 18 O       -1.3110    -3.0030     1.3000 O.3   1 <1>  -0.6800 
 19 C        0.5430    -9.0540     0.3740 C.2   1 <1>   0.0770 
 20 C        0.9880    -8.1720     1.2950 C.2   1 <1>  -0.3020 
 21 H        1.6870    -2.3160    -2.4110 H     1 <1>   0.1500 
 22 H        3.3450    -0.1900     0.8760 H     1 <1>   0.1500 
 23 H        2.7950    -2.0450     2.3830 H     1 <1>   0.1500 
 24 H        1.5070    -5.4200    -0.8960 H     1 <1>   0.0800 
 25 H        0.8310    -4.4780    -2.1810 H     1 <1>   0.0800 
 26 H        0.9690    -5.0110     3.4510 H     1 <1>   0.0800 
 27 H        0.7750    -3.2780     3.2140 H     1 <1>   0.0800 
 28 H        2.3870    -3.9700     3.4770 H     1 <1>   0.0800 
 29 H       -0.9550    -6.2590    -1.9480 H     1 <1>   0.0800 
 30 H       -2.0260    -6.1610    -0.5770 H     1 <1>   0.0800 
 31 H       -2.4210    -4.0760    -0.9770 H     1 <1>   0.0800 
 32 H       -1.1980    -3.3360    -1.9570 H     1 <1>   0.0800 
 33 H       -2.3420    -1.9350    -0.0480 H     1 <1>   0.0800 
 34 H       -0.5960    -1.8430    -0.1580 H     1 <1>   0.0800 
 35 H        0.6260    -6.0480     1.3650 H     1 <1>   0.2700 
 36 H       -0.6840    -3.7610     1.2140 H     1 <1>   0.4000 
 37 H        0.7440   -10.1110     0.3230 H     1 <1>   0.1500 
 38 H        1.6210    -8.3210     2.1500 H     1 <1>   0.1500 
@<TRIPOS>BOND
  1   1   2  1   
  2   2   3  ar  
  3   2   4  ar  
  4   3   5  ar  
  5   3  21  1   
  6   4   6  ar  
  7   4  22  1   
  8   5   7  ar  
  9   5   8  1   
 10   6   7  ar  
 11   6  23  1   
 12   7   9  1   
 13   8  10  1   
 14   8  24  1   
 15   8  25  1   
 16   9  11  1   
 17  10  12  1   
 18  10  13  1   
 19  11  26  1   
 20  11  27  1   
 21  11  28  1   
 22  12  14  1   
 23  12  29  1   
 24  12  30  1   
 25  13  15  1   
 26  13  31  1   
 27  13  32  1   
 28  14  16  2   
 29  14  17  1   
 30  15  18  1   
 31  15  33  1   
 32  15  34  1   
 33  16  19  1   
 34  17  20  1   
 35  17  35  1   
 36  18  36  1   
 37  19  20  2   
 38  19  37  1   
 39  20  38  1   
@<TRIPOS>SUBSTRUCTURE
  1 ****   8 GROUP 4 **** **** 0

# MOE 2024.06 (io_trps.svl 2023.06)
