@<TRIPOS>MOLECULE
NONAME
42 43 1 0 0 
SMALL
USER_CHARGES


@<TRIPOS>ATOM
  1 O        0.7140    -0.6390    -0.0190 O.co2 1 <1>  -0.9000 
  2 C        1.0590    -1.6500    -0.6570 C.2   1 <1>   0.9790 
  3 O        0.8780    -1.6700    -1.8890 O.co2 1 <1>  -0.9000 
  4 C        1.6610    -2.7640     0.0200 C.ar  1 <1>  -0.1790 
  5 C        0.9050    -3.8910     0.3720 C.ar  1 <1>   0.4100 
  6 C        3.0100    -2.7520     0.3390 C.ar  1 <1>  -0.1500 
  7 N        1.4120    -4.9670     0.9670 N.ar  1 <1>  -0.6200 
  8 N       -0.4450    -3.9850     0.1190 N.pl3 1 <1>  -0.8380 
  9 C        3.5340    -3.8580     0.9670 C.ar  1 <1>  -0.1500 
 10 C        2.6990    -4.9230     1.2490 C.ar  1 <1>   0.1600 
 11 C       -0.8390    -4.4940    -1.2220 C.3   1 <1>   0.2090 
 12 C       -1.3580    -2.9480     0.6460 C.3   1 <1>   0.2090 
 13 C       -2.3720    -4.6740    -1.3330 C.3   1 <1>   0.2000 
 14 C       -2.7410    -3.5620     0.9160 C.3   1 <1>  -0.1600 
 15 O       -2.6500    -5.7740    -2.1470 O.3   1 <1>  -0.6800 
 16 C       -3.0900    -4.8140     0.0480 C.3   1 <1>   0.0000 
 17 C       -2.5810    -6.1090     0.7530 C.3   1 <1>   0.1200 
 18 C       -4.6360    -4.9320    -0.1150 C.3   1 <1>  -0.1600 
 19 O       -3.1760    -6.2950     1.9960 O.3   1 <1>  -0.6800 
 20 C       -5.3150    -3.8970    -1.0340 C.3   1 <1>  -0.1600 
 21 C       -6.8380    -4.0620    -1.0080 C.3   1 <1>  -0.2400 
 22 H        3.6130    -1.8950     0.0920 H     1 <1>   0.1500 
 23 H        4.5730    -3.8950     1.2320 H     1 <1>   0.1500 
 24 H        3.1150    -5.7870     1.7360 H     1 <1>   0.1500 
 25 H       -0.5060    -3.8000    -1.9760 H     1 <1>   0.0800 
 26 H       -0.3400    -5.4330    -1.3810 H     1 <1>   0.0800 
 27 H       -0.9490    -2.5110     1.5420 H     1 <1>   0.0800 
 28 H       -1.4550    -2.1630    -0.0880 H     1 <1>   0.0800 
 29 H       -2.7510    -3.8070    -1.8420 H     1 <1>   0.0800 
 30 H       -2.8040    -3.7950     1.9610 H     1 <1>   0.0800 
 31 H       -3.4530    -2.7780     0.7510 H     1 <1>   0.0800 
 32 H       -2.2600    -6.5770    -1.7540 H     1 <1>   0.4000 
 33 H       -1.5150    -6.0900     0.9070 H     1 <1>   0.0800 
 34 H       -2.8210    -6.9740     0.1610 H     1 <1>   0.0800 
 35 H       -4.8640    -5.9090    -0.5040 H     1 <1>   0.0800 
 36 H       -5.0870    -4.8740     0.8610 H     1 <1>   0.0800 
 37 H       -2.8100    -5.6400     2.6200 H     1 <1>   0.4000 
 38 H       -5.0700    -2.8950    -0.7330 H     1 <1>   0.0800 
 39 H       -4.9770    -4.0330    -2.0470 H     1 <1>   0.0800 
 40 H       -7.2150    -3.9070    -0.0120 H     1 <1>   0.0800 
 41 H       -7.1130    -5.0490    -1.3340 H     1 <1>   0.0800 
 42 H       -7.2970    -3.3440    -1.6640 H     1 <1>   0.0800 
@<TRIPOS>BOND
  1   1   2  ar  
  2   2   3  ar  
  3   2   4  1   
  4   4   5  ar  
  5   4   6  ar  
  6   5   7  ar  
  7   5   8  1   
  8   6   9  ar  
  9   6  22  1   
 10   7  10  ar  
 11   8  11  1   
 12   8  12  1   
 13   9  10  ar  
 14   9  23  1   
 15  10  24  1   
 16  11  13  1   
 17  11  25  1   
 18  11  26  1   
 19  12  14  1   
 20  12  27  1   
 21  12  28  1   
 22  13  15  1   
 23  13  16  1   
 24  13  29  1   
 25  14  16  1   
 26  14  30  1   
 27  14  31  1   
 28  15  32  1   
 29  16  17  1   
 30  16  18  1   
 31  17  19  1   
 32  17  33  1   
 33  17  34  1   
 34  18  20  1   
 35  18  35  1   
 36  18  36  1   
 37  19  37  1   
 38  20  21  1   
 39  20  38  1   
 40  20  39  1   
 41  21  40  1   
 42  21  41  1   
 43  21  42  1   
@<TRIPOS>SUBSTRUCTURE
  1 ****   8 GROUP 4 **** **** 0

# MOE 2024.06 (io_trps.svl 2023.06)
