@<TRIPOS>MOLECULE
NONAME
47 50 1 0 0 
SMALL
USER_CHARGES


@<TRIPOS>ATOM
  1 S        3.4570    -1.2260     0.1280 S.3   1 <1>  -0.0800 
  2 C        2.4380    -0.0700     0.9720 C.2   1 <1>  -0.1400 
  3 C        2.0770    -2.2480    -0.2340 C.2   1 <1>  -0.1100 
  4 C        1.1540    -0.4760     0.9530 C.2   1 <1>  -0.1500 
  5 C        3.0990     1.1590     1.5790 C.3   1 <1>   0.0810 
  6 C        0.9480    -1.7150     0.2670 C.2   1 <1>  -0.1500 
  7 C        3.5680     2.1690     0.5380 C.2   1 <1>   0.5690 
  8 O        2.7440     2.9650     0.1450 O.2   1 <1>  -0.5700 
  9 N        4.8720     2.2190     0.1120 N.am  1 <1>  -0.6600 
 10 C        6.0020     1.3560     0.5810 C.3   1 <1>   0.1400 
 11 C        5.3250     3.2170    -0.8930 C.3   1 <1>   0.1400 
 12 C        6.7730     1.9980     1.7440 C.3   1 <1>   0.1400 
 13 C        5.7680     4.5270    -0.2290 C.3   1 <1>  -0.1600 
 14 N        7.2830     3.3680     1.4350 N.am  1 <1>  -0.6600 
 15 C        6.2630     4.4300     1.2210 C.3   1 <1>   0.1400 
 16 C        8.6140     3.6600     1.6220 C.2   1 <1>   0.5440 
 17 O        9.2140     3.0970     2.5230 O.2   1 <1>  -0.5700 
 18 C        9.2780     4.6910     0.8570 C.ar  1 <1>   0.0860 
 19 C        9.4320     4.6300    -0.5400 C.ar  1 <1>   0.0410 
 20 C        9.7740     5.8020     1.5410 C.ar  1 <1>  -0.1500 
 21 C        9.0040     3.5030    -1.3360 C.2   1 <1>   0.6960 
 22 C       10.0370     5.7150    -1.1830 C.ar  1 <1>  -0.1500 
 23 C       10.3780     6.8550     0.8850 C.ar  1 <1>  -0.1500 
 24 N        9.1440     2.2480    -1.0130 N.2   1 <1>  -0.6190 
 25 N        8.4510     3.6420    -2.5140 N.2   1 <1>  -0.6190 
 26 C       10.5040     6.8130    -0.4910 C.ar  1 <1>  -0.1500 
 27 N        8.6650     1.6190    -2.0230 N.2   1 <1>  -0.2500 
 28 N        8.2490     2.4420    -2.9330 N.2   1 <1>  -0.2500 
 29 H        2.2640    -3.1480    -0.7920 H     1 <1>   0.1500 
 30 H        0.3260     0.0500     1.3950 H     1 <1>   0.1500 
 31 H        3.9090     0.8600     2.2140 H     1 <1>   0.0800 
 32 H        2.3800     1.6540     2.2040 H     1 <1>   0.0800 
 33 H       -0.0360    -2.1420     0.1830 H     1 <1>   0.1500 
 34 H        6.6880     1.1780    -0.2300 H     1 <1>   0.0800 
 35 H        5.6370     0.3950     0.8860 H     1 <1>   0.0800 
 36 H        4.5350     3.4150    -1.5960 H     1 <1>   0.0800 
 37 H        6.1450     2.8070    -1.4550 H     1 <1>   0.0800 
 38 H        7.6050     1.3540     1.9750 H     1 <1>   0.0800 
 39 H        6.1460     2.0440     2.6140 H     1 <1>   0.0800 
 40 H        4.9300     5.1980    -0.2440 H     1 <1>   0.0800 
 41 H        6.5290     4.9760    -0.8410 H     1 <1>   0.0800 
 42 H        5.4230     4.2320     1.8640 H     1 <1>   0.0800 
 43 H        6.6720     5.3810     1.5150 H     1 <1>   0.0800 
 44 H        9.6770     5.8280     2.6130 H     1 <1>   0.1500 
 45 H       10.1410     5.6780    -2.2550 H     1 <1>   0.1500 
 46 H       10.7490     7.7010     1.4370 H     1 <1>   0.1500 
 47 H       10.9680     7.6290    -1.0180 H     1 <1>   0.1500 
@<TRIPOS>BOND
  1   1   2  1   
  2   1   3  1   
  3   2   4  2   
  4   2   5  1   
  5   3   6  2   
  6   3  29  1   
  7   4   6  1   
  8   4  30  1   
  9   5   7  1   
 10   5  31  1   
 11   5  32  1   
 12   6  33  1   
 13   7   8  2   
 14   7   9  am  
 15   9  10  1   
 16   9  11  1   
 17  10  12  1   
 18  10  34  1   
 19  10  35  1   
 20  11  13  1   
 21  11  36  1   
 22  11  37  1   
 23  12  14  1   
 24  12  38  1   
 25  12  39  1   
 26  13  15  1   
 27  13  40  1   
 28  13  41  1   
 29  14  15  1   
 30  14  16  am  
 31  15  42  1   
 32  15  43  1   
 33  16  17  2   
 34  16  18  1   
 35  18  19  ar  
 36  18  20  ar  
 37  19  21  1   
 38  19  22  ar  
 39  20  23  ar  
 40  20  44  1   
 41  21  24  2   
 42  21  25  1   
 43  22  26  ar  
 44  22  45  1   
 45  23  26  ar  
 46  23  46  1   
 47  24  27  1   
 48  25  28  2   
 49  26  47  1   
 50  27  28  1   
@<TRIPOS>SUBSTRUCTURE
  1 ****  10 GROUP 4 **** **** 0

# MOE 2024.06 (io_trps.svl 2023.06)
