@<TRIPOS>MOLECULE
NONAME
37 38 1 0 0 
SMALL
USER_CHARGES


@<TRIPOS>ATOM
  1 S       -0.0490    -0.1270    -0.4420 S.3   1 <1>  -0.0800 
  2 C       -1.5750    -0.7740     0.0660 C.2   1 <1>   0.4420 
  3 C       -0.6600     1.4400    -0.0400 C.2   1 <1>   0.1980 
  4 N       -2.3770     0.1420     0.4720 N.2   1 <1>  -0.3380 
  5 N       -1.7210    -2.1400    -0.0230 N.am  1 <1>  -0.4940 
  6 N       -1.8490     1.4010     0.4080 N.2   1 <1>  -0.3380 
  7 C        0.2550     2.6300    -0.2590 C.3   1 <1>   0.0200 
  8 C       -2.8110    -2.9270     0.2320 C.2   1 <1>   0.7160 
  9 C       -0.4270     3.9380     0.1340 C.3   1 <1>   0.1200 
 10 O       -3.8840    -2.4280     0.4920 O.2   1 <1>  -0.5700 
 11 C       -2.6470    -4.3600     0.1590 C.2   1 <1>  -0.0860 
 12 O        0.4700     4.9760    -0.0940 O.3   1 <1>  -0.5600 
 13 C       -3.5730    -5.3430    -0.0400 C.2   1 <1>  -0.0400 
 14 C       -1.4280    -5.0660     0.2880 C.2   1 <1>  -0.1500 
 15 C       -0.0310     6.2300     0.2250 C.3   1 <1>   0.1200 
 16 O       -3.0110    -6.5260    -0.0470 O.3   1 <1>  -0.2800 
 17 C       -5.0730    -5.2840    -0.2520 C.3   1 <1>  -0.0600 
 18 C       -1.7220    -6.3730     0.1510 C.2   1 <1>  -0.0400 
 19 C        1.0590     7.2500    -0.0770 C.3   1 <1>  -0.2400 
 20 C       -0.8480    -7.6070     0.1960 C.3   1 <1>  -0.0600 
 21 H       -0.9100    -2.6470    -0.3570 H     1 <1>   0.3700 
 22 H        0.5290     2.6730    -1.2970 H     1 <1>   0.0800 
 23 H        1.1420     2.5020     0.3340 H     1 <1>   0.0800 
 24 H       -0.6910     3.9270     1.1780 H     1 <1>   0.0800 
 25 H       -1.3070     4.0990    -0.4660 H     1 <1>   0.0800 
 26 H       -0.4620    -4.6350     0.4730 H     1 <1>   0.1500 
 27 H       -0.2890     6.2470     1.2710 H     1 <1>   0.0800 
 28 H       -0.9060     6.4190    -0.3750 H     1 <1>   0.0800 
 29 H       -5.4260    -4.2700    -0.2750 H     1 <1>   0.0800 
 30 H       -5.5690    -5.8040     0.5480 H     1 <1>   0.0800 
 31 H       -5.3250    -5.7580    -1.1830 H     1 <1>   0.0800 
 32 H        1.9310     7.0440     0.5160 H     1 <1>   0.0800 
 33 H        0.7080     8.2380     0.1570 H     1 <1>   0.0800 
 34 H        1.3180     7.2150    -1.1200 H     1 <1>   0.0800 
 35 H        0.1770    -7.3340     0.3680 H     1 <1>   0.0800 
 36 H       -0.9190    -8.1360    -0.7370 H     1 <1>   0.0800 
 37 H       -1.1760    -8.2540     0.9890 H     1 <1>   0.0800 
@<TRIPOS>BOND
  1   1   2  1   
  2   1   3  1   
  3   2   4  2   
  4   2   5  1   
  5   3   6  2   
  6   3   7  1   
  7   4   6  1   
  8   5   8  am  
  9   5  21  1   
 10   7   9  1   
 11   7  22  1   
 12   7  23  1   
 13   8  10  2   
 14   8  11  1   
 15   9  12  1   
 16   9  24  1   
 17   9  25  1   
 18  11  13  2   
 19  11  14  1   
 20  12  15  1   
 21  13  16  1   
 22  13  17  1   
 23  14  18  2   
 24  14  26  1   
 25  15  19  1   
 26  15  27  1   
 27  15  28  1   
 28  16  18  1   
 29  17  29  1   
 30  17  30  1   
 31  17  31  1   
 32  18  20  1   
 33  19  32  1   
 34  19  33  1   
 35  19  34  1   
 36  20  35  1   
 37  20  36  1   
 38  20  37  1   
@<TRIPOS>SUBSTRUCTURE
  1 ****   2 GROUP 4 **** **** 0

# MOE 2024.06 (io_trps.svl 2023.06)
