@<TRIPOS>MOLECULE
NONAME
15 14 1 0 0 
SMALL
USER_CHARGES


@<TRIPOS>ATOM
  1 N        8.5100    -1.2420    -0.1540 N.4   1 <1>  -0.8530 
  2 C        7.6970    -0.0030    -0.0360 C.3   1 <1>   0.3430 
  3 C        6.2610    -0.3350     0.3710 C.3   1 <1>  -0.0220 
  4 C        5.4450     0.9400     0.4490 C.2   1 <1>  -0.2880 
  5 C        4.4260     1.2410    -0.3620 C.2   1 <1>  -0.3000 
  6 H        9.4750    -1.0210    -0.4290 H     1 <1>   0.4500 
  7 H        8.1170    -1.8720    -0.8630 H     1 <1>   0.4500 
  8 H        8.5450    -1.7480     0.7390 H     1 <1>   0.4500 
  9 H        7.6810     0.5180    -0.9810 H     1 <1>   0.0800 
 10 H        8.1310     0.6550     0.7010 H     1 <1>   0.0800 
 11 H        6.2410    -0.8170     1.3330 H     1 <1>   0.0800 
 12 H        5.8160    -0.9920    -0.3560 H     1 <1>   0.0800 
 13 H        5.7550     1.6070     1.2400 H     1 <1>   0.1500 
 14 H        3.8530     2.1510    -0.2890 H     1 <1>   0.1500 
 15 H        4.0660     0.6160    -1.1620 H     1 <1>   0.1500 
@<TRIPOS>BOND
  1   1   2  1   
  2   1   6  1   
  3   1   7  1   
  4   1   8  1   
  5   2   3  1   
  6   2   9  1   
  7   2  10  1   
  8   3   4  1   
  9   3  11  1   
 10   3  12  1   
 11   4   5  2   
 12   4  13  1   
 13   5  14  1   
 14   5  15  1   
@<TRIPOS>SUBSTRUCTURE
  1 ****   3 GROUP 4 **** **** 0

# MOE 2024.06 (io_trps.svl 2023.06)
