@<TRIPOS>MOLECULE
NONAME
46 48 1 0 0 
SMALL
USER_CHARGES


@<TRIPOS>ATOM
  1 O       -0.0080     1.5860    -0.7730 O.2   1 <1>  -0.5700 
  2 C       -0.0140     2.7660    -0.5310 C.2   1 <1>   0.5690 
  3 N       -1.0160     3.3180     0.1870 N.am  1 <1>  -0.7300 
  4 C        1.1000     3.6670    -1.0660 C.3   1 <1>   0.1810 
  5 C       -1.1240     4.7700     0.4750 C.3   1 <1>   0.3640 
  6 O        1.1840     4.8930    -0.3720 O.3   1 <1>  -0.5600 
  7 C       -2.5340     5.2280     0.1110 C.ar  1 <1>  -0.1440 
  8 C       -0.0460     5.6020    -0.2700 C.3   1 <1>   0.2610 
  9 C       -3.2430     6.0400     0.9850 C.ar  1 <1>  -0.1500 
 10 C       -3.1270     4.8510    -1.0880 C.ar  1 <1>  -0.1500 
 11 C        0.1730     6.9300     0.4610 C.2   1 <1>   0.5690 
 12 C       -4.5220     6.4660     0.6690 C.ar  1 <1>  -0.1500 
 13 C       -4.4060     5.2760    -1.4040 C.ar  1 <1>  -0.1500 
 14 O       -0.6230     7.8290     0.3320 O.2   1 <1>  -0.5700 
 15 N        1.2750     7.0840     1.2380 N.am  1 <1>  -0.7300 
 16 C       -5.1040     6.0840    -0.5260 C.ar  1 <1>  -0.1500 
 17 C        1.6470     8.3010     1.9890 C.3   1 <1>   0.3200 
 18 C        2.9320     8.8760     1.4250 C.2   1 <1>   0.0060 
 19 N        4.0900     8.7160     1.9700 N.2   1 <1>  -0.3380 
 20 N        3.0120     9.6070     0.3070 N.pl3 1 <1>   0.0480 
 21 N        4.9750     9.3540     1.2040 N.2   1 <1>  -0.3380 
 22 C        4.3160     9.8740     0.2280 C.2   1 <1>   0.0360 
 23 C        1.9510    10.0350    -0.6300 C.3   1 <1>   0.0960 
 24 C        1.3060    11.3440    -0.1590 C.3   1 <1>  -0.1600 
 25 C        0.1790    11.7730    -1.1040 C.3   1 <1>  -0.2400 
 26 H       -1.7840     2.7220     0.5020 H     1 <1>   0.3700 
 27 H        0.9280     3.8740    -2.1060 H     1 <1>   0.0800 
 28 H        2.0450     3.1650    -0.9620 H     1 <1>   0.0800 
 29 H       -0.9790     4.9030     1.5330 H     1 <1>   0.0800 
 30 H       -0.3830     5.8200    -1.2670 H     1 <1>   0.0800 
 31 H       -2.8050     6.3560     1.9160 H     1 <1>   0.1500 
 32 H       -2.6020     4.2210    -1.7850 H     1 <1>   0.1500 
 33 H       -5.0630     7.0980     1.3520 H     1 <1>   0.1500 
 34 H       -4.8580     4.9790    -2.3350 H     1 <1>   0.1500 
 35 H        2.0020     6.3600     1.1960 H     1 <1>   0.3700 
 36 H       -6.0980     6.4160    -0.7710 H     1 <1>   0.1500 
 37 H        0.8590     9.0320     1.9390 H     1 <1>   0.0800 
 38 H        1.7990     8.0420     3.0230 H     1 <1>   0.0800 
 39 H        4.7510    10.4560    -0.5630 H     1 <1>   0.1500 
 40 H        2.3850    10.1690    -1.6040 H     1 <1>   0.0800 
 41 H        1.2100     9.2600    -0.6980 H     1 <1>   0.0800 
 42 H        0.8980    11.2130     0.8290 H     1 <1>   0.0800 
 43 H        2.0500    12.1210    -0.1210 H     1 <1>   0.0800 
 44 H       -0.5910    11.0200    -1.1380 H     1 <1>   0.0800 
 45 H        0.5550    11.9290    -2.1000 H     1 <1>   0.0800 
 46 H       -0.2620    12.6920    -0.7580 H     1 <1>   0.0800 
@<TRIPOS>BOND
  1   1   2  2   
  2   2   3  am  
  3   2   4  1   
  4   3   5  1   
  5   3  26  1   
  6   4   6  1   
  7   4  27  1   
  8   4  28  1   
  9   5   7  1   
 10   5   8  1   
 11   5  29  1   
 12   6   8  1   
 13   7   9  ar  
 14   7  10  ar  
 15   8  11  1   
 16   8  30  1   
 17   9  12  ar  
 18   9  31  1   
 19  10  13  ar  
 20  10  32  1   
 21  11  14  2   
 22  11  15  am  
 23  12  16  ar  
 24  12  33  1   
 25  13  16  ar  
 26  13  34  1   
 27  15  17  1   
 28  15  35  1   
 29  16  36  1   
 30  17  18  1   
 31  17  37  1   
 32  17  38  1   
 33  18  19  2   
 34  18  20  1   
 35  19  21  1   
 36  20  22  1   
 37  20  23  1   
 38  21  22  2   
 39  22  39  1   
 40  23  24  1   
 41  23  40  1   
 42  23  41  1   
 43  24  25  1   
 44  24  42  1   
 45  24  43  1   
 46  25  44  1   
 47  25  45  1   
 48  25  46  1   
@<TRIPOS>SUBSTRUCTURE
  1 ****  11 GROUP 4 **** **** 0

# MOE 2024.06 (io_trps.svl 2023.06)
