@<TRIPOS>MOLECULE
NONAME
45 47 1 0 0 
SMALL
USER_CHARGES


@<TRIPOS>ATOM
  1 CL      -0.0610     1.7520    -0.7390 Cl    1 <1>  -0.1770 
  2 C        1.4500     1.8490     0.1270 C.ar  1 <1>   0.1770 
  3 C        2.4060     2.7530    -0.2890 C.ar  1 <1>  -0.1500 
  4 C        1.6630     1.0210     1.2110 C.ar  1 <1>  -0.1500 
  5 C        3.6220     2.8620     0.3870 C.ar  1 <1>   0.0860 
  6 C        2.8650     1.1040     1.8890 C.ar  1 <1>  -0.1500 
  7 C        4.6390     3.8170    -0.0230 C.2   1 <1>   0.5440 
  8 C        3.8270     2.0110     1.4770 C.ar  1 <1>  -0.1500 
  9 O        5.8090     3.6660     0.2810 O.2   1 <1>  -0.5700 
 10 N        4.3300     4.9720    -0.7020 N.am  1 <1>  -0.6600 
 11 C        5.2220     5.4810    -1.7960 C.3   1 <1>   0.1400 
 12 C        3.4290     5.9810    -0.0920 C.3   1 <1>   0.1400 
 13 C        6.5100     6.1610    -1.2800 C.3   1 <1>   0.3430 
 14 C        4.1560     6.7280     1.0360 C.3   1 <1>  -0.1600 
 15 N        6.4740     6.4060     0.1950 N.4   1 <1>  -0.9590 
 16 C        5.4670     7.4110     0.6290 C.3   1 <1>   0.3430 
 17 C        7.8350     6.6450     0.7580 C.3   1 <1>   0.5230 
 18 C        8.4700     7.9450     0.2820 C.2   1 <1>  -0.0400 
 19 O        9.6910     8.1820     0.7170 O.3   1 <1>  -0.2800 
 20 C        8.0600     8.9600    -0.5160 C.2   1 <1>  -0.1500 
 21 C       10.0890     9.3340     0.2190 C.2   1 <1>  -0.0400 
 22 C        9.1240     9.8690    -0.5560 C.2   1 <1>  -0.1500 
 23 C       11.4710     9.8400     0.5700 C.3   1 <1>  -0.0600 
 24 H        2.2000     3.3690    -1.1450 H     1 <1>   0.1500 
 25 H        0.9010     0.3240     1.5140 H     1 <1>   0.1500 
 26 H        3.0520     0.4620     2.7340 H     1 <1>   0.1500 
 27 H        4.7610     2.0600     2.0120 H     1 <1>   0.1500 
 28 H        4.6760     6.1740    -2.4120 H     1 <1>   0.0800 
 29 H        5.5030     4.6560    -2.4290 H     1 <1>   0.0800 
 30 H        2.5560     5.4920     0.3100 H     1 <1>   0.0800 
 31 H        3.0940     6.6750    -0.8460 H     1 <1>   0.0800 
 32 H        6.6780     7.0800    -1.8150 H     1 <1>   0.0800 
 33 H        7.3350     5.5050    -1.5040 H     1 <1>   0.0800 
 34 H        4.3400     6.0550     1.8550 H     1 <1>   0.0800 
 35 H        3.4900     7.4860     1.4070 H     1 <1>   0.0800 
 36 H        6.1620     5.4820     0.5610 H     1 <1>   0.4500 
 37 H        5.8460     7.9570     1.4780 H     1 <1>   0.0800 
 38 H        5.2840     8.1190    -0.1630 H     1 <1>   0.0800 
 39 H        8.4840     5.8290     0.4830 H     1 <1>   0.0800 
 40 H        7.7810     6.6660     1.8330 H     1 <1>   0.0800 
 41 H        7.1350     9.1100    -1.0410 H     1 <1>   0.1500 
 42 H        9.1410    10.7970    -1.1010 H     1 <1>   0.1500 
 43 H       12.2120     9.1340     0.2420 H     1 <1>   0.0800 
 44 H       11.5540     9.9630     1.6350 H     1 <1>   0.0800 
 45 H       11.6540    10.7860     0.0940 H     1 <1>   0.0800 
@<TRIPOS>BOND
  1   1   2  1   
  2   2   3  ar  
  3   2   4  ar  
  4   3   5  ar  
  5   3  24  1   
  6   4   6  ar  
  7   4  25  1   
  8   5   7  1   
  9   5   8  ar  
 10   6   8  ar  
 11   6  26  1   
 12   7   9  2   
 13   7  10  am  
 14   8  27  1   
 15  10  11  1   
 16  10  12  1   
 17  11  13  1   
 18  11  28  1   
 19  11  29  1   
 20  12  14  1   
 21  12  30  1   
 22  12  31  1   
 23  13  15  1   
 24  13  32  1   
 25  13  33  1   
 26  14  16  1   
 27  14  34  1   
 28  14  35  1   
 29  15  16  1   
 30  15  17  1   
 31  15  36  1   
 32  16  37  1   
 33  16  38  1   
 34  17  18  1   
 35  17  39  1   
 36  17  40  1   
 37  18  19  1   
 38  18  20  2   
 39  19  21  1   
 40  20  22  1   
 41  20  41  1   
 42  21  22  2   
 43  21  23  1   
 44  22  42  1   
 45  23  43  1   
 46  23  44  1   
 47  23  45  1   
@<TRIPOS>SUBSTRUCTURE
  1 ****  15 GROUP 4 **** **** 0

# MOE 2024.06 (io_trps.svl 2023.06)
