@<TRIPOS>MOLECULE
NONAME
41 44 1 0 0 
SMALL
USER_CHARGES


@<TRIPOS>ATOM
  1 S       -0.2120     2.7330    -0.0750 S.3   1 <1>  -0.2860 
  2 C        1.4210     3.3400    -0.3600 C.2   1 <1>   0.2420 
  3 C       -0.9050     4.4120     0.2720 C.3   1 <1>   0.0700 
  4 N        2.5140     2.7260    -0.6570 N.2   1 <1>  -0.5650 
  5 N        1.4880     4.6630    -0.2330 N.pl3 1 <1>   0.0480 
  6 C        0.2650     5.4160     0.1180 C.3   1 <1>   0.0960 
  7 C        3.3940     3.7540    -0.7280 C.2   1 <1>   0.0460 
  8 C        2.7810     4.9430    -0.4750 C.2   1 <1>  -0.3020 
  9 C        4.8590     3.4740    -1.0520 C.3   1 <1>   0.3900 
 10 N        5.6630     4.7250    -1.1170 N.pl3 1 <1>  -0.8690 
 11 C        6.0350     5.3640     0.0350 C.ar  1 <1>   0.4100 
 12 N        5.7270     6.6430     0.0360 N.ar  1 <1>  -0.6200 
 13 C        6.6770     4.7270     1.1090 C.ar  1 <1>   0.1600 
 14 C        6.0550     7.2780     1.1750 C.ar  1 <1>   0.3960 
 15 N        7.0170     5.3180     2.2350 N.ar  1 <1>  -0.6200 
 16 C        5.7610     8.7000     1.3640 C.2   1 <1>   0.5440 
 17 C        6.6780     6.6010     2.2300 C.ar  1 <1>   0.1600 
 18 O        5.4830     9.0980     2.4830 O.2   1 <1>  -0.5700 
 19 N        5.8000     9.6420     0.3500 N.am  1 <1>  -0.6600 
 20 C        5.6010    11.0880     0.5940 C.3   1 <1>   0.1400 
 21 C        6.2430     9.4010    -1.0430 C.3   1 <1>   0.1400 
 22 C        6.2860    11.7760    -0.5790 C.3   1 <1>  -0.1600 
 23 C        6.1960    10.7670    -1.7200 C.3   1 <1>  -0.1600 
 24 H       -1.2980     4.4020     1.2730 H     1 <1>   0.0800 
 25 H       -1.6920     4.5950    -0.4380 H     1 <1>   0.0800 
 26 H        0.4320     5.9440     1.0390 H     1 <1>   0.0800 
 27 H        0.0540     6.1230    -0.6630 H     1 <1>   0.0800 
 28 H        3.1820     5.9400    -0.4470 H     1 <1>   0.1500 
 29 H        4.9120     2.9740    -2.0030 H     1 <1>   0.0800 
 30 H        5.2590     2.8100    -0.3080 H     1 <1>   0.0800 
 31 H        5.2160     5.3900    -1.7520 H     1 <1>   0.4000 
 32 H        6.9110     3.6850     1.0070 H     1 <1>   0.1500 
 33 H        6.9080     7.1620     3.1200 H     1 <1>   0.1500 
 34 H        6.0290    11.3900     1.5350 H     1 <1>   0.0800 
 35 H        4.5450    11.2990     0.5950 H     1 <1>   0.0800 
 36 H        5.5890     8.7060    -1.5400 H     1 <1>   0.0800 
 37 H        7.2490     9.0150    -1.0360 H     1 <1>   0.0800 
 38 H        7.3170    11.9510    -0.3260 H     1 <1>   0.0800 
 39 H        5.8190    12.7140    -0.8210 H     1 <1>   0.0800 
 40 H        5.2510    10.8720    -2.2250 H     1 <1>   0.0800 
 41 H        6.9900    10.8860    -2.4360 H     1 <1>   0.0800 
@<TRIPOS>BOND
  1   1   2  1   
  2   1   3  1   
  3   2   4  2   
  4   2   5  1   
  5   3   6  1   
  6   3  24  1   
  7   3  25  1   
  8   4   7  1   
  9   5   6  1   
 10   5   8  1   
 11   6  26  1   
 12   6  27  1   
 13   7   8  2   
 14   7   9  1   
 15   8  28  1   
 16   9  10  1   
 17   9  29  1   
 18   9  30  1   
 19  10  11  1   
 20  10  31  1   
 21  11  12  ar  
 22  11  13  ar  
 23  12  14  ar  
 24  13  15  ar  
 25  13  32  1   
 26  14  16  1   
 27  14  17  ar  
 28  15  17  ar  
 29  16  18  2   
 30  16  19  am  
 31  17  33  1   
 32  19  20  1   
 33  19  21  1   
 34  20  22  1   
 35  20  34  1   
 36  20  35  1   
 37  21  23  1   
 38  21  36  1   
 39  21  37  1   
 40  22  23  1   
 41  22  38  1   
 42  22  39  1   
 43  23  40  1   
 44  23  41  1   
@<TRIPOS>SUBSTRUCTURE
  1 ****  12 GROUP 4 **** **** 0

# MOE 2024.06 (io_trps.svl 2023.06)
