@<TRIPOS>MOLECULE
NONAME
50 53 1 0 0 
SMALL
USER_CHARGES


@<TRIPOS>ATOM
  1 O       -0.4320    -0.0390    -0.7810 O.2   1 <1>  -0.5700 
  2 C       -1.4150     0.6140    -0.4740 C.2   1 <1>   0.7150 
  3 N       -2.6350    -0.0330    -0.4760 N.am  1 <1>  -0.6600 
  4 C       -1.2440     2.0090    -0.1410 C.2   1 <1>   0.0550 
  5 C       -3.9750     0.6030    -0.3980 C.3   1 <1>   0.1400 
  6 C       -2.7610    -1.4830    -0.7580 C.3   1 <1>   0.1400 
  7 O       -2.2100     2.7560     0.3450 O.3   1 <1>  -0.0190 
  8 C       -0.1620     2.8160    -0.2240 C.2   1 <1>  -0.1500 
  9 C       -4.9600    -0.4950    -0.7990 C.3   1 <1>   0.2000 
 10 C       -4.2370    -1.8120    -0.5310 C.3   1 <1>  -0.0800 
 11 N       -1.8470     3.9790     0.5770 N.2   1 <1>  -0.4100 
 12 C       -0.6040     4.0460     0.2420 C.2   1 <1>   0.1080 
 13 O       -6.1260    -0.4350    -0.0510 O.3   1 <1>  -0.6800 
 14 C       -4.7500    -2.9670    -1.4060 C.3   1 <1>  -0.0170 
 15 C        0.2610     5.2990     0.3410 C.3   1 <1>   0.1010 
 16 C       -4.0100    -4.2640    -1.0920 C.ar  1 <1>  -0.1440 
 17 C        0.3620     5.7760     1.7940 C.3   1 <1>  -0.2400 
 18 C       -0.2940     6.4150    -0.5520 C.3   1 <1>  -0.2400 
 19 C       -4.3030    -5.0430     0.0530 C.ar  1 <1>   0.0000 
 20 C       -3.0200    -4.7060    -1.9200 C.ar  1 <1>  -0.1500 
 21 C       -3.5350    -6.2140     0.2650 C.ar  1 <1>   0.3100 
 22 C       -5.3110    -4.7330     0.9960 C.ar  1 <1>  -0.1500 
 23 C       -2.3260    -5.8850    -1.6210 C.ar  1 <1>   0.1600 
 24 N       -2.5540    -6.6200    -0.5800 N.ar  1 <1>  -0.6200 
 25 C       -3.7920    -7.0000     1.3990 C.ar  1 <1>  -0.1500 
 26 C       -5.5380    -5.5220     2.0910 C.ar  1 <1>  -0.1500 
 27 C       -4.7690    -6.6690     2.2990 C.ar  1 <1>  -0.1500 
 28 H       -4.1540     0.9300     0.6120 H     1 <1>   0.0800 
 29 H       -4.0400     1.4370    -1.0760 H     1 <1>   0.0800 
 30 H       -2.4770    -1.6630    -1.7810 H     1 <1>   0.0800 
 31 H       -2.1240    -2.0580    -0.1070 H     1 <1>   0.0800 
 32 H        0.8240     2.5680    -0.5710 H     1 <1>   0.1500 
 33 H       -5.2180    -0.3930    -1.8390 H     1 <1>   0.0800 
 34 H       -4.3410    -2.0690     0.5090 H     1 <1>   0.0800 
 35 H       -5.9230    -0.4900     0.9030 H     1 <1>   0.4000 
 36 H       -4.6130    -2.7160    -2.4440 H     1 <1>   0.0800 
 37 H       -5.8070    -3.1030    -1.2580 H     1 <1>   0.0800 
 38 H        1.2510     5.0530    -0.0030 H     1 <1>   0.0800 
 39 H       -0.6110     6.0410     2.1690 H     1 <1>   0.0800 
 40 H        1.0070     6.6340     1.8650 H     1 <1>   0.0800 
 41 H        0.7630     4.9920     2.4120 H     1 <1>   0.0800 
 42 H       -1.2820     6.6940    -0.2290 H     1 <1>   0.0800 
 43 H       -0.3530     6.0750    -1.5710 H     1 <1>   0.0800 
 44 H        0.3420     7.2800    -0.5130 H     1 <1>   0.0800 
 45 H       -2.7450    -4.1710    -2.8100 H     1 <1>   0.1500 
 46 H       -5.9180    -3.8590     0.8540 H     1 <1>   0.1500 
 47 H       -1.5510    -6.1980    -2.3010 H     1 <1>   0.1500 
 48 H       -3.1900    -7.8790     1.5370 H     1 <1>   0.1500 
 49 H       -6.3080    -5.2740     2.8010 H     1 <1>   0.1500 
 50 H       -4.9550    -7.2820     3.1640 H     1 <1>   0.1500 
@<TRIPOS>BOND
  1   1   2  2   
  2   2   3  am  
  3   2   4  1   
  4   3   5  1   
  5   3   6  1   
  6   4   7  1   
  7   4   8  2   
  8   5   9  1   
  9   5  28  1   
 10   5  29  1   
 11   6  10  1   
 12   6  30  1   
 13   6  31  1   
 14   7  11  1   
 15   8  12  1   
 16   8  32  1   
 17   9  10  1   
 18   9  13  1   
 19   9  33  1   
 20  10  14  1   
 21  10  34  1   
 22  11  12  2   
 23  12  15  1   
 24  13  35  1   
 25  14  16  1   
 26  14  36  1   
 27  14  37  1   
 28  15  17  1   
 29  15  18  1   
 30  15  38  1   
 31  16  19  ar  
 32  16  20  ar  
 33  17  39  1   
 34  17  40  1   
 35  17  41  1   
 36  18  42  1   
 37  18  43  1   
 38  18  44  1   
 39  19  21  ar  
 40  19  22  ar  
 41  20  23  ar  
 42  20  45  1   
 43  21  24  ar  
 44  21  25  ar  
 45  22  26  ar  
 46  22  46  1   
 47  23  24  ar  
 48  23  47  1   
 49  25  27  ar  
 50  25  48  1   
 51  26  27  ar  
 52  26  49  1   
 53  27  50  1   
@<TRIPOS>SUBSTRUCTURE
  1 ****   6 GROUP 4 **** **** 0

# MOE 2024.06 (io_trps.svl 2023.06)
