@<TRIPOS>MOLECULE
NONAME
52 54 1 0 0 
SMALL
USER_CHARGES


@<TRIPOS>ATOM
  1 N       -1.9250    -0.8810     0.8820 N.ar  1 <1>  -0.6200 
  2 C       -2.2930     0.3600     0.5990 C.ar  1 <1>   0.4100 
  3 C       -0.9350    -0.9350     1.7630 C.ar  1 <1>   0.1600 
  4 N       -3.3620     0.4530    -0.3130 N.pl3 1 <1>  -0.8380 
  5 C       -1.6720     1.5170     1.1990 C.ar  1 <1>   0.4100 
  6 C       -0.3480     0.1700     2.3450 C.ar  1 <1>   0.1600 
  7 C       -3.5290    -0.5400    -1.3940 C.3   1 <1>   0.2090 
  8 C       -4.5940     1.1250     0.1340 C.3   1 <1>   0.2090 
  9 N       -0.6970     1.4210     2.0900 N.ar  1 <1>  -0.6200 
 10 N       -2.0440     2.8330     0.8690 N.pl3 1 <1>  -0.8380 
 11 C       -4.4990    -1.6250    -0.9310 C.3   1 <1>  -0.1600 
 12 C       -5.5470     0.0600     0.6630 C.3   1 <1>  -0.1600 
 13 C       -1.8550     3.9100     1.8810 C.3   1 <1>   0.1290 
 14 C       -1.7280     3.2670    -0.5170 C.3   1 <1>   0.1290 
 15 C       -5.8100    -1.0430    -0.3750 C.3   1 <1>   0.4230 
 16 N       -6.6260    -2.1320     0.2590 N.4   1 <1>  -0.9590 
 17 C       -6.8600    -3.3140    -0.6270 C.3   1 <1>   0.4860 
 18 C       -7.9330    -1.6520     0.8220 C.3   1 <1>   0.2630 
 19 C       -7.4660    -4.4350     0.1940 C.ar  1 <1>  -0.1430 
 20 C       -8.7960    -4.7930     0.0160 C.ar  1 <1>  -0.1500 
 21 C       -6.6970    -5.1100     1.1310 C.ar  1 <1>  -0.1500 
 22 C       -9.3520    -5.8060     0.7770 C.ar  1 <1>  -0.1500 
 23 C       -7.2560    -6.1230     1.8910 C.ar  1 <1>  -0.1500 
 24 C       -8.5830    -6.4690     1.7160 C.ar  1 <1>  -0.1500 
 25 H       -0.5770    -1.9130     2.0330 H     1 <1>   0.1500 
 26 H        0.4480     0.0260     3.0540 H     1 <1>   0.1500 
 27 H       -2.5740    -0.9740    -1.6430 H     1 <1>   0.0800 
 28 H       -3.9060    -0.0420    -2.2710 H     1 <1>   0.0800 
 29 H       -5.0280     1.6630    -0.6920 H     1 <1>   0.0800 
 30 H       -4.3760     1.8340     0.9160 H     1 <1>   0.0800 
 31 H       -4.0050    -2.2090    -0.1750 H     1 <1>   0.0800 
 32 H       -4.6870    -2.2530    -1.7810 H     1 <1>   0.0800 
 33 H       -6.4580     0.5620     0.9320 H     1 <1>   0.0800 
 34 H       -5.1080    -0.3610     1.5500 H     1 <1>   0.0800 
 35 H       -2.1410     3.5500     2.8550 H     1 <1>   0.0800 
 36 H       -2.4660     4.7600     1.6330 H     1 <1>   0.0800 
 37 H       -0.8210     4.2080     1.9110 H     1 <1>   0.0800 
 38 H       -1.7720     2.4300    -1.1930 H     1 <1>   0.0800 
 39 H       -0.7370     3.6850    -0.5520 H     1 <1>   0.0800 
 40 H       -2.4390     4.0070    -0.8370 H     1 <1>   0.0800 
 41 H       -6.3610    -0.6100    -1.1950 H     1 <1>   0.0800 
 42 H       -6.0700    -2.4870     1.0470 H     1 <1>   0.4500 
 43 H       -5.9320    -3.6670    -1.0430 H     1 <1>   0.0800 
 44 H       -7.5190    -3.0500    -1.4370 H     1 <1>   0.0800 
 45 H       -8.5510    -1.2380     0.0410 H     1 <1>   0.0800 
 46 H       -7.7700    -0.8970     1.5730 H     1 <1>   0.0800 
 47 H       -8.4650    -2.4670     1.2860 H     1 <1>   0.0800 
 48 H       -9.4130    -4.2950    -0.7130 H     1 <1>   0.1500 
 49 H       -5.6580    -4.8660     1.2810 H     1 <1>   0.1500 
 50 H      -10.3840    -6.0840     0.6400 H     1 <1>   0.1500 
 51 H       -6.6590    -6.6470     2.6190 H     1 <1>   0.1500 
 52 H       -9.0170    -7.2580     2.3070 H     1 <1>   0.1500 
@<TRIPOS>BOND
  1   1   2  ar  
  2   1   3  ar  
  3   2   4  1   
  4   2   5  ar  
  5   3   6  ar  
  6   3  25  1   
  7   4   7  1   
  8   4   8  1   
  9   5   9  ar  
 10   5  10  1   
 11   6   9  ar  
 12   6  26  1   
 13   7  11  1   
 14   7  27  1   
 15   7  28  1   
 16   8  12  1   
 17   8  29  1   
 18   8  30  1   
 19  10  13  1   
 20  10  14  1   
 21  11  15  1   
 22  11  31  1   
 23  11  32  1   
 24  12  15  1   
 25  12  33  1   
 26  12  34  1   
 27  13  35  1   
 28  13  36  1   
 29  13  37  1   
 30  14  38  1   
 31  14  39  1   
 32  14  40  1   
 33  15  16  1   
 34  15  41  1   
 35  16  17  1   
 36  16  18  1   
 37  16  42  1   
 38  17  19  1   
 39  17  43  1   
 40  17  44  1   
 41  18  45  1   
 42  18  46  1   
 43  18  47  1   
 44  19  20  ar  
 45  19  21  ar  
 46  20  22  ar  
 47  20  48  1   
 48  21  23  ar  
 49  21  49  1   
 50  22  24  ar  
 51  22  50  1   
 52  23  24  ar  
 53  23  51  1   
 54  24  52  1   
@<TRIPOS>SUBSTRUCTURE
  1 ****  15 GROUP 4 **** **** 0

# MOE 2024.06 (io_trps.svl 2023.06)
