@<TRIPOS>MOLECULE
NONAME
41 44 1 0 0 
SMALL
USER_CHARGES


@<TRIPOS>ATOM
  1 O       -1.5300     0.7620     1.9600 O.2   1 <1>  -0.5700 
  2 C       -2.2040     1.2280     1.0550 C.2   1 <1>   0.7160 
  3 N       -3.0570     0.3580     0.4000 N.am  1 <1>  -0.6600 
  4 C       -2.0680     2.6490     0.7320 C.2   1 <1>   0.1410 
  5 C       -3.9970     0.7010    -0.6990 C.3   1 <1>   0.1400 
  6 C       -3.0360    -1.1080     0.6210 C.3   1 <1>   0.1400 
  7 N       -2.6290     3.2770    -0.3410 N.2   1 <1>  -0.5650 
  8 C       -1.3470     3.5610     1.4520 C.2   1 <1>  -0.3020 
  9 C       -4.8310    -0.5630    -0.9010 C.3   1 <1>   0.2000 
 10 C       -3.8680    -1.6950    -0.5260 C.3   1 <1>  -0.0800 
 11 C       -2.2470     4.5170    -0.2460 C.2   1 <1>   0.3120 
 12 N       -1.4480     4.7500     0.8500 N.pl3 1 <1>   0.3340 
 13 O       -5.8850    -0.5370     0.0000 O.3   1 <1>  -0.6800 
 14 C       -4.5430    -3.0360    -0.1830 C.3   1 <1>   0.0200 
 15 N       -2.5890     5.5130    -1.1320 N.2   1 <1>  -0.5760 
 16 C       -0.9540     6.0180     1.0970 C.2   1 <1>  -0.1810 
 17 C       -3.5490    -4.1630     0.0420 C.2   1 <1>  -0.0400 
 18 C       -2.1230     6.6900    -0.8910 C.2   1 <1>   0.3760 
 19 C       -1.2910     6.9990     0.2230 C.2   1 <1>  -0.1360 
 20 O       -3.9910    -5.3080     0.4880 O.3   1 <1>  -0.0190 
 21 C       -2.2200    -4.2760    -0.1210 C.2   1 <1>  -0.1500 
 22 N       -3.0340    -6.1780     0.6350 N.2   1 <1>  -0.4100 
 23 C       -1.9550    -5.5830     0.2760 C.2   1 <1>   0.1080 
 24 C       -0.5860    -6.2260     0.2870 C.3   1 <1>  -0.0590 
 25 H       -4.6140     1.5490    -0.4520 H     1 <1>   0.0800 
 26 H       -3.4310     0.9180    -1.5890 H     1 <1>   0.0800 
 27 H       -2.0260    -1.4790     0.6140 H     1 <1>   0.0800 
 28 H       -3.4860    -1.3240     1.5750 H     1 <1>   0.0800 
 29 H       -0.7800     3.3980     2.3490 H     1 <1>   0.1500 
 30 H       -5.2320    -0.6510    -1.8960 H     1 <1>   0.0800 
 31 H       -3.2110    -1.8480    -1.3640 H     1 <1>   0.0800 
 32 H       -5.5510    -0.2250     0.8660 H     1 <1>   0.4000 
 33 H       -5.2020    -3.3200    -0.9850 H     1 <1>   0.0800 
 34 H       -5.1420    -2.9300     0.7050 H     1 <1>   0.0800 
 35 H       -0.3330     6.1470     1.9650 H     1 <1>   0.1500 
 36 H       -2.3690     7.4950    -1.5620 H     1 <1>   0.0600 
 37 H       -0.9540     8.0130     0.3350 H     1 <1>   0.1500 
 38 H       -1.4960    -3.5650    -0.4700 H     1 <1>   0.1500 
 39 H        0.0650    -5.6870     0.9490 H     1 <1>   0.0800 
 40 H       -0.1710    -6.2200    -0.7040 H     1 <1>   0.0800 
 41 H       -0.6620    -7.2440     0.6250 H     1 <1>   0.0800 
@<TRIPOS>BOND
  1   1   2  2   
  2   2   3  am  
  3   2   4  1   
  4   3   5  1   
  5   3   6  1   
  6   4   7  1   
  7   4   8  2   
  8   5   9  1   
  9   5  25  1   
 10   5  26  1   
 11   6  10  1   
 12   6  27  1   
 13   6  28  1   
 14   7  11  2   
 15   8  12  1   
 16   8  29  1   
 17   9  10  1   
 18   9  13  1   
 19   9  30  1   
 20  10  14  1   
 21  10  31  1   
 22  11  12  1   
 23  11  15  1   
 24  12  16  1   
 25  13  32  1   
 26  14  17  1   
 27  14  33  1   
 28  14  34  1   
 29  15  18  2   
 30  16  19  2   
 31  16  35  1   
 32  17  20  1   
 33  17  21  2   
 34  18  19  1   
 35  18  36  1   
 36  19  37  1   
 37  20  22  1   
 38  21  23  1   
 39  21  38  1   
 40  22  23  2   
 41  23  24  1   
 42  24  39  1   
 43  24  40  1   
 44  24  41  1   
@<TRIPOS>SUBSTRUCTURE
  1 ****   3 GROUP 4 **** **** 0

# MOE 2024.06 (io_trps.svl 2023.06)
