@<TRIPOS>MOLECULE
NONAME
48 50 1 0 0 
SMALL
USER_CHARGES


@<TRIPOS>ATOM
  1 O        1.3280     0.2100     0.8740 O.2   1 <1>  -0.5700 
  2 C        2.1950    -0.3160     0.2230 C.2   1 <1>   0.5950 
  3 C        2.5040    -1.7190     0.3120 C.2   1 <1>  -0.0860 
  4 C        2.9830     0.5490    -0.7350 C.3   1 <1>  -0.1790 
  5 C        3.4040    -2.4820    -0.3920 C.2   1 <1>  -0.3020 
  6 C        1.8940    -2.6210     1.2030 C.2   1 <1>  -0.1500 
  7 N        3.3730    -3.7680     0.0160 N.pl3 1 <1>   0.0480 
  8 C        2.4320    -3.8510     1.0020 C.2   1 <1>  -0.3320 
  9 C        4.2270    -4.8420    -0.5310 C.3   1 <1>   0.0160 
 10 C        2.0600    -5.1170     1.7390 C.3   1 <1>   0.5230 
 11 N        1.3240    -5.9850     0.8000 N.4   1 <1>  -0.9590 
 12 C        0.1860    -5.3220     0.0810 C.3   1 <1>   0.3430 
 13 C        0.7980    -7.2450     1.3650 C.3   1 <1>   0.3430 
 14 C       -0.9190    -6.3890    -0.0290 C.3   1 <1>   0.2000 
 15 C       -0.2130    -7.7020     0.3130 C.3   1 <1>  -0.0800 
 16 O       -1.9070    -6.1520     0.9200 O.3   1 <1>  -0.6800 
 17 C        0.4520    -8.2970    -0.9580 C.3   1 <1>   0.0210 
 18 C        1.8770    -8.7820    -0.7540 C.2   1 <1>   0.1080 
 19 N        2.9000    -7.9800    -0.6610 N.2   1 <1>  -0.7070 
 20 C        2.2400   -10.1190    -0.6560 C.2   1 <1>  -0.1500 
 21 N        3.9620    -8.8140    -0.5290 N.pl3 1 <1>   0.3000 
 22 C        3.5800   -10.1060    -0.5100 C.2   1 <1>  -0.3320 
 23 C        4.5380   -11.2760    -0.3660 C.3   1 <1>  -0.0600 
 24 H        4.0320     0.4650    -0.5210 H     1 <1>   0.0800 
 25 H        2.6870     1.5770    -0.6290 H     1 <1>   0.0800 
 26 H        2.7960     0.2340    -1.7440 H     1 <1>   0.0800 
 27 H        4.0680    -2.1460    -1.1700 H     1 <1>   0.1500 
 28 H        1.1330    -2.3190     1.9060 H     1 <1>   0.1500 
 29 H        5.1090    -4.4090    -0.9660 H     1 <1>   0.0800 
 30 H        3.6870    -5.3770    -1.2900 H     1 <1>   0.0800 
 31 H        4.5170    -5.5150     0.2540 H     1 <1>   0.0800 
 32 H        1.4340    -4.8700     2.5800 H     1 <1>   0.0800 
 33 H        2.9460    -5.6140     2.1000 H     1 <1>   0.0800 
 34 H        2.0050    -6.3070     0.0820 H     1 <1>   0.4500 
 35 H       -0.1780    -4.4620     0.6180 H     1 <1>   0.0800 
 36 H        0.5110    -5.0120    -0.8990 H     1 <1>   0.0800 
 37 H        1.5800    -7.9720     1.5230 H     1 <1>   0.0800 
 38 H        0.2930    -7.0540     2.2980 H     1 <1>   0.0800 
 39 H       -1.3930    -6.3920    -0.9970 H     1 <1>   0.0800 
 40 H       -0.8920    -8.4280     0.7270 H     1 <1>   0.0800 
 41 H       -1.5630    -6.0530     1.8280 H     1 <1>   0.4000 
 42 H        0.4840    -7.5710    -1.7510 H     1 <1>   0.0800 
 43 H       -0.1490    -9.1140    -1.3180 H     1 <1>   0.0800 
 44 H        1.5800   -10.9690    -0.6990 H     1 <1>   0.1500 
 45 H        4.9350    -8.4880    -0.4670 H     1 <1>   0.2700 
 46 H        3.9950   -12.2040    -0.3840 H     1 <1>   0.0800 
 47 H        5.0720   -11.2130     0.5660 H     1 <1>   0.0800 
 48 H        5.2470   -11.2810    -1.1750 H     1 <1>   0.0800 
@<TRIPOS>BOND
  1   1   2  2   
  2   2   3  1   
  3   2   4  1   
  4   3   5  2   
  5   3   6  1   
  6   4  24  1   
  7   4  25  1   
  8   4  26  1   
  9   5   7  1   
 10   5  27  1   
 11   6   8  2   
 12   6  28  1   
 13   7   8  1   
 14   7   9  1   
 15   8  10  1   
 16   9  29  1   
 17   9  30  1   
 18   9  31  1   
 19  10  11  1   
 20  10  32  1   
 21  10  33  1   
 22  11  12  1   
 23  11  13  1   
 24  11  34  1   
 25  12  14  1   
 26  12  35  1   
 27  12  36  1   
 28  13  15  1   
 29  13  37  1   
 30  13  38  1   
 31  14  15  1   
 32  14  16  1   
 33  14  39  1   
 34  15  17  1   
 35  15  40  1   
 36  16  41  1   
 37  17  18  1   
 38  17  42  1   
 39  17  43  1   
 40  18  19  2   
 41  18  20  1   
 42  19  21  1   
 43  20  22  2   
 44  20  44  1   
 45  21  22  1   
 46  21  45  1   
 47  22  23  1   
 48  23  46  1   
 49  23  47  1   
 50  23  48  1   
@<TRIPOS>SUBSTRUCTURE
  1 ****  11 GROUP 4 **** **** 0

# MOE 2024.06 (io_trps.svl 2023.06)
