@<TRIPOS>MOLECULE
NONAME
54 57 1 0 0 
SMALL
USER_CHARGES


@<TRIPOS>ATOM
  1 F        1.7180     0.3840    -2.0710 F     1 <1>  -0.1900 
  2 C        2.3470    -0.1540    -1.0590 C.ar  1 <1>   0.1900 
  3 C        2.8060     0.6400    -0.0080 C.ar  1 <1>  -0.1440 
  4 C        2.5400    -1.5220    -1.1170 C.ar  1 <1>  -0.1500 
  5 C        3.5260    -0.0190     0.9890 C.ar  1 <1>  -0.1500 
  6 C        2.5830     2.1720     0.0400 C.3   1 <1>   0.1440 
  7 C        3.2360    -2.1460    -0.1000 C.ar  1 <1>  -0.1500 
  8 C        3.7310    -1.3900     0.9470 C.ar  1 <1>  -0.1500 
  9 C        2.6960     2.7450     1.4700 C.3   1 <1>  -0.1600 
 10 C        1.1410     2.5740    -0.3400 C.3   1 <1>  -0.1600 
 11 C        3.6390     2.7870    -0.9190 C.3   1 <1>   0.2090 
 12 C        1.8100     3.9900     1.5490 C.3   1 <1>  -0.1600 
 13 C        0.7680     3.8390     0.4420 C.3   1 <1>  -0.1600 
 14 N        3.5990     4.2760    -1.0250 N.pl3 1 <1>  -0.8690 
 15 C        4.5420     5.1240    -0.5060 C.ar  1 <1>   0.4100 
 16 N        5.6410     4.5940     0.0180 N.ar  1 <1>  -0.6200 
 17 C        4.3120     6.4960    -0.5340 C.ar  1 <1>  -0.1500 
 18 C        6.5200     5.4440     0.5190 C.ar  1 <1>   0.1600 
 19 C        5.2400     7.3660    -0.0140 C.ar  1 <1>  -0.1500 
 20 C        6.4050     6.8320     0.5300 C.ar  1 <1>   0.0860 
 21 C        7.4540     7.6480     1.0920 C.2   1 <1>   0.5440 
 22 O        7.9840     7.2990     2.1310 O.2   1 <1>  -0.5700 
 23 N        7.8890     8.8090     0.4850 N.am  1 <1>  -0.6600 
 24 C        8.7520     9.7990     1.2000 C.3   1 <1>   0.1400 
 25 C        7.8190     9.0520    -0.9880 C.3   1 <1>   0.1400 
 26 C       10.1060     9.9500     0.4890 C.3   1 <1>   0.1200 
 27 C        9.2270     9.2610    -1.5720 C.3   1 <1>   0.1200 
 28 O        9.9180    10.2520    -0.8660 O.3   1 <1>  -0.5600 
 29 H        2.1550    -2.0830    -1.9490 H     1 <1>   0.1500 
 30 H        3.9500     0.5200     1.8170 H     1 <1>   0.1500 
 31 H        3.3970    -3.2100    -0.1250 H     1 <1>   0.1500 
 32 H        4.2840    -1.8690     1.7370 H     1 <1>   0.1500 
 33 H        3.7150     2.9690     1.7370 H     1 <1>   0.0800 
 34 H        2.2980     2.0340     2.1720 H     1 <1>   0.0800 
 35 H        0.4710     1.7870    -0.0390 H     1 <1>   0.0800 
 36 H        1.0280     2.7280    -1.3990 H     1 <1>   0.0800 
 37 H        3.4860     2.3830    -1.9050 H     1 <1>   0.0800 
 38 H        4.6150     2.4630    -0.6040 H     1 <1>   0.0800 
 39 H        2.4030     4.8720     1.3800 H     1 <1>   0.0800 
 40 H        1.3470     4.0720     2.5180 H     1 <1>   0.0800 
 41 H       -0.2200     3.7410     0.8580 H     1 <1>   0.0800 
 42 H        0.7850     4.7020    -0.2000 H     1 <1>   0.0800 
 43 H        2.6520     4.6410    -1.1260 H     1 <1>   0.4000 
 44 H        3.4000     6.8610    -0.9670 H     1 <1>   0.1500 
 45 H        7.4070     5.0180     0.9570 H     1 <1>   0.1500 
 46 H        5.0780     8.4290    -0.0180 H     1 <1>   0.1500 
 47 H        8.9160     9.4980     2.2200 H     1 <1>   0.0800 
 48 H        8.2550    10.7530     1.2170 H     1 <1>   0.0800 
 49 H        7.2250     9.9300    -1.1740 H     1 <1>   0.0800 
 50 H        7.3570     8.2210    -1.4900 H     1 <1>   0.0800 
 51 H       10.6760     9.0400     0.5680 H     1 <1>   0.0800 
 52 H       10.6700    10.7520     0.9300 H     1 <1>   0.0800 
 53 H        9.1610     9.5770    -2.5980 H     1 <1>   0.0800 
 54 H        9.7950     8.3480    -1.5280 H     1 <1>   0.0800 
@<TRIPOS>BOND
  1   1   2  1   
  2   2   3  ar  
  3   2   4  ar  
  4   3   5  ar  
  5   3   6  1   
  6   4   7  ar  
  7   4  29  1   
  8   5   8  ar  
  9   5  30  1   
 10   6   9  1   
 11   6  10  1   
 12   6  11  1   
 13   7   8  ar  
 14   7  31  1   
 15   8  32  1   
 16   9  12  1   
 17   9  33  1   
 18   9  34  1   
 19  10  13  1   
 20  10  35  1   
 21  10  36  1   
 22  11  14  1   
 23  11  37  1   
 24  11  38  1   
 25  12  13  1   
 26  12  39  1   
 27  12  40  1   
 28  13  41  1   
 29  13  42  1   
 30  14  15  1   
 31  14  43  1   
 32  15  16  ar  
 33  15  17  ar  
 34  16  18  ar  
 35  17  19  ar  
 36  17  44  1   
 37  18  20  ar  
 38  18  45  1   
 39  19  20  ar  
 40  19  46  1   
 41  20  21  1   
 42  21  22  2   
 43  21  23  am  
 44  23  24  1   
 45  23  25  1   
 46  24  26  1   
 47  24  47  1   
 48  24  48  1   
 49  25  27  1   
 50  25  49  1   
 51  25  50  1   
 52  26  28  1   
 53  26  51  1   
 54  26  52  1   
 55  27  28  1   
 56  27  53  1   
 57  27  54  1   
@<TRIPOS>SUBSTRUCTURE
  1 ****  16 GROUP 4 **** **** 0

# MOE 2024.06 (io_trps.svl 2023.06)
