@<TRIPOS>MOLECULE
NONAME
37 37 1 0 0 
SMALL
USER_CHARGES


@<TRIPOS>ATOM
  1 O       -6.7880     7.0730    -1.3470 O.2   1 <1>  -0.5700 
  2 C       -6.6680     6.9010    -0.1520 C.2   1 <1>   0.7800 
  3 O       -7.5130     7.4200     0.7340 O.3   1 <1>  -0.4300 
  4 N       -5.6720     6.1580     0.3710 N.am  1 <1>  -0.7300 
  5 C       -8.6350     8.2330     0.4620 C.3   1 <1>   0.2800 
  6 C       -4.6350     5.4680    -0.4130 C.3   1 <1>   0.2840 
  7 C       -9.2400     8.5530     1.8290 C.3   1 <1>  -0.2400 
  8 C       -8.1940     9.5380    -0.2120 C.3   1 <1>  -0.2400 
  9 C       -9.6600     7.4610    -0.3760 C.3   1 <1>  -0.2400 
 10 C       -4.9170     3.9740    -0.3990 C.ar  1 <1>  -0.1440 
 11 C       -4.1210     3.0640     0.2690 C.ar  1 <1>  -0.1500 
 12 C       -6.0050     3.4580    -1.0710 C.ar  1 <1>  -0.1500 
 13 C       -4.4410     1.7140     0.2330 C.ar  1 <1>   0.1670 
 14 C       -6.2440     2.0960    -1.0500 C.ar  1 <1>   0.1600 
 15 N       -5.4850     1.2100    -0.4190 N.ar  1 <1>  -0.6200 
 16 C       -3.5680     0.6980     0.9660 C.3   1 <1>   0.4860 
 17 N       -3.6270    -0.5890     0.2250 N.4   1 <1>  -0.8530 
 18 H       -5.6990     5.9920     1.3740 H     1 <1>   0.3700 
 19 H       -3.6690     5.6800     0.0130 H     1 <1>   0.0800 
 20 H       -4.6380     5.8280    -1.4290 H     1 <1>   0.0800 
 21 H       -8.5250     9.0730     2.4410 H     1 <1>   0.0800 
 22 H       -9.5340     7.6470     2.3280 H     1 <1>   0.0800 
 23 H      -10.1080     9.1760     1.7180 H     1 <1>   0.0800 
 24 H       -7.4260    10.0180     0.3670 H     1 <1>   0.0800 
 25 H       -9.0290    10.2100    -0.2930 H     1 <1>   0.0800 
 26 H       -7.8270     9.3580    -1.2060 H     1 <1>   0.0800 
 27 H       -9.8960     6.5220     0.0920 H     1 <1>   0.0800 
 28 H       -9.2930     7.2790    -1.3700 H     1 <1>   0.0800 
 29 H      -10.5650     8.0330    -0.4660 H     1 <1>   0.0800 
 30 H       -3.2600     3.4130     0.8140 H     1 <1>   0.1500 
 31 H       -6.6720     4.1130    -1.6090 H     1 <1>   0.1500 
 32 H       -7.1050     1.7230    -1.5820 H     1 <1>   0.1500 
 33 H       -3.9680     0.5640     1.9580 H     1 <1>   0.0800 
 34 H       -2.5540     1.0520     1.0420 H     1 <1>   0.0800 
 35 H       -4.5920    -0.6130    -0.1490 H     1 <1>   0.4500 
 36 H       -3.4560    -1.4120     0.8080 H     1 <1>   0.4500 
 37 H       -3.0100    -0.5750    -0.5910 H     1 <1>   0.4500 
@<TRIPOS>BOND
  1   1   2  2   
  2   2   3  1   
  3   2   4  am  
  4   3   5  1   
  5   4   6  1   
  6   4  18  1   
  7   5   7  1   
  8   5   8  1   
  9   5   9  1   
 10   6  10  1   
 11   6  19  1   
 12   6  20  1   
 13   7  21  1   
 14   7  22  1   
 15   7  23  1   
 16   8  24  1   
 17   8  25  1   
 18   8  26  1   
 19   9  27  1   
 20   9  28  1   
 21   9  29  1   
 22  10  11  ar  
 23  10  12  ar  
 24  11  13  ar  
 25  11  30  1   
 26  12  14  ar  
 27  12  31  1   
 28  13  15  ar  
 29  13  16  1   
 30  14  15  ar  
 31  14  32  1   
 32  16  17  1   
 33  16  33  1   
 34  16  34  1   
 35  17  35  1   
 36  17  36  1   
 37  17  37  1   
@<TRIPOS>SUBSTRUCTURE
  1 ****   4 GROUP 4 **** **** 0

# MOE 2024.06 (io_trps.svl 2023.06)
