@<TRIPOS>MOLECULE
NONAME
53 57 1 0 0 
SMALL
USER_CHARGES


@<TRIPOS>ATOM
  1 O       -1.1090    -0.2750     1.1950 O.3   1 <1>  -0.3630 
  2 C       -1.8060    -1.3980     0.9430 C.ar  1 <1>   0.0830 
  3 C       -1.4480     0.1450     2.5140 C.3   1 <1>   0.4000 
  4 C       -1.8390    -2.2110    -0.1900 C.ar  1 <1>   0.0830 
  5 C       -2.5750    -1.7000     2.0300 C.ar  1 <1>   0.0830 
  6 O       -2.3990    -0.7980     2.9990 O.3   1 <1>  -0.3630 
  7 O       -1.1310    -2.0200    -1.3360 O.3   1 <1>  -0.3630 
  8 C       -2.6730    -3.3220    -0.1670 C.ar  1 <1>  -0.1500 
  9 C       -3.4110    -2.7980     2.0640 C.ar  1 <1>  -0.1500 
 10 C       -0.1840    -0.9790    -1.4380 C.3   1 <1>   0.0400 
 11 C       -3.4650    -3.6160     0.9420 C.ar  1 <1>  -0.1430 
 12 C       -4.4010    -4.8080     0.9100 C.3   1 <1>   0.4870 
 13 N       -5.5070    -4.4860    -0.0300 N.4   1 <1>  -0.9590 
 14 C       -6.3180    -3.3180     0.4660 C.3   1 <1>   0.3430 
 15 C       -6.3720    -5.6650    -0.3120 C.3   1 <1>   0.3430 
 16 C       -7.3650    -2.8730    -0.5660 C.3   1 <1>   0.1430 
 17 C       -7.4070    -5.2970    -1.3810 C.3   1 <1>  -0.1600 
 18 C       -8.2070    -1.7870     0.0570 C.ar  1 <1>   0.1670 
 19 C       -8.2470    -4.0690    -0.9820 C.3   1 <1>  -0.1600 
 20 C       -6.7370    -2.1510    -1.7900 C.3   1 <1>  -0.1600 
 21 N       -8.7370    -1.8550     1.2560 N.ar  1 <1>  -0.6200 
 22 C       -8.3400    -0.7110    -0.7650 C.ar  1 <1>  -0.1430 
 23 C       -7.6100    -0.9110    -2.0690 C.3   1 <1>  -0.0170 
 24 C       -9.4350    -0.7790     1.5990 C.ar  1 <1>   0.4770 
 25 C       -9.0800     0.3510    -0.3060 C.ar  1 <1>   0.1600 
 26 N       -9.6350     0.3220     0.8880 N.ar  1 <1>  -0.6200 
 27 C      -10.0720    -0.8060     2.9680 C.3   1 <1>  -0.0970 
 28 H       -1.8930     1.1230     2.4810 H     1 <1>   0.0800 
 29 H       -0.5710     0.1260     3.1370 H     1 <1>   0.0800 
 30 H       -2.6830    -3.9500    -1.0410 H     1 <1>   0.1500 
 31 H       -3.9940    -2.9830     2.9500 H     1 <1>   0.1500 
 32 H        0.2850    -1.0430    -2.4040 H     1 <1>   0.0800 
 33 H        0.5540    -1.0990    -0.6650 H     1 <1>   0.0800 
 34 H       -0.6890    -0.0350    -1.3390 H     1 <1>   0.0800 
 35 H       -4.7900    -5.0040     1.8960 H     1 <1>   0.0800 
 36 H       -3.8610    -5.6770     0.5710 H     1 <1>   0.0800 
 37 H       -5.0630    -4.1880    -0.9080 H     1 <1>   0.4500 
 38 H       -5.6770    -2.4810     0.6880 H     1 <1>   0.0800 
 39 H       -6.8290    -3.5920     1.3750 H     1 <1>   0.0800 
 40 H       -6.8810    -5.9680     0.5890 H     1 <1>   0.0800 
 41 H       -5.7740    -6.4920    -0.6610 H     1 <1>   0.0800 
 42 H       -8.0650    -6.1370    -1.5290 H     1 <1>   0.0800 
 43 H       -6.9070    -5.1210    -2.3170 H     1 <1>   0.0800 
 44 H       -8.8980    -3.7850    -1.7920 H     1 <1>   0.0800 
 45 H       -8.8770    -4.3380    -0.1500 H     1 <1>   0.0800 
 46 H       -6.6690    -2.7770    -2.6620 H     1 <1>   0.0800 
 47 H       -5.7470    -1.8060    -1.5400 H     1 <1>   0.0800 
 48 H       -8.3210    -1.1110    -2.8530 H     1 <1>   0.0800 
 49 H       -7.0140    -0.0530    -2.3280 H     1 <1>   0.0800 
 50 H       -9.2190     1.2290    -0.9140 H     1 <1>   0.1500 
 51 H      -10.3150    -1.8140     3.2450 H     1 <1>   0.0800 
 52 H      -10.9720    -0.2200     2.9660 H     1 <1>   0.0800 
 53 H       -9.3880    -0.3950     3.6860 H     1 <1>   0.0800 
@<TRIPOS>BOND
  1   1   2  1   
  2   1   3  1   
  3   2   4  ar  
  4   2   5  ar  
  5   3   6  1   
  6   3  28  1   
  7   3  29  1   
  8   4   7  1   
  9   4   8  ar  
 10   5   6  1   
 11   5   9  ar  
 12   7  10  1   
 13   8  11  ar  
 14   8  30  1   
 15   9  11  ar  
 16   9  31  1   
 17  10  32  1   
 18  10  33  1   
 19  10  34  1   
 20  11  12  1   
 21  12  13  1   
 22  12  35  1   
 23  12  36  1   
 24  13  14  1   
 25  13  15  1   
 26  13  37  1   
 27  14  16  1   
 28  14  38  1   
 29  14  39  1   
 30  15  17  1   
 31  15  40  1   
 32  15  41  1   
 33  16  18  1   
 34  16  19  1   
 35  16  20  1   
 36  17  19  1   
 37  17  42  1   
 38  17  43  1   
 39  18  21  ar  
 40  18  22  ar  
 41  19  44  1   
 42  19  45  1   
 43  20  23  1   
 44  20  46  1   
 45  20  47  1   
 46  21  24  ar  
 47  22  23  1   
 48  22  25  ar  
 49  23  48  1   
 50  23  49  1   
 51  24  26  ar  
 52  24  27  1   
 53  25  26  ar  
 54  25  50  1   
 55  27  51  1   
 56  27  52  1   
 57  27  53  1   
@<TRIPOS>SUBSTRUCTURE
  1 ****  14 GROUP 4 **** **** 0

# MOE 2024.06 (io_trps.svl 2023.06)
