@<TRIPOS>MOLECULE
NONAME
47 49 1 0 0 
SMALL
USER_CHARGES


@<TRIPOS>ATOM
  1 O        0.9700     1.0650    -2.2310 O.2   1 <1>  -0.5700 
  2 C        0.8770     2.0890    -1.5890 C.2   1 <1>   0.6900 
  3 N        0.0410     2.2060    -0.4860 N.am  1 <1>  -0.4690 
  4 N        1.6110     3.1710    -1.9500 N.am  1 <1>  -0.4900 
  5 C       -0.0260     3.3890     0.2180 C.2   1 <1>  -0.0410 
  6 C       -0.7930     1.0420    -0.0890 C.3   1 <1>   0.0600 
  7 C        1.5670     4.3640    -1.2910 C.2   1 <1>   0.6160 
  8 C        0.7270     4.4720    -0.1360 C.2   1 <1>   0.0290 
  9 O        2.2500     5.2660    -1.7320 O.2   1 <1>  -0.5700 
 10 C        0.6820     5.7100     0.5800 C.2   1 <1>   0.6160 
 11 O       -0.3970     6.2570     0.7210 O.2   1 <1>  -0.5700 
 12 N        1.7940     6.2840     1.1650 N.am  1 <1>  -0.6600 
 13 C        3.0810     5.5600     1.4140 C.3   1 <1>   0.1400 
 14 C        1.8070     7.7120     1.5810 C.3   1 <1>   0.1400 
 15 C        4.2520     6.2740     0.7280 C.3   1 <1>   0.2000 
 16 C        2.9190     8.4420     0.8230 C.3   1 <1>  -0.1600 
 17 O        5.4280     5.6740     1.1580 O.3   1 <1>  -0.6800 
 18 C        4.2800     7.7810     1.0670 C.3   1 <1>   0.2200 
 19 N        5.2990     8.5010     0.2610 N.am  1 <1>  -0.7300 
 20 C        6.6360     8.5480     0.5300 C.2   1 <1>   0.5440 
 21 O        7.0520     7.8570     1.4400 O.2   1 <1>  -0.5700 
 22 C        7.5350     9.3650    -0.2680 C.ar  1 <1>   0.0860 
 23 C        8.8920     9.0530    -0.3640 C.ar  1 <1>  -0.1500 
 24 C        7.0890    10.4900    -0.9670 C.ar  1 <1>  -0.1500 
 25 C        9.7600     9.8140    -1.1260 C.ar  1 <1>  -0.1500 
 26 C        7.9510    11.2550    -1.7320 C.ar  1 <1>  -0.1500 
 27 C        9.2900    10.9170    -1.8140 C.ar  1 <1>  -0.1500 
 28 H        2.2040     3.0890    -2.7680 H     1 <1>   0.3700 
 29 H       -0.6950     3.4390     1.0630 H     1 <1>   0.1500 
 30 H       -1.3910     1.2790     0.7740 H     1 <1>   0.0800 
 31 H       -0.1570     0.2050     0.1410 H     1 <1>   0.0800 
 32 H       -1.4420     0.7700    -0.9030 H     1 <1>   0.0800 
 33 H        3.2580     5.5380     2.4760 H     1 <1>   0.0800 
 34 H        3.0290     4.5460     1.0610 H     1 <1>   0.0800 
 35 H        0.8610     8.1820     1.3670 H     1 <1>   0.0800 
 36 H        1.9750     7.7710     2.6430 H     1 <1>   0.0800 
 37 H        4.1840     6.1400    -0.3370 H     1 <1>   0.0800 
 38 H        2.9520     9.4640     1.1540 H     1 <1>   0.0800 
 39 H        2.6810     8.4260    -0.2260 H     1 <1>   0.0800 
 40 H        6.1370     6.3690     1.2210 H     1 <1>   0.4000 
 41 H        4.5210     7.8850     2.1120 H     1 <1>   0.0800 
 42 H        4.9650     8.8650    -0.6320 H     1 <1>   0.3700 
 43 H        9.2690     8.1970     0.1700 H     1 <1>   0.1500 
 44 H        6.0560    10.7790    -0.9080 H     1 <1>   0.1500 
 45 H       10.8020     9.5480    -1.1830 H     1 <1>   0.1500 
 46 H        7.5840    12.1170    -2.2630 H     1 <1>   0.1500 
 47 H        9.9630    11.5110    -2.4090 H     1 <1>   0.1500 
@<TRIPOS>BOND
  1   1   2  2   
  2   2   3  am  
  3   2   4  am  
  4   3   5  1   
  5   3   6  1   
  6   4   7  am  
  7   4  28  1   
  8   5   8  2   
  9   5  29  1   
 10   6  30  1   
 11   6  31  1   
 12   6  32  1   
 13   7   8  1   
 14   7   9  2   
 15   8  10  1   
 16  10  11  2   
 17  10  12  am  
 18  12  13  1   
 19  12  14  1   
 20  13  15  1   
 21  13  33  1   
 22  13  34  1   
 23  14  16  1   
 24  14  35  1   
 25  14  36  1   
 26  15  17  1   
 27  15  18  1   
 28  15  37  1   
 29  16  18  1   
 30  16  38  1   
 31  16  39  1   
 32  17  40  1   
 33  18  19  1   
 34  18  41  1   
 35  19  20  am  
 36  19  42  1   
 37  20  21  2   
 38  20  22  1   
 39  22  23  ar  
 40  22  24  ar  
 41  23  25  ar  
 42  23  43  1   
 43  24  26  ar  
 44  24  44  1   
 45  25  27  ar  
 46  25  45  1   
 47  26  27  ar  
 48  26  46  1   
 49  27  47  1   
@<TRIPOS>SUBSTRUCTURE
  1 ****  15 GROUP 4 **** **** 0

# MOE 2024.06 (io_trps.svl 2023.06)
