@<TRIPOS>MOLECULE
NONAME
52 54 1 0 0 
SMALL
USER_CHARGES


@<TRIPOS>ATOM
  1 O       -0.3820     0.7980     1.4810 O.2   1 <1>  -0.5700 
  2 C       -1.3010     1.0110     0.7230 C.2   1 <1>   0.5690 
  3 N       -2.3240     0.1100     0.5640 N.am  1 <1>  -0.6600 
  4 C       -1.3030     2.3080    -0.0680 C.3   1 <1>  -0.0990 
  5 C       -3.4250     0.2910    -0.4310 C.3   1 <1>   0.1400 
  6 C       -2.3720    -1.1230     1.4080 C.3   1 <1>   0.1400 
  7 C       -0.2400     3.2930     0.4140 C.3   1 <1>   0.1200 
  8 C       -4.0750    -1.0510    -0.7640 C.3   1 <1>  -0.1600 
  9 C       -3.8180    -1.5030     1.7360 C.3   1 <1>  -0.1600 
 10 O       -0.3450     4.4460    -0.3580 O.3   1 <1>  -0.5600 
 11 C       -4.7140    -1.6750     0.4900 C.3   1 <1>   0.4240 
 12 C        0.5790     5.4290    -0.0210 C.3   1 <1>   0.0400 
 13 O       -5.8740    -0.9280     0.7770 O.3   1 <1>  -0.5600 
 14 C       -5.0360    -3.1680     0.2600 C.ar  1 <1>  -0.1440 
 15 C       -7.0550    -1.2690     0.1180 C.3   1 <1>   0.1200 
 16 C       -6.3400    -3.6430     0.2890 C.ar  1 <1>  -0.1440 
 17 C       -4.0130    -4.0760     0.0180 C.ar  1 <1>  -0.1500 
 18 C       -7.4750    -2.6720     0.5430 C.3   1 <1>  -0.0170 
 19 C       -6.6060    -4.9880     0.0940 C.ar  1 <1>  -0.1500 
 20 C       -4.2590    -5.4220    -0.1920 C.ar  1 <1>   0.0820 
 21 C       -5.5790    -5.8980    -0.1410 C.ar  1 <1>   0.0820 
 22 O       -3.1410    -6.1680    -0.4320 O.3   1 <1>  -0.3620 
 23 O       -5.8380    -7.2300    -0.3030 O.3   1 <1>  -0.3620 
 24 C       -3.1890    -7.3640    -1.1770 C.3   1 <1>   0.0400 
 25 C       -7.1010    -7.7890    -0.0140 C.3   1 <1>   0.0400 
 26 H       -2.2660     2.7730     0.0290 H     1 <1>   0.0800 
 27 H       -1.1180     2.0790    -1.1000 H     1 <1>   0.0800 
 28 H       -3.0350     0.7240    -1.3360 H     1 <1>   0.0800 
 29 H       -4.1640     0.9600    -0.0210 H     1 <1>   0.0800 
 30 H       -1.8350    -0.9610     2.3270 H     1 <1>   0.0800 
 31 H       -1.8850    -1.9240     0.8810 H     1 <1>   0.0800 
 32 H        0.7450     2.8770     0.2900 H     1 <1>   0.0800 
 33 H       -0.4030     3.5470     1.4480 H     1 <1>   0.0800 
 34 H       -3.3170    -1.7000    -1.1620 H     1 <1>   0.0800 
 35 H       -4.8090    -0.9240    -1.5350 H     1 <1>   0.0800 
 36 H       -4.2170    -0.7320     2.3720 H     1 <1>   0.0800 
 37 H       -3.8150    -2.4120     2.3100 H     1 <1>   0.0800 
 38 H        0.4200     6.2740    -0.6670 H     1 <1>   0.0800 
 39 H        1.5740     5.0440    -0.1650 H     1 <1>   0.0800 
 40 H        0.4300     5.7210     1.0040 H     1 <1>   0.0800 
 41 H       -6.8990    -1.2190    -0.9450 H     1 <1>   0.0800 
 42 H       -7.8060    -0.5510     0.3970 H     1 <1>   0.0800 
 43 H       -2.9910    -3.7480    -0.0140 H     1 <1>   0.1500 
 44 H       -8.3480    -2.9630    -0.0130 H     1 <1>   0.0800 
 45 H       -7.7240    -2.6690     1.5890 H     1 <1>   0.0800 
 46 H       -7.6280    -5.3100     0.1290 H     1 <1>   0.1500 
 47 H       -2.1910    -7.6000    -1.4960 H     1 <1>   0.0800 
 48 H       -3.8260    -7.2200    -2.0320 H     1 <1>   0.0800 
 49 H       -3.5640    -8.1500    -0.5480 H     1 <1>   0.0800 
 50 H       -7.0230    -8.8560    -0.1130 H     1 <1>   0.0800 
 51 H       -7.8200    -7.4100    -0.7180 H     1 <1>   0.0800 
 52 H       -7.3730    -7.5340     0.9950 H     1 <1>   0.0800 
@<TRIPOS>BOND
  1   1   2  2   
  2   2   3  am  
  3   2   4  1   
  4   3   5  1   
  5   3   6  1   
  6   4   7  1   
  7   4  26  1   
  8   4  27  1   
  9   5   8  1   
 10   5  28  1   
 11   5  29  1   
 12   6   9  1   
 13   6  30  1   
 14   6  31  1   
 15   7  10  1   
 16   7  32  1   
 17   7  33  1   
 18   8  11  1   
 19   8  34  1   
 20   8  35  1   
 21   9  11  1   
 22   9  36  1   
 23   9  37  1   
 24  10  12  1   
 25  11  13  1   
 26  11  14  1   
 27  12  38  1   
 28  12  39  1   
 29  12  40  1   
 30  13  15  1   
 31  14  16  ar  
 32  14  17  ar  
 33  15  18  1   
 34  15  41  1   
 35  15  42  1   
 36  16  18  1   
 37  16  19  ar  
 38  17  20  ar  
 39  17  43  1   
 40  18  44  1   
 41  18  45  1   
 42  19  21  ar  
 43  19  46  1   
 44  20  21  ar  
 45  20  22  1   
 46  21  23  1   
 47  22  24  1   
 48  23  25  1   
 49  24  47  1   
 50  24  48  1   
 51  24  49  1   
 52  25  50  1   
 53  25  51  1   
 54  25  52  1   
@<TRIPOS>SUBSTRUCTURE
  1 ****  11 GROUP 4 **** **** 0

# MOE 2024.06 (io_trps.svl 2023.06)
