@<TRIPOS>MOLECULE
NONAME
28 28 1 0 0 
SMALL
USER_CHARGES


@<TRIPOS>ATOM
  1 O       -0.4940    -0.4530     1.6160 O.2   1 <1>  -0.5700 
  2 C       -1.3170    -0.6810     0.7460 C.2   1 <1>   0.6340 
  3 O       -1.1300    -1.7060    -0.1020 O.3   1 <1>  -0.4300 
  4 C       -2.5580     0.0700     0.6130 C.ar  1 <1>   0.3960 
  5 C        0.0200    -2.5040    -0.2550 C.3   1 <1>   0.2800 
  6 N       -3.6650    -0.4730     1.1640 N.ar  1 <1>  -0.6200 
  7 C       -2.5940     1.3150    -0.0360 C.ar  1 <1>  -0.1790 
  8 C        0.2520    -3.3430     1.0070 C.3   1 <1>  -0.2400 
  9 C       -0.2930    -3.4310    -1.4290 C.3   1 <1>  -0.2400 
 10 C        1.2290    -1.6300    -0.6100 C.3   1 <1>  -0.2400 
 11 C       -4.7810     0.2230     1.1020 C.ar  1 <1>   0.1600 
 12 C       -1.4220     1.8540    -0.6740 C.2   1 <1>   0.9790 
 13 C       -3.7860     2.0270    -0.0670 C.ar  1 <1>  -0.1500 
 14 C       -4.8960     1.4660     0.5120 C.ar  1 <1>  -0.1500 
 15 O       -1.1760     3.0680    -0.5930 O.co2 1 <1>  -0.9000 
 16 O       -0.6920     1.1360    -1.3730 O.co2 1 <1>  -0.9000 
 17 H       -0.6430    -3.8790     1.2650 H     1 <1>   0.0800 
 18 H        0.5410    -2.7200     1.8330 H     1 <1>   0.0800 
 19 H        1.0430    -4.0500     0.8380 H     1 <1>   0.0800 
 20 H       -1.1580    -4.0300    -1.2100 H     1 <1>   0.0800 
 21 H        0.5380    -4.0830    -1.6250 H     1 <1>   0.0800 
 22 H       -0.4850    -2.8480    -2.3120 H     1 <1>   0.0800 
 23 H        1.5150    -1.0100     0.2190 H     1 <1>   0.0800 
 24 H        0.9900    -0.9950    -1.4450 H     1 <1>   0.0800 
 25 H        2.0700    -2.2430    -0.8710 H     1 <1>   0.0800 
 26 H       -5.6550    -0.2170     1.5490 H     1 <1>   0.1500 
 27 H       -3.8170     2.9940    -0.5420 H     1 <1>   0.1500 
 28 H       -5.8380     1.9830     0.5060 H     1 <1>   0.1500 
@<TRIPOS>BOND
  1   1   2  2   
  2   2   3  1   
  3   2   4  1   
  4   3   5  1   
  5   4   6  ar  
  6   4   7  ar  
  7   5   8  1   
  8   5   9  1   
  9   5  10  1   
 10   6  11  ar  
 11   7  12  1   
 12   7  13  ar  
 13   8  17  1   
 14   8  18  1   
 15   8  19  1   
 16   9  20  1   
 17   9  21  1   
 18   9  22  1   
 19  10  23  1   
 20  10  24  1   
 21  10  25  1   
 22  11  14  ar  
 23  11  26  1   
 24  12  15  ar  
 25  12  16  ar  
 26  13  14  ar  
 27  13  27  1   
 28  14  28  1   
@<TRIPOS>SUBSTRUCTURE
  1 ****   2 GROUP 4 **** **** 0

# MOE 2024.06 (io_trps.svl 2023.06)
