@<TRIPOS>MOLECULE
NONAME
55 58 1 0 0 
SMALL
USER_CHARGES


@<TRIPOS>ATOM
  1 O        5.3480     0.9240     2.4950 O.co2 1 <1>  -0.9000 
  2 C        4.9570     0.1600     1.6030 C.2   1 <1>   0.9060 
  3 O        5.7930    -0.4650     0.9410 O.co2 1 <1>  -0.9000 
  4 C        3.4830     0.1690     1.1640 C.3   1 <1>  -0.1060 
  5 C        3.4010    -0.0210    -0.3670 C.3   1 <1>   0.4230 
  6 C        2.8370     1.5440     1.4660 C.3   1 <1>  -0.1600 
  7 C        2.6910    -0.9520     1.8720 C.3   1 <1>  -0.1600 
  8 N        3.9510    -1.3740    -0.7400 N.4   1 <1>  -0.9590 
  9 C        4.0310     1.1830    -1.1430 C.3   1 <1>   0.2090 
 10 C        3.6030     2.7300     0.8450 C.3   1 <1>   0.2090 
 11 C        3.1840    -2.3360     1.4240 C.3   1 <1>  -0.1600 
 12 C        3.1970    -2.4880    -0.0990 C.3   1 <1>   0.3430 
 13 C        4.1450    -1.6260    -2.1980 C.3   1 <1>   0.2630 
 14 N        4.5150     2.3210    -0.2800 N.pl3 1 <1>  -0.8380 
 15 C        5.8200     2.6770    -0.3270 C.ar  1 <1>   0.4610 
 16 N        6.5780     2.5150     0.7620 N.ar  1 <1>  -0.1790 
 17 C        6.4640     3.1850    -1.4960 C.ar  1 <1>  -0.1440 
 18 C        7.9250     2.7720     0.8380 C.ar  1 <1>   0.3610 
 19 C        7.7940     3.4890    -1.4720 C.ar  1 <1>  -0.1500 
 20 C        5.6580     3.4210    -2.7650 C.3   1 <1>   0.2640 
 21 C        8.5680     3.2920    -0.2960 C.ar  1 <1>   0.0000 
 22 C        8.6520     2.5210     2.0040 C.ar  1 <1>  -0.1500 
 23 O        5.7090     2.2710    -3.5370 O.3   1 <1>  -0.6800 
 24 C        9.9370     3.5780    -0.2120 C.ar  1 <1>  -0.1500 
 25 C        9.9970     2.8040     2.0660 C.ar  1 <1>  -0.1440 
 26 C       10.6360     3.3400     0.9470 C.ar  1 <1>  -0.1500 
 27 C       10.8000     2.5370     3.3270 C.3   1 <1>  -0.0970 
 28 H        2.3560    -0.0230    -0.6250 H     1 <1>   0.0800 
 29 H        2.7890     1.6970     2.5310 H     1 <1>   0.0800 
 30 H        1.8230     1.5630     1.1060 H     1 <1>   0.0800 
 31 H        2.8080    -0.8580     2.9400 H     1 <1>   0.0800 
 32 H        1.6410    -0.8600     1.6480 H     1 <1>   0.0800 
 33 H        4.8940    -1.3490    -0.2650 H     1 <1>   0.4500 
 34 H        3.3060     1.5650    -1.8400 H     1 <1>   0.0800 
 35 H        4.8710     0.8200    -1.7030 H     1 <1>   0.0800 
 36 H        4.1780     3.2100     1.6200 H     1 <1>   0.0800 
 37 H        2.8970     3.4570     0.4800 H     1 <1>   0.0800 
 38 H        2.5500    -3.0950     1.8480 H     1 <1>   0.0800 
 39 H        4.1780    -2.5110     1.8010 H     1 <1>   0.0800 
 40 H        2.1840    -2.4940    -0.4650 H     1 <1>   0.0800 
 41 H        3.6540    -3.4310    -0.3530 H     1 <1>   0.0800 
 42 H        3.2030    -1.5680    -2.7180 H     1 <1>   0.0800 
 43 H        4.5640    -2.6080    -2.3480 H     1 <1>   0.0800 
 44 H        4.8250    -0.9060    -2.6220 H     1 <1>   0.0800 
 45 H        6.1620     1.9830     1.5510 H     1 <1>   0.4570 
 46 H        8.3000     3.8860    -2.3370 H     1 <1>   0.1500 
 47 H        6.0710     4.2310    -3.3430 H     1 <1>   0.0800 
 48 H        4.6280     3.6450    -2.5470 H     1 <1>   0.0800 
 49 H        8.1400     2.0980     2.8520 H     1 <1>   0.1500 
 50 H        6.6260     2.1170    -3.8410 H     1 <1>   0.4000 
 51 H       10.4430     3.9850    -1.0700 H     1 <1>   0.1500 
 52 H       11.6890     3.5630     0.9980 H     1 <1>   0.1500 
 53 H       11.6100     1.8630     3.1110 H     1 <1>   0.0800 
 54 H       10.1840     2.0930     4.0890 H     1 <1>   0.0800 
 55 H       11.2060     3.4570     3.7080 H     1 <1>   0.0800 
@<TRIPOS>BOND
  1   1   2  ar  
  2   2   3  ar  
  3   2   4  1   
  4   4   5  1   
  5   4   6  1   
  6   4   7  1   
  7   5   8  1   
  8   5   9  1   
  9   5  28  1   
 10   6  10  1   
 11   6  29  1   
 12   6  30  1   
 13   7  11  1   
 14   7  31  1   
 15   7  32  1   
 16   8  12  1   
 17   8  13  1   
 18   8  33  1   
 19   9  14  1   
 20   9  34  1   
 21   9  35  1   
 22  10  14  1   
 23  10  36  1   
 24  10  37  1   
 25  11  12  1   
 26  11  38  1   
 27  11  39  1   
 28  12  40  1   
 29  12  41  1   
 30  13  42  1   
 31  13  43  1   
 32  13  44  1   
 33  14  15  1   
 34  15  16  ar  
 35  15  17  ar  
 36  16  18  ar  
 37  16  45  1   
 38  17  19  ar  
 39  17  20  1   
 40  18  21  ar  
 41  18  22  ar  
 42  19  21  ar  
 43  19  46  1   
 44  20  23  1   
 45  20  47  1   
 46  20  48  1   
 47  21  24  ar  
 48  22  25  ar  
 49  22  49  1   
 50  23  50  1   
 51  24  26  ar  
 52  24  51  1   
 53  25  26  ar  
 54  25  27  1   
 55  26  52  1   
 56  27  53  1   
 57  27  54  1   
 58  27  55  1   
@<TRIPOS>SUBSTRUCTURE
  1 ****  16 GROUP 4 **** **** 0

# MOE 2024.06 (io_trps.svl 2023.06)
