@<TRIPOS>MOLECULE
NONAME
42 43 1 0 0 
SMALL
USER_CHARGES


@<TRIPOS>ATOM
  1 O       -0.6210     0.8350     1.9470 O.2   1 <1>  -0.5700 
  2 C       -1.2670     0.0900     1.2300 C.2   1 <1>   0.5440 
  3 N       -0.7880    -1.1870     0.9850 N.am  1 <1>  -0.6600 
  4 C       -2.5240     0.5380     0.6880 C.ar  1 <1>   0.0860 
  5 C       -1.4290    -2.1420     0.0390 C.3   1 <1>   0.0600 
  6 C        0.4470    -1.7050     1.6390 C.3   1 <1>   0.0600 
  7 C       -2.5940     1.5010    -0.3380 C.ar  1 <1>   0.4100 
  8 C       -3.7160     0.0330     1.1900 C.ar  1 <1>  -0.1500 
  9 N       -3.7400     1.9600    -0.8370 N.ar  1 <1>  -0.6200 
 10 N       -1.4680     2.0620    -0.9070 N.pl3 1 <1>  -0.8380 
 11 C       -4.8960     0.5030     0.6630 C.ar  1 <1>  -0.1500 
 12 C       -4.8500     1.4580    -0.3370 C.ar  1 <1>   0.1600 
 13 C       -1.1960     3.5130    -0.7090 C.3   1 <1>   0.2090 
 14 C       -0.4400     1.2570    -1.6070 C.3   1 <1>   0.2090 
 15 C       -0.4900     3.7290     0.6270 C.3   1 <1>   0.0960 
 16 C       -0.5680     1.4830    -3.1090 C.3   1 <1>  -0.2400 
 17 N       -0.2340     5.1630     0.8260 N.pl3 1 <1>   0.3140 
 18 N        0.6010     5.8610     0.0310 N.2   1 <1>  -0.7070 
 19 C       -0.7750     5.9530     1.7750 C.2   1 <1>  -0.3020 
 20 C        0.5700     7.0720     0.4970 C.2   1 <1>   0.1390 
 21 C       -0.2760     7.1930     1.5920 C.2   1 <1>  -0.1500 
 22 H       -2.1600    -1.6510    -0.5790 H     1 <1>   0.0800 
 23 H       -1.9110    -2.9300     0.5920 H     1 <1>   0.0800 
 24 H       -0.6810    -2.5730    -0.6040 H     1 <1>   0.0800 
 25 H        0.7850    -1.0360     2.4120 H     1 <1>   0.0800 
 26 H        1.2290    -1.8070     0.9080 H     1 <1>   0.0800 
 27 H        0.2490    -2.6640     2.0840 H     1 <1>   0.0800 
 28 H       -3.7060    -0.7020     1.9760 H     1 <1>   0.1500 
 29 H       -5.8440     0.1420     1.0210 H     1 <1>   0.1500 
 30 H       -5.7770     1.8270    -0.7440 H     1 <1>   0.1500 
 31 H       -2.1270     4.0540    -0.7160 H     1 <1>   0.0800 
 32 H       -0.5820     3.8840    -1.5110 H     1 <1>   0.0800 
 33 H       -0.5870     0.2130    -1.3980 H     1 <1>   0.0800 
 34 H        0.5410     1.5370    -1.2630 H     1 <1>   0.0800 
 35 H        0.4490     3.2100     0.6380 H     1 <1>   0.0800 
 36 H       -1.1050     3.3700     1.4300 H     1 <1>   0.0800 
 37 H       -1.5630     1.2290    -3.4320 H     1 <1>   0.0800 
 38 H        0.1340     0.8600    -3.6310 H     1 <1>   0.0800 
 39 H       -0.3660     2.5080    -3.3570 H     1 <1>   0.0800 
 40 H       -1.4700     5.5930     2.5120 H     1 <1>   0.1500 
 41 H        1.1400     7.8830     0.0750 H     1 <1>   0.1500 
 42 H       -0.4700     8.0920     2.1490 H     1 <1>   0.1500 
@<TRIPOS>BOND
  1   1   2  2   
  2   2   3  am  
  3   2   4  1   
  4   3   5  1   
  5   3   6  1   
  6   4   7  ar  
  7   4   8  ar  
  8   5  22  1   
  9   5  23  1   
 10   5  24  1   
 11   6  25  1   
 12   6  26  1   
 13   6  27  1   
 14   7   9  ar  
 15   7  10  1   
 16   8  11  ar  
 17   8  28  1   
 18   9  12  ar  
 19  10  13  1   
 20  10  14  1   
 21  11  12  ar  
 22  11  29  1   
 23  12  30  1   
 24  13  15  1   
 25  13  31  1   
 26  13  32  1   
 27  14  16  1   
 28  14  33  1   
 29  14  34  1   
 30  15  17  1   
 31  15  35  1   
 32  15  36  1   
 33  16  37  1   
 34  16  38  1   
 35  16  39  1   
 36  17  18  1   
 37  17  19  1   
 38  18  20  2   
 39  19  21  2   
 40  19  40  1   
 41  20  21  1   
 42  20  41  1   
 43  21  42  1   
@<TRIPOS>SUBSTRUCTURE
  1 ****  10 GROUP 4 **** **** 0

# MOE 2024.06 (io_trps.svl 2023.06)
