@<TRIPOS>MOLECULE
NONAME
51 53 1 0 0 
SMALL
USER_CHARGES


@<TRIPOS>ATOM
  1 O       -5.3390     0.1550    -1.8740 O.2   1 <1>  -0.5700 
  2 C       -4.6070    -0.4340    -1.1280 C.2   1 <1>   0.5690 
  3 N       -3.9750     0.2230    -0.1400 N.am  1 <1>  -0.7300 
  4 C       -4.4230    -1.9190    -1.2780 C.3   1 <1>  -0.0190 
  5 C       -3.0350    -0.3790     0.8330 C.3   1 <1>   0.2200 
  6 C       -2.9560    -2.2840    -1.5970 C.3   1 <1>   0.1200 
  7 C       -5.0580    -2.6180    -0.0680 C.3   1 <1>   0.3430 
  8 C       -1.8280    -1.0120     0.0970 C.3   1 <1>   0.1200 
  9 C       -3.7830    -1.3690     1.7710 C.3   1 <1>   0.3430 
 10 O       -2.1220    -2.2650    -0.4680 O.3   1 <1>  -0.5600 
 11 N       -4.1660    -2.6840     1.1450 N.4   1 <1>  -0.9590 
 12 C       -4.6340    -3.6800     2.1460 C.3   1 <1>   0.4860 
 13 C       -4.6280    -5.0430     1.4900 C.ar  1 <1>  -0.1440 
 14 C       -5.8070    -5.5540     0.9730 C.ar  1 <1>  -0.1500 
 15 C       -3.4570    -5.7740     1.3640 C.ar  1 <1>  -0.1500 
 16 C       -5.8240    -6.7600     0.2920 C.ar  1 <1>  -0.1440 
 17 C       -3.4680    -6.9950     0.7150 C.ar  1 <1>  -0.1500 
 18 C       -4.6490    -7.4960     0.1720 C.ar  1 <1>   0.0820 
 19 C       -7.1260    -7.2650    -0.3220 C.3   1 <1>   0.2640 
 20 O       -4.7150    -8.6870    -0.4770 O.3   1 <1>  -0.3630 
 21 O       -7.8800    -6.1690    -0.7630 O.3   1 <1>  -0.5600 
 22 C       -3.5900    -9.5290    -0.6080 C.3   1 <1>   0.0400 
 23 C       -9.0920    -6.4920    -1.3640 C.3   1 <1>   0.1200 
 24 C      -10.1600    -6.6650    -0.2840 C.3   1 <1>  -0.2400 
 25 H       -4.1030     1.2410    -0.1260 H     1 <1>   0.3700 
 26 H       -5.0050    -2.2010    -2.1370 H     1 <1>   0.0800 
 27 H       -2.6580     0.4260     1.4400 H     1 <1>   0.0800 
 28 H       -2.5480    -1.6190    -2.3410 H     1 <1>   0.0800 
 29 H       -2.9180    -3.2850    -1.9920 H     1 <1>   0.0800 
 30 H       -5.2970    -3.6200    -0.3800 H     1 <1>   0.0800 
 31 H       -5.9850    -2.1280     0.1820 H     1 <1>   0.0800 
 32 H       -1.0300    -1.1740     0.8010 H     1 <1>   0.0800 
 33 H       -1.4580    -0.3560    -0.6740 H     1 <1>   0.0800 
 34 H       -4.6630    -0.8790     2.1550 H     1 <1>   0.0800 
 35 H       -3.1350    -1.5690     2.6080 H     1 <1>   0.0800 
 36 H       -3.2790    -3.0580     0.7520 H     1 <1>   0.4500 
 37 H       -3.9730    -3.6940     2.9980 H     1 <1>   0.0800 
 38 H       -5.6280    -3.4350     2.4830 H     1 <1>   0.0800 
 39 H       -6.7290    -5.0060     1.0780 H     1 <1>   0.1500 
 40 H       -2.5270    -5.4060     1.7640 H     1 <1>   0.1500 
 41 H       -2.5470    -7.5420     0.6360 H     1 <1>   0.1500 
 42 H       -7.6890    -7.8110     0.4140 H     1 <1>   0.0800 
 43 H       -6.9280    -7.8990    -1.1690 H     1 <1>   0.0800 
 44 H       -3.8950   -10.4140    -1.1370 H     1 <1>   0.0800 
 45 H       -3.2360    -9.7950     0.3730 H     1 <1>   0.0800 
 46 H       -2.8290    -9.0150    -1.1680 H     1 <1>   0.0800 
 47 H       -9.3570    -5.6720    -2.0080 H     1 <1>   0.0800 
 48 H       -8.9800    -7.3800    -1.9640 H     1 <1>   0.0800 
 49 H      -10.2160    -5.7800     0.3240 H     1 <1>   0.0800 
 50 H       -9.9490    -7.5160     0.3360 H     1 <1>   0.0800 
 51 H      -11.1160    -6.8190    -0.7490 H     1 <1>   0.0800 
@<TRIPOS>BOND
  1   1   2  2   
  2   2   3  am  
  3   2   4  1   
  4   3   5  1   
  5   3  25  1   
  6   4   6  1   
  7   4   7  1   
  8   4  26  1   
  9   5   8  1   
 10   5   9  1   
 11   5  27  1   
 12   6  10  1   
 13   6  28  1   
 14   6  29  1   
 15   7  11  1   
 16   7  30  1   
 17   7  31  1   
 18   8  10  1   
 19   8  32  1   
 20   8  33  1   
 21   9  11  1   
 22   9  34  1   
 23   9  35  1   
 24  11  12  1   
 25  11  36  1   
 26  12  13  1   
 27  12  37  1   
 28  12  38  1   
 29  13  14  ar  
 30  13  15  ar  
 31  14  16  ar  
 32  14  39  1   
 33  15  17  ar  
 34  15  40  1   
 35  16  18  ar  
 36  16  19  1   
 37  17  18  ar  
 38  17  41  1   
 39  18  20  1   
 40  19  21  1   
 41  19  42  1   
 42  19  43  1   
 43  20  22  1   
 44  21  23  1   
 45  22  44  1   
 46  22  45  1   
 47  22  46  1   
 48  23  24  1   
 49  23  47  1   
 50  23  48  1   
 51  24  49  1   
 52  24  50  1   
 53  24  51  1   
@<TRIPOS>SUBSTRUCTURE
  1 ****   7 GROUP 4 **** **** 0

# MOE 2024.06 (io_trps.svl 2023.06)
