@<TRIPOS>MOLECULE
NONAME
70 73 1 0 0 
SMALL
USER_CHARGES


@<TRIPOS>ATOM
  1 O        1.9700     0.0060    -0.2290 O.3   1 <1>  -0.5600 
  2 C        2.7400    -1.1640    -0.0220 C.3   1 <1>   0.4240 
  3 C        0.9370    -0.0640    -1.1710 C.3   1 <1>   0.1200 
  4 C        1.9100    -2.4530    -0.1630 C.ar  1 <1>  -0.1440 
  5 C        3.2880    -1.0350     1.4110 C.3   1 <1>  -0.1600 
  6 C        3.9130    -1.1160    -1.0140 C.3   1 <1>  -0.1600 
  7 C       -0.1070    -1.0690    -0.6950 C.3   1 <1>  -0.0160 
  8 C        0.5590    -2.4100    -0.4690 C.ar  1 <1>  -0.1440 
  9 C        2.5020    -3.6970     0.0130 C.ar  1 <1>  -0.1500 
 10 C        4.4490    -0.0460     1.5470 C.3   1 <1>   0.3430 
 11 C        4.7570     0.1610    -0.8880 C.3   1 <1>   0.3430 
 12 C       -0.1780    -3.5780    -0.5770 C.ar  1 <1>  -0.1500 
 13 C        1.7880    -4.8780    -0.0970 C.ar  1 <1>   0.0830 
 14 N        4.4510     0.8850     0.3850 N.4   1 <1>  -0.9590 
 15 C        0.4140    -4.8250    -0.3900 C.ar  1 <1>   0.0830 
 16 O        2.5480    -5.9950     0.1060 O.3   1 <1>  -0.3630 
 17 C        5.2300     2.1390     0.6000 C.3   1 <1>   0.3430 
 18 O       -0.3200    -5.9730    -0.4860 O.3   1 <1>  -0.3620 
 19 C        2.0720    -7.3060    -0.0950 C.3   1 <1>   0.0400 
 20 C        4.3020     3.3650     0.8200 C.3   1 <1>   0.0000 
 21 C       -1.7200    -5.9670    -0.6610 C.3   1 <1>   0.0400 
 22 C        5.1440     4.6220     1.1840 C.3   1 <1>   0.3430 
 23 C        3.4140     3.6140    -0.4230 C.3   1 <1>  -0.2400 
 24 C        3.3590     3.1080     2.0170 C.3   1 <1>  -0.2400 
 25 N        5.6230     5.4440     0.0240 N.4   1 <1>  -0.9590 
 26 C        6.8370     4.8960    -0.6850 C.3   1 <1>   0.3430 
 27 C        5.9080     6.8550     0.4870 C.3   1 <1>   0.3430 
 28 C        7.3530     5.8610    -1.7700 C.3   1 <1>   0.1200 
 29 C        6.4710     7.7320    -0.6470 C.3   1 <1>   0.1200 
 30 O        7.5900     7.1190    -1.2150 O.3   1 <1>  -0.5600 
 31 H        1.3440    -0.3600    -2.1230 H     1 <1>   0.0800 
 32 H        0.4980     0.9140    -1.2620 H     1 <1>   0.0800 
 33 H        3.6390    -1.9880     1.7610 H     1 <1>   0.0800 
 34 H        2.4830    -0.7540     2.0670 H     1 <1>   0.0800 
 35 H        3.5490    -1.2190    -2.0200 H     1 <1>   0.0800 
 36 H        4.5560    -1.9600    -0.8410 H     1 <1>   0.0800 
 37 H       -0.8780    -1.1570    -1.4400 H     1 <1>   0.0800 
 38 H       -0.5580    -0.7230     0.2190 H     1 <1>   0.0800 
 39 H        3.5480    -3.7830     0.2430 H     1 <1>   0.1500 
 40 H        5.3830    -0.5850     1.5790 H     1 <1>   0.0800 
 41 H        4.3410     0.5000     2.4710 H     1 <1>   0.0800 
 42 H        4.5320     0.8050    -1.7230 H     1 <1>   0.0800 
 43 H        5.8030    -0.0970    -0.9320 H     1 <1>   0.0800 
 44 H       -1.2210    -3.4950    -0.8100 H     1 <1>   0.1500 
 45 H        3.4460     1.1350     0.2790 H     1 <1>   0.4500 
 46 H        5.8550     2.3190    -0.2590 H     1 <1>   0.0800 
 47 H        5.8750     2.0150     1.4560 H     1 <1>   0.0800 
 48 H        2.8910    -7.9860     0.0480 H     1 <1>   0.0800 
 49 H        1.6950    -7.3910    -1.0990 H     1 <1>   0.0800 
 50 H        1.2990    -7.5100     0.6240 H     1 <1>   0.0800 
 51 H       -2.0610    -6.9870    -0.6510 H     1 <1>   0.0800 
 52 H       -1.9520    -5.5160    -1.6100 H     1 <1>   0.0800 
 53 H       -2.1720    -5.4240     0.1490 H     1 <1>   0.0800 
 54 H        5.9780     4.3420     1.8070 H     1 <1>   0.0800 
 55 H        4.5110     5.2550     1.7870 H     1 <1>   0.0800 
 56 H        4.0010     3.7050    -1.3200 H     1 <1>   0.0800 
 57 H        2.8300     4.5110    -0.3000 H     1 <1>   0.0800 
 58 H        2.7190     2.8050    -0.5730 H     1 <1>   0.0800 
 59 H        3.9160     2.8800     2.9100 H     1 <1>   0.0800 
 60 H        2.6800     2.2930     1.8270 H     1 <1>   0.0800 
 61 H        2.7530     3.9760     2.2180 H     1 <1>   0.0800 
 62 H        4.8580     5.5230    -0.6620 H     1 <1>   0.4500 
 63 H        6.6050     3.9510    -1.1450 H     1 <1>   0.0800 
 64 H        7.6340     4.7380     0.0250 H     1 <1>   0.0800 
 65 H        6.6320     6.8380     1.2860 H     1 <1>   0.0800 
 66 H        5.0080     7.3090     0.8680 H     1 <1>   0.0800 
 67 H        6.6470     5.9640    -2.5770 H     1 <1>   0.0800 
 68 H        8.2850     5.5040    -2.1750 H     1 <1>   0.0800 
 69 H        6.7850     8.6860    -0.2580 H     1 <1>   0.0800 
 70 H        5.7370     7.9020    -1.4170 H     1 <1>   0.0800 
@<TRIPOS>BOND
  1   1   2  1   
  2   1   3  1   
  3   2   4  1   
  4   2   5  1   
  5   2   6  1   
  6   3   7  1   
  7   3  31  1   
  8   3  32  1   
  9   4   8  ar  
 10   4   9  ar  
 11   5  10  1   
 12   5  33  1   
 13   5  34  1   
 14   6  11  1   
 15   6  35  1   
 16   6  36  1   
 17   7   8  1   
 18   7  37  1   
 19   7  38  1   
 20   8  12  ar  
 21   9  13  ar  
 22   9  39  1   
 23  10  14  1   
 24  10  40  1   
 25  10  41  1   
 26  11  14  1   
 27  11  42  1   
 28  11  43  1   
 29  12  15  ar  
 30  12  44  1   
 31  13  15  ar  
 32  13  16  1   
 33  14  17  1   
 34  14  45  1   
 35  15  18  1   
 36  16  19  1   
 37  17  20  1   
 38  17  46  1   
 39  17  47  1   
 40  18  21  1   
 41  19  48  1   
 42  19  49  1   
 43  19  50  1   
 44  20  22  1   
 45  20  23  1   
 46  20  24  1   
 47  21  51  1   
 48  21  52  1   
 49  21  53  1   
 50  22  25  1   
 51  22  54  1   
 52  22  55  1   
 53  23  56  1   
 54  23  57  1   
 55  23  58  1   
 56  24  59  1   
 57  24  60  1   
 58  24  61  1   
 59  25  26  1   
 60  25  27  1   
 61  25  62  1   
 62  26  28  1   
 63  26  63  1   
 64  26  64  1   
 65  27  29  1   
 66  27  65  1   
 67  27  66  1   
 68  28  30  1   
 69  28  67  1   
 70  28  68  1   
 71  29  30  1   
 72  29  69  1   
 73  29  70  1   
@<TRIPOS>SUBSTRUCTURE
  1 ****   1 GROUP 4 **** **** 0

# MOE 2024.06 (io_trps.svl 2023.06)
