@<TRIPOS>MOLECULE
NONAME
44 46 1 0 0 
SMALL
USER_CHARGES


@<TRIPOS>ATOM
  1 F       -1.0090    -0.5200    -1.9600 F     1 <1>  -0.3400 
  2 C       -1.2520     0.3050    -0.9480 C.3   1 <1>   1.1640 
  3 F       -0.1750     0.2760    -0.1760 F     1 <1>  -0.3400 
  4 F       -1.3150     1.5240    -1.4680 F     1 <1>  -0.3400 
  5 C       -2.5230    -0.0980    -0.1770 C.ar  1 <1>  -0.1440 
  6 C       -2.8020    -1.4400     0.0680 C.ar  1 <1>  -0.1500 
  7 C       -3.4120     0.8610     0.2980 C.ar  1 <1>  -0.1500 
  8 C       -3.9430    -1.8210     0.7600 C.ar  1 <1>  -0.1440 
  9 C       -4.5460     0.4880     0.9960 C.ar  1 <1>  -0.1500 
 10 C       -4.8110    -0.8480     1.2280 C.ar  1 <1>  -0.1500 
 11 C       -4.2430    -3.2880     1.0100 C.3   1 <1>   0.4870 
 12 N       -4.7180    -3.9040    -0.2600 N.4   1 <1>  -0.9590 
 13 C       -6.0740    -3.3770    -0.6280 C.3   1 <1>   0.3430 
 14 C       -4.8590    -5.3870    -0.1100 C.3   1 <1>   0.3430 
 15 C       -7.0740    -4.4250    -0.1310 C.3   1 <1>   0.2000 
 16 C       -6.3250    -5.7300    -0.3980 C.3   1 <1>  -0.0800 
 17 O       -7.2460    -4.2510     1.2410 O.3   1 <1>  -0.6800 
 18 C       -6.8140    -6.9720     0.3710 C.3   1 <1>  -0.0170 
 19 C       -5.8880    -8.1470     0.1060 C.ar  1 <1>  -0.1430 
 20 C       -5.8760    -8.8070    -1.1070 C.ar  1 <1>  -0.1500 
 21 C       -5.0050    -8.6110     1.0620 C.ar  1 <1>  -0.1500 
 22 C       -4.9920    -9.8540    -1.3080 C.ar  1 <1>   0.1600 
 23 C       -4.1620    -9.6680     0.7590 C.ar  1 <1>   0.1600 
 24 N       -4.1290   -10.2900    -0.4070 N.ar  1 <1>  -0.6200 
 25 H       -2.1110    -2.1900    -0.2850 H     1 <1>   0.1500 
 26 H       -3.2270     1.9110     0.1330 H     1 <1>   0.1500 
 27 H       -5.2210     1.2440     1.3620 H     1 <1>   0.1500 
 28 H       -5.6980    -1.1150     1.7800 H     1 <1>   0.1500 
 29 H       -4.9970    -3.3860     1.7750 H     1 <1>   0.0800 
 30 H       -3.3460    -3.7800     1.3490 H     1 <1>   0.0800 
 31 H       -4.0440    -3.6610    -0.9960 H     1 <1>   0.4500 
 32 H       -6.2750    -2.4100    -0.1960 H     1 <1>   0.0800 
 33 H       -6.1500    -3.3030    -1.7000 H     1 <1>   0.0800 
 34 H       -4.2060    -5.9170    -0.7850 H     1 <1>   0.0800 
 35 H       -4.6210    -5.6780     0.9010 H     1 <1>   0.0800 
 36 H       -8.0310    -4.3540    -0.6220 H     1 <1>   0.0800 
 37 H       -6.3980    -5.9430    -1.4510 H     1 <1>   0.0800 
 38 H       -8.0580    -4.7050     1.5550 H     1 <1>   0.4000 
 39 H       -7.8130    -7.2280     0.0600 H     1 <1>   0.0800 
 40 H       -6.8410    -6.7810     1.4300 H     1 <1>   0.0800 
 41 H       -6.5450    -8.5250    -1.9000 H     1 <1>   0.1500 
 42 H       -4.9600    -8.1720     2.0420 H     1 <1>   0.1500 
 43 H       -4.9950   -10.3600    -2.2600 H     1 <1>   0.1500 
 44 H       -3.4800   -10.0220     1.5140 H     1 <1>   0.1500 
@<TRIPOS>BOND
  1   1   2  1   
  2   2   3  1   
  3   2   4  1   
  4   2   5  1   
  5   5   6  ar  
  6   5   7  ar  
  7   6   8  ar  
  8   6  25  1   
  9   7   9  ar  
 10   7  26  1   
 11   8  10  ar  
 12   8  11  1   
 13   9  10  ar  
 14   9  27  1   
 15  10  28  1   
 16  11  12  1   
 17  11  29  1   
 18  11  30  1   
 19  12  13  1   
 20  12  14  1   
 21  12  31  1   
 22  13  15  1   
 23  13  32  1   
 24  13  33  1   
 25  14  16  1   
 26  14  34  1   
 27  14  35  1   
 28  15  16  1   
 29  15  17  1   
 30  15  36  1   
 31  16  18  1   
 32  16  37  1   
 33  17  38  1   
 34  18  19  1   
 35  18  39  1   
 36  18  40  1   
 37  19  20  ar  
 38  19  21  ar  
 39  20  22  ar  
 40  20  41  1   
 41  21  23  ar  
 42  21  42  1   
 43  22  24  ar  
 44  22  43  1   
 45  23  24  ar  
 46  23  44  1   
@<TRIPOS>SUBSTRUCTURE
  1 ****  12 GROUP 4 **** **** 0

# MOE 2024.06 (io_trps.svl 2023.06)
