@<TRIPOS>MOLECULE
NONAME
20 20 1 0 0 
SMALL
USER_CHARGES


@<TRIPOS>ATOM
  1 S        0.7370     0.1970     0.4480 S.3   1 <1>  -0.4600 
  2 C       -0.1310    -1.2640    -0.1940 C.3   1 <1>   0.0700 
  3 C       -0.5800     1.4300     0.6190 C.3   1 <1>  -0.0100 
  4 C        0.8840    -2.3700    -0.5170 C.3   1 <1>   0.1810 
  5 C        1.7640    -2.0380    -1.6850 C.1   1 <1>   0.3760 
  6 C        1.6570    -2.9280     0.7140 C.3   1 <1>   0.0000 
  7 C        0.2320    -3.7770    -0.6500 C.3   1 <1>   0.0000 
  8 N        2.4100    -1.8200    -2.5960 N.1   1 <1>  -0.5570 
  9 C        1.4450    -4.3500     0.1300 C.3   1 <1>   0.0000 
 10 H       -0.6680    -0.9590    -1.0750 H     1 <1>   0.0800 
 11 H       -0.8220    -1.5740     0.5690 H     1 <1>   0.0800 
 12 H       -0.1350     2.3300     1.0040 H     1 <1>   0.0800 
 13 H       -1.3140     1.0440     1.3040 H     1 <1>   0.0800 
 14 H       -1.0050     1.6010    -0.3530 H     1 <1>   0.0800 
 15 H        1.1280    -2.7900     1.6420 H     1 <1>   0.0000 
 16 H        2.6890    -2.6300     0.7650 H     1 <1>   0.0000 
 17 H        0.1540    -4.1430    -1.6590 H     1 <1>   0.0000 
 18 H       -0.6850    -3.8730    -0.0940 H     1 <1>   0.0000 
 19 H        1.1780    -5.0860     0.8670 H     1 <1>   0.0000 
 20 H        2.2480    -4.6600    -0.5160 H     1 <1>   0.0000 
@<TRIPOS>BOND
  1   1   2  1   
  2   1   3  1   
  3   2   4  1   
  4   2  10  1   
  5   2  11  1   
  6   3  12  1   
  7   3  13  1   
  8   3  14  1   
  9   4   5  1   
 10   4   6  1   
 11   4   7  1   
 12   5   8  3   
 13   6   9  1   
 14   6  15  1   
 15   6  16  1   
 16   7   9  1   
 17   7  17  1   
 18   7  18  1   
 19   9  19  1   
 20   9  20  1   
@<TRIPOS>SUBSTRUCTURE
  1 ****   4 GROUP 4 **** **** 0

# MOE 2024.06 (io_trps.svl 2023.06)
