@<TRIPOS>MOLECULE
NONAME
43 45 1 0 0 
SMALL
USER_CHARGES


@<TRIPOS>ATOM
  1 O       -0.3930    -1.3120    -0.2120 O.2   1 <1>  -0.5700 
  2 C        0.5320    -2.0450     0.0150 C.2   1 <1>   0.5690 
  3 N        0.3710    -3.2040     0.6860 N.am  1 <1>  -0.7300 
  4 C        1.9320    -1.6920    -0.4370 C.3   1 <1>  -0.0990 
  5 C        1.4780    -4.1270     0.9980 C.3   1 <1>   0.1400 
  6 C        2.6420    -2.9300    -1.0230 C.3   1 <1>  -0.0800 
  7 C        2.4180    -4.2380    -0.2220 C.3   1 <1>  -0.0800 
  8 C        4.1610    -2.7520    -1.1520 C.3   1 <1>  -0.1600 
  9 C        3.8180    -4.7580     0.1350 C.3   1 <1>  -0.1600 
 10 C        4.7230    -4.1510    -0.9350 C.3   1 <1>   0.4230 
 11 N        6.1820    -4.1800    -0.6140 N.4   1 <1>  -0.9590 
 12 C        6.6260    -3.4900     0.6420 C.3   1 <1>   0.4860 
 13 C        6.6870    -5.5920    -0.6380 C.3   1 <1>   0.2630 
 14 C        7.2230    -2.1180     0.3370 C.ar  1 <1>  -0.1440 
 15 C        8.4020    -1.9720    -0.4030 C.ar  1 <1>   0.0730 
 16 C        6.5890    -0.9900     0.8430 C.ar  1 <1>  -0.1500 
 17 C        9.0980    -3.1110    -0.9290 C.1   1 <1>   0.4840 
 18 C        8.9010    -0.6950    -0.6330 C.ar  1 <1>  -0.1500 
 19 C        7.0990     0.2720     0.6030 C.ar  1 <1>  -0.1500 
 20 N        9.4930    -4.1000    -1.3330 N.1   1 <1>  -0.5570 
 21 C        8.2550     0.4210    -0.1370 C.ar  1 <1>  -0.1500 
 22 H       -0.5700    -3.4230     1.0230 H     1 <1>   0.3700 
 23 H        1.8810    -0.9080    -1.1710 H     1 <1>   0.0800 
 24 H        2.4590    -1.3160     0.4200 H     1 <1>   0.0800 
 25 H        2.0060    -3.7410     1.8530 H     1 <1>   0.0800 
 26 H        1.0820    -5.0970     1.2510 H     1 <1>   0.0800 
 27 H        2.2330    -3.0910    -2.0090 H     1 <1>   0.0800 
 28 H        1.9660    -4.9470    -0.8970 H     1 <1>   0.0800 
 29 H        4.4980    -2.0820    -0.3880 H     1 <1>   0.0800 
 30 H        4.4250    -2.3600    -2.1190 H     1 <1>   0.0800 
 31 H        3.8400    -5.8340     0.1170 H     1 <1>   0.0800 
 32 H        4.0870    -4.4070     1.1140 H     1 <1>   0.0800 
 33 H        4.5590    -4.7020    -1.8480 H     1 <1>   0.0800 
 34 H        6.6510    -3.6880    -1.3870 H     1 <1>   0.4500 
 35 H        5.8000    -3.3800     1.3230 H     1 <1>   0.0800 
 36 H        7.3790    -4.0830     1.1350 H     1 <1>   0.0800 
 37 H        6.2270    -6.1710     0.1460 H     1 <1>   0.0800 
 38 H        7.7560    -5.6160    -0.4990 H     1 <1>   0.0800 
 39 H        6.4620    -6.0540    -1.5850 H     1 <1>   0.0800 
 40 H        5.6920    -1.0730     1.4350 H     1 <1>   0.1500 
 41 H        9.8060    -0.5650    -1.2040 H     1 <1>   0.1500 
 42 H        6.6000     1.1440     0.9960 H     1 <1>   0.1500 
 43 H        8.6540     1.4050    -0.3220 H     1 <1>   0.1500 
@<TRIPOS>BOND
  1   1   2  2   
  2   2   3  am  
  3   2   4  1   
  4   3   5  1   
  5   3  22  1   
  6   4   6  1   
  7   4  23  1   
  8   4  24  1   
  9   5   7  1   
 10   5  25  1   
 11   5  26  1   
 12   6   7  1   
 13   6   8  1   
 14   6  27  1   
 15   7   9  1   
 16   7  28  1   
 17   8  10  1   
 18   8  29  1   
 19   8  30  1   
 20   9  10  1   
 21   9  31  1   
 22   9  32  1   
 23  10  11  1   
 24  10  33  1   
 25  11  12  1   
 26  11  13  1   
 27  11  34  1   
 28  12  14  1   
 29  12  35  1   
 30  12  36  1   
 31  13  37  1   
 32  13  38  1   
 33  13  39  1   
 34  14  15  ar  
 35  14  16  ar  
 36  15  17  1   
 37  15  18  ar  
 38  16  19  ar  
 39  16  40  1   
 40  17  20  3   
 41  18  21  ar  
 42  18  41  1   
 43  19  21  ar  
 44  19  42  1   
 45  21  43  1   
@<TRIPOS>SUBSTRUCTURE
  1 ****   8 GROUP 4 **** **** 0

# MOE 2024.06 (io_trps.svl 2023.06)
