@<TRIPOS>MOLECULE
NONAME
56 60 1 0 0 
SMALL
USER_CHARGES


@<TRIPOS>ATOM
  1 O        0.5360     1.7180    -2.0860 O.2   1 <1>  -0.5700 
  2 C        1.3120     1.7200    -1.1490 C.2   1 <1>   0.5440 
  3 N        1.1640     2.6440    -0.1340 N.am  1 <1>  -0.6600 
  4 C        2.4060     0.7650    -1.1370 C.ar  1 <1>   0.0860 
  5 C       -0.1520     3.0910     0.4620 C.3   1 <1>   0.2200 
  6 C        2.3590     3.4110     0.3460 C.3   1 <1>   0.1400 
  7 C        3.0710     0.4140    -2.3120 C.ar  1 <1>  -0.1500 
  8 C        2.8330     0.1510     0.0420 C.ar  1 <1>  -0.1500 
  9 C       -0.1510     4.6010     0.8610 C.3   1 <1>   0.1380 
 10 C       -1.4400     2.7010    -0.2780 C.3   1 <1>  -0.1600 
 11 C        2.1760     3.9120     1.7880 C.3   1 <1>  -0.1600 
 12 C        4.1150    -0.4920    -2.3110 C.ar  1 <1>  -0.1500 
 13 C        3.8770    -0.7550     0.0510 C.ar  1 <1>  -0.1500 
 14 C        0.2130     5.6010    -0.2760 C.2   1 <1>  -0.2760 
 15 C       -1.5740     4.9860     1.3460 C.3   1 <1>   0.1200 
 16 C        0.8640     4.6960     2.0320 C.3   1 <1>  -0.1600 
 17 C       -2.6810     3.0780     0.5500 C.3   1 <1>   0.1200 
 18 C        4.5360    -1.0890    -1.1280 C.ar  1 <1>  -0.0230 
 19 C        0.3770     5.3010    -1.5730 C.2   1 <1>  -0.2880 
 20 C        0.3840     7.0670     0.1310 C.3   1 <1>  -0.0220 
 21 O       -2.3370     3.8580     1.6610 O.3   1 <1>  -0.5600 
 22 N        5.6070    -2.0170    -1.1240 N.pl3 1 <1>   0.3260 
 23 C        0.7450     6.3060    -2.6560 C.3   1 <1>   0.2580 
 24 C        0.3060     7.9970    -1.0880 C.3   1 <1>   0.1200 
 25 C        5.6970    -3.2060    -0.4690 C.2   1 <1>   0.0360 
 26 C        6.7940    -1.9250    -1.7660 C.2   1 <1>  -0.3020 
 27 O        1.1490     7.5190    -2.0890 O.3   1 <1>  -0.5600 
 28 N        6.8100    -3.8410    -0.6430 N.2   1 <1>  -0.5650 
 29 C        7.5060    -3.0310    -1.4650 C.2   1 <1>   0.0770 
 30 H       -0.2210     2.5480     1.3890 H     1 <1>   0.0800 
 31 H        3.2450     2.8040     0.2910 H     1 <1>   0.0800 
 32 H        2.5100     4.2550    -0.3050 H     1 <1>   0.0800 
 33 H        2.7520     0.8630    -3.2370 H     1 <1>   0.1500 
 34 H        2.3300     0.3930     0.9630 H     1 <1>   0.1500 
 35 H       -1.4600     1.6410    -0.4540 H     1 <1>   0.0800 
 36 H       -1.4970     3.1950    -1.2280 H     1 <1>   0.0800 
 37 H        2.2020     3.0570     2.4410 H     1 <1>   0.0800 
 38 H        3.0150     4.5330     2.0480 H     1 <1>   0.0800 
 39 H        4.6020    -0.7390    -3.2390 H     1 <1>   0.1500 
 40 H        4.1810    -1.2020     0.9820 H     1 <1>   0.1500 
 41 H       -2.1000     5.5280     0.5780 H     1 <1>   0.0800 
 42 H       -1.5250     5.6070     2.2220 H     1 <1>   0.0800 
 43 H        1.0900     5.7180     2.2700 H     1 <1>   0.0800 
 44 H        0.4030     4.2820     2.9130 H     1 <1>   0.0800 
 45 H       -3.1630     2.1910     0.9240 H     1 <1>   0.0800 
 46 H       -3.3880     3.6270    -0.0480 H     1 <1>   0.0800 
 47 H        0.2700     4.3140    -1.9840 H     1 <1>   0.1500 
 48 H        1.3430     7.2060     0.5980 H     1 <1>   0.0800 
 49 H       -0.3750     7.3690     0.8280 H     1 <1>   0.0800 
 50 H       -0.0930     6.4920    -3.3040 H     1 <1>   0.0800 
 51 H        1.5680     5.9370    -3.2420 H     1 <1>   0.0800 
 52 H        0.6280     8.9900    -0.8290 H     1 <1>   0.0800 
 53 H       -0.6970     8.0390    -1.4770 H     1 <1>   0.0800 
 54 H        4.8860    -3.5670     0.1370 H     1 <1>   0.1500 
 55 H        7.0550    -1.0880    -2.3850 H     1 <1>   0.1500 
 56 H        8.4970    -3.2960    -1.7970 H     1 <1>   0.1500 
@<TRIPOS>BOND
  1   1   2  2   
  2   2   3  am  
  3   2   4  1   
  4   3   5  1   
  5   3   6  1   
  6   4   7  ar  
  7   4   8  ar  
  8   5   9  1   
  9   5  10  1   
 10   5  30  1   
 11   6  11  1   
 12   6  31  1   
 13   6  32  1   
 14   7  12  ar  
 15   7  33  1   
 16   8  13  ar  
 17   8  34  1   
 18   9  14  1   
 19   9  15  1   
 20   9  16  1   
 21  10  17  1   
 22  10  35  1   
 23  10  36  1   
 24  11  16  1   
 25  11  37  1   
 26  11  38  1   
 27  12  18  ar  
 28  12  39  1   
 29  13  18  ar  
 30  13  40  1   
 31  14  19  2   
 32  14  20  1   
 33  15  21  1   
 34  15  41  1   
 35  15  42  1   
 36  16  43  1   
 37  16  44  1   
 38  17  21  1   
 39  17  45  1   
 40  17  46  1   
 41  18  22  1   
 42  19  23  1   
 43  19  47  1   
 44  20  24  1   
 45  20  48  1   
 46  20  49  1   
 47  22  25  1   
 48  22  26  1   
 49  23  27  1   
 50  23  50  1   
 51  23  51  1   
 52  24  27  1   
 53  24  52  1   
 54  24  53  1   
 55  25  28  2   
 56  25  54  1   
 57  26  29  2   
 58  26  55  1   
 59  28  29  1   
 60  29  56  1   
@<TRIPOS>SUBSTRUCTURE
  1 ****   3 GROUP 4 **** **** 0

# MOE 2024.06 (io_trps.svl 2023.06)
