@<TRIPOS>MOLECULE
NONAME
47 49 1 0 0 
SMALL
USER_CHARGES


@<TRIPOS>ATOM
  1 O        0.6220     0.0140     0.4380 O.3   1 <1>  -0.3630 
  2 C        1.3070    -1.0630    -0.0230 C.ar  1 <1>   0.0830 
  3 C       -0.7810    -0.0200     0.5990 C.3   1 <1>   0.2800 
  4 C        0.7250    -2.3230    -0.1290 C.ar  1 <1>  -0.1440 
  5 C        2.6280    -0.8690    -0.3940 C.ar  1 <1>  -0.1500 
  6 C       -1.2000    -1.3780     1.1740 C.3   1 <1>  -0.1600 
  7 C       -1.1290     1.0980     1.5840 C.3   1 <1>  -0.2400 
  8 C       -1.4180     0.2790    -0.7650 C.3   1 <1>  -0.2400 
  9 C        1.4820    -3.3720    -0.6330 C.ar  1 <1>  -0.1500 
 10 C       -0.7230    -2.5220     0.2890 C.3   1 <1>   0.4330 
 11 C        3.3820    -1.9210    -0.8850 C.ar  1 <1>  -0.1430 
 12 C        2.8000    -3.1720    -1.0070 C.ar  1 <1>  -0.1500 
 13 N       -0.8490    -3.7670     1.0570 N.pl3 1 <1>  -0.8690 
 14 C        4.8280    -1.7110    -1.2940 C.3   1 <1>  -0.0970 
 15 C       -1.7050    -4.7450     0.6980 C.ar  1 <1>   0.7200 
 16 N       -1.2370    -5.9600     0.8890 N.ar  1 <1>  -0.6200 
 17 N       -2.8780    -4.3870     0.2070 N.ar  1 <1>  -0.6200 
 18 C       -2.0520    -6.9310     0.5620 C.ar  1 <1>   0.3930 
 19 C       -3.6750    -5.3760    -0.1120 C.ar  1 <1>   0.3930 
 20 O       -1.5650    -8.1720     0.7680 O.3   1 <1>  -0.3620 
 21 C       -3.3080    -6.6940     0.0490 C.ar  1 <1>  -0.1500 
 22 O       -4.8710    -5.0000    -0.6080 O.3   1 <1>  -0.3630 
 23 C       -2.3130    -9.3440     0.5330 C.3   1 <1>   0.0400 
 24 C       -5.8840    -5.9170    -0.9580 C.3   1 <1>   0.0400 
 25 H        3.0520     0.1130    -0.2940 H     1 <1>   0.1500 
 26 H       -2.2690    -1.4290     1.2670 H     1 <1>   0.0800 
 27 H       -0.7690    -1.4850     2.1540 H     1 <1>   0.0800 
 28 H       -0.6480     0.9240     2.5290 H     1 <1>   0.0800 
 29 H       -2.1910     1.1360     1.7440 H     1 <1>   0.0800 
 30 H       -0.8070     2.0490     1.1990 H     1 <1>   0.0800 
 31 H       -1.1070    -0.4340    -1.5060 H     1 <1>   0.0800 
 32 H       -1.1330     1.2600    -1.0990 H     1 <1>   0.0800 
 33 H       -2.4900     0.2440    -0.6890 H     1 <1>   0.0800 
 34 H        1.0490    -4.3520    -0.7410 H     1 <1>   0.1500 
 35 H       -1.3290    -2.5670    -0.6000 H     1 <1>   0.0800 
 36 H        3.3710    -3.9980    -1.3930 H     1 <1>   0.1500 
 37 H        0.0530    -4.1400     1.3430 H     1 <1>   0.4000 
 38 H        5.2150    -0.8020    -0.8710 H     1 <1>   0.0800 
 39 H        4.8980    -1.6530    -2.3650 H     1 <1>   0.0800 
 40 H        5.4330    -2.5310    -0.9490 H     1 <1>   0.0800 
 41 H       -3.9650    -7.4930    -0.2150 H     1 <1>   0.1500 
 42 H       -1.7000   -10.1870     0.7980 H     1 <1>   0.0800 
 43 H       -2.5680    -9.3940    -0.5110 H     1 <1>   0.0800 
 44 H       -3.1950    -9.3270     1.1490 H     1 <1>   0.0800 
 45 H       -6.7340    -5.3570    -1.3030 H     1 <1>   0.0800 
 46 H       -6.1540    -6.4900    -0.0890 H     1 <1>   0.0800 
 47 H       -5.5240    -6.5530    -1.7470 H     1 <1>   0.0800 
@<TRIPOS>BOND
  1   1   2  1   
  2   1   3  1   
  3   2   4  ar  
  4   2   5  ar  
  5   3   6  1   
  6   3   7  1   
  7   3   8  1   
  8   4   9  ar  
  9   4  10  1   
 10   5  11  ar  
 11   5  25  1   
 12   6  10  1   
 13   6  26  1   
 14   6  27  1   
 15   7  28  1   
 16   7  29  1   
 17   7  30  1   
 18   8  31  1   
 19   8  32  1   
 20   8  33  1   
 21   9  12  ar  
 22   9  34  1   
 23  10  13  1   
 24  10  35  1   
 25  11  12  ar  
 26  11  14  1   
 27  12  36  1   
 28  13  15  1   
 29  13  37  1   
 30  14  38  1   
 31  14  39  1   
 32  14  40  1   
 33  15  16  ar  
 34  15  17  ar  
 35  16  18  ar  
 36  17  19  ar  
 37  18  20  1   
 38  18  21  ar  
 39  19  21  ar  
 40  19  22  1   
 41  20  23  1   
 42  21  41  1   
 43  22  24  1   
 44  23  42  1   
 45  23  43  1   
 46  23  44  1   
 47  24  45  1   
 48  24  46  1   
 49  24  47  1   
@<TRIPOS>SUBSTRUCTURE
  1 ****  10 GROUP 4 **** **** 0

# MOE 2024.06 (io_trps.svl 2023.06)
