@<TRIPOS>MOLECULE
NONAME
46 49 1 0 0 
SMALL
USER_CHARGES


@<TRIPOS>ATOM
  1 S        0.0170    -0.1550    -0.1790 S.3   1 <1>  -0.0800 
  2 C        1.2220     1.1140    -0.1200 C.ar  1 <1>   0.0400 
  3 C        1.3010    -1.3390    -0.3930 C.2   1 <1>   0.1980 
  4 C        2.4630     0.5260    -0.2640 C.ar  1 <1>   0.2270 
  5 C        1.0350     2.4720     0.0400 C.ar  1 <1>  -0.1500 
  6 N        2.4750    -0.8560    -0.4170 N.2   1 <1>  -0.5650 
  7 C        0.8830    -2.7850    -0.5230 C.3   1 <1>  -0.0600 
  8 C        3.5770     1.3500    -0.2420 C.ar  1 <1>  -0.1500 
  9 C        2.1490     3.3120     0.0530 C.ar  1 <1>   0.0860 
 10 C        3.4170     2.7170    -0.0820 C.ar  1 <1>  -0.1500 
 11 C        1.9920     4.7460     0.2070 C.2   1 <1>   0.5440 
 12 O        1.0610     5.1920     0.8530 O.2   1 <1>  -0.5700 
 13 N        2.9030     5.5840    -0.3740 N.am  1 <1>  -0.4930 
 14 C        3.1980     6.9430    -0.1180 C.2   1 <1>   0.0630 
 15 C        4.5140     7.4060    -0.0100 C.2   1 <1>   0.3720 
 16 C        2.4270     8.0390     0.0580 C.2   1 <1>  -0.3320 
 17 N        4.5760     8.6760     0.2360 N.2   1 <1>  -0.7070 
 18 N        5.6470     6.5770    -0.1420 N.pl3 1 <1>  -0.8210 
 19 N        3.2830     9.0680     0.2860 N.pl3 1 <1>   0.3140 
 20 C        0.9130     8.1790     0.0130 C.3   1 <1>  -0.0600 
 21 C        6.3130     6.3720     1.1730 C.3   1 <1>   0.2090 
 22 C        6.6560     7.1350    -1.0860 C.3   1 <1>   0.2090 
 23 C        2.9320    10.4660     0.5590 C.3   1 <1>   0.0160 
 24 C        7.8080     6.4500     0.9030 C.3   1 <1>  -0.1600 
 25 C        7.9080     7.4150    -0.2670 C.3   1 <1>  -0.1600 
 26 H        0.0440     2.8770     0.1530 H     1 <1>   0.1500 
 27 H        0.2430    -2.9040    -1.3770 H     1 <1>   0.0800 
 28 H        0.3580    -3.0940     0.3610 H     1 <1>   0.0800 
 29 H        1.7530    -3.4040    -0.6490 H     1 <1>   0.0800 
 30 H        4.5510     0.9060    -0.3460 H     1 <1>   0.1500 
 31 H        4.2980     3.3350    -0.0520 H     1 <1>   0.1500 
 32 H        3.7100     5.1330    -0.8050 H     1 <1>   0.3700 
 33 H        0.4710     7.3060    -0.4320 H     1 <1>   0.0800 
 34 H        0.6280     9.0310    -0.5750 H     1 <1>   0.0800 
 35 H        0.5240     8.2860     1.0100 H     1 <1>   0.0800 
 36 H        6.0400     5.4170     1.5880 H     1 <1>   0.0800 
 37 H        6.0270     7.1510     1.8610 H     1 <1>   0.0800 
 38 H        6.3040     8.0300    -1.5720 H     1 <1>   0.0800 
 39 H        6.8660     6.3940    -1.8380 H     1 <1>   0.0800 
 40 H        2.2160    10.5000     1.3580 H     1 <1>   0.0800 
 41 H        2.5160    10.9040    -0.3290 H     1 <1>   0.0800 
 42 H        3.8180    11.0020     0.8460 H     1 <1>   0.0800 
 43 H        8.1660     5.4780     0.6140 H     1 <1>   0.0800 
 44 H        8.3520     6.7910     1.7650 H     1 <1>   0.0800 
 45 H        7.8640     8.4290     0.0900 H     1 <1>   0.0800 
 46 H        8.8060     7.2790    -0.8430 H     1 <1>   0.0800 
@<TRIPOS>BOND
  1   1   2  1   
  2   1   3  1   
  3   2   4  ar  
  4   2   5  ar  
  5   3   6  2   
  6   3   7  1   
  7   4   6  1   
  8   4   8  ar  
  9   5   9  ar  
 10   5  26  1   
 11   7  27  1   
 12   7  28  1   
 13   7  29  1   
 14   8  10  ar  
 15   8  30  1   
 16   9  10  ar  
 17   9  11  1   
 18  10  31  1   
 19  11  12  2   
 20  11  13  am  
 21  13  14  1   
 22  13  32  1   
 23  14  15  1   
 24  14  16  2   
 25  15  17  2   
 26  15  18  1   
 27  16  19  1   
 28  16  20  1   
 29  17  19  1   
 30  18  21  1   
 31  18  22  1   
 32  19  23  1   
 33  20  33  1   
 34  20  34  1   
 35  20  35  1   
 36  21  24  1   
 37  21  36  1   
 38  21  37  1   
 39  22  25  1   
 40  22  38  1   
 41  22  39  1   
 42  23  40  1   
 43  23  41  1   
 44  23  42  1   
 45  24  25  1   
 46  24  43  1   
 47  24  44  1   
 48  25  45  1   
 49  25  46  1   
@<TRIPOS>SUBSTRUCTURE
  1 ****  13 GROUP 4 **** **** 0

# MOE 2024.06 (io_trps.svl 2023.06)
