@<TRIPOS>MOLECULE
NONAME
61 64 1 0 0 
SMALL
USER_CHARGES


@<TRIPOS>ATOM
  1 O       -3.6410     3.7070     0.8030 O.2   1 <1>  -0.5700 
  2 C       -3.2710     3.0340    -0.1360 C.2   1 <1>   0.5690 
  3 N       -4.1070     2.0890    -0.6920 N.am  1 <1>  -0.6600 
  4 C       -1.8530     3.2610    -0.6670 C.3   1 <1>   0.2370 
  5 C       -5.3670     1.6790    -0.0170 C.3   1 <1>   0.1400 
  6 C       -3.7830     1.2200    -1.8610 C.3   1 <1>   0.1400 
  7 N       -1.0270     2.0530    -0.4110 N.pl3 1 <1>   0.3140 
  8 C       -1.1440     4.5270    -0.1400 C.3   1 <1>  -0.2400 
  9 C       -5.1780     0.2620     0.5300 C.3   1 <1>  -0.1600 
 10 C       -3.5780    -0.2150    -1.3710 C.3   1 <1>  -0.1600 
 11 N       -0.3680     1.4700    -1.4370 N.2   1 <1>  -0.7070 
 12 C       -0.8250     1.3610     0.7430 C.2   1 <1>  -0.3320 
 13 C       -4.7850    -0.7350    -0.5770 C.3   1 <1>   0.4240 
 14 C        0.2230     0.4410    -0.9220 C.2   1 <1>   0.1080 
 15 C       -0.0240     0.3190     0.4380 C.2   1 <1>  -0.1500 
 16 C       -1.4000     1.6910     2.1120 C.3   1 <1>  -0.0600 
 17 O       -5.8410    -0.7880    -1.5080 O.3   1 <1>  -0.5600 
 18 C       -4.4700    -2.1250     0.0160 C.ar  1 <1>  -0.1440 
 19 C        1.0710    -0.5020    -1.7410 C.3   1 <1>  -0.0590 
 20 C       -6.9110    -1.6340    -1.2210 C.3   1 <1>   0.1200 
 21 C       -5.2430    -3.2350    -0.2950 C.ar  1 <1>  -0.1440 
 22 C       -3.3980    -2.2920     0.8840 C.ar  1 <1>  -0.1500 
 23 C       -6.4190    -3.0790    -1.2390 C.3   1 <1>  -0.0170 
 24 C       -4.9480    -4.4750     0.2490 C.ar  1 <1>  -0.1500 
 25 C       -3.0830    -3.5230     1.4320 C.ar  1 <1>   0.0820 
 26 C       -3.8770    -4.6400     1.1240 C.ar  1 <1>   0.0820 
 27 O       -1.9910    -3.5180     2.2510 O.3   1 <1>  -0.3620 
 28 O       -3.6050    -5.8530     1.6910 O.3   1 <1>  -0.3620 
 29 C       -1.1710    -4.6560     2.3910 C.3   1 <1>   0.0400 
 30 C       -4.4760    -6.9550     1.5640 C.3   1 <1>   0.0400 
 31 H       -1.9300     3.3690    -1.7320 H     1 <1>   0.0800 
 32 H       -6.1760     1.7000    -0.7270 H     1 <1>   0.0800 
 33 H       -5.6100     2.3510     0.7870 H     1 <1>   0.0800 
 34 H       -2.9020     1.5550    -2.3770 H     1 <1>   0.0800 
 35 H       -4.6020     1.2500    -2.5590 H     1 <1>   0.0800 
 36 H       -1.0410     4.4910     0.9280 H     1 <1>   0.0800 
 37 H       -1.7220     5.3970    -0.3940 H     1 <1>   0.0800 
 38 H       -0.1700     4.6170    -0.5890 H     1 <1>   0.0800 
 39 H       -6.0720    -0.0650     1.0240 H     1 <1>   0.0800 
 40 H       -4.4040     0.2930     1.2740 H     1 <1>   0.0800 
 41 H       -2.6970    -0.2370    -0.7610 H     1 <1>   0.0800 
 42 H       -3.3990    -0.8640    -2.2070 H     1 <1>   0.0800 
 43 H        0.3520    -0.4540     1.0840 H     1 <1>   0.1500 
 44 H       -1.1310     2.6880     2.4080 H     1 <1>   0.0800 
 45 H       -1.0170     1.0060     2.8470 H     1 <1>   0.0800 
 46 H       -2.4720     1.6070     2.1040 H     1 <1>   0.0800 
 47 H        1.8760     0.0440    -2.1950 H     1 <1>   0.0800 
 48 H        0.4690    -0.9440    -2.5140 H     1 <1>   0.0800 
 49 H        1.4750    -1.2790    -1.1200 H     1 <1>   0.0800 
 50 H       -7.6620    -1.4830    -1.9750 H     1 <1>   0.0800 
 51 H       -7.3200    -1.3770    -0.2600 H     1 <1>   0.0800 
 52 H       -2.7770    -1.4560     1.1500 H     1 <1>   0.1500 
 53 H       -6.1200    -3.3410    -2.2370 H     1 <1>   0.0800 
 54 H       -7.2230    -3.7290    -0.9440 H     1 <1>   0.0800 
 55 H       -5.5690    -5.3050    -0.0220 H     1 <1>   0.1500 
 56 H       -0.2220    -4.3390     2.7820 H     1 <1>   0.0800 
 57 H       -1.0400    -5.1160     1.4280 H     1 <1>   0.0800 
 58 H       -1.6380    -5.3370     3.0800 H     1 <1>   0.0800 
 59 H       -4.0850    -7.7590     2.1610 H     1 <1>   0.0800 
 60 H       -4.5150    -7.2530     0.5320 H     1 <1>   0.0800 
 61 H       -5.4500    -6.6730     1.9240 H     1 <1>   0.0800 
@<TRIPOS>BOND
  1   1   2  2   
  2   2   3  am  
  3   2   4  1   
  4   3   5  1   
  5   3   6  1   
  6   4   7  1   
  7   4   8  1   
  8   4  31  1   
  9   5   9  1   
 10   5  32  1   
 11   5  33  1   
 12   6  10  1   
 13   6  34  1   
 14   6  35  1   
 15   7  11  1   
 16   7  12  1   
 17   8  36  1   
 18   8  37  1   
 19   8  38  1   
 20   9  13  1   
 21   9  39  1   
 22   9  40  1   
 23  10  13  1   
 24  10  41  1   
 25  10  42  1   
 26  11  14  2   
 27  12  15  2   
 28  12  16  1   
 29  13  17  1   
 30  13  18  1   
 31  14  15  1   
 32  14  19  1   
 33  15  43  1   
 34  16  44  1   
 35  16  45  1   
 36  16  46  1   
 37  17  20  1   
 38  18  21  ar  
 39  18  22  ar  
 40  19  47  1   
 41  19  48  1   
 42  19  49  1   
 43  20  23  1   
 44  20  50  1   
 45  20  51  1   
 46  21  23  1   
 47  21  24  ar  
 48  22  25  ar  
 49  22  52  1   
 50  23  53  1   
 51  23  54  1   
 52  24  26  ar  
 53  24  55  1   
 54  25  26  ar  
 55  25  27  1   
 56  26  28  1   
 57  27  29  1   
 58  28  30  1   
 59  29  56  1   
 60  29  57  1   
 61  29  58  1   
 62  30  59  1   
 63  30  60  1   
 64  30  61  1   
@<TRIPOS>SUBSTRUCTURE
  1 ****  10 GROUP 4 **** **** 0

# MOE 2024.06 (io_trps.svl 2023.06)
