@<TRIPOS>MOLECULE
NONAME
52 53 1 0 0 
SMALL
USER_CHARGES


@<TRIPOS>ATOM
  1 S        0.1630     0.3790    -0.0540 S.3   1 <1>  -0.4600 
  2 C        1.5090     0.4280    -1.2680 C.3   1 <1>   0.2510 
  3 C       -0.7620    -1.1070    -0.5160 C.3   1 <1>   0.0700 
  4 C        2.3150     1.6900    -1.0270 C.2   1 <1>  -0.1810 
  5 C       -1.9310    -1.2510     0.4580 C.3   1 <1>  -0.1600 
  6 C        3.5670     1.8410    -0.5400 C.2   1 <1>  -0.0400 
  7 C        1.8610     2.9830    -1.2910 C.2   1 <1>  -0.1500 
  8 C       -2.7730    -2.4910     0.1340 C.3   1 <1>  -0.1600 
  9 O        3.8870     3.1140    -0.4990 O.3   1 <1>  -0.2800 
 10 C        4.5890     0.8320    -0.0640 C.3   1 <1>  -0.0600 
 11 C        2.8620     3.8380    -0.9450 C.2   1 <1>   0.0550 
 12 C       -3.9430    -2.6320     1.1120 C.3   1 <1>  -0.2400 
 13 C        2.9100     5.2840    -1.0310 C.2   1 <1>   0.7150 
 14 O        2.2250     5.8510    -1.8650 O.2   1 <1>  -0.5700 
 15 N        3.6910     6.0640    -0.2030 N.am  1 <1>  -0.6600 
 16 C        4.1570     7.4260    -0.6320 C.3   1 <1>   0.2810 
 17 C        4.2870     5.6030     1.0800 C.3   1 <1>   0.1400 
 18 C        5.6850     7.6120    -0.4460 C.2   1 <1>   0.5690 
 19 C        3.3150     8.4760     0.1250 C.3   1 <1>  -0.1600 
 20 C        5.8130     5.5170     0.9510 C.3   1 <1>   0.1400 
 21 O        6.2300     8.5170    -1.0380 O.2   1 <1>  -0.5700 
 22 N        6.4070     6.7550     0.3630 N.am  1 <1>  -0.6600 
 23 C        3.4350     9.8940    -0.4530 C.3   1 <1>  -0.2400 
 24 C        7.8770     6.8990     0.5510 C.3   1 <1>   0.0600 
 25 H        1.0650     0.4320    -2.2470 H     1 <1>   0.0800 
 26 H        2.1000    -0.4580    -1.1290 H     1 <1>   0.0800 
 27 H       -0.0870    -1.9430    -0.4510 H     1 <1>   0.0800 
 28 H       -1.1030    -0.9750    -1.5280 H     1 <1>   0.0800 
 29 H       -2.5480    -0.3700     0.3990 H     1 <1>   0.0800 
 30 H       -1.5470    -1.3270     1.4600 H     1 <1>   0.0800 
 31 H        0.8960     3.2420    -1.6890 H     1 <1>   0.1500 
 32 H       -2.1570    -3.3730     0.1920 H     1 <1>   0.0800 
 33 H       -3.1580    -2.4170    -0.8690 H     1 <1>   0.0800 
 34 H        4.2000    -0.1670    -0.1340 H     1 <1>   0.0800 
 35 H        4.8430     1.0320     0.9610 H     1 <1>   0.0800 
 36 H        5.4770     0.9050    -0.6650 H     1 <1>   0.0800 
 37 H       -3.5810    -2.7290     2.1200 H     1 <1>   0.0800 
 38 H       -4.5220    -3.5050     0.8710 H     1 <1>   0.0800 
 39 H       -4.5850    -1.7700     1.0560 H     1 <1>   0.0800 
 40 H        3.9630     7.5400    -1.6840 H     1 <1>   0.0800 
 41 H        3.8850     4.6500     1.3750 H     1 <1>   0.0800 
 42 H        4.0390     6.3030     1.8580 H     1 <1>   0.0800 
 43 H        3.6090     8.4960     1.1590 H     1 <1>   0.0800 
 44 H        2.2810     8.1840     0.0710 H     1 <1>   0.0800 
 45 H        6.0650     4.6780     0.3250 H     1 <1>   0.0800 
 46 H        6.2350     5.3440     1.9260 H     1 <1>   0.0800 
 47 H        4.4380    10.2690    -0.3470 H     1 <1>   0.0800 
 48 H        2.7700    10.5600     0.0680 H     1 <1>   0.0800 
 49 H        3.1730     9.8970    -1.4970 H     1 <1>   0.0800 
 50 H        8.2290     7.8210     0.1200 H     1 <1>   0.0800 
 51 H        8.3860     6.0810     0.0730 H     1 <1>   0.0800 
 52 H        8.1130     6.9030     1.6000 H     1 <1>   0.0800 
@<TRIPOS>BOND
  1   1   2  1   
  2   1   3  1   
  3   2   4  1   
  4   2  25  1   
  5   2  26  1   
  6   3   5  1   
  7   3  27  1   
  8   3  28  1   
  9   4   6  2   
 10   4   7  1   
 11   5   8  1   
 12   5  29  1   
 13   5  30  1   
 14   6   9  1   
 15   6  10  1   
 16   7  11  2   
 17   7  31  1   
 18   8  12  1   
 19   8  32  1   
 20   8  33  1   
 21   9  11  1   
 22  10  34  1   
 23  10  35  1   
 24  10  36  1   
 25  11  13  1   
 26  12  37  1   
 27  12  38  1   
 28  12  39  1   
 29  13  14  2   
 30  13  15  am  
 31  15  16  1   
 32  15  17  1   
 33  16  18  1   
 34  16  19  1   
 35  16  40  1   
 36  17  20  1   
 37  17  41  1   
 38  17  42  1   
 39  18  21  2   
 40  18  22  am  
 41  19  23  1   
 42  19  43  1   
 43  19  44  1   
 44  20  22  1   
 45  20  45  1   
 46  20  46  1   
 47  22  24  1   
 48  23  47  1   
 49  23  48  1   
 50  23  49  1   
 51  24  50  1   
 52  24  51  1   
 53  24  52  1   
@<TRIPOS>SUBSTRUCTURE
  1 ****  11 GROUP 4 **** **** 0

# MOE 2024.06 (io_trps.svl 2023.06)
