@<TRIPOS>MOLECULE
NONAME
50 53 1 0 0 
SMALL
USER_CHARGES


@<TRIPOS>ATOM
  1 S       -2.1240     0.3670     0.6520 S.o2  1 <1>   1.0900 
  2 O       -0.7330     0.2840     1.0290 O.2   1 <1>  -0.6500 
  3 O       -2.9370     1.5140     0.9800 O.2   1 <1>  -0.6500 
  4 C       -2.9120    -1.1270     1.1850 C.3   1 <1>  -0.0550 
  5 C       -2.2440    -0.0110    -1.0910 C.3   1 <1>  -0.0550 
  6 C       -2.5170    -2.1580     0.1320 C.3   1 <1>   0.1760 
  7 C       -2.6760    -1.4800    -1.2430 C.3   1 <1>  -0.1600 
  8 N       -3.3390    -3.3900     0.2280 N.pl3 1 <1>   0.3140 
  9 N       -4.6810    -3.3310     0.3520 N.2   1 <1>  -0.7070 
 10 C       -2.9040    -4.6740     0.1500 C.2   1 <1>  -0.3320 
 11 C       -5.0700    -4.5660     0.3350 C.2   1 <1>   0.1080 
 12 C       -4.0040    -5.4570     0.2080 C.2   1 <1>   0.0630 
 13 C       -1.4440    -5.0870     0.0170 C.3   1 <1>  -0.0600 
 14 C       -6.5270    -4.9590     0.4330 C.3   1 <1>  -0.0590 
 15 N       -4.1030    -6.8690     0.1640 N.am  1 <1>  -0.4930 
 16 C       -3.6150    -7.7450    -0.7590 C.2   1 <1>   0.5690 
 17 O       -2.8880    -7.4180    -1.6690 O.2   1 <1>  -0.5700 
 18 C       -3.9950    -9.2130    -0.6140 C.3   1 <1>   0.2010 
 19 N       -5.3550    -9.4020    -0.0080 N.am  1 <1>  -0.2980 
 20 N       -5.4450    -9.2620     1.3600 N.2   1 <1>  -0.5120 
 21 C       -6.4380    -9.7150    -0.8260 C.2   1 <1>   0.5440 
 22 C       -6.5950    -9.4650     1.8990 C.2   1 <1>   0.3040 
 23 O       -6.2960    -9.7940    -2.0370 O.2   1 <1>  -0.5700 
 24 C       -7.7140    -9.9380    -0.2020 C.ar  1 <1>   0.0860 
 25 C       -7.7870    -9.8120     1.1920 C.ar  1 <1>   0.0860 
 26 C       -8.8720   -10.2710    -0.9120 C.ar  1 <1>  -0.1500 
 27 C       -9.0120   -10.0270     1.8340 C.ar  1 <1>  -0.1500 
 28 C      -10.0710   -10.4790    -0.2650 C.ar  1 <1>  -0.1500 
 29 C      -10.1410   -10.3560     1.1160 C.ar  1 <1>  -0.1500 
 30 H       -3.9780    -0.9900     1.1830 H     1 <1>   0.0800 
 31 H       -2.5860    -1.4180     2.1650 H     1 <1>   0.0800 
 32 H       -1.2920     0.1480    -1.5600 H     1 <1>   0.0800 
 33 H       -2.9660     0.6300    -1.5640 H     1 <1>   0.0800 
 34 H       -1.4840    -2.4150     0.2790 H     1 <1>   0.0800 
 35 H       -2.0900    -1.9840    -1.9920 H     1 <1>   0.0800 
 36 H       -3.7130    -1.5070    -1.5360 H     1 <1>   0.0800 
 37 H       -0.8550    -4.6560     0.8060 H     1 <1>   0.0800 
 38 H       -1.0560    -4.7710    -0.9350 H     1 <1>   0.0800 
 39 H       -1.3490    -6.1560     0.0780 H     1 <1>   0.0800 
 40 H       -7.1470    -4.1160     0.1870 H     1 <1>   0.0800 
 41 H       -6.7490    -5.2760     1.4350 H     1 <1>   0.0800 
 42 H       -6.7390    -5.7580    -0.2530 H     1 <1>   0.0800 
 43 H       -4.7310    -7.3000     0.8490 H     1 <1>   0.3700 
 44 H       -3.2670    -9.6890     0.0150 H     1 <1>   0.0800 
 45 H       -3.9460    -9.6790    -1.5810 H     1 <1>   0.0800 
 46 H       -6.6840    -9.3690     2.9670 H     1 <1>   0.0600 
 47 H       -8.8150   -10.3650    -1.9840 H     1 <1>   0.1500 
 48 H       -9.0720    -9.9330     2.9040 H     1 <1>   0.1500 
 49 H      -10.9540   -10.7370    -0.8250 H     1 <1>   0.1500 
 50 H      -11.0810   -10.5220     1.6180 H     1 <1>   0.1500 
@<TRIPOS>BOND
  1   1   2  2   
  2   1   3  2   
  3   1   4  1   
  4   1   5  1   
  5   4   6  1   
  6   4  30  1   
  7   4  31  1   
  8   5   7  1   
  9   5  32  1   
 10   5  33  1   
 11   6   7  1   
 12   6   8  1   
 13   6  34  1   
 14   7  35  1   
 15   7  36  1   
 16   8   9  1   
 17   8  10  1   
 18   9  11  2   
 19  10  12  2   
 20  10  13  1   
 21  11  12  1   
 22  11  14  1   
 23  12  15  1   
 24  13  37  1   
 25  13  38  1   
 26  13  39  1   
 27  14  40  1   
 28  14  41  1   
 29  14  42  1   
 30  15  16  am  
 31  15  43  1   
 32  16  17  2   
 33  16  18  1   
 34  18  19  1   
 35  18  44  1   
 36  18  45  1   
 37  19  20  1   
 38  19  21  am  
 39  20  22  2   
 40  21  23  2   
 41  21  24  1   
 42  22  25  1   
 43  22  46  1   
 44  24  25  ar  
 45  24  26  ar  
 46  25  27  ar  
 47  26  28  ar  
 48  26  47  1   
 49  27  29  ar  
 50  27  48  1   
 51  28  29  ar  
 52  28  49  1   
 53  29  50  1   
@<TRIPOS>SUBSTRUCTURE
  1 ****  12 GROUP 4 **** **** 0

# MOE 2024.06 (io_trps.svl 2023.06)
