@<TRIPOS>MOLECULE
NONAME
56 59 1 0 0 
SMALL
USER_CHARGES


@<TRIPOS>ATOM
  1 O       -2.0670     1.2720     2.3920 O.2   1 <1>  -0.5700 
  2 C       -2.2300     1.7410     1.2790 C.2   1 <1>   0.5440 
  3 N       -3.1960     1.1670     0.4960 N.am  1 <1>  -0.6600 
  4 C       -1.4100     2.8200     0.7800 C.ar  1 <1>   0.0860 
  5 C       -2.8980    -0.2010     0.0380 C.3   1 <1>   0.1400 
  6 C       -4.6120     1.3380     0.9200 C.3   1 <1>   0.1400 
  7 C       -0.2280     2.5590     0.0700 C.ar  1 <1>   0.0000 
  8 C       -1.7900     4.1440     0.9930 C.ar  1 <1>  -0.1500 
  9 C       -3.7170    -1.1480     0.9380 C.3   1 <1>   0.4230 
 10 C       -5.5390     0.1420     0.5230 C.3   1 <1>  -0.1600 
 11 C        0.2240     1.2080    -0.1700 C.ar  1 <1>   0.0000 
 12 C        0.5210     3.6280    -0.4110 C.ar  1 <1>  -0.1500 
 13 C       -1.0330     5.1940     0.5110 C.ar  1 <1>  -0.1500 
 14 N       -2.8710    -2.2610     1.5190 N.4   1 <1>  -0.9590 
 15 C       -5.1280    -1.4090     0.2400 C.3   1 <1>   0.0000 
 16 C        0.7740     0.4440     0.8550 C.ar  1 <1>  -0.1500 
 17 C        0.1170     0.6310    -1.4320 C.ar  1 <1>  -0.1500 
 18 C        0.1260     4.9340    -0.1960 C.ar  1 <1>  -0.1500 
 19 C       -2.2680    -3.0860     0.4540 C.3   1 <1>   0.3430 
 20 C       -1.8380    -1.7240     2.4640 C.3   1 <1>   0.2630 
 21 C       -4.7610    -2.9460    -0.1280 C.3   1 <1>  -0.1600 
 22 C       -6.5850    -1.6320    -0.3890 C.3   1 <1>   0.1200 
 23 C        1.1990    -0.8540     0.6310 C.ar  1 <1>  -0.1500 
 24 C        0.5350    -0.6670    -1.6620 C.ar  1 <1>  -0.1500 
 25 C       -3.3310    -3.2950    -0.6130 C.3   1 <1>  -0.1600 
 26 O       -6.5430    -1.4710    -1.7750 O.3   1 <1>  -0.6800 
 27 C        1.0770    -1.4130    -0.6290 C.ar  1 <1>  -0.1500 
 28 H       -3.1820    -0.3020    -0.9950 H     1 <1>   0.0800 
 29 H       -1.8470    -0.3950     0.1250 H     1 <1>   0.0800 
 30 H       -4.6360     1.4590     1.9920 H     1 <1>   0.0800 
 31 H       -4.9920     2.2520     0.4940 H     1 <1>   0.0800 
 32 H       -2.6890     4.3490     1.5460 H     1 <1>   0.1500 
 33 H       -3.9430    -0.5840     1.8270 H     1 <1>   0.0800 
 34 H       -6.2980     0.1510     1.2910 H     1 <1>   0.0800 
 35 H       -5.9940     0.5640    -0.3610 H     1 <1>   0.0800 
 36 H        1.4280     3.4300    -0.9570 H     1 <1>   0.1500 
 37 H       -1.3410     6.2110     0.6840 H     1 <1>   0.1500 
 38 H       -3.5140    -2.8600     2.0500 H     1 <1>   0.4500 
 39 H        0.8730     0.8810     1.8350 H     1 <1>   0.1500 
 40 H       -0.2960     1.2120    -2.2400 H     1 <1>   0.1500 
 41 H        0.7200     5.7480    -0.5750 H     1 <1>   0.1500 
 42 H       -1.4110    -2.5900     0.0260 H     1 <1>   0.0800 
 43 H       -1.9530    -4.0340     0.8590 H     1 <1>   0.0800 
 44 H       -1.1360    -1.0960     1.9410 H     1 <1>   0.0800 
 45 H       -1.2990    -2.5300     2.9340 H     1 <1>   0.0800 
 46 H       -2.3070    -1.1270     3.2310 H     1 <1>   0.0800 
 47 H       -5.0000    -3.5630     0.7230 H     1 <1>   0.0800 
 48 H       -5.3250    -3.3890    -0.9380 H     1 <1>   0.0800 
 49 H       -7.3780    -0.9920    -0.0330 H     1 <1>   0.0800 
 50 H       -7.0010    -2.6080    -0.1870 H     1 <1>   0.0800 
 51 H        1.6380    -1.4220     1.4330 H     1 <1>   0.1500 
 52 H        0.4500    -1.0930    -2.6480 H     1 <1>   0.1500 
 53 H       -3.0900    -2.7040    -1.4800 H     1 <1>   0.0800 
 54 H       -3.2940    -4.3250    -0.9260 H     1 <1>   0.0800 
 55 H       -6.4980    -0.5290    -2.0320 H     1 <1>   0.4000 
 56 H        1.4210    -2.4170    -0.8120 H     1 <1>   0.1500 
@<TRIPOS>BOND
  1   1   2  2   
  2   2   3  am  
  3   2   4  1   
  4   3   5  1   
  5   3   6  1   
  6   4   7  ar  
  7   4   8  ar  
  8   5   9  1   
  9   5  28  1   
 10   5  29  1   
 11   6  10  1   
 12   6  30  1   
 13   6  31  1   
 14   7  11  1   
 15   7  12  ar  
 16   8  13  ar  
 17   8  32  1   
 18   9  14  1   
 19   9  15  1   
 20   9  33  1   
 21  10  15  1   
 22  10  34  1   
 23  10  35  1   
 24  11  16  ar  
 25  11  17  ar  
 26  12  18  ar  
 27  12  36  1   
 28  13  18  ar  
 29  13  37  1   
 30  14  19  1   
 31  14  20  1   
 32  14  38  1   
 33  15  21  1   
 34  15  22  1   
 35  16  23  ar  
 36  16  39  1   
 37  17  24  ar  
 38  17  40  1   
 39  18  41  1   
 40  19  25  1   
 41  19  42  1   
 42  19  43  1   
 43  20  44  1   
 44  20  45  1   
 45  20  46  1   
 46  21  25  1   
 47  21  47  1   
 48  21  48  1   
 49  22  26  1   
 50  22  49  1   
 51  22  50  1   
 52  23  27  ar  
 53  23  51  1   
 54  24  27  ar  
 55  24  52  1   
 56  25  53  1   
 57  25  54  1   
 58  26  55  1   
 59  27  56  1   
@<TRIPOS>SUBSTRUCTURE
  1 ****   5 GROUP 4 **** **** 0

# MOE 2024.06 (io_trps.svl 2023.06)
