@<TRIPOS>MOLECULE
NONAME
22 21 1 0 0 
SMALL
USER_CHARGES


@<TRIPOS>ATOM
  1 S        0.3380     1.5470    -0.5360 S.3   1 <1>  -0.2300 
  2 S        1.4080     2.5620     0.9620 S.3   1 <1>  -0.2300 
  3 C       -1.1060     0.9760     0.4010 C.3   1 <1>   0.2080 
  4 C        2.5850     1.2760     1.4830 C.3   1 <1>   0.0700 
  5 C       -1.9380     0.1030    -0.5190 C.2   1 <1>  -0.2880 
  6 C        3.8490     1.3510     0.6190 C.3   1 <1>   0.3170 
  7 C       -3.2030     0.3480    -0.8770 C.2   1 <1>  -0.3000 
  8 N        3.5160     1.3580    -0.8500 N.4   1 <1>  -0.8530 
  9 C        4.7090     0.1240     0.9200 C.2   1 <1>   0.9060 
 10 O        4.8320    -0.6690    -0.0260 O.co2 1 <1>  -0.9000 
 11 O        5.2020    -0.0300     2.0340 O.co2 1 <1>  -0.9000 
 12 H       -0.7470     0.4260     1.2520 H     1 <1>   0.0800 
 13 H       -1.6450     1.8500     0.7220 H     1 <1>   0.0800 
 14 H        2.8260     1.4550     2.5160 H     1 <1>   0.0800 
 15 H        2.0970     0.3210     1.3940 H     1 <1>   0.0800 
 16 H       -1.3970    -0.7610    -0.8680 H     1 <1>   0.1500 
 17 H        4.4110     2.2290     0.8810 H     1 <1>   0.0800 
 18 H       -3.7740    -0.2880    -1.5330 H     1 <1>   0.1500 
 19 H       -3.7760     1.1990    -0.5520 H     1 <1>   0.1500 
 20 H        3.8130     0.3940    -1.1310 H     1 <1>   0.4500 
 21 H        4.0880     2.0180    -1.3760 H     1 <1>   0.4500 
 22 H        2.5110     1.4860    -1.0130 H     1 <1>   0.4500 
@<TRIPOS>BOND
  1   1   2  1   
  2   1   3  1   
  3   2   4  1   
  4   3   5  1   
  5   3  12  1   
  6   3  13  1   
  7   4   6  1   
  8   4  14  1   
  9   4  15  1   
 10   5   7  2   
 11   5  16  1   
 12   6   8  1   
 13   6   9  1   
 14   6  17  1   
 15   7  18  1   
 16   7  19  1   
 17   8  20  1   
 18   8  21  1   
 19   8  22  1   
 20   9  10  ar  
 21   9  11  ar  
@<TRIPOS>SUBSTRUCTURE
  1 ****   4 GROUP 4 **** **** 0

# MOE 2024.06 (io_trps.svl 2023.06)
