@<TRIPOS>MOLECULE
NONAME
50 52 1 0 0 
SMALL
USER_CHARGES


@<TRIPOS>ATOM
  1 O       -0.0530     0.0750     0.4240 O.2   1 <1>  -0.5700 
  2 C       -1.0710     0.7350     0.3880 C.2   1 <1>   0.5440 
  3 N       -2.2900     0.1000     0.4800 N.am  1 <1>  -0.6600 
  4 C       -0.9650     2.1700     0.2430 C.ar  1 <1>   0.0860 
  5 C       -2.4110    -1.3940     0.4460 C.3   1 <1>   0.1400 
  6 C       -3.6180     0.7850     0.5350 C.3   1 <1>   0.1400 
  7 C       -1.2710     2.8080    -0.9650 C.ar  1 <1>   0.0730 
  8 C       -0.5440     2.9460     1.3210 C.ar  1 <1>  -0.1500 
  9 C       -3.4420    -1.8460    -0.6050 C.3   1 <1>   0.3440 
 10 C       -4.5660     0.2280    -0.5550 C.3   1 <1>   0.2000 
 11 C       -1.7080     2.0550    -2.1040 C.1   1 <1>   0.4840 
 12 C       -1.1600     4.1910    -1.0550 C.ar  1 <1>  -0.1500 
 13 C       -0.4380     4.3200     1.2200 C.ar  1 <1>  -0.1500 
 14 O       -4.6550    -1.1660    -0.4130 O.3   1 <1>  -0.5600 
 15 C       -3.6830    -3.3500    -0.5090 C.ar  1 <1>  -0.1440 
 16 C       -5.9980     0.8430    -0.5500 C.3   1 <1>   0.0000 
 17 N       -2.1050     1.4710    -3.0000 N.1   1 <1>  -0.5570 
 18 C       -0.7480     4.9460     0.0280 C.ar  1 <1>  -0.1500 
 19 C       -2.9510    -4.2150    -1.3090 C.ar  1 <1>  -0.1500 
 20 C       -4.6150    -3.8770     0.3750 C.ar  1 <1>  -0.1500 
 21 C       -6.7490     0.5600     0.7640 C.3   1 <1>  -0.2400 
 22 C       -6.8130     0.2460    -1.7120 C.3   1 <1>  -0.2400 
 23 C       -5.9380     2.3680    -0.7620 C.3   1 <1>  -0.2400 
 24 C       -3.1440    -5.5830    -1.2260 C.ar  1 <1>  -0.1500 
 25 C       -4.8100    -5.2440     0.4600 C.ar  1 <1>  -0.1500 
 26 C       -4.0730    -6.0990    -0.3400 C.ar  1 <1>  -0.1500 
 27 H       -1.4640    -1.8490     0.2180 H     1 <1>   0.0800 
 28 H       -2.7180    -1.7460     1.4140 H     1 <1>   0.0800 
 29 H       -4.0510     0.6140     1.5040 H     1 <1>   0.0800 
 30 H       -3.5010     1.8440     0.4090 H     1 <1>   0.0800 
 31 H       -0.2940     2.4560     2.2480 H     1 <1>   0.1500 
 32 H       -3.0820    -1.6060    -1.5900 H     1 <1>   0.0800 
 33 H       -4.1320     0.4250    -1.5200 H     1 <1>   0.0800 
 34 H       -1.3950     4.6880    -1.9820 H     1 <1>   0.1500 
 35 H       -0.1110     4.9020     2.0670 H     1 <1>   0.1500 
 36 H       -0.6660     6.0170    -0.0560 H     1 <1>   0.1500 
 37 H       -2.2240    -3.8280    -2.0030 H     1 <1>   0.1500 
 38 H       -5.1950    -3.2180     0.9990 H     1 <1>   0.1500 
 39 H       -7.7550     0.9370     0.7110 H     1 <1>   0.0800 
 40 H       -6.2640     1.0250     1.6020 H     1 <1>   0.0800 
 41 H       -6.8000    -0.5000     0.9450 H     1 <1>   0.0800 
 42 H       -7.7960     0.6800    -1.7550 H     1 <1>   0.0800 
 43 H       -6.9240    -0.8170    -1.5890 H     1 <1>   0.0800 
 44 H       -6.3210     0.4250    -2.6510 H     1 <1>   0.0800 
 45 H       -6.9300     2.7700    -0.8650 H     1 <1>   0.0800 
 46 H       -5.3870     2.6020    -1.6560 H     1 <1>   0.0800 
 47 H       -5.4720     2.8620     0.0710 H     1 <1>   0.0800 
 48 H       -2.5710    -6.2470    -1.8500 H     1 <1>   0.1500 
 49 H       -5.5350    -5.6410     1.1480 H     1 <1>   0.1500 
 50 H       -4.2240    -7.1620    -0.2750 H     1 <1>   0.1500 
@<TRIPOS>BOND
  1   1   2  2   
  2   2   3  am  
  3   2   4  1   
  4   3   5  1   
  5   3   6  1   
  6   4   7  ar  
  7   4   8  ar  
  8   5   9  1   
  9   5  27  1   
 10   5  28  1   
 11   6  10  1   
 12   6  29  1   
 13   6  30  1   
 14   7  11  1   
 15   7  12  ar  
 16   8  13  ar  
 17   8  31  1   
 18   9  14  1   
 19   9  15  1   
 20   9  32  1   
 21  10  14  1   
 22  10  16  1   
 23  10  33  1   
 24  11  17  3   
 25  12  18  ar  
 26  12  34  1   
 27  13  18  ar  
 28  13  35  1   
 29  15  19  ar  
 30  15  20  ar  
 31  16  21  1   
 32  16  22  1   
 33  16  23  1   
 34  18  36  1   
 35  19  24  ar  
 36  19  37  1   
 37  20  25  ar  
 38  20  38  1   
 39  21  39  1   
 40  21  40  1   
 41  21  41  1   
 42  22  42  1   
 43  22  43  1   
 44  22  44  1   
 45  23  45  1   
 46  23  46  1   
 47  23  47  1   
 48  24  26  ar  
 49  24  48  1   
 50  25  26  ar  
 51  25  49  1   
 52  26  50  1   
@<TRIPOS>SUBSTRUCTURE
  1 ****   3 GROUP 4 **** **** 0

# MOE 2024.06 (io_trps.svl 2023.06)
