@<TRIPOS>MOLECULE
NONAME
52 54 1 0 0 
SMALL
USER_CHARGES


@<TRIPOS>ATOM
  1 O        0.3610    -1.0090    -1.9760 O.2   1 <1>  -0.5700 
  2 C        0.7660    -1.6310    -1.0070 C.2   1 <1>   0.5440 
  3 N        0.9390    -0.9210     0.1690 N.am  1 <1>  -0.6600 
  4 C        1.0660    -3.0580    -1.1620 C.ar  1 <1>   0.3960 
  5 C        0.7220     0.5400     0.2600 C.3   1 <1>   0.1400 
  6 C        1.5270    -1.4440     1.4240 C.3   1 <1>   0.1400 
  7 N        0.9150    -3.9210    -0.1420 N.ar  1 <1>  -0.6200 
  8 C        1.5080    -3.4910    -2.4180 C.ar  1 <1>   0.1600 
  9 C        1.5410     0.9770     1.4680 C.3   1 <1>  -0.1600 
 10 C        1.5690    -0.2500     2.3740 C.3   1 <1>  -0.1600 
 11 C        1.2190    -5.1640    -0.4480 C.ar  1 <1>   0.4100 
 12 N        1.8330    -4.7360    -2.7400 N.ar  1 <1>  -0.6200 
 13 N        1.0430    -6.0330     0.5980 N.pl3 1 <1>  -0.8690 
 14 C        1.6770    -5.5510    -1.7170 C.ar  1 <1>   0.1600 
 15 C        0.3870    -7.3480     0.4360 C.3   1 <1>   0.2090 
 16 C       -1.1230    -7.1450     0.3130 C.3   1 <1>  -0.1600 
 17 C       -1.8550    -8.4910     0.1940 C.3   1 <1>  -0.0170 
 18 C       -3.3840    -8.4120     0.1160 C.ar  1 <1>  -0.1430 
 19 C       -4.1160    -9.5990     0.1650 C.ar  1 <1>   0.0830 
 20 C       -4.0650    -7.2060    -0.0070 C.ar  1 <1>  -0.1500 
 21 O       -3.4230   -10.7650     0.2790 O.3   1 <1>  -0.3630 
 22 C       -5.5080    -9.5610     0.0960 C.ar  1 <1>  -0.1500 
 23 C       -5.4460    -7.1770    -0.0760 C.ar  1 <1>  -0.1500 
 24 C       -4.0710   -12.0130     0.3500 C.3   1 <1>   0.1200 
 25 C       -6.1680    -8.3540    -0.0240 C.ar  1 <1>  -0.1500 
 26 C       -3.0010   -13.0930     0.4820 C.3   1 <1>  -0.2400 
 27 H       -0.3250     0.7270     0.4220 H     1 <1>   0.0800 
 28 H        1.0440     1.0400    -0.6380 H     1 <1>   0.0800 
 29 H        2.5210    -1.8090     1.2280 H     1 <1>   0.0800 
 30 H        0.9210    -2.2350     1.8320 H     1 <1>   0.0800 
 31 H        1.6000    -2.7550    -3.1990 H     1 <1>   0.1500 
 32 H        1.1130     1.8360     1.9510 H     1 <1>   0.0800 
 33 H        2.5390     1.2160     1.1440 H     1 <1>   0.0800 
 34 H        2.4390    -0.2740     3.0070 H     1 <1>   0.0800 
 35 H        0.6880    -0.2670     2.9910 H     1 <1>   0.0800 
 36 H        0.7120    -5.5280     1.4250 H     1 <1>   0.4000 
 37 H        1.9230    -6.5850    -1.8680 H     1 <1>   0.1500 
 38 H        0.6080    -7.9550     1.2980 H     1 <1>   0.0800 
 39 H        0.7670    -7.8520    -0.4360 H     1 <1>   0.0800 
 40 H       -1.3250    -6.5530    -0.5620 H     1 <1>   0.0800 
 41 H       -1.4820    -6.6240     1.1830 H     1 <1>   0.0800 
 42 H       -1.5980    -9.0940     1.0480 H     1 <1>   0.0800 
 43 H       -1.5050    -9.0060    -0.6830 H     1 <1>   0.0800 
 44 H       -3.5420    -6.2690    -0.0530 H     1 <1>   0.1500 
 45 H       -6.0950   -10.4580     0.1320 H     1 <1>   0.1500 
 46 H       -5.9580    -6.2350    -0.1710 H     1 <1>   0.1500 
 47 H       -4.6430   -12.1520    -0.5510 H     1 <1>   0.0800 
 48 H       -4.7180   -12.0130     1.2100 H     1 <1>   0.0800 
 49 H       -7.2430    -8.3280    -0.0780 H     1 <1>   0.1500 
 50 H       -2.3510   -13.0740    -0.3740 H     1 <1>   0.0800 
 51 H       -3.4650   -14.0600     0.5400 H     1 <1>   0.0800 
 52 H       -2.4250   -12.9340     1.3760 H     1 <1>   0.0800 
@<TRIPOS>BOND
  1   1   2  2   
  2   2   3  am  
  3   2   4  1   
  4   3   5  1   
  5   3   6  1   
  6   4   7  ar  
  7   4   8  ar  
  8   5   9  1   
  9   5  27  1   
 10   5  28  1   
 11   6  10  1   
 12   6  29  1   
 13   6  30  1   
 14   7  11  ar  
 15   8  12  ar  
 16   8  31  1   
 17   9  10  1   
 18   9  32  1   
 19   9  33  1   
 20  10  34  1   
 21  10  35  1   
 22  11  13  1   
 23  11  14  ar  
 24  12  14  ar  
 25  13  15  1   
 26  13  36  1   
 27  14  37  1   
 28  15  16  1   
 29  15  38  1   
 30  15  39  1   
 31  16  17  1   
 32  16  40  1   
 33  16  41  1   
 34  17  18  1   
 35  17  42  1   
 36  17  43  1   
 37  18  19  ar  
 38  18  20  ar  
 39  19  21  1   
 40  19  22  ar  
 41  20  23  ar  
 42  20  44  1   
 43  21  24  1   
 44  22  25  ar  
 45  22  45  1   
 46  23  25  ar  
 47  23  46  1   
 48  24  26  1   
 49  24  47  1   
 50  24  48  1   
 51  25  49  1   
 52  26  50  1   
 53  26  51  1   
 54  26  52  1   
@<TRIPOS>SUBSTRUCTURE
  1 ****  16 GROUP 4 **** **** 0

# MOE 2024.06 (io_trps.svl 2023.06)
