@<TRIPOS>MOLECULE
NONAME
50 51 1 0 0 
SMALL
USER_CHARGES


@<TRIPOS>ATOM
  1 O       -0.1750     3.2380    -2.1690 O.co2 1 <1>  -0.9000 
  2 C       -0.8120     2.3650    -1.5570 C.2   1 <1>   0.9060 
  3 O       -1.7010     1.7100    -2.0960 O.co2 1 <1>  -0.9000 
  4 C       -0.5600     2.1630    -0.0630 C.3   1 <1>  -0.1060 
  5 C       -1.8370     2.6440     0.6550 C.3   1 <1>   0.2000 
  6 C        0.6150     3.0510     0.3660 C.3   1 <1>   0.3430 
  7 C       -0.2440     0.6540     0.1820 C.3   1 <1>  -0.1600 
  8 O       -1.7130     2.4530     2.0220 O.3   1 <1>  -0.6800 
  9 C       -2.0880     4.1410     0.4520 C.3   1 <1>  -0.1600 
 10 N        0.3320     4.4930     0.1040 N.4   1 <1>  -0.9590 
 11 C        0.5020     0.2840     1.4810 C.3   1 <1>  -0.1600 
 12 C       -0.8670     4.9640     0.8520 C.3   1 <1>   0.3430 
 13 C        1.5450     5.3250     0.2420 C.3   1 <1>   0.3430 
 14 C        0.6780    -1.2330     1.5840 C.3   1 <1>  -0.2400 
 15 C        1.3230     6.7050    -0.3720 C.3   1 <1>  -0.1600 
 16 C        2.6230     7.5070    -0.3770 C.3   1 <1>   0.1200 
 17 O        2.3260     8.7980    -0.8470 O.3   1 <1>  -0.3630 
 18 C        3.2870     9.7500    -0.9550 C.ar  1 <1>   0.0820 
 19 C        2.8840    10.9910    -1.4220 C.ar  1 <1>  -0.1500 
 20 C        4.6250     9.5450    -0.6250 C.ar  1 <1>  -0.1500 
 21 C        3.7980    12.0200    -1.5610 C.ar  1 <1>  -0.1500 
 22 C        5.5380    10.5760    -0.7650 C.ar  1 <1>  -0.1500 
 23 C        5.1260    11.8130    -1.2320 C.ar  1 <1>  -0.1500 
 24 H       -2.6930     2.0810     0.3150 H     1 <1>   0.0800 
 25 H        1.4860     2.7500    -0.1920 H     1 <1>   0.0800 
 26 H        0.8050     2.9060     1.4160 H     1 <1>   0.0800 
 27 H       -1.1670     0.1000     0.1240 H     1 <1>   0.0800 
 28 H        0.3600     0.3070    -0.6420 H     1 <1>   0.0800 
 29 H       -1.7780     1.4950     2.2120 H     1 <1>   0.4000 
 30 H       -2.3290     4.3370    -0.5790 H     1 <1>   0.0800 
 31 H       -2.9380     4.4420     1.0360 H     1 <1>   0.0800 
 32 H        0.0830     4.4550    -0.9200 H     1 <1>   0.4500 
 33 H        1.4780     0.7370     1.4910 H     1 <1>   0.0800 
 34 H       -0.0310     0.6210     2.3500 H     1 <1>   0.0800 
 35 H       -0.6990     4.8550     1.9110 H     1 <1>   0.0800 
 36 H       -1.0570     6.0020     0.6370 H     1 <1>   0.0800 
 37 H        1.8100     5.4200     1.2830 H     1 <1>   0.0800 
 38 H        2.3590     4.8430    -0.2750 H     1 <1>   0.0800 
 39 H        1.2390    -1.6050     0.7440 H     1 <1>   0.0800 
 40 H       -0.2800    -1.7230     1.6020 H     1 <1>   0.0800 
 41 H        1.2080    -1.4840     2.4860 H     1 <1>   0.0800 
 42 H        0.5920     7.2490     0.1980 H     1 <1>   0.0800 
 43 H        0.9820     6.5950    -1.3870 H     1 <1>   0.0800 
 44 H        3.3490     7.0640    -1.0380 H     1 <1>   0.0800 
 45 H        3.0260     7.5990     0.6180 H     1 <1>   0.0800 
 46 H        1.8510    11.1450    -1.6770 H     1 <1>   0.1500 
 47 H        4.9760     8.6000    -0.2620 H     1 <1>   0.1500 
 48 H        3.4760    12.9810    -1.9250 H     1 <1>   0.1500 
 49 H        6.5720    10.4190    -0.5100 H     1 <1>   0.1500 
 50 H        5.8380    12.6130    -1.3400 H     1 <1>   0.1500 
@<TRIPOS>BOND
  1   1   2  ar  
  2   2   3  ar  
  3   2   4  1   
  4   4   5  1   
  5   4   6  1   
  6   4   7  1   
  7   5   8  1   
  8   5   9  1   
  9   5  24  1   
 10   6  10  1   
 11   6  25  1   
 12   6  26  1   
 13   7  11  1   
 14   7  27  1   
 15   7  28  1   
 16   8  29  1   
 17   9  12  1   
 18   9  30  1   
 19   9  31  1   
 20  10  12  1   
 21  10  13  1   
 22  10  32  1   
 23  11  14  1   
 24  11  33  1   
 25  11  34  1   
 26  12  35  1   
 27  12  36  1   
 28  13  15  1   
 29  13  37  1   
 30  13  38  1   
 31  14  39  1   
 32  14  40  1   
 33  14  41  1   
 34  15  16  1   
 35  15  42  1   
 36  15  43  1   
 37  16  17  1   
 38  16  44  1   
 39  16  45  1   
 40  17  18  1   
 41  18  19  ar  
 42  18  20  ar  
 43  19  21  ar  
 44  19  46  1   
 45  20  22  ar  
 46  20  47  1   
 47  21  23  ar  
 48  21  48  1   
 49  22  23  ar  
 50  22  49  1   
 51  23  50  1   
@<TRIPOS>SUBSTRUCTURE
  1 ****  13 GROUP 4 **** **** 0

# MOE 2024.06 (io_trps.svl 2023.06)
