@<TRIPOS>MOLECULE
NONAME
54 56 1 0 0 
SMALL
USER_CHARGES


@<TRIPOS>ATOM
  1 O       -0.0560     1.1080    -0.9630 O.2   1 <1>  -0.5700 
  2 C       -0.3600     2.2770    -0.9350 C.2   1 <1>   0.5690 
  3 N       -1.2380     2.8180    -0.0310 N.am  1 <1>  -0.6600 
  4 C        0.2710     3.1940    -1.9780 C.3   1 <1>   0.1810 
  5 C       -1.5760     4.2820    -0.0770 C.3   1 <1>   0.3640 
  6 C       -1.8640     2.0710     1.0960 C.3   1 <1>   0.2200 
  7 O        0.4820     4.4850    -1.4700 O.3   1 <1>  -0.5600 
  8 C       -3.0540     4.4470    -0.4400 C.ar  1 <1>  -0.1440 
  9 C       -0.7060     5.1380    -1.0420 C.3   1 <1>   0.2610 
 10 C       -0.7900     1.6070     2.0790 C.3   1 <1>  -0.2400 
 11 C       -2.7180     0.9070     0.5920 C.3   1 <1>  -0.2400 
 12 C       -3.6260     3.7330    -1.4860 C.ar  1 <1>  -0.1500 
 13 C       -3.8450     5.3330     0.2770 C.ar  1 <1>  -0.1500 
 14 C       -0.3610     6.4730    -0.3700 C.2   1 <1>   0.5690 
 15 C       -4.9620     3.8980    -1.8040 C.ar  1 <1>  -0.1500 
 16 C       -5.1820     5.5000    -0.0410 C.ar  1 <1>  -0.1500 
 17 O       -1.2470     7.1660     0.0740 O.2   1 <1>  -0.5700 
 18 N        0.9430     6.8500    -0.2800 N.am  1 <1>  -0.7300 
 19 C       -5.7420     4.7820    -1.0810 C.ar  1 <1>  -0.1500 
 20 C        1.4490     8.0930     0.3460 C.3   1 <1>   0.1400 
 21 C        1.7660     9.1270    -0.7330 C.3   1 <1>  -0.0170 
 22 C        2.3170    10.3950    -0.0990 C.ar  1 <1>  -0.1440 
 23 C        1.4470    11.3440     0.4180 C.ar  1 <1>  -0.1500 
 24 C        3.6860    10.6100    -0.0290 C.ar  1 <1>  -0.1500 
 25 C        1.9410    12.4980     1.0010 C.ar  1 <1>  -0.1500 
 26 C        4.1840    11.7620     0.5530 C.ar  1 <1>  -0.1500 
 27 C        3.3070    12.7040     1.0670 C.ar  1 <1>   0.0820 
 28 O        3.7760    13.8250     1.6340 O.3   1 <1>  -0.5330 
 29 H       -0.3620     3.2580    -2.8440 H     1 <1>   0.0800 
 30 H        1.2260     2.7960    -2.2700 H     1 <1>   0.0800 
 31 H       -1.4300     4.6680     0.9180 H     1 <1>   0.0800 
 32 H       -2.5230     2.7390     1.6280 H     1 <1>   0.0800 
 33 H       -1.2770     5.3630    -1.9250 H     1 <1>   0.0800 
 34 H       -0.1420     0.8810     1.6220 H     1 <1>   0.0800 
 35 H       -1.2520     1.1530     2.9360 H     1 <1>   0.0800 
 36 H       -0.2040     2.4450     2.4120 H     1 <1>   0.0800 
 37 H       -2.1140     0.1540     0.1220 H     1 <1>   0.0800 
 38 H       -3.4530     1.2610    -0.1070 H     1 <1>   0.0800 
 39 H       -3.2330     0.4530     1.4180 H     1 <1>   0.0800 
 40 H       -3.0370     3.0360    -2.0550 H     1 <1>   0.1500 
 41 H       -3.4250     5.9090     1.0850 H     1 <1>   0.1500 
 42 H       -5.3960     3.3380    -2.6140 H     1 <1>   0.1500 
 43 H       -5.7850     6.1920     0.5220 H     1 <1>   0.1500 
 44 H        1.6350     6.2120    -0.6860 H     1 <1>   0.3700 
 45 H       -6.7810     4.9120    -1.3280 H     1 <1>   0.1500 
 46 H        0.7060     8.4910     1.0180 H     1 <1>   0.0800 
 47 H        2.3340     7.8720     0.9180 H     1 <1>   0.0800 
 48 H        2.4840     8.7240    -1.4230 H     1 <1>   0.0800 
 49 H        0.8670     9.3610    -1.2760 H     1 <1>   0.0800 
 50 H        0.3830    11.1890     0.3700 H     1 <1>   0.1500 
 51 H        4.3700     9.8810    -0.4270 H     1 <1>   0.1500 
 52 H        1.2750    13.2390     1.4040 H     1 <1>   0.1500 
 53 H        5.2460    11.9200     0.6030 H     1 <1>   0.1500 
 54 H        4.7470    13.8780     1.6270 H     1 <1>   0.4500 
@<TRIPOS>BOND
  1   1   2  2   
  2   2   3  am  
  3   2   4  1   
  4   3   5  1   
  5   3   6  1   
  6   4   7  1   
  7   4  29  1   
  8   4  30  1   
  9   5   8  1   
 10   5   9  1   
 11   5  31  1   
 12   6  10  1   
 13   6  11  1   
 14   6  32  1   
 15   7   9  1   
 16   8  12  ar  
 17   8  13  ar  
 18   9  14  1   
 19   9  33  1   
 20  10  34  1   
 21  10  35  1   
 22  10  36  1   
 23  11  37  1   
 24  11  38  1   
 25  11  39  1   
 26  12  15  ar  
 27  12  40  1   
 28  13  16  ar  
 29  13  41  1   
 30  14  17  2   
 31  14  18  am  
 32  15  19  ar  
 33  15  42  1   
 34  16  19  ar  
 35  16  43  1   
 36  18  20  1   
 37  18  44  1   
 38  19  45  1   
 39  20  21  1   
 40  20  46  1   
 41  20  47  1   
 42  21  22  1   
 43  21  48  1   
 44  21  49  1   
 45  22  23  ar  
 46  22  24  ar  
 47  23  25  ar  
 48  23  50  1   
 49  24  26  ar  
 50  24  51  1   
 51  25  27  ar  
 52  25  52  1   
 53  26  27  ar  
 54  26  53  1   
 55  27  28  1   
 56  28  54  1   
@<TRIPOS>SUBSTRUCTURE
  1 ****  14 GROUP 4 **** **** 0

# MOE 2024.06 (io_trps.svl 2023.06)
