@<TRIPOS>MOLECULE
NONAME
59 61 1 0 0 
SMALL
USER_CHARGES


@<TRIPOS>ATOM
  1 O       -1.4940     0.7270    -0.9120 O.2   1 <1>  -0.5700 
  2 C       -0.9260     1.7720    -0.7240 C.2   1 <1>   0.5690 
  3 N       -1.4870     2.7310     0.0470 N.am  1 <1>  -0.7300 
  4 C        0.4310     2.0380    -1.3930 C.3   1 <1>   0.1810 
  5 C       -0.8080     4.0020     0.3720 C.3   1 <1>   0.3640 
  6 O        1.1150     3.1740    -0.8870 O.3   1 <1>  -0.5600 
  7 C       -1.8290     5.1360     0.4140 C.ar  1 <1>  -0.1440 
  8 C        0.2970     4.3050    -0.6670 C.3   1 <1>   0.2610 
  9 C       -1.9130     5.9480     1.5360 C.ar  1 <1>  -0.1500 
 10 C       -2.6750     5.3820    -0.6600 C.ar  1 <1>  -0.1500 
 11 C        1.1420     5.5200    -0.2570 C.2   1 <1>   0.5690 
 12 C       -2.8200     6.9920     1.5840 C.ar  1 <1>  -0.1500 
 13 C       -3.5800     6.4290    -0.6150 C.ar  1 <1>  -0.1500 
 14 O        1.2370     5.8410     0.9050 O.2   1 <1>  -0.5700 
 15 N        1.7710     6.2370    -1.2370 N.am  1 <1>  -0.7300 
 16 C       -3.6520     7.2350     0.5060 C.ar  1 <1>  -0.1500 
 17 C        2.5740     7.5110    -1.2110 C.3   1 <1>   0.1400 
 18 C        2.3030     8.5650    -0.0740 C.3   1 <1>   0.5030 
 19 N        2.7730     8.0320     1.2590 N.4   1 <1>  -0.9590 
 20 C        0.7800     8.8590    -0.0280 C.3   1 <1>  -0.1600 
 21 C        3.0910     9.8590    -0.3920 C.3   1 <1>  -0.1600 
 22 C        2.4150     8.8000     2.4960 C.3   1 <1>   0.2630 
 23 C        4.2180     7.6280     1.3300 C.3   1 <1>   0.2630 
 24 C        0.4490    10.3300     0.2100 C.3   1 <1>   0.3430 
 25 C        2.3630    10.7510    -1.4030 C.3   1 <1>   0.3430 
 26 N        1.0130    11.1650    -0.8960 N.4   1 <1>  -0.9590 
 27 C        1.0070    12.6160    -0.5110 C.3   1 <1>   0.2630 
 28 H       -2.3850     2.5430     0.4980 H     1 <1>   0.3700 
 29 H        0.2800     2.1780    -2.4470 H     1 <1>   0.0800 
 30 H        1.0680     1.1840    -1.2500 H     1 <1>   0.0800 
 31 H       -0.3530     3.8970     1.3420 H     1 <1>   0.0800 
 32 H       -0.1750     4.5400    -1.6030 H     1 <1>   0.0800 
 33 H       -1.2750     5.7670     2.3860 H     1 <1>   0.1500 
 34 H       -2.6460     4.7550    -1.5350 H     1 <1>   0.1500 
 35 H       -2.8900     7.6080     2.4650 H     1 <1>   0.1500 
 36 H       -4.2370     6.6090    -1.4490 H     1 <1>   0.1500 
 37 H        1.7970     5.7690    -2.1530 H     1 <1>   0.3700 
 38 H       -4.3660     8.0410     0.5440 H     1 <1>   0.1500 
 39 H        3.6170     7.2510    -1.2280 H     1 <1>   0.0800 
 40 H        2.3820     8.0000    -2.1500 H     1 <1>   0.0800 
 41 H        2.2510     7.1280     1.3370 H     1 <1>   0.4500 
 42 H        0.3190     8.5850    -0.9620 H     1 <1>   0.0800 
 43 H        0.2970     8.2590     0.7220 H     1 <1>   0.0800 
 44 H        3.2600    10.4440     0.4930 H     1 <1>   0.0800 
 45 H        4.0570     9.6120    -0.7960 H     1 <1>   0.0800 
 46 H        2.9100     9.7570     2.5080 H     1 <1>   0.0800 
 47 H        2.7210     8.2490     3.3720 H     1 <1>   0.0800 
 48 H        1.3500     8.9500     2.5560 H     1 <1>   0.0800 
 49 H        4.8600     8.4830     1.1940 H     1 <1>   0.0800 
 50 H        4.4460     6.8930     0.5760 H     1 <1>   0.0800 
 51 H        4.4330     7.1900     2.2920 H     1 <1>   0.0800 
 52 H        0.8690    10.6440     1.1520 H     1 <1>   0.0800 
 53 H       -0.6210    10.4630     0.2610 H     1 <1>   0.0800 
 54 H        2.2440    10.2100    -2.3290 H     1 <1>   0.0800 
 55 H        2.9610    11.6240    -1.6150 H     1 <1>   0.0800 
 56 H        0.3580    11.0860    -1.6940 H     1 <1>   0.4500 
 57 H        1.6740    12.7910     0.3170 H     1 <1>   0.0800 
 58 H        0.0140    12.9250    -0.2230 H     1 <1>   0.0800 
 59 H        1.3230    13.2270    -1.3410 H     1 <1>   0.0800 
@<TRIPOS>BOND
  1   1   2  2   
  2   2   3  am  
  3   2   4  1   
  4   3   5  1   
  5   3  28  1   
  6   4   6  1   
  7   4  29  1   
  8   4  30  1   
  9   5   7  1   
 10   5   8  1   
 11   5  31  1   
 12   6   8  1   
 13   7   9  ar  
 14   7  10  ar  
 15   8  11  1   
 16   8  32  1   
 17   9  12  ar  
 18   9  33  1   
 19  10  13  ar  
 20  10  34  1   
 21  11  14  2   
 22  11  15  am  
 23  12  16  ar  
 24  12  35  1   
 25  13  16  ar  
 26  13  36  1   
 27  15  17  1   
 28  15  37  1   
 29  16  38  1   
 30  17  18  1   
 31  17  39  1   
 32  17  40  1   
 33  18  19  1   
 34  18  20  1   
 35  18  21  1   
 36  19  22  1   
 37  19  23  1   
 38  19  41  1   
 39  20  24  1   
 40  20  42  1   
 41  20  43  1   
 42  21  25  1   
 43  21  44  1   
 44  21  45  1   
 45  22  46  1   
 46  22  47  1   
 47  22  48  1   
 48  23  49  1   
 49  23  50  1   
 50  23  51  1   
 51  24  26  1   
 52  24  52  1   
 53  24  53  1   
 54  25  26  1   
 55  25  54  1   
 56  25  55  1   
 57  26  27  1   
 58  26  56  1   
 59  27  57  1   
 60  27  58  1   
 61  27  59  1   
@<TRIPOS>SUBSTRUCTURE
  1 ****  11 GROUP 4 **** **** 0

# MOE 2024.06 (io_trps.svl 2023.06)
