@<TRIPOS>MOLECULE
NONAME
48 51 1 0 0 
SMALL
USER_CHARGES


@<TRIPOS>ATOM
  1 S       -1.2550    -0.4140    -1.3780 S.3   1 <1>  -0.0800 
  2 C       -1.9220    -0.8860     0.1820 C.2   1 <1>  -0.1400 
  3 C       -1.5010     1.2860    -1.0210 C.2   1 <1>  -0.1100 
  4 C       -2.2870     0.2060     0.8820 C.2   1 <1>  -0.1500 
  5 C       -2.0010    -2.3650     0.5190 C.3   1 <1>   0.3800 
  6 C       -2.0480     1.4400     0.1980 C.2   1 <1>  -0.1500 
  7 O       -0.7160    -2.8580     0.5370 O.3   1 <1>  -0.6800 
  8 C       -2.8270    -3.1880    -0.4950 C.3   1 <1>  -0.0800 
  9 C       -4.2690    -2.6600    -0.6330 C.3   1 <1>  -0.1600 
 10 C       -2.8640    -4.6870    -0.1370 C.3   1 <1>  -0.1600 
 11 C       -5.0790    -3.4920    -1.6270 C.3   1 <1>   0.3430 
 12 C       -3.6930    -5.4850    -1.1400 C.3   1 <1>   0.3430 
 13 N       -5.0750    -4.9220    -1.2100 N.4   1 <1>  -0.9590 
 14 C       -5.9510    -5.7520    -2.0840 C.3   1 <1>   0.4810 
 15 C       -6.1550    -7.1090    -1.4200 C.2   1 <1>  -0.0380 
 16 N       -6.8900    -7.1780    -0.2540 N.pl3 1 <1>  -0.6000 
 17 C       -5.6180    -8.2470    -1.9290 C.2   1 <1>  -0.1360 
 18 C       -7.0890    -8.3810     0.4280 C.ar  1 <1>   0.1000 
 19 C       -5.7750    -9.5070    -1.2940 C.2   1 <1>   0.4690 
 20 C       -7.8300    -8.4470     1.6100 C.ar  1 <1>   0.1900 
 21 C       -6.5390    -9.5710    -0.0760 C.ar  1 <1>   0.0860 
 22 O       -5.2470   -10.4930    -1.7840 O.2   1 <1>  -0.5700 
 23 F       -8.3420    -7.3370     2.0830 F     1 <1>  -0.1900 
 24 C       -8.0440    -9.6180     2.2990 C.ar  1 <1>  -0.1500 
 25 C       -6.7600   -10.7630     0.6300 C.ar  1 <1>  -0.1500 
 26 C       -7.4980   -10.7920     1.7960 C.ar  1 <1>  -0.1500 
 27 H       -1.2040     1.9980    -1.7710 H     1 <1>   0.1500 
 28 H       -2.7200     0.2070     1.8680 H     1 <1>   0.1500 
 29 H       -2.4040    -2.4820     1.5120 H     1 <1>   0.0800 
 30 H       -2.2970     2.3820     0.6540 H     1 <1>   0.1500 
 31 H       -0.1090    -2.1250     0.7610 H     1 <1>   0.4000 
 32 H       -2.3470    -3.0860    -1.4540 H     1 <1>   0.0800 
 33 H       -4.2500    -1.6430    -0.9840 H     1 <1>   0.0800 
 34 H       -4.7610    -2.6610     0.3240 H     1 <1>   0.0800 
 35 H       -3.2600    -4.8280     0.8540 H     1 <1>   0.0800 
 36 H       -1.8630    -5.0840    -0.1400 H     1 <1>   0.0800 
 37 H       -4.6430    -3.3960    -2.6090 H     1 <1>   0.0800 
 38 H       -6.0900    -3.1170    -1.6660 H     1 <1>   0.0800 
 39 H       -3.7250    -6.5180    -0.8300 H     1 <1>   0.0800 
 40 H       -3.2250    -5.4350    -2.1100 H     1 <1>   0.0800 
 41 H       -5.4600    -4.9890    -0.2600 H     1 <1>   0.4500 
 42 H       -5.4960    -5.8780    -3.0530 H     1 <1>   0.0800 
 43 H       -6.9090    -5.2760    -2.2160 H     1 <1>   0.0800 
 44 H       -7.4200    -6.3800     0.1290 H     1 <1>   0.4000 
 45 H       -5.0420    -8.2640    -2.8360 H     1 <1>   0.1500 
 46 H       -8.6220    -9.6230     3.2070 H     1 <1>   0.1500 
 47 H       -6.3380   -11.6760     0.2420 H     1 <1>   0.1500 
 48 H       -7.6530   -11.7210     2.3190 H     1 <1>   0.1500 
@<TRIPOS>BOND
  1   1   2  1   
  2   1   3  1   
  3   2   4  2   
  4   2   5  1   
  5   3   6  2   
  6   3  27  1   
  7   4   6  1   
  8   4  28  1   
  9   5   7  1   
 10   5   8  1   
 11   5  29  1   
 12   6  30  1   
 13   7  31  1   
 14   8   9  1   
 15   8  10  1   
 16   8  32  1   
 17   9  11  1   
 18   9  33  1   
 19   9  34  1   
 20  10  12  1   
 21  10  35  1   
 22  10  36  1   
 23  11  13  1   
 24  11  37  1   
 25  11  38  1   
 26  12  13  1   
 27  12  39  1   
 28  12  40  1   
 29  13  14  1   
 30  13  41  1   
 31  14  15  1   
 32  14  42  1   
 33  14  43  1   
 34  15  16  1   
 35  15  17  2   
 36  16  18  1   
 37  16  44  1   
 38  17  19  1   
 39  17  45  1   
 40  18  20  ar  
 41  18  21  ar  
 42  19  21  1   
 43  19  22  2   
 44  20  23  1   
 45  20  24  ar  
 46  21  25  ar  
 47  24  26  ar  
 48  24  46  1   
 49  25  26  ar  
 50  25  47  1   
 51  26  48  1   
@<TRIPOS>SUBSTRUCTURE
  1 ****  13 GROUP 4 **** **** 0

# MOE 2024.06 (io_trps.svl 2023.06)
