@<TRIPOS>MOLECULE
NONAME
42 43 1 0 0 
SMALL
USER_CHARGES


@<TRIPOS>ATOM
  1 O        0.7870     0.1790     2.0960 O.2   1 <1>  -0.5700 
  2 C        1.4630     0.6860     1.2180 C.2   1 <1>   0.5440 
  3 N        1.4340     2.0510     1.0910 N.am  1 <1>  -0.7300 
  4 C        2.2650    -0.1220     0.3220 C.ar  1 <1>   0.0860 
  5 C        0.6870     2.9890     1.9710 C.3   1 <1>   0.0600 
  6 C        1.8960    -1.4390    -0.0280 C.ar  1 <1>   0.4100 
  7 C        3.4400     0.3750    -0.2320 C.ar  1 <1>  -0.1500 
  8 N        2.5770    -2.2120    -0.8730 N.ar  1 <1>  -0.6200 
  9 N        0.7650    -2.0260     0.4940 N.pl3 1 <1>  -0.8690 
 10 C        4.1530    -0.4290    -1.0910 C.ar  1 <1>  -0.1500 
 11 C        3.6830    -1.6970    -1.3760 C.ar  1 <1>   0.1600 
 12 C        0.7220    -3.4900     0.8100 C.3   1 <1>   0.2090 
 13 C        0.5550    -4.4220    -0.4250 C.3   1 <1>   0.6030 
 14 N       -0.5540    -4.0570    -1.3780 N.4   1 <1>  -0.9590 
 15 C        0.3020    -5.8650    -0.0040 C.2   1 <1>  -0.0400 
 16 C       -0.1230    -2.9720    -2.3090 C.3   1 <1>   0.2630 
 17 C       -1.8330    -3.7100    -0.6930 C.3   1 <1>   0.2630 
 18 O        0.0210    -6.7390    -0.9570 O.3   1 <1>  -0.2800 
 19 C        0.2960    -6.4760     1.2040 C.2   1 <1>  -0.1500 
 20 C       -0.1640    -7.9120    -0.3860 C.2   1 <1>  -0.0100 
 21 C       -0.0100    -7.8190     0.9510 C.2   1 <1>  -0.1500 
 22 H        1.9230     2.4890     0.3080 H     1 <1>   0.3700 
 23 H        0.2370     2.4610     2.7950 H     1 <1>   0.0800 
 24 H       -0.0900     3.4770     1.4070 H     1 <1>   0.0800 
 25 H        1.3580     3.7320     2.3650 H     1 <1>   0.0800 
 26 H        3.7970     1.3610     0.0100 H     1 <1>   0.1500 
 27 H        0.3730    -1.4440     1.2610 H     1 <1>   0.4000 
 28 H        5.0690    -0.0810    -1.5380 H     1 <1>   0.1500 
 29 H        4.2530    -2.3130    -2.0520 H     1 <1>   0.1500 
 30 H       -0.0840    -3.6680     1.4990 H     1 <1>   0.0800 
 31 H        1.6350    -3.7590     1.3140 H     1 <1>   0.0800 
 32 H        1.4860    -4.4110    -0.9670 H     1 <1>   0.0800 
 33 H       -0.6940    -4.9280    -1.9130 H     1 <1>   0.4500 
 34 H       -0.0040    -2.0440    -1.7730 H     1 <1>   0.0800 
 35 H       -0.8570    -2.8290    -3.0850 H     1 <1>   0.0800 
 36 H        0.8220    -3.2210    -2.7650 H     1 <1>   0.0800 
 37 H       -1.7120    -2.8090    -0.1140 H     1 <1>   0.0800 
 38 H       -2.1340    -4.5100    -0.0370 H     1 <1>   0.0800 
 39 H       -2.6130    -3.5490    -1.4200 H     1 <1>   0.0800 
 40 H        0.4820    -6.0770     2.1870 H     1 <1>   0.1500 
 41 H       -0.4000    -8.7640    -1.0020 H     1 <1>   0.1500 
 42 H       -0.0940    -8.5950     1.6930 H     1 <1>   0.1500 
@<TRIPOS>BOND
  1   1   2  2   
  2   2   3  am  
  3   2   4  1   
  4   3   5  1   
  5   3  22  1   
  6   4   6  ar  
  7   4   7  ar  
  8   5  23  1   
  9   5  24  1   
 10   5  25  1   
 11   6   8  ar  
 12   6   9  1   
 13   7  10  ar  
 14   7  26  1   
 15   8  11  ar  
 16   9  12  1   
 17   9  27  1   
 18  10  11  ar  
 19  10  28  1   
 20  11  29  1   
 21  12  13  1   
 22  12  30  1   
 23  12  31  1   
 24  13  14  1   
 25  13  15  1   
 26  13  32  1   
 27  14  16  1   
 28  14  17  1   
 29  14  33  1   
 30  15  18  1   
 31  15  19  2   
 32  16  34  1   
 33  16  35  1   
 34  16  36  1   
 35  17  37  1   
 36  17  38  1   
 37  17  39  1   
 38  18  20  1   
 39  19  21  1   
 40  19  40  1   
 41  20  21  2   
 42  20  41  1   
 43  21  42  1   
@<TRIPOS>SUBSTRUCTURE
  1 ****   9 GROUP 4 **** **** 0

# MOE 2024.06 (io_trps.svl 2023.06)
