@<TRIPOS>MOLECULE
NONAME
45 46 1 0 0 
SMALL
USER_CHARGES


@<TRIPOS>ATOM
  1 O        0.0610     0.5510    -0.9960 O.co2 1 <1>  -0.9000 
  2 C        0.8440    -0.2590    -0.4770 C.2   1 <1>   0.9060 
  3 O        0.5210    -1.3650    -0.0500 O.co2 1 <1>  -0.9000 
  4 C        2.2850     0.2280    -0.3180 C.3   1 <1>   0.2370 
  5 N        2.3500     1.7410    -0.3960 N.4   1 <1>  -0.9590 
  6 C        3.6200     2.2640    -0.9530 C.3   1 <1>   0.3430 
  7 C        1.9120     2.3470     0.8880 C.3   1 <1>   0.3430 
  8 C        3.5200     3.7760    -1.1130 C.3   1 <1>  -0.1600 
  9 C        1.8120     3.8600     0.7310 C.3   1 <1>  -0.1600 
 10 C        3.1310     4.4230     0.2130 C.3   1 <1>   0.2890 
 11 N        2.9880     5.8710     0.0110 N.pl3 1 <1>  -0.8690 
 12 C        4.0060     6.7860     0.1420 C.ar  1 <1>   0.4100 
 13 N        5.1930     6.3160     0.4660 N.ar  1 <1>  -0.6200 
 14 C        3.7910     8.1430    -0.0660 C.ar  1 <1>  -0.1430 
 15 C        6.1560     7.2070     0.5820 C.ar  1 <1>   0.4770 
 16 C        4.8830     8.9630     0.0840 C.ar  1 <1>   0.1600 
 17 C        2.3960     8.6580    -0.4400 C.3   1 <1>  -0.0170 
 18 N        6.0770     8.5100     0.4080 N.ar  1 <1>  -0.6200 
 19 C        7.5200     6.6820     0.9570 C.3   1 <1>  -0.0970 
 20 C        2.2740    10.1810    -0.5940 C.3   1 <1>  -0.1600 
 21 C        0.8410    10.5910    -0.9520 C.3   1 <1>  -0.2400 
 22 H        2.8540    -0.2120    -1.1160 H     1 <1>   0.0800 
 23 H        2.6670    -0.1290     0.6210 H     1 <1>   0.0800 
 24 H        1.5540     1.9180    -1.0520 H     1 <1>   0.4500 
 25 H        3.8160     1.8090    -1.9100 H     1 <1>   0.0800 
 26 H        4.4320     2.0240    -0.2860 H     1 <1>   0.0800 
 27 H        2.6200     2.1060     1.6640 H     1 <1>   0.0800 
 28 H        0.9480     1.9480     1.1660 H     1 <1>   0.0800 
 29 H        2.7950     4.0090    -1.8720 H     1 <1>   0.0800 
 30 H        4.4740     4.1590    -1.4270 H     1 <1>   0.0800 
 31 H        1.5870     4.2970     1.6870 H     1 <1>   0.0800 
 32 H        1.0090     4.0890     0.0530 H     1 <1>   0.0800 
 33 H        3.9010     4.2360     0.9450 H     1 <1>   0.0800 
 34 H        2.1070     6.1880    -0.3940 H     1 <1>   0.4000 
 35 H        4.8050    10.0260    -0.0600 H     1 <1>   0.1500 
 36 H        1.7050     8.3380     0.3210 H     1 <1>   0.0800 
 37 H        2.1030     8.1970    -1.3670 H     1 <1>   0.0800 
 38 H        7.4810     5.6270     1.1520 H     1 <1>   0.0800 
 39 H        7.8680     7.1880     1.8370 H     1 <1>   0.0800 
 40 H        8.2060     6.8660     0.1510 H     1 <1>   0.0800 
 41 H        2.9370    10.5220    -1.3710 H     1 <1>   0.0800 
 42 H        2.5530    10.6620     0.3290 H     1 <1>   0.0800 
 43 H        0.5400    10.1430    -1.8830 H     1 <1>   0.0800 
 44 H        0.7810    11.6600    -1.0550 H     1 <1>   0.0800 
 45 H        0.1560    10.2860    -0.1810 H     1 <1>   0.0800 
@<TRIPOS>BOND
  1   1   2  ar  
  2   2   3  ar  
  3   2   4  1   
  4   4   5  1   
  5   4  22  1   
  6   4  23  1   
  7   5   6  1   
  8   5   7  1   
  9   5  24  1   
 10   6   8  1   
 11   6  25  1   
 12   6  26  1   
 13   7   9  1   
 14   7  27  1   
 15   7  28  1   
 16   8  10  1   
 17   8  29  1   
 18   8  30  1   
 19   9  10  1   
 20   9  31  1   
 21   9  32  1   
 22  10  11  1   
 23  10  33  1   
 24  11  12  1   
 25  11  34  1   
 26  12  13  ar  
 27  12  14  ar  
 28  13  15  ar  
 29  14  16  ar  
 30  14  17  1   
 31  15  18  ar  
 32  15  19  1   
 33  16  18  ar  
 34  16  35  1   
 35  17  20  1   
 36  17  36  1   
 37  17  37  1   
 38  19  38  1   
 39  19  39  1   
 40  19  40  1   
 41  20  21  1   
 42  20  41  1   
 43  20  42  1   
 44  21  43  1   
 45  21  44  1   
 46  21  45  1   
@<TRIPOS>SUBSTRUCTURE
  1 ****  10 GROUP 4 **** **** 0

# MOE 2024.06 (io_trps.svl 2023.06)
