@<TRIPOS>MOLECULE
NONAME
48 50 1 0 0 
SMALL
USER_CHARGES


@<TRIPOS>ATOM
  1 O       -1.9310     0.3320    -2.2060 O.2   1 <1>  -0.5700 
  2 C       -1.9150     0.6080    -1.0320 C.2   1 <1>   0.5690 
  3 N       -1.9260    -0.3460    -0.0720 N.am  1 <1>  -0.7300 
  4 C       -1.8850     2.0590    -0.6110 C.3   1 <1>  -0.0990 
  5 C       -1.9140    -1.8050    -0.3250 C.3   1 <1>   0.2200 
  6 C       -0.4470     2.5800    -0.5350 C.3   1 <1>  -0.0170 
  7 C       -3.2780    -2.4250    -0.0500 C.3   1 <1>  -0.0800 
  8 C       -1.0800    -2.4800     0.7540 C.3   1 <1>   0.1200 
  9 C       -0.4330     4.0200    -0.0500 C.ar  1 <1>  -0.1440 
 10 C       -3.2480    -2.6710     1.4640 C.3   1 <1>   0.1200 
 11 C       -4.4950    -1.6190    -0.5380 C.3   1 <1>  -0.0170 
 12 O       -1.9160    -2.5360     1.8690 O.3   1 <1>  -0.5600 
 13 C       -0.2670     4.3070     1.2950 C.ar  1 <1>  -0.1500 
 14 C       -0.5900     5.0610    -0.9500 C.ar  1 <1>  -0.1500 
 15 C       -5.7870    -2.3830    -0.2910 C.ar  1 <1>  -0.1440 
 16 C       -0.2600     5.6200     1.7350 C.ar  1 <1>  -0.1500 
 17 C       -0.5830     6.3740    -0.5100 C.ar  1 <1>  -0.1500 
 18 C       -6.5960    -2.1260     0.7970 C.ar  1 <1>  -0.1500 
 19 C       -6.2150    -3.3780    -1.1470 C.ar  1 <1>  -0.1500 
 20 C       -0.4190     6.6610     0.8350 C.ar  1 <1>  -0.1440 
 21 C       -7.7570    -2.8590     0.9750 C.ar  1 <1>   0.1600 
 22 C       -7.3940    -4.0520    -0.8780 C.ar  1 <1>   0.1600 
 23 C       -0.4080     8.1000     1.3160 C.3   1 <1>  -0.0970 
 24 N       -8.1750    -3.8180     0.1650 N.ar  1 <1>  -0.6200 
 25 H       -1.9330    -0.0990     0.9200 H     1 <1>   0.3700 
 26 H       -2.4400     2.6380    -1.3280 H     1 <1>   0.0800 
 27 H       -2.3640     2.1670     0.3440 H     1 <1>   0.0800 
 28 H       -1.5520    -2.0180    -1.3180 H     1 <1>   0.0800 
 29 H        0.0100     2.5190    -1.5080 H     1 <1>   0.0800 
 30 H        0.1300     1.9660     0.1340 H     1 <1>   0.0800 
 31 H       -3.3020    -3.3880    -0.5290 H     1 <1>   0.0800 
 32 H       -0.1850    -1.9340     0.9940 H     1 <1>   0.0800 
 33 H       -0.8320    -3.4890     0.4730 H     1 <1>   0.0800 
 34 H       -3.5910    -3.6610     1.7130 H     1 <1>   0.0800 
 35 H       -3.8270    -1.9400     2.0000 H     1 <1>   0.0800 
 36 H       -4.3930    -1.4220    -1.5920 H     1 <1>   0.0800 
 37 H       -4.5440    -0.6680    -0.0380 H     1 <1>   0.0800 
 38 H       -0.1420     3.5120     2.0090 H     1 <1>   0.1500 
 39 H       -0.7200     4.8550    -1.9980 H     1 <1>   0.1500 
 40 H       -0.1280     5.8270     2.7820 H     1 <1>   0.1500 
 41 H       -0.7050     7.1710    -1.2220 H     1 <1>   0.1500 
 42 H       -6.3370    -1.3630     1.5080 H     1 <1>   0.1500 
 43 H       -5.6430    -3.6340    -2.0200 H     1 <1>   0.1500 
 44 H       -8.3760    -2.6450     1.8300 H     1 <1>   0.1500 
 45 H       -7.7120    -4.8250    -1.5560 H     1 <1>   0.1500 
 46 H       -0.7850     8.1640     2.3210 H     1 <1>   0.0800 
 47 H       -1.0260     8.7120     0.6840 H     1 <1>   0.0800 
 48 H        0.5960     8.4820     1.2960 H     1 <1>   0.0800 
@<TRIPOS>BOND
  1   1   2  2   
  2   2   3  am  
  3   2   4  1   
  4   3   5  1   
  5   3  25  1   
  6   4   6  1   
  7   4  26  1   
  8   4  27  1   
  9   5   7  1   
 10   5   8  1   
 11   5  28  1   
 12   6   9  1   
 13   6  29  1   
 14   6  30  1   
 15   7  10  1   
 16   7  11  1   
 17   7  31  1   
 18   8  12  1   
 19   8  32  1   
 20   8  33  1   
 21   9  13  ar  
 22   9  14  ar  
 23  10  12  1   
 24  10  34  1   
 25  10  35  1   
 26  11  15  1   
 27  11  36  1   
 28  11  37  1   
 29  13  16  ar  
 30  13  38  1   
 31  14  17  ar  
 32  14  39  1   
 33  15  18  ar  
 34  15  19  ar  
 35  16  20  ar  
 36  16  40  1   
 37  17  20  ar  
 38  17  41  1   
 39  18  21  ar  
 40  18  42  1   
 41  19  22  ar  
 42  19  43  1   
 43  20  23  1   
 44  21  24  ar  
 45  21  44  1   
 46  22  24  ar  
 47  22  45  1   
 48  23  46  1   
 49  23  47  1   
 50  23  48  1   
@<TRIPOS>SUBSTRUCTURE
  1 ****   3 GROUP 4 **** **** 0

# MOE 2024.06 (io_trps.svl 2023.06)
