@<TRIPOS>MOLECULE
NONAME
51 55 1 0 0 
SMALL
USER_CHARGES


@<TRIPOS>ATOM
  1 O        0.0740     0.6620    -0.2620 O.2   1 <1>  -0.5700 
  2 C       -0.5820     1.6330    -0.6120 C.2   1 <1>   0.7160 
  3 N       -1.9590     1.5620    -0.4550 N.am  1 <1>  -0.6600 
  4 C        0.1170     2.8100    -1.1300 C.2   1 <1>   0.1410 
  5 C       -2.8880     2.7170    -0.6540 C.3   1 <1>   0.1400 
  6 C       -2.6150     0.3170     0.0570 C.3   1 <1>   0.1400 
  7 N       -0.2720     3.5100    -2.2420 N.2   1 <1>  -0.5650 
  8 C        1.2570     3.3920    -0.6390 C.2   1 <1>  -0.3320 
  9 C       -3.5390     3.1330     0.6830 C.3   1 <1>   0.1430 
 10 C       -3.9600     0.6100     0.7460 C.3   1 <1>  -0.1600 
 11 C        0.6100     4.4380    -2.3860 C.2   1 <1>   0.0360 
 12 N        1.5670     4.4190    -1.4400 N.pl3 1 <1>   0.0330 
 13 C        2.1020     3.0170     0.5690 C.3   1 <1>  -0.0600 
 14 C       -4.7560     3.9810     0.3530 C.ar  1 <1>   0.1670 
 15 C       -3.8870     1.9060     1.5700 C.3   1 <1>  -0.1600 
 16 C       -2.6420     4.1420     1.4460 C.3   1 <1>  -0.1600 
 17 N       -5.9070     3.5270    -0.0820 N.ar  1 <1>  -0.6200 
 18 C       -4.5110     5.3050     0.5470 C.ar  1 <1>  -0.1440 
 19 C       -3.1040     5.5500     1.0330 C.3   1 <1>  -0.0160 
 20 C       -6.8500     4.4480    -0.3170 C.ar  1 <1>   0.6200 
 21 C       -5.5260     6.1870     0.2830 C.ar  1 <1>   0.1600 
 22 N       -6.6960     5.7700    -0.1450 N.ar  1 <1>  -0.6200 
 23 C       -8.1420     3.9770    -0.7960 C.ar  1 <1>   0.0000 
 24 C       -8.2620     2.8020    -1.5460 C.ar  1 <1>  -0.1500 
 25 C       -9.3230     4.6740    -0.5280 C.ar  1 <1>  -0.1500 
 26 C       -9.4870     2.3500    -2.0020 C.ar  1 <1>  -0.1500 
 27 C      -10.5520     4.2290    -0.9800 C.ar  1 <1>  -0.1500 
 28 C      -10.6370     3.0630    -1.7190 C.ar  1 <1>  -0.1500 
 29 H       -3.6540     2.4130    -1.3470 H     1 <1>   0.0800 
 30 H       -2.3960     3.5660    -1.0860 H     1 <1>   0.0800 
 31 H       -1.9610    -0.1550     0.7700 H     1 <1>   0.0800 
 32 H       -2.7620    -0.3680    -0.7610 H     1 <1>   0.0800 
 33 H       -4.2180    -0.2170     1.3830 H     1 <1>   0.0800 
 34 H       -4.7340     0.6970     0.0040 H     1 <1>   0.0800 
 35 H        0.6030     5.1660    -3.1780 H     1 <1>   0.1500 
 36 H        2.3690     5.0520    -1.3670 H     1 <1>   0.2700 
 37 H        1.6530     2.2060     1.1140 H     1 <1>   0.0800 
 38 H        2.1990     3.8570     1.2340 H     1 <1>   0.0800 
 39 H        3.0810     2.7060     0.2520 H     1 <1>   0.0800 
 40 H       -4.8190     2.0720     2.0820 H     1 <1>   0.0800 
 41 H       -3.1230     1.7710     2.3160 H     1 <1>   0.0800 
 42 H       -1.5950     3.9870     1.2490 H     1 <1>   0.0800 
 43 H       -2.8070     4.0400     2.5040 H     1 <1>   0.0800 
 44 H       -2.5020     5.9250     0.2230 H     1 <1>   0.0800 
 45 H       -3.0780     6.2360     1.8610 H     1 <1>   0.0800 
 46 H       -5.3790     7.2450     0.4220 H     1 <1>   0.1500 
 47 H       -7.3770     2.2340    -1.7770 H     1 <1>   0.1500 
 48 H       -9.2770     5.5830     0.0460 H     1 <1>   0.1500 
 49 H       -9.5450     1.4420    -2.5760 H     1 <1>   0.1500 
 50 H      -11.4430     4.7890    -0.7570 H     1 <1>   0.1500 
 51 H      -11.5920     2.7140    -2.0720 H     1 <1>   0.1500 
@<TRIPOS>BOND
  1   1   2  2   
  2   2   3  am  
  3   2   4  1   
  4   3   5  1   
  5   3   6  1   
  6   4   7  1   
  7   4   8  2   
  8   5   9  1   
  9   5  29  1   
 10   5  30  1   
 11   6  10  1   
 12   6  31  1   
 13   6  32  1   
 14   7  11  2   
 15   8  12  1   
 16   8  13  1   
 17   9  14  1   
 18   9  15  1   
 19   9  16  1   
 20  10  15  1   
 21  10  33  1   
 22  10  34  1   
 23  11  12  1   
 24  11  35  1   
 25  12  36  1   
 26  13  37  1   
 27  13  38  1   
 28  13  39  1   
 29  14  17  ar  
 30  14  18  ar  
 31  15  40  1   
 32  15  41  1   
 33  16  19  1   
 34  16  42  1   
 35  16  43  1   
 36  17  20  ar  
 37  18  19  1   
 38  18  21  ar  
 39  19  44  1   
 40  19  45  1   
 41  20  22  ar  
 42  20  23  1   
 43  21  22  ar  
 44  21  46  1   
 45  23  24  ar  
 46  23  25  ar  
 47  24  26  ar  
 48  24  47  1   
 49  25  27  ar  
 50  25  48  1   
 51  26  28  ar  
 52  26  49  1   
 53  27  28  ar  
 54  27  50  1   
 55  28  51  1   
@<TRIPOS>SUBSTRUCTURE
  1 ****   9 GROUP 4 **** **** 0

# MOE 2024.06 (io_trps.svl 2023.06)
