@<TRIPOS>MOLECULE
NONAME
52 55 1 0 0 
SMALL
USER_CHARGES


@<TRIPOS>ATOM
  1 O        1.1620     3.3490     0.1570 O.3   1 <1>  -0.6800 
  2 C        0.7150     2.1580     0.7210 C.3   1 <1>   0.4240 
  3 C       -0.7030     1.9800     0.1550 C.ar  1 <1>  -0.1440 
  4 C        0.7220     2.3320     2.2480 C.3   1 <1>  -0.1600 
  5 C        1.7110     1.0290     0.3440 C.3   1 <1>  -0.1600 
  6 C       -1.6680     2.9390     0.4470 C.ar  1 <1>   0.1600 
  7 C       -1.0830     0.9250    -0.6640 C.ar  1 <1>  -0.1500 
  8 C        2.1130     2.6340     2.8270 C.3   1 <1>   0.2090 
  9 C        2.9490     0.9020     1.2540 C.3   1 <1>   0.2090 
 10 N       -2.9210     2.9300     0.0280 N.ar  1 <1>  -0.6200 
 11 C       -2.3880     0.8970    -1.1080 C.ar  1 <1>  -0.1500 
 12 N        3.2070     2.2110     1.8950 N.pl3 1 <1>  -0.8380 
 13 C       -3.2560     1.9070    -0.7370 C.ar  1 <1>   0.1600 
 14 C        4.1160     3.0490     1.3750 C.ar  1 <1>   0.4610 
 15 N        3.7130     4.2450     0.9670 N.ar  1 <1>  -0.1790 
 16 C        5.4710     2.7100     1.1650 C.ar  1 <1>  -0.1500 
 17 C        4.5220     5.2040     0.3890 C.ar  1 <1>   0.3610 
 18 C        6.3420     3.5870     0.5940 C.ar  1 <1>  -0.1430 
 19 C        5.8780     4.8810     0.1900 C.ar  1 <1>   0.0000 
 20 C        4.0020     6.4530     0.0000 C.ar  1 <1>  -0.1430 
 21 C        7.7990     3.1930     0.3890 C.3   1 <1>  -0.0970 
 22 C        6.6930     5.8530    -0.4050 C.ar  1 <1>  -0.1500 
 23 C        4.8390     7.3820    -0.5940 C.ar  1 <1>  -0.1430 
 24 C        2.5170     6.7540     0.2440 C.3   1 <1>  -0.0970 
 25 C        6.1840     7.0680    -0.7860 C.ar  1 <1>  -0.1500 
 26 C        4.3700     8.7550    -1.0620 C.3   1 <1>  -0.0970 
 27 H        0.7820     3.3830    -0.7480 H     1 <1>   0.4000 
 28 H        0.3650     1.4180     2.6880 H     1 <1>   0.0800 
 29 H        0.0430     3.1020     2.5620 H     1 <1>   0.0800 
 30 H        2.0160     1.1370    -0.6810 H     1 <1>   0.0800 
 31 H        1.2140     0.0800     0.4260 H     1 <1>   0.0800 
 32 H       -1.4000     3.7820     1.0590 H     1 <1>   0.1500 
 33 H       -0.4200     0.1380    -0.9720 H     1 <1>   0.1500 
 34 H        2.2300     2.1160     3.7650 H     1 <1>   0.0800 
 35 H        2.1940     3.6870     3.0350 H     1 <1>   0.0800 
 36 H        3.7980     0.5770     0.6770 H     1 <1>   0.0800 
 37 H        2.7700     0.1680     2.0240 H     1 <1>   0.0800 
 38 H       -2.7350     0.0990    -1.7390 H     1 <1>   0.1500 
 39 H       -4.2740     1.8730    -1.0880 H     1 <1>   0.1500 
 40 H        2.6970     4.3510     0.9250 H     1 <1>   0.4570 
 41 H        5.7830     1.7330     1.4870 H     1 <1>   0.1500 
 42 H        7.9850     2.1940     0.7440 H     1 <1>   0.0800 
 43 H        8.4450     3.8630     0.9290 H     1 <1>   0.0800 
 44 H        8.0520     3.2290    -0.6560 H     1 <1>   0.0800 
 45 H        7.7370     5.6540    -0.5730 H     1 <1>   0.1500 
 46 H        2.2510     6.5490     1.2660 H     1 <1>   0.0800 
 47 H        1.9050     6.1560    -0.4080 H     1 <1>   0.0800 
 48 H        2.2700     7.7840     0.0640 H     1 <1>   0.0800 
 49 H        6.8400     7.7910    -1.2430 H     1 <1>   0.1500 
 50 H        3.5380     8.6570    -1.7360 H     1 <1>   0.0800 
 51 H        5.1520     9.2790    -1.5820 H     1 <1>   0.0800 
 52 H        4.0740     9.3530    -0.2180 H     1 <1>   0.0800 
@<TRIPOS>BOND
  1   1   2  1   
  2   1  27  1   
  3   2   3  1   
  4   2   4  1   
  5   2   5  1   
  6   3   6  ar  
  7   3   7  ar  
  8   4   8  1   
  9   4  28  1   
 10   4  29  1   
 11   5   9  1   
 12   5  30  1   
 13   5  31  1   
 14   6  10  ar  
 15   6  32  1   
 16   7  11  ar  
 17   7  33  1   
 18   8  12  1   
 19   8  34  1   
 20   8  35  1   
 21   9  12  1   
 22   9  36  1   
 23   9  37  1   
 24  10  13  ar  
 25  11  13  ar  
 26  11  38  1   
 27  12  14  1   
 28  13  39  1   
 29  14  15  ar  
 30  14  16  ar  
 31  15  17  ar  
 32  15  40  1   
 33  16  18  ar  
 34  16  41  1   
 35  17  19  ar  
 36  17  20  ar  
 37  18  19  ar  
 38  18  21  1   
 39  19  22  ar  
 40  20  23  ar  
 41  20  24  1   
 42  21  42  1   
 43  21  43  1   
 44  21  44  1   
 45  22  25  ar  
 46  22  45  1   
 47  23  25  ar  
 48  23  26  1   
 49  24  46  1   
 50  24  47  1   
 51  24  48  1   
 52  25  49  1   
 53  26  50  1   
 54  26  51  1   
 55  26  52  1   
@<TRIPOS>SUBSTRUCTURE
  1 ****  15 GROUP 4 **** **** 0

# MOE 2024.06 (io_trps.svl 2023.06)
