@<TRIPOS>MOLECULE
NONAME
46 48 1 0 0 
SMALL
USER_CHARGES


@<TRIPOS>ATOM
  1 CL       2.6570    -1.5220    -2.2160 Cl    1 <1>  -0.1770 
  2 C        2.1840    -0.7380    -0.7260 C.ar  1 <1>   0.1770 
  3 C        2.9260     0.3260    -0.2070 C.ar  1 <1>   0.0530 
  4 C        1.0630    -1.2330    -0.0860 C.ar  1 <1>  -0.1500 
  5 C        4.0930     0.8810    -0.8490 C.2   1 <1>   0.0870 
  6 C        2.4920     0.8630     1.0060 C.ar  1 <1>  -0.1500 
  7 C        0.6530    -0.6750     1.1120 C.ar  1 <1>  -0.1500 
  8 O        4.1610     1.0620    -2.1490 O.3   1 <1>  -0.0190 
  9 C        5.2580     1.3360    -0.3420 C.2   1 <1>  -0.1500 
 10 C        1.3730     0.3730     1.6570 C.ar  1 <1>  -0.1500 
 11 N        5.2850     1.6010    -2.5270 N.2   1 <1>  -0.4100 
 12 C        5.9680     1.7740    -1.4510 C.2   1 <1>   0.1080 
 13 C        7.3530     2.3930    -1.3970 C.3   1 <1>   0.3210 
 14 N        7.2360     3.8200    -1.0250 N.am  1 <1>  -0.7300 
 15 C        7.2540     4.2670     0.2540 C.2   1 <1>   0.5690 
 16 O        7.4820     3.5250     1.1780 O.2   1 <1>  -0.5700 
 17 C        6.9410     5.7340     0.5370 C.3   1 <1>  -0.0190 
 18 C        5.5390     6.1280     0.0310 C.3   1 <1>  -0.1600 
 19 C        8.0300     6.6800    -0.0260 C.3   1 <1>  -0.1600 
 20 C        5.1490     7.5610     0.4500 C.3   1 <1>   0.2000 
 21 C        7.5410     8.1250    -0.2480 C.3   1 <1>  -0.1600 
 22 O        4.3520     8.1090    -0.5710 O.3   1 <1>  -0.5600 
 23 C        6.3790     8.4780     0.6850 C.3   1 <1>   0.2000 
 24 C        3.0110     7.7280    -0.5470 C.3   1 <1>   0.0400 
 25 O        6.0200     9.7880     0.4430 O.3   1 <1>  -0.6800 
 26 H        0.5190    -2.0510    -0.5220 H     1 <1>   0.1500 
 27 H        3.0380     1.6810     1.4440 H     1 <1>   0.1500 
 28 H       -0.2190    -1.0550     1.6170 H     1 <1>   0.1500 
 29 H        5.5930     1.3740     0.6790 H     1 <1>   0.1500 
 30 H        1.0600     0.8090     2.5910 H     1 <1>   0.1500 
 31 H        7.8270     2.3090    -2.3590 H     1 <1>   0.0800 
 32 H        7.9530     1.8700    -0.6730 H     1 <1>   0.0800 
 33 H        6.9030     4.4320    -1.7710 H     1 <1>   0.3700 
 34 H        6.9350     5.8450     1.6080 H     1 <1>   0.0800 
 35 H        4.8120     5.4370     0.4210 H     1 <1>   0.0800 
 36 H        5.5280     6.0590    -1.0430 H     1 <1>   0.0800 
 37 H        8.8570     6.6860     0.6640 H     1 <1>   0.0800 
 38 H        8.4040     6.3060    -0.9630 H     1 <1>   0.0800 
 39 H        4.5790     7.5400     1.3630 H     1 <1>   0.0800 
 40 H        7.2020     8.2280    -1.2650 H     1 <1>   0.0800 
 41 H        8.3560     8.8100    -0.0930 H     1 <1>   0.0800 
 42 H        6.7090     8.4090     1.7070 H     1 <1>   0.0800 
 43 H        2.5110     8.2170    -1.3640 H     1 <1>   0.0800 
 44 H        2.5700     8.0390     0.3840 H     1 <1>   0.0800 
 45 H        2.9360     6.6610    -0.6660 H     1 <1>   0.0800 
 46 H        5.3200     9.7500    -0.2480 H     1 <1>   0.4000 
@<TRIPOS>BOND
  1   1   2  1   
  2   2   3  ar  
  3   2   4  ar  
  4   3   5  1   
  5   3   6  ar  
  6   4   7  ar  
  7   4  26  1   
  8   5   8  1   
  9   5   9  2   
 10   6  10  ar  
 11   6  27  1   
 12   7  10  ar  
 13   7  28  1   
 14   8  11  1   
 15   9  12  1   
 16   9  29  1   
 17  10  30  1   
 18  11  12  2   
 19  12  13  1   
 20  13  14  1   
 21  13  31  1   
 22  13  32  1   
 23  14  15  am  
 24  14  33  1   
 25  15  16  2   
 26  15  17  1   
 27  17  18  1   
 28  17  19  1   
 29  17  34  1   
 30  18  20  1   
 31  18  35  1   
 32  18  36  1   
 33  19  21  1   
 34  19  37  1   
 35  19  38  1   
 36  20  22  1   
 37  20  23  1   
 38  20  39  1   
 39  21  23  1   
 40  21  40  1   
 41  21  41  1   
 42  22  24  1   
 43  23  25  1   
 44  23  42  1   
 45  24  43  1   
 46  24  44  1   
 47  24  45  1   
 48  25  46  1   
@<TRIPOS>SUBSTRUCTURE
  1 ****   9 GROUP 4 **** **** 0

# MOE 2024.06 (io_trps.svl 2023.06)
