@<TRIPOS>MOLECULE
NONAME
65 68 1 0 0 
SMALL
USER_CHARGES


@<TRIPOS>ATOM
  1 F       -1.7970     0.0900    -0.5830 F     1 <1>  -0.1900 
  2 C       -2.3750     1.1100    -0.0020 C.ar  1 <1>   0.1900 
  3 C       -3.6900     1.0370     0.4750 C.ar  1 <1>   0.0830 
  4 C       -1.6200     2.2620     0.0980 C.ar  1 <1>  -0.1500 
  5 O       -4.5130    -0.0550     0.4130 O.3   1 <1>  -0.3630 
  6 C       -4.2310     2.1800     1.0610 C.ar  1 <1>  -0.1440 
  7 C       -2.1770     3.3860     0.6830 C.ar  1 <1>  -0.1500 
  8 C       -4.0340    -1.3550     0.1240 C.3   1 <1>   0.0400 
  9 C       -3.4770     3.3430     1.1600 C.ar  1 <1>  -0.1500 
 10 C       -5.6510     2.1650     1.5950 C.3   1 <1>   0.4870 
 11 N       -6.5870     1.8950     0.4730 N.4   1 <1>  -0.9590 
 12 C       -6.5220     2.9880    -0.5410 C.3   1 <1>   0.3430 
 13 C       -7.9560     1.5860     0.9720 C.3   1 <1>   0.3430 
 14 C       -7.4760     2.6890    -1.6890 C.3   1 <1>  -0.1600 
 15 C       -8.9190     1.3320    -0.1910 C.3   1 <1>  -0.1600 
 16 C       -8.9120     2.4990    -1.1860 C.3   1 <1>   0.2800 
 17 O       -9.6360     2.1030    -2.3140 O.3   1 <1>  -0.5600 
 18 C       -9.4810     3.7920    -0.5370 C.3   1 <1>   0.1400 
 19 C      -11.0000     2.3970    -2.3930 C.3   1 <1>   0.1200 
 20 N       -9.5460     4.9390    -1.4840 N.am  1 <1>  -0.6600 
 21 C      -11.2220     3.7780    -3.0270 C.3   1 <1>  -0.0990 
 22 C      -10.4080     4.9750    -2.5480 C.2   1 <1>   0.5690 
 23 C       -8.5420     6.0540    -1.2860 C.3   1 <1>   0.2010 
 24 O      -10.5580     5.9970    -3.1710 O.2   1 <1>  -0.5700 
 25 C       -8.3080     6.4540     0.1740 C.2   1 <1>   0.5690 
 26 O       -7.3570     5.9470     0.7340 O.2   1 <1>  -0.5700 
 27 N       -9.1630     7.3050     0.8260 N.am  1 <1>  -0.6600 
 28 C      -10.4460     7.8360     0.2630 C.3   1 <1>   0.1400 
 29 C       -8.8750     7.8250     2.1970 C.3   1 <1>   0.1400 
 30 C      -10.5120     9.3650     0.4140 C.3   1 <1>   0.1200 
 31 C       -9.0320     9.3550     2.2390 C.3   1 <1>   0.1200 
 32 O      -10.2840     9.7370     1.7440 O.3   1 <1>  -0.5600 
 33 H       -0.6110     2.2790    -0.2770 H     1 <1>   0.1500 
 34 H       -1.5980     4.2910     0.7660 H     1 <1>   0.1500 
 35 H       -4.8300    -2.0570     0.2970 H     1 <1>   0.0800 
 36 H       -3.2060    -1.5800     0.7730 H     1 <1>   0.0800 
 37 H       -3.7340    -1.3990    -0.9090 H     1 <1>   0.0800 
 38 H       -3.8890     4.2310     1.6120 H     1 <1>   0.1500 
 39 H       -5.8850     3.1110     2.0570 H     1 <1>   0.0800 
 40 H       -5.7330     1.3880     2.3380 H     1 <1>   0.0800 
 41 H       -6.1960     1.0450     0.0290 H     1 <1>   0.4500 
 42 H       -5.5180     3.0750    -0.9260 H     1 <1>   0.0800 
 43 H       -6.7840     3.9270    -0.0830 H     1 <1>   0.0800 
 44 H       -8.3180     2.4130     1.5620 H     1 <1>   0.0800 
 45 H       -7.9250     0.7130     1.6060 H     1 <1>   0.0800 
 46 H       -7.1450     1.8020    -2.1980 H     1 <1>   0.0800 
 47 H       -7.4410     3.4960    -2.3980 H     1 <1>   0.0800 
 48 H       -9.9100     1.1910     0.2010 H     1 <1>   0.0800 
 49 H       -8.6300     0.4250    -0.6930 H     1 <1>   0.0800 
 50 H       -8.8820     4.0480     0.3130 H     1 <1>   0.0800 
 51 H      -10.4650     3.6150    -0.1410 H     1 <1>   0.0800 
 52 H      -11.4580     2.3110    -1.4240 H     1 <1>   0.0800 
 53 H      -11.4460     1.6500    -3.0270 H     1 <1>   0.0800 
 54 H      -12.2610     4.0320    -2.9270 H     1 <1>   0.0800 
 55 H      -11.0340     3.6790    -4.0800 H     1 <1>   0.0800 
 56 H       -8.8320     6.9300    -1.8370 H     1 <1>   0.0800 
 57 H       -7.6010     5.7400    -1.6970 H     1 <1>   0.0800 
 58 H      -11.2710     7.4010     0.8000 H     1 <1>   0.0800 
 59 H      -10.5640     7.5790    -0.7740 H     1 <1>   0.0800 
 60 H       -7.8750     7.5650     2.4980 H     1 <1>   0.0800 
 61 H       -9.5610     7.3820     2.8970 H     1 <1>   0.0800 
 62 H      -11.4870     9.7240     0.1350 H     1 <1>   0.0800 
 63 H       -9.7760     9.8420    -0.2100 H     1 <1>   0.0800 
 64 H       -8.2670     9.8310     1.6500 H     1 <1>   0.0800 
 65 H       -8.9570     9.7080     3.2520 H     1 <1>   0.0800 
@<TRIPOS>BOND
  1   1   2  1   
  2   2   3  ar  
  3   2   4  ar  
  4   3   5  1   
  5   3   6  ar  
  6   4   7  ar  
  7   4  33  1   
  8   5   8  1   
  9   6   9  ar  
 10   6  10  1   
 11   7   9  ar  
 12   7  34  1   
 13   8  35  1   
 14   8  36  1   
 15   8  37  1   
 16   9  38  1   
 17  10  11  1   
 18  10  39  1   
 19  10  40  1   
 20  11  12  1   
 21  11  13  1   
 22  11  41  1   
 23  12  14  1   
 24  12  42  1   
 25  12  43  1   
 26  13  15  1   
 27  13  44  1   
 28  13  45  1   
 29  14  16  1   
 30  14  46  1   
 31  14  47  1   
 32  15  16  1   
 33  15  48  1   
 34  15  49  1   
 35  16  17  1   
 36  16  18  1   
 37  17  19  1   
 38  18  20  1   
 39  18  50  1   
 40  18  51  1   
 41  19  21  1   
 42  19  52  1   
 43  19  53  1   
 44  20  22  am  
 45  20  23  1   
 46  21  22  1   
 47  21  54  1   
 48  21  55  1   
 49  22  24  2   
 50  23  25  1   
 51  23  56  1   
 52  23  57  1   
 53  25  26  2   
 54  25  27  am  
 55  27  28  1   
 56  27  29  1   
 57  28  30  1   
 58  28  58  1   
 59  28  59  1   
 60  29  31  1   
 61  29  60  1   
 62  29  61  1   
 63  30  32  1   
 64  30  62  1   
 65  30  63  1   
 66  31  32  1   
 67  31  64  1   
 68  31  65  1   
@<TRIPOS>SUBSTRUCTURE
  1 ****  12 GROUP 4 **** **** 0

# MOE 2024.06 (io_trps.svl 2023.06)
