@<TRIPOS>MOLECULE
NONAME
44 46 1 0 0 
SMALL
USER_CHARGES


@<TRIPOS>ATOM
  1 O        3.5620    -1.6130    -1.9530 O.2   1 <1>  -0.5700 
  2 C        2.6970    -1.3790    -1.1250 C.2   1 <1>   0.5440 
  3 N        2.7280    -0.1070    -0.6140 N.am  1 <1>  -0.6600 
  4 C        1.8130    -2.4320    -0.6390 C.ar  1 <1>   0.0860 
  5 C        3.2460     0.0590     0.7840 C.3   1 <1>   0.2200 
  6 C        2.7620     1.0550    -1.5530 C.3   1 <1>   0.1400 
  7 C        0.6100    -2.2020     0.0560 C.ar  1 <1>   0.0830 
  8 C        2.1710    -3.7650    -0.8690 C.ar  1 <1>  -0.1500 
  9 C        2.7670     1.3570     1.4530 C.3   1 <1>   0.1200 
 10 C        4.7940    -0.0370     0.7940 C.3   1 <1>   0.3430 
 11 C        3.8470     2.1020    -1.2360 C.3   1 <1>  -0.0800 
 12 O        0.2110    -0.9240     0.2790 O.3   1 <1>  -0.3630 
 13 C       -0.1620    -3.2750     0.5020 C.ar  1 <1>  -0.1500 
 14 C        1.4010    -4.8220    -0.4280 C.ar  1 <1>  -0.1500 
 15 O        3.6340     2.4120     1.1550 O.3   1 <1>  -0.5600 
 16 N        5.3920     0.1580    -0.5750 N.4   1 <1>  -0.9590 
 17 C        3.4380     3.0230    -0.0760 C.3   1 <1>   0.1200 
 18 C        5.2870     1.5620    -1.0850 C.3   1 <1>   0.3430 
 19 C       -1.0820    -0.5920     0.7400 C.3   1 <1>   0.0400 
 20 C        0.2310    -4.5760     0.2630 C.ar  1 <1>  -0.1500 
 21 C        6.7820    -0.3660    -0.6600 C.3   1 <1>   0.2630 
 22 H        2.8560    -0.7490     1.3790 H     1 <1>   0.0800 
 23 H        2.9130     0.6930    -2.5570 H     1 <1>   0.0800 
 24 H        1.7940     1.5270    -1.5380 H     1 <1>   0.0800 
 25 H        3.0750    -3.9830    -1.4110 H     1 <1>   0.1500 
 26 H        2.7950     1.2330     2.5210 H     1 <1>   0.0800 
 27 H        1.7580     1.6040     1.1690 H     1 <1>   0.0800 
 28 H        5.0570    -1.0170     1.1540 H     1 <1>   0.0800 
 29 H        5.1990     0.6830     1.4860 H     1 <1>   0.0800 
 30 H        3.8700     2.7530    -2.0920 H     1 <1>   0.0800 
 31 H       -1.0770    -3.1220     1.0410 H     1 <1>   0.1500 
 32 H        1.7070    -5.8360    -0.6230 H     1 <1>   0.1500 
 33 H        4.7800    -0.4180    -1.2000 H     1 <1>   0.4500 
 34 H        2.4070     3.3310    -0.1540 H     1 <1>   0.0800 
 35 H        4.0490     3.9100    -0.0810 H     1 <1>   0.0800 
 36 H        5.8400     2.2220    -0.4370 H     1 <1>   0.0800 
 37 H        5.7520     1.5980    -2.0560 H     1 <1>   0.0800 
 38 H       -1.1800     0.4790     0.7250 H     1 <1>   0.0800 
 39 H       -1.2010    -0.9540     1.7460 H     1 <1>   0.0800 
 40 H       -1.8120    -1.0320     0.0830 H     1 <1>   0.0800 
 41 H       -0.3720    -5.3990     0.6100 H     1 <1>   0.1500 
 42 H        7.4350     0.1960    -0.0130 H     1 <1>   0.0800 
 43 H        7.1450    -0.2920    -1.6720 H     1 <1>   0.0800 
 44 H        6.8060    -1.4030    -0.3650 H     1 <1>   0.0800 
@<TRIPOS>BOND
  1   1   2  2   
  2   2   3  am  
  3   2   4  1   
  4   3   5  1   
  5   3   6  1   
  6   4   7  ar  
  7   4   8  ar  
  8   5   9  1   
  9   5  10  1   
 10   5  22  1   
 11   6  11  1   
 12   6  23  1   
 13   6  24  1   
 14   7  12  1   
 15   7  13  ar  
 16   8  14  ar  
 17   8  25  1   
 18   9  15  1   
 19   9  26  1   
 20   9  27  1   
 21  10  16  1   
 22  10  28  1   
 23  10  29  1   
 24  11  17  1   
 25  11  18  1   
 26  11  30  1   
 27  12  19  1   
 28  13  20  ar  
 29  13  31  1   
 30  14  20  ar  
 31  14  32  1   
 32  15  17  1   
 33  16  18  1   
 34  16  21  1   
 35  16  33  1   
 36  17  34  1   
 37  17  35  1   
 38  18  36  1   
 39  18  37  1   
 40  19  38  1   
 41  19  39  1   
 42  19  40  1   
 43  20  41  1   
 44  21  42  1   
 45  21  43  1   
 46  21  44  1   
@<TRIPOS>SUBSTRUCTURE
  1 ****   3 GROUP 4 **** **** 0

# MOE 2024.06 (io_trps.svl 2023.06)
