@<TRIPOS>MOLECULE
NONAME
40 42 1 0 0 
SMALL
USER_CHARGES


@<TRIPOS>ATOM
  1 O       -0.3140    -2.1310    -1.1880 O.3   1 <1>  -0.0190 
  2 N       -1.5770    -2.2260    -0.9030 N.2   1 <1>  -0.4100 
  3 C        0.2600    -1.9430    -0.0250 C.2   1 <1>   0.2980 
  4 C       -1.6850    -2.0990     0.3610 C.2   1 <1>   0.3350 
  5 N       -0.5280    -1.9080     0.9740 N.2   1 <1>  -0.5650 
  6 C        1.7640    -1.7880     0.0310 C.3   1 <1>  -0.0600 
  7 C       -3.0050    -2.1440     1.1350 C.3   1 <1>   0.5240 
  8 N       -4.1800    -1.7680     0.2770 N.4   1 <1>  -0.9590 
  9 C       -5.4830    -2.1170     0.9100 C.3   1 <1>   0.3430 
 10 C       -4.1170    -0.3350    -0.1550 C.3   1 <1>   0.3430 
 11 C       -6.6280    -2.0530    -0.1270 C.3   1 <1>   0.0000 
 12 C       -5.4880     0.1790    -0.6250 C.3   1 <1>  -0.1600 
 13 C       -7.9800    -1.8340     0.5810 C.3   1 <1>   0.2000 
 14 C       -6.3790    -0.9410    -1.1870 C.3   1 <1>  -0.1600 
 15 C       -6.8320    -3.4100    -0.8250 C.3   1 <1>  -0.1600 
 16 O       -7.9730    -2.5150     1.7890 O.3   1 <1>  -0.6800 
 17 C       -9.0390    -2.4690    -0.3250 C.3   1 <1>  -0.1600 
 18 C       -8.2990    -3.4360    -1.2590 C.3   1 <1>  -0.1600 
 19 H        2.0830    -1.6420     1.0460 H     1 <1>   0.0800 
 20 H        2.0640    -0.9390    -0.5560 H     1 <1>   0.0800 
 21 H        2.2350    -2.6710    -0.3600 H     1 <1>   0.0800 
 22 H       -2.9350    -1.4740     1.9750 H     1 <1>   0.0800 
 23 H       -3.1330    -3.1430     1.5140 H     1 <1>   0.0800 
 24 H       -4.0960    -2.3330    -0.5810 H     1 <1>   0.4500 
 25 H       -5.4530    -3.1060     1.3390 H     1 <1>   0.0800 
 26 H       -5.6930    -1.4200     1.7050 H     1 <1>   0.0800 
 27 H       -3.7720     0.2860     0.6560 H     1 <1>   0.0800 
 28 H       -3.4080    -0.2450    -0.9640 H     1 <1>   0.0800 
 29 H       -5.9870     0.6520     0.2040 H     1 <1>   0.0800 
 30 H       -5.3380     0.9380    -1.3730 H     1 <1>   0.0800 
 31 H       -8.1850    -0.7950     0.7830 H     1 <1>   0.0800 
 32 H       -5.8840    -1.3530    -2.0490 H     1 <1>   0.0800 
 33 H       -7.3100    -0.5270    -1.5350 H     1 <1>   0.0800 
 34 H       -6.1660    -3.5750    -1.6550 H     1 <1>   0.0800 
 35 H       -6.6860    -4.2070    -0.1130 H     1 <1>   0.0800 
 36 H       -8.8800    -2.5550     2.1550 H     1 <1>   0.4000 
 37 H       -9.8050    -2.9730     0.2380 H     1 <1>   0.0800 
 38 H       -9.5060    -1.7030    -0.9190 H     1 <1>   0.0800 
 39 H       -8.7030    -4.4330    -1.1940 H     1 <1>   0.0800 
 40 H       -8.3870    -3.0950    -2.2770 H     1 <1>   0.0800 
@<TRIPOS>BOND
  1   1   2  1   
  2   1   3  1   
  3   2   4  2   
  4   3   5  2   
  5   3   6  1   
  6   4   5  1   
  7   4   7  1   
  8   6  19  1   
  9   6  20  1   
 10   6  21  1   
 11   7   8  1   
 12   7  22  1   
 13   7  23  1   
 14   8   9  1   
 15   8  10  1   
 16   8  24  1   
 17   9  11  1   
 18   9  25  1   
 19   9  26  1   
 20  10  12  1   
 21  10  27  1   
 22  10  28  1   
 23  11  13  1   
 24  11  14  1   
 25  11  15  1   
 26  12  14  1   
 27  12  29  1   
 28  12  30  1   
 29  13  16  1   
 30  13  17  1   
 31  13  31  1   
 32  14  32  1   
 33  14  33  1   
 34  15  18  1   
 35  15  34  1   
 36  15  35  1   
 37  16  36  1   
 38  17  18  1   
 39  17  37  1   
 40  17  38  1   
 41  18  39  1   
 42  18  40  1   
@<TRIPOS>SUBSTRUCTURE
  1 ****   8 GROUP 4 **** **** 0

# MOE 2024.06 (io_trps.svl 2023.06)
