@<TRIPOS>MOLECULE
NONAME
50 53 1 0 0 
SMALL
USER_CHARGES


@<TRIPOS>ATOM
  1 O       -0.7110     0.1730    -1.0930 O.2   1 <1>  -0.5700 
  2 C       -1.6690     0.8050    -0.6860 C.2   1 <1>   0.5440 
  3 N       -1.4780     2.1130    -0.2980 N.am  1 <1>  -0.6600 
  4 C       -2.9590     0.1630    -0.6060 C.ar  1 <1>   0.0860 
  5 C       -2.3710     2.8640     0.6140 C.3   1 <1>   0.1400 
  6 C       -0.1580     2.7750    -0.4020 C.3   1 <1>   0.1400 
  7 C       -3.0720    -1.1240    -0.0920 C.ar  1 <1>   0.1600 
  8 C       -4.1360     0.7690    -1.0320 C.ar  1 <1>  -0.1500 
  9 C       -1.4570     3.8590     1.3180 C.3   1 <1>  -0.1600 
 10 C       -0.3220     4.1030     0.3280 C.3   1 <1>  -0.1600 
 11 N       -4.1930    -1.8080     0.0550 N.ar  1 <1>  -0.6200 
 12 C       -5.3120     0.0720    -0.8910 C.ar  1 <1>  -0.1500 
 13 C       -5.3130    -1.2120    -0.3420 C.ar  1 <1>   0.4100 
 14 N       -6.4830    -1.9270    -0.1750 N.pl3 1 <1>  -0.8380 
 15 C       -7.7940    -1.5850    -0.7870 C.3   1 <1>   0.2090 
 16 C       -6.4860    -3.3530     0.2560 C.3   1 <1>   0.2090 
 17 C       -8.7430    -2.6540    -0.2480 C.3   1 <1>   0.2000 
 18 C       -7.8580    -3.9000    -0.1550 C.3   1 <1>  -0.0800 
 19 O       -9.1290    -2.2700     1.0280 O.3   1 <1>  -0.6800 
 20 C       -8.3920    -5.0080     0.7720 C.3   1 <1>   0.0200 
 21 C       -7.5620    -6.2800     0.7200 C.2   1 <1>  -0.0400 
 22 O       -7.8500    -7.2500     1.5480 O.3   1 <1>  -0.0190 
 23 C       -6.5240    -6.6830    -0.0310 C.2   1 <1>  -0.1500 
 24 N       -7.0610    -8.2740     1.3940 N.2   1 <1>  -0.4100 
 25 C       -6.2510    -7.9600     0.4490 C.2   1 <1>   0.1080 
 26 C       -5.1520    -8.8640    -0.0650 C.3   1 <1>  -0.0590 
 27 H       -3.1090     3.3880     0.0320 H     1 <1>   0.0800 
 28 H       -2.8560     2.2090     1.3180 H     1 <1>   0.0800 
 29 H        0.5820     2.1630     0.0860 H     1 <1>   0.0800 
 30 H        0.1160     2.9150    -1.4340 H     1 <1>   0.0800 
 31 H       -2.1630    -1.6120     0.2200 H     1 <1>   0.1500 
 32 H       -4.1150     1.7540    -1.4620 H     1 <1>   0.1500 
 33 H       -1.9760     4.7640     1.5800 H     1 <1>   0.0800 
 34 H       -1.0690     3.4050     2.2130 H     1 <1>   0.0800 
 35 H        0.5890     4.4070     0.8120 H     1 <1>   0.0800 
 36 H       -0.6110     4.8580    -0.3830 H     1 <1>   0.0800 
 37 H       -6.2330     0.5190    -1.2040 H     1 <1>   0.1500 
 38 H       -8.1210    -0.5970    -0.5140 H     1 <1>   0.0800 
 39 H       -7.7150    -1.6640    -1.8570 H     1 <1>   0.0800 
 40 H       -5.6890    -3.8990    -0.2170 H     1 <1>   0.0800 
 41 H       -6.3550    -3.3940     1.3250 H     1 <1>   0.0800 
 42 H       -9.6240    -2.7900    -0.8510 H     1 <1>   0.0800 
 43 H       -7.7640    -4.3020    -1.1480 H     1 <1>   0.0800 
 44 H       -8.3250    -1.9610     1.5000 H     1 <1>   0.4000 
 45 H       -9.4020    -5.2510     0.4920 H     1 <1>   0.0800 
 46 H       -8.4140    -4.6590     1.7890 H     1 <1>   0.0800 
 47 H       -5.9970    -6.1820    -0.8220 H     1 <1>   0.1500 
 48 H       -4.2020    -8.3720     0.0270 H     1 <1>   0.0800 
 49 H       -5.3300    -9.1030    -1.0970 H     1 <1>   0.0800 
 50 H       -5.1300    -9.7750     0.5050 H     1 <1>   0.0800 
@<TRIPOS>BOND
  1   1   2  2   
  2   2   3  am  
  3   2   4  1   
  4   3   5  1   
  5   3   6  1   
  6   4   7  ar  
  7   4   8  ar  
  8   5   9  1   
  9   5  27  1   
 10   5  28  1   
 11   6  10  1   
 12   6  29  1   
 13   6  30  1   
 14   7  11  ar  
 15   7  31  1   
 16   8  12  ar  
 17   8  32  1   
 18   9  10  1   
 19   9  33  1   
 20   9  34  1   
 21  10  35  1   
 22  10  36  1   
 23  11  13  ar  
 24  12  13  ar  
 25  12  37  1   
 26  13  14  1   
 27  14  15  1   
 28  14  16  1   
 29  15  17  1   
 30  15  38  1   
 31  15  39  1   
 32  16  18  1   
 33  16  40  1   
 34  16  41  1   
 35  17  18  1   
 36  17  19  1   
 37  17  42  1   
 38  18  20  1   
 39  18  43  1   
 40  19  44  1   
 41  20  21  1   
 42  20  45  1   
 43  20  46  1   
 44  21  22  1   
 45  21  23  2   
 46  22  24  1   
 47  23  25  1   
 48  23  47  1   
 49  24  25  2   
 50  25  26  1   
 51  26  48  1   
 52  26  49  1   
 53  26  50  1   
@<TRIPOS>SUBSTRUCTURE
  1 ****  11 GROUP 4 **** **** 0

# MOE 2024.06 (io_trps.svl 2023.06)
