@<TRIPOS>MOLECULE
NONAME
54 56 1 0 0 
SMALL
USER_CHARGES


@<TRIPOS>ATOM
  1 O       -1.5650     0.9750    -2.3850 O.2   1 <1>  -0.5700 
  2 C       -2.2810     0.7490    -1.4400 C.2   1 <1>   0.5690 
  3 N       -2.9640    -0.4160    -1.3380 N.am  1 <1>  -0.7300 
  4 C       -2.4350     1.7790    -0.3200 C.3   1 <1>  -0.0190 
  5 C       -2.9450    -1.4820    -2.3510 C.3   1 <1>   0.2840 
  6 C       -2.1260     3.2210    -0.7770 C.3   1 <1>  -0.1600 
  7 C       -1.5700     1.3990     0.9050 C.3   1 <1>  -0.1600 
  8 C       -4.2210    -2.2870    -2.1970 C.ar  1 <1>  -0.1440 
  9 C       -2.4350     4.2610     0.3210 C.3   1 <1>   0.2000 
 10 C       -1.2910     2.5770     1.8610 C.3   1 <1>  -0.1600 
 11 C       -4.2480    -3.4080    -1.3830 C.ar  1 <1>  -0.1500 
 12 C       -5.3770    -1.9030    -2.8610 C.ar  1 <1>  -0.1500 
 13 O       -1.5060     5.3120     0.2170 O.3   1 <1>  -0.5600 
 14 C       -2.3640     3.6630     1.7510 C.3   1 <1>   0.2000 
 15 C       -5.4100    -4.1450    -1.2270 C.ar  1 <1>   0.0820 
 16 C       -6.5430    -2.6350    -2.7130 C.ar  1 <1>  -0.1500 
 17 C       -1.7420     6.2160    -0.8190 C.3   1 <1>   0.0400 
 18 O       -2.0550     4.6630     2.6480 O.3   1 <1>  -0.6800 
 19 O       -5.3380    -5.2220    -0.4080 O.3   1 <1>  -0.3630 
 20 C       -6.5650    -3.7540    -1.9000 C.ar  1 <1>  -0.1500 
 21 C       -6.4630    -6.0390    -0.1670 C.3   1 <1>   0.2630 
 22 C       -6.0670    -7.1550     0.7870 C.ar  1 <1>  -0.1430 
 23 C       -5.1960    -8.1500     0.3690 C.ar  1 <1>  -0.1500 
 24 C       -6.5730    -7.1930     2.0780 C.ar  1 <1>  -0.1500 
 25 C       -4.8390    -9.1740     1.2280 C.ar  1 <1>  -0.1500 
 26 C       -6.2160    -8.2180     2.9380 C.ar  1 <1>  -0.1500 
 27 C       -5.3500    -9.2100     2.5130 C.ar  1 <1>  -0.1500 
 28 H       -3.5710    -0.6090    -0.5410 H     1 <1>   0.3700 
 29 H       -3.4680     1.7580    -0.0220 H     1 <1>   0.0800 
 30 H       -2.8840    -1.0520    -3.3370 H     1 <1>   0.0800 
 31 H       -2.0830    -2.1080    -2.1970 H     1 <1>   0.0800 
 32 H       -2.7020     3.4490    -1.6560 H     1 <1>   0.0800 
 33 H       -1.0820     3.2730    -1.0380 H     1 <1>   0.0800 
 34 H       -2.0660     0.6100     1.4450 H     1 <1>   0.0800 
 35 H       -0.6240     1.0090     0.5680 H     1 <1>   0.0800 
 36 H       -3.4250     4.6630     0.1830 H     1 <1>   0.0800 
 37 H       -0.3400     3.0140     1.6040 H     1 <1>   0.0800 
 38 H       -1.2340     2.2170     2.8730 H     1 <1>   0.0800 
 39 H       -3.3650    -3.7250    -0.8560 H     1 <1>   0.1500 
 40 H       -5.3710    -1.0320    -3.4930 H     1 <1>   0.1500 
 41 H       -3.3180     3.2520     2.0330 H     1 <1>   0.0800 
 42 H       -7.4340    -2.3310    -3.2340 H     1 <1>   0.1500 
 43 H       -0.9850     6.9790    -0.7750 H     1 <1>   0.0800 
 44 H       -2.7130     6.6620    -0.6880 H     1 <1>   0.0800 
 45 H       -1.6820     5.7050    -1.7640 H     1 <1>   0.0800 
 46 H       -1.4920     5.3010     2.1510 H     1 <1>   0.4000 
 47 H       -7.4830    -4.3010    -1.8060 H     1 <1>   0.1500 
 48 H       -7.2390    -5.4290     0.2580 H     1 <1>   0.0800 
 49 H       -6.7900    -6.4520    -1.1050 H     1 <1>   0.0800 
 50 H       -4.7900    -8.1240    -0.6280 H     1 <1>   0.1500 
 51 H       -7.2440    -6.4260     2.4210 H     1 <1>   0.1500 
 52 H       -4.1620    -9.9420     0.8970 H     1 <1>   0.1500 
 53 H       -6.6120    -8.2420     3.9380 H     1 <1>   0.1500 
 54 H       -5.0720   -10.0050     3.1820 H     1 <1>   0.1500 
@<TRIPOS>BOND
  1   1   2  2   
  2   2   3  am  
  3   2   4  1   
  4   3   5  1   
  5   3  28  1   
  6   4   6  1   
  7   4   7  1   
  8   4  29  1   
  9   5   8  1   
 10   5  30  1   
 11   5  31  1   
 12   6   9  1   
 13   6  32  1   
 14   6  33  1   
 15   7  10  1   
 16   7  34  1   
 17   7  35  1   
 18   8  11  ar  
 19   8  12  ar  
 20   9  13  1   
 21   9  14  1   
 22   9  36  1   
 23  10  14  1   
 24  10  37  1   
 25  10  38  1   
 26  11  15  ar  
 27  11  39  1   
 28  12  16  ar  
 29  12  40  1   
 30  13  17  1   
 31  14  18  1   
 32  14  41  1   
 33  15  19  1   
 34  15  20  ar  
 35  16  20  ar  
 36  16  42  1   
 37  17  43  1   
 38  17  44  1   
 39  17  45  1   
 40  18  46  1   
 41  19  21  1   
 42  20  47  1   
 43  21  22  1   
 44  21  48  1   
 45  21  49  1   
 46  22  23  ar  
 47  22  24  ar  
 48  23  25  ar  
 49  23  50  1   
 50  24  26  ar  
 51  24  51  1   
 52  25  27  ar  
 53  25  52  1   
 54  26  27  ar  
 55  26  53  1   
 56  27  54  1   
@<TRIPOS>SUBSTRUCTURE
  1 ****   3 GROUP 4 **** **** 0

# MOE 2024.06 (io_trps.svl 2023.06)
