@<TRIPOS>MOLECULE
NONAME
49 51 1 0 0 
SMALL
USER_CHARGES


@<TRIPOS>ATOM
  1 S       -0.7970    -0.0160     1.2580 S.o2  1 <1>   1.3330 
  2 O       -1.3360    -0.5530     2.4840 O.2   1 <1>  -0.6500 
  3 O       -0.9310     1.3860     0.9410 O.2   1 <1>  -0.6500 
  4 N       -1.4660    -0.9030    -0.0770 N.am  1 <1>  -0.6930 
  5 C        0.9260    -0.4420     1.1430 C.3   1 <1>  -0.1350 
  6 C       -1.4690    -2.2900    -0.1320 C.ar  1 <1>   0.1990 
  7 C       -1.9500    -0.1120    -1.2360 C.3   1 <1>   0.1160 
  8 C       -2.0570    -3.0570     0.8680 C.ar  1 <1>  -0.1500 
  9 C       -0.8710    -2.9580    -1.1970 C.ar  1 <1>  -0.1500 
 10 C       -2.0400    -4.4370     0.8100 C.ar  1 <1>  -0.1500 
 11 C       -0.8600    -4.3380    -1.2550 C.ar  1 <1>  -0.1500 
 12 C       -1.4500    -5.1150    -0.2580 C.ar  1 <1>   0.0860 
 13 C       -1.4320    -6.5620    -0.3350 C.2   1 <1>   0.5440 
 14 O       -0.3990    -7.1350    -0.6250 O.2   1 <1>  -0.5700 
 15 N       -2.5600    -7.3180    -0.1030 N.am  1 <1>  -0.6600 
 16 C       -3.9540    -6.8150    -0.2000 C.3   1 <1>   0.1400 
 17 C       -2.5370    -8.8010    -0.1560 C.3   1 <1>   0.1400 
 18 C       -4.8070    -8.0610    -0.4410 C.3   1 <1>   0.2000 
 19 C       -3.9830    -9.2310     0.0930 C.3   1 <1>  -0.0800 
 20 O       -6.0180    -7.9910     0.2300 O.3   1 <1>  -0.6800 
 21 C       -4.3660   -10.5710    -0.5570 C.3   1 <1>  -0.0160 
 22 C       -3.5770   -11.7280     0.0330 C.ar  1 <1>   0.1670 
 23 N       -2.3730   -11.9420    -0.4720 N.ar  1 <1>  -0.6200 
 24 C       -4.1290   -12.4980     1.0560 C.ar  1 <1>   0.1600 
 25 C       -1.7630   -12.9610     0.1090 C.ar  1 <1>   0.1600 
 26 N       -3.5210   -13.5170     1.6400 N.ar  1 <1>  -0.6200 
 27 C       -2.3180   -13.7220     1.1310 C.ar  1 <1>   0.1600 
 28 H        1.0540    -1.5000     1.2640 H     1 <1>   0.0800 
 29 H        1.4800     0.0610     1.9100 H     1 <1>   0.0800 
 30 H        1.3160    -0.1520     0.1880 H     1 <1>   0.0800 
 31 H       -2.4140    -0.7530    -1.9640 H     1 <1>   0.0800 
 32 H       -1.1270     0.4110    -1.6920 H     1 <1>   0.0800 
 33 H       -2.6760     0.6100    -0.9000 H     1 <1>   0.0800 
 34 H       -2.5320    -2.5650     1.6980 H     1 <1>   0.1500 
 35 H       -0.4040    -2.3880    -1.9790 H     1 <1>   0.1500 
 36 H       -2.4840    -5.0050     1.6090 H     1 <1>   0.1500 
 37 H       -0.3850    -4.8390    -2.0820 H     1 <1>   0.1500 
 38 H       -4.2260    -6.3420     0.7260 H     1 <1>   0.0800 
 39 H       -4.0500    -6.1210    -1.0170 H     1 <1>   0.0800 
 40 H       -2.2020    -9.1130    -1.1310 H     1 <1>   0.0800 
 41 H       -1.8680    -9.2000     0.5880 H     1 <1>   0.0800 
 42 H       -5.0050    -8.1700    -1.4940 H     1 <1>   0.0800 
 43 H       -4.1120    -9.3010     1.1590 H     1 <1>   0.0800 
 44 H       -5.8710    -7.8600     1.1870 H     1 <1>   0.4000 
 45 H       -4.1890   -10.5300    -1.6180 H     1 <1>   0.0800 
 46 H       -5.4180   -10.7460    -0.4130 H     1 <1>   0.0800 
 47 H       -5.1160   -12.2590     1.4090 H     1 <1>   0.1500 
 48 H       -0.7750   -13.2060    -0.2400 H     1 <1>   0.1500 
 49 H       -1.7430   -14.5330     1.5410 H     1 <1>   0.1500 
@<TRIPOS>BOND
  1   1   2  2   
  2   1   3  2   
  3   1   4  am  
  4   1   5  1   
  5   4   6  1   
  6   4   7  1   
  7   5  28  1   
  8   5  29  1   
  9   5  30  1   
 10   6   8  ar  
 11   6   9  ar  
 12   7  31  1   
 13   7  32  1   
 14   7  33  1   
 15   8  10  ar  
 16   8  34  1   
 17   9  11  ar  
 18   9  35  1   
 19  10  12  ar  
 20  10  36  1   
 21  11  12  ar  
 22  11  37  1   
 23  12  13  1   
 24  13  14  2   
 25  13  15  am  
 26  15  16  1   
 27  15  17  1   
 28  16  18  1   
 29  16  38  1   
 30  16  39  1   
 31  17  19  1   
 32  17  40  1   
 33  17  41  1   
 34  18  19  1   
 35  18  20  1   
 36  18  42  1   
 37  19  21  1   
 38  19  43  1   
 39  20  44  1   
 40  21  22  1   
 41  21  45  1   
 42  21  46  1   
 43  22  23  ar  
 44  22  24  ar  
 45  23  25  ar  
 46  24  26  ar  
 47  24  47  1   
 48  25  27  ar  
 49  25  48  1   
 50  26  27  ar  
 51  27  49  1   
@<TRIPOS>SUBSTRUCTURE
  1 ****  13 GROUP 4 **** **** 0

# MOE 2024.06 (io_trps.svl 2023.06)
