@<TRIPOS>MOLECULE
NONAME
46 48 1 0 0 
SMALL
USER_CHARGES


@<TRIPOS>ATOM
  1 O        0.2490    -0.0120    -2.1280 O.2   1 <1>  -0.5700 
  2 C       -0.5120     0.7850    -1.6290 C.2   1 <1>   0.5690 
  3 N       -1.6620     0.3720    -1.0120 N.am  1 <1>  -0.6600 
  4 C       -0.1630     2.2630    -1.7270 C.3   1 <1>   0.0440 
  5 C       -2.6450     1.2430    -0.3200 C.3   1 <1>   0.1400 
  6 C       -2.0200    -1.0560    -0.8570 C.3   1 <1>   0.1400 
  7 C        0.1920     2.8760    -0.3700 C.ar  1 <1>  -0.1440 
  8 C       -3.7650     0.2980     0.1100 C.3   1 <1>   0.2000 
  9 C       -3.1160    -1.0810     0.2100 C.3   1 <1>  -0.0800 
 10 C       -0.5690     3.8880     0.2120 C.ar  1 <1>   0.0830 
 11 C        1.3120     2.3970     0.2920 C.ar  1 <1>  -0.1500 
 12 O       -4.3020     0.6640     1.3340 O.3   1 <1>  -0.6800 
 13 C       -4.1210    -2.2290     0.0360 C.3   1 <1>   0.0200 
 14 O       -1.6690     4.3270    -0.4560 O.3   1 <1>  -0.3630 
 15 C       -0.1910     4.4070     1.4500 C.ar  1 <1>  -0.1500 
 16 C        1.6810     2.9140     1.5200 C.ar  1 <1>  -0.1500 
 17 C       -3.4230    -3.5750     0.0630 C.2   1 <1>  -0.0400 
 18 C       -2.4640     5.3860     0.0310 C.3   1 <1>   0.0400 
 19 C        0.9290     3.9200     2.0990 C.ar  1 <1>  -0.1500 
 20 O       -2.7920    -3.9620     1.1400 O.3   1 <1>  -0.0190 
 21 C       -3.2960    -4.5390    -0.8600 C.2   1 <1>  -0.1500 
 22 N       -2.2460    -5.1330     0.9850 N.2   1 <1>  -0.4100 
 23 C       -2.5330    -5.5060    -0.2100 C.2   1 <1>   0.1080 
 24 C       -2.0950    -6.8190    -0.8190 C.3   1 <1>  -0.0590 
 25 H        0.6850     2.3690    -2.3790 H     1 <1>   0.0800 
 26 H       -0.9790     2.7740    -2.1970 H     1 <1>   0.0800 
 27 H       -2.1760     1.6900     0.5390 H     1 <1>   0.0800 
 28 H       -3.0150     2.0040    -0.9840 H     1 <1>   0.0800 
 29 H       -2.3850    -1.4260    -1.8000 H     1 <1>   0.0800 
 30 H       -1.1630    -1.6370    -0.5550 H     1 <1>   0.0800 
 31 H       -4.5520     0.3120    -0.6240 H     1 <1>   0.0800 
 32 H       -2.6260    -1.1770     1.1630 H     1 <1>   0.0800 
 33 H        1.9040     1.6110    -0.1500 H     1 <1>   0.1500 
 34 H       -3.6120     0.6390     2.0260 H     1 <1>   0.4000 
 35 H       -4.6430    -2.1210    -0.8980 H     1 <1>   0.0800 
 36 H       -4.8470    -2.1950     0.8300 H     1 <1>   0.0800 
 37 H       -0.7520     5.1870     1.9250 H     1 <1>   0.1500 
 38 H        2.5530     2.5330     2.0240 H     1 <1>   0.1500 
 39 H       -3.2510     5.5680    -0.6780 H     1 <1>   0.0800 
 40 H       -1.8520     6.2650     0.1300 H     1 <1>   0.0800 
 41 H       -2.8860     5.1000     0.9780 H     1 <1>   0.0800 
 42 H        1.2180     4.3230     3.0540 H     1 <1>   0.1500 
 43 H       -3.6720    -4.5900    -1.8640 H     1 <1>   0.1500 
 44 H       -2.9550    -7.3900    -1.1150 H     1 <1>   0.0800 
 45 H       -1.5300    -7.3860    -0.1010 H     1 <1>   0.0800 
 46 H       -1.4780    -6.6340    -1.6790 H     1 <1>   0.0800 
@<TRIPOS>BOND
  1   1   2  2   
  2   2   3  am  
  3   2   4  1   
  4   3   5  1   
  5   3   6  1   
  6   4   7  1   
  7   4  25  1   
  8   4  26  1   
  9   5   8  1   
 10   5  27  1   
 11   5  28  1   
 12   6   9  1   
 13   6  29  1   
 14   6  30  1   
 15   7  10  ar  
 16   7  11  ar  
 17   8   9  1   
 18   8  12  1   
 19   8  31  1   
 20   9  13  1   
 21   9  32  1   
 22  10  14  1   
 23  10  15  ar  
 24  11  16  ar  
 25  11  33  1   
 26  12  34  1   
 27  13  17  1   
 28  13  35  1   
 29  13  36  1   
 30  14  18  1   
 31  15  19  ar  
 32  15  37  1   
 33  16  19  ar  
 34  16  38  1   
 35  17  20  1   
 36  17  21  2   
 37  18  39  1   
 38  18  40  1   
 39  18  41  1   
 40  19  42  1   
 41  20  22  1   
 42  21  23  1   
 43  21  43  1   
 44  22  23  2   
 45  23  24  1   
 46  24  44  1   
 47  24  45  1   
 48  24  46  1   
@<TRIPOS>SUBSTRUCTURE
  1 ****   3 GROUP 4 **** **** 0

# MOE 2024.06 (io_trps.svl 2023.06)
