@<TRIPOS>MOLECULE
NONAME
42 44 1 0 0 
SMALL
USER_CHARGES


@<TRIPOS>ATOM
  1 S        0.1340     0.5130    -0.2200 S.3   1 <1>  -0.0800 
  2 C        1.8300     0.9010    -0.5130 C.2   1 <1>  -0.0450 
  3 C        0.5380    -0.9940     0.5740 C.2   1 <1>  -0.1400 
  4 C        2.1390     2.1410    -1.1790 C.2   1 <1>   0.7150 
  5 C        2.5970    -0.1060    -0.0180 C.2   1 <1>  -0.1500 
  6 C        1.8720    -1.1680     0.5960 C.2   1 <1>  -0.1500 
  7 C       -0.6090    -1.8380     1.0880 C.3   1 <1>  -0.0600 
  8 O        1.5640     2.4400    -2.2080 O.2   1 <1>  -0.5700 
  9 N        3.1080     3.0040    -0.7040 N.am  1 <1>  -0.6600 
 10 C        3.6330     2.9190     0.7120 C.3   1 <1>   0.2200 
 11 C        3.5490     4.1440    -1.5760 C.3   1 <1>   0.1400 
 12 C        3.4350     4.2340     1.4850 C.3   1 <1>   0.1200 
 13 C        5.1100     2.4610     0.7420 C.3   1 <1>   0.3430 
 14 C        4.8060     4.9030    -1.1040 C.3   1 <1>  -0.0800 
 15 O        4.5000     5.1100     1.2850 O.3   1 <1>  -0.5600 
 16 N        5.7800     2.6070    -0.5980 N.4   1 <1>  -0.9590 
 17 C        4.5080     5.8180     0.0930 C.3   1 <1>   0.1200 
 18 C        6.0710     4.0460    -0.8840 C.3   1 <1>   0.3430 
 19 C        7.0900     1.8330    -0.5780 C.3   1 <1>   0.2370 
 20 C        8.0480     2.2480     0.5420 C.2   1 <1>   0.9060 
 21 O        8.8220     3.1820     0.3190 O.co2 1 <1>  -0.9000 
 22 O        7.8940     1.7220     1.6470 O.co2 1 <1>  -0.9000 
 23 H        3.6700    -0.1500    -0.0710 H     1 <1>   0.1500 
 24 H        2.3790    -2.0160     1.0230 H     1 <1>   0.1500 
 25 H       -0.2350    -2.7330     1.5500 H     1 <1>   0.0800 
 26 H       -1.2550    -2.1110     0.2730 H     1 <1>   0.0800 
 27 H       -1.1770    -1.2820     1.8120 H     1 <1>   0.0800 
 28 H        3.0610     2.1900     1.2570 H     1 <1>   0.0800 
 29 H        3.7340     3.7600    -2.5650 H     1 <1>   0.0800 
 30 H        2.7290     4.8380    -1.6630 H     1 <1>   0.0800 
 31 H        3.4190     4.0180     2.5400 H     1 <1>   0.0800 
 32 H        2.5070     4.7150     1.2260 H     1 <1>   0.0800 
 33 H        5.1430     1.4280     1.0430 H     1 <1>   0.0800 
 34 H        5.6550     3.0180     1.4900 H     1 <1>   0.0800 
 35 H        5.0500     5.5800    -1.9020 H     1 <1>   0.0800 
 36 H        5.1330     2.2500    -1.3100 H     1 <1>   0.4500 
 37 H        3.5680     6.3320    -0.0180 H     1 <1>   0.0800 
 38 H        5.2860     6.5580     0.1830 H     1 <1>   0.0800 
 39 H        6.6550     4.4630    -0.0760 H     1 <1>   0.0800 
 40 H        6.6790     4.1000    -1.7710 H     1 <1>   0.0800 
 41 H        6.8930     0.7850    -0.4470 H     1 <1>   0.0800 
 42 H        7.6110     1.9670    -1.5080 H     1 <1>   0.0800 
@<TRIPOS>BOND
  1   1   2  1   
  2   1   3  1   
  3   2   4  1   
  4   2   5  2   
  5   3   6  2   
  6   3   7  1   
  7   4   8  2   
  8   4   9  am  
  9   5   6  1   
 10   5  23  1   
 11   6  24  1   
 12   7  25  1   
 13   7  26  1   
 14   7  27  1   
 15   9  10  1   
 16   9  11  1   
 17  10  12  1   
 18  10  13  1   
 19  10  28  1   
 20  11  14  1   
 21  11  29  1   
 22  11  30  1   
 23  12  15  1   
 24  12  31  1   
 25  12  32  1   
 26  13  16  1   
 27  13  33  1   
 28  13  34  1   
 29  14  17  1   
 30  14  18  1   
 31  14  35  1   
 32  15  17  1   
 33  16  18  1   
 34  16  19  1   
 35  16  36  1   
 36  17  37  1   
 37  17  38  1   
 38  18  39  1   
 39  18  40  1   
 40  19  20  1   
 41  19  41  1   
 42  19  42  1   
 43  20  21  ar  
 44  20  22  ar  
@<TRIPOS>SUBSTRUCTURE
  1 ****  10 GROUP 4 **** **** 0

# MOE 2024.06 (io_trps.svl 2023.06)
