@<TRIPOS>MOLECULE
NONAME
54 56 1 0 0 
SMALL
USER_CHARGES


@<TRIPOS>ATOM
  1 O       -0.8220    -1.6530    -1.0990 O.3   1 <1>  -0.6800 
  2 C        0.4610    -2.1370    -1.3020 C.3   1 <1>   0.1200 
  3 C        1.3480    -1.8960    -0.0450 C.3   1 <1>   0.0000 
  4 C        2.8060    -2.3660    -0.3040 C.3   1 <1>   0.4230 
  5 C        1.4080    -0.3800     0.2810 C.3   1 <1>  -0.1600 
  6 C        0.7780    -2.6500     1.1950 C.3   1 <1>  -0.1600 
  7 N        2.9480    -3.8680    -0.5240 N.4   1 <1>  -0.9590 
  8 C        3.5180    -1.5000    -1.3700 C.3   1 <1>   0.1100 
  9 C        2.1470     0.4460    -0.7780 C.3   1 <1>   0.1100 
 10 C        1.4870    -3.9840     1.4930 C.3   1 <1>  -0.1600 
 11 C        1.9300    -4.6870     0.2130 C.3   1 <1>   0.3430 
 12 C        3.0180    -4.3100    -1.9540 C.3   1 <1>   0.2630 
 13 N        3.5040    -0.0910    -0.9640 N.3   1 <1>  -0.8100 
 14 C        4.3440     0.7670    -1.8370 C.3   1 <1>   0.2530 
 15 C        4.7220     2.0920    -1.1760 C.ar  1 <1>   0.1670 
 16 N        5.7090     2.0880    -0.3030 N.ar  1 <1>  -0.6200 
 17 C        4.0600     3.2550    -1.4960 C.ar  1 <1>  -0.1500 
 18 C        6.0120     3.2550     0.2490 C.ar  1 <1>   0.4770 
 19 C        4.4580     4.4090    -0.8680 C.ar  1 <1>   0.1600 
 20 N        5.4350     4.4250     0.0090 N.ar  1 <1>  -0.6200 
 21 C        7.1550     3.2360     1.2740 C.3   1 <1>   0.0630 
 22 C        6.6800     3.6680     2.6710 C.3   1 <1>  -0.2400 
 23 C        8.3410     4.1050     0.8240 C.3   1 <1>  -0.2400 
 24 H       -1.3870    -1.7630    -1.8910 H     1 <1>   0.4000 
 25 H        0.3730    -3.1850    -1.5200 H     1 <1>   0.0800 
 26 H        0.8570    -1.6330    -2.1650 H     1 <1>   0.0800 
 27 H        3.3290    -2.1480     0.6130 H     1 <1>   0.0800 
 28 H        1.9200    -0.2240     1.2150 H     1 <1>   0.0800 
 29 H        0.4150     0.0170     0.4030 H     1 <1>   0.0800 
 30 H        0.8550    -2.0390     2.0780 H     1 <1>   0.0800 
 31 H       -0.2740    -2.8360     1.0600 H     1 <1>   0.0800 
 32 H        3.8560    -4.0970    -0.0940 H     1 <1>   0.4500 
 33 H        3.0470    -1.5970    -2.3320 H     1 <1>   0.0800 
 34 H        4.5430    -1.8210    -1.4460 H     1 <1>   0.0800 
 35 H        2.2050     1.4640    -0.4300 H     1 <1>   0.0800 
 36 H        1.6080     0.4410    -1.7100 H     1 <1>   0.0800 
 37 H        0.8140    -4.6240     2.0370 H     1 <1>   0.0800 
 38 H        2.3440    -3.8170     2.1230 H     1 <1>   0.0800 
 39 H        1.0620    -4.8370    -0.4080 H     1 <1>   0.0800 
 40 H        2.3410    -5.6550     0.4520 H     1 <1>   0.0800 
 41 H        2.1060    -4.0620    -2.4710 H     1 <1>   0.0800 
 42 H        3.1630    -5.3770    -2.0070 H     1 <1>   0.0800 
 43 H        3.8430    -3.8320    -2.4580 H     1 <1>   0.0800 
 44 H        5.2630     0.2550    -2.0640 H     1 <1>   0.0800 
 45 H        3.8330     0.9540    -2.7650 H     1 <1>   0.0800 
 46 H        3.2580     3.2680    -2.2090 H     1 <1>   0.1500 
 47 H        3.9650     5.3410    -1.0890 H     1 <1>   0.1500 
 48 H        7.5080     2.2220     1.3520 H     1 <1>   0.0800 
 49 H        6.3400     4.6890     2.6510 H     1 <1>   0.0800 
 50 H        7.4790     3.5810     3.3840 H     1 <1>   0.0800 
 51 H        5.8640     3.0430     2.9870 H     1 <1>   0.0800 
 52 H        8.0450     5.1370     0.7570 H     1 <1>   0.0800 
 53 H        8.6820     3.7840    -0.1440 H     1 <1>   0.0800 
 54 H        9.1550     4.0210     1.5220 H     1 <1>   0.0800 
@<TRIPOS>BOND
  1   1   2  1   
  2   1  24  1   
  3   2   3  1   
  4   2  25  1   
  5   2  26  1   
  6   3   4  1   
  7   3   5  1   
  8   3   6  1   
  9   4   7  1   
 10   4   8  1   
 11   4  27  1   
 12   5   9  1   
 13   5  28  1   
 14   5  29  1   
 15   6  10  1   
 16   6  30  1   
 17   6  31  1   
 18   7  11  1   
 19   7  12  1   
 20   7  32  1   
 21   8  13  1   
 22   8  33  1   
 23   8  34  1   
 24   9  13  1   
 25   9  35  1   
 26   9  36  1   
 27  10  11  1   
 28  10  37  1   
 29  10  38  1   
 30  11  39  1   
 31  11  40  1   
 32  12  41  1   
 33  12  42  1   
 34  12  43  1   
 35  13  14  1   
 36  14  15  1   
 37  14  44  1   
 38  14  45  1   
 39  15  16  ar  
 40  15  17  ar  
 41  16  18  ar  
 42  17  19  ar  
 43  17  46  1   
 44  18  20  ar  
 45  18  21  1   
 46  19  20  ar  
 47  19  47  1   
 48  21  22  1   
 49  21  23  1   
 50  21  48  1   
 51  22  49  1   
 52  22  50  1   
 53  22  51  1   
 54  23  52  1   
 55  23  53  1   
 56  23  54  1   
@<TRIPOS>SUBSTRUCTURE
  1 ****  13 GROUP 4 **** **** 0

# MOE 2024.06 (io_trps.svl 2023.06)
