@<TRIPOS>MOLECULE
NONAME
22 22 1 0 0 
SMALL
USER_CHARGES


@<TRIPOS>ATOM
  1 S        0.1890     0.3280    -1.9990 S.3   1 <1>  -0.2350 
  2 C       -0.8580     1.5860    -1.2360 C.2   1 <1>   0.0550 
  3 C       -2.1640     1.4210    -0.8050 C.2   1 <1>   0.1390 
  4 C       -0.5270     2.8610    -0.9730 C.2   1 <1>  -0.3020 
  5 N       -2.6330     2.5230    -0.3010 N.2   1 <1>  -0.7070 
  6 N       -1.6180     3.4280    -0.4010 N.pl3 1 <1>   0.3140 
  7 C       -1.7160     4.8620     0.0670 C.3   1 <1>   0.2560 
  8 C       -1.4830     5.8060    -1.1240 C.3   1 <1>  -0.2400 
  9 C       -3.1030     5.1630     0.6680 C.3   1 <1>  -0.2400 
 10 C       -0.6500     5.1220     1.1440 C.3   1 <1>  -0.2400 
 11 H       -0.6300    -0.7630    -2.0270 H     1 <1>   0.1800 
 12 H       -2.7260     0.5060    -0.8750 H     1 <1>   0.1500 
 13 H        0.3950     3.3780    -1.1560 H     1 <1>   0.1500 
 14 H       -2.2160     5.6210    -1.8900 H     1 <1>   0.0800 
 15 H       -0.5020     5.6640    -1.5400 H     1 <1>   0.0800 
 16 H       -1.5700     6.8310    -0.8130 H     1 <1>   0.0800 
 17 H       -3.8720     4.9990    -0.0670 H     1 <1>   0.0800 
 18 H       -3.1620     6.1840     0.9970 H     1 <1>   0.0800 
 19 H       -3.2920     4.5230     1.5120 H     1 <1>   0.0800 
 20 H        0.3390     4.9740     0.7490 H     1 <1>   0.0800 
 21 H       -0.7950     4.4560     1.9770 H     1 <1>   0.0800 
 22 H       -0.7190     6.1330     1.5040 H     1 <1>   0.0800 
@<TRIPOS>BOND
  1   1   2  1   
  2   1  11  1   
  3   2   3  1   
  4   2   4  2   
  5   3   5  2   
  6   3  12  1   
  7   4   6  1   
  8   4  13  1   
  9   5   6  1   
 10   6   7  1   
 11   7   8  1   
 12   7   9  1   
 13   7  10  1   
 14   8  14  1   
 15   8  15  1   
 16   8  16  1   
 17   9  17  1   
 18   9  18  1   
 19   9  19  1   
 20  10  20  1   
 21  10  21  1   
 22  10  22  1   
@<TRIPOS>SUBSTRUCTURE
  1 ****   6 GROUP 4 **** **** 0

# MOE 2024.06 (io_trps.svl 2023.06)
