@<TRIPOS>MOLECULE
NONAME
49 51 1 0 0 
SMALL
USER_CHARGES


@<TRIPOS>ATOM
  1 S        0.3320     0.1450     0.4090 S.3   1 <1>  -0.3320 
  2 C        1.7930     1.1870     0.2680 C.ar  1 <1>   0.1020 
  3 C        0.8970    -1.5320     0.9420 C.3   1 <1>  -0.0100 
  4 C        1.5980     2.4890    -0.1200 C.ar  1 <1>  -0.1500 
  5 C        3.0700     0.7010     0.5400 C.ar  1 <1>  -0.1500 
  6 C        2.6810     3.3730    -0.2550 C.ar  1 <1>   0.0000 
  7 C        4.1470     1.5470     0.4150 C.ar  1 <1>  -0.1500 
  8 C        3.9720     2.8800     0.0200 C.ar  1 <1>   0.3610 
  9 C        2.5570     4.7390    -0.6560 C.ar  1 <1>  -0.1440 
 10 N        5.0550     3.7330    -0.1040 N.ar  1 <1>  -0.1790 
 11 C        3.6710     5.5150    -0.7560 C.ar  1 <1>  -0.1500 
 12 C        1.1830     5.3200    -0.9740 C.3   1 <1>  -0.0970 
 13 C        4.9650     5.0130    -0.4700 C.ar  1 <1>   0.4610 
 14 N        6.0860     5.7480    -0.5510 N.pl3 1 <1>  -0.8690 
 15 C        6.2010     7.1880    -0.8930 C.3   1 <1>   0.2090 
 16 C        7.4680     7.7310    -0.2400 C.3   1 <1>  -0.1600 
 17 C        7.6970     9.2080    -0.5930 C.3   1 <1>   0.0960 
 18 N        8.9830     9.6660    -0.0360 N.pl3 1 <1>   0.3140 
 19 N       10.1420     9.2690    -0.5890 N.2   1 <1>  -0.7070 
 20 C        9.1970    10.4600     1.0390 C.2   1 <1>  -0.3320 
 21 C       11.0640     9.8190     0.1340 C.2   1 <1>   0.1080 
 22 C       10.5350    10.5770     1.1710 C.2   1 <1>  -0.1500 
 23 C        8.1170    11.0820     1.9080 C.3   1 <1>  -0.0600 
 24 C       12.5350     9.6310    -0.1500 C.3   1 <1>  -0.0590 
 25 H        0.0240    -2.1540     1.0260 H     1 <1>   0.0800 
 26 H        1.3850    -1.4330     1.8950 H     1 <1>   0.0800 
 27 H        1.5640    -1.9150     0.1910 H     1 <1>   0.0800 
 28 H        0.5940     2.8180    -0.3180 H     1 <1>   0.1500 
 29 H        3.2140    -0.3200     0.8430 H     1 <1>   0.1500 
 30 H        5.1330     1.1700     0.6250 H     1 <1>   0.1500 
 31 H        5.9770     3.3640     0.1030 H     1 <1>   0.4570 
 32 H        3.5880     6.5400    -1.0630 H     1 <1>   0.1500 
 33 H        0.7280     4.7780    -1.7840 H     1 <1>   0.0800 
 34 H        1.2530     6.3530    -1.2630 H     1 <1>   0.0800 
 35 H        0.5440     5.2580    -0.1110 H     1 <1>   0.0800 
 36 H        7.0190     5.3510    -0.3880 H     1 <1>   0.4000 
 37 H        5.3460     7.7350    -0.5320 H     1 <1>   0.0800 
 38 H        6.2640     7.2990    -1.9640 H     1 <1>   0.0800 
 39 H        8.3150     7.1650    -0.5880 H     1 <1>   0.0800 
 40 H        7.3940     7.6360     0.8300 H     1 <1>   0.0800 
 41 H        6.9060     9.8230    -0.2060 H     1 <1>   0.0800 
 42 H        7.7440     9.3340    -1.6590 H     1 <1>   0.0800 
 43 H       11.0970    11.1260     1.9040 H     1 <1>   0.1500 
 44 H        7.5030    10.3170     2.3460 H     1 <1>   0.0800 
 45 H        7.5000    11.7400     1.3220 H     1 <1>   0.0800 
 46 H        8.5660    11.6540     2.7000 H     1 <1>   0.0800 
 47 H       12.7540     9.9800    -1.1420 H     1 <1>   0.0800 
 48 H       12.7830     8.5880    -0.0830 H     1 <1>   0.0800 
 49 H       13.1270    10.1820     0.5570 H     1 <1>   0.0800 
@<TRIPOS>BOND
  1   1   2  1   
  2   1   3  1   
  3   2   4  ar  
  4   2   5  ar  
  5   3  25  1   
  6   3  26  1   
  7   3  27  1   
  8   4   6  ar  
  9   4  28  1   
 10   5   7  ar  
 11   5  29  1   
 12   6   8  ar  
 13   6   9  ar  
 14   7   8  ar  
 15   7  30  1   
 16   8  10  ar  
 17   9  11  ar  
 18   9  12  1   
 19  10  13  ar  
 20  10  31  1   
 21  11  13  ar  
 22  11  32  1   
 23  12  33  1   
 24  12  34  1   
 25  12  35  1   
 26  13  14  1   
 27  14  15  1   
 28  14  36  1   
 29  15  16  1   
 30  15  37  1   
 31  15  38  1   
 32  16  17  1   
 33  16  39  1   
 34  16  40  1   
 35  17  18  1   
 36  17  41  1   
 37  17  42  1   
 38  18  19  1   
 39  18  20  1   
 40  19  21  2   
 41  20  22  2   
 42  20  23  1   
 43  21  22  1   
 44  21  24  1   
 45  22  43  1   
 46  23  44  1   
 47  23  45  1   
 48  23  46  1   
 49  24  47  1   
 50  24  48  1   
 51  24  49  1   
@<TRIPOS>SUBSTRUCTURE
  1 ****  14 GROUP 4 **** **** 0

# MOE 2024.06 (io_trps.svl 2023.06)
