@<TRIPOS>MOLECULE
NONAME
46 47 1 0 0 
SMALL
USER_CHARGES


@<TRIPOS>ATOM
  1 S       -0.0420    -0.0880    -0.2730 S.o2  1 <1>   1.3330 
  2 O       -0.5090    -0.2340     1.0870 O.2   1 <1>  -0.6500 
  3 O       -0.5900     0.9570    -1.1070 O.2   1 <1>  -0.6500 
  4 N       -0.2740    -1.5740    -1.0620 N.am  1 <1>  -0.8490 
  5 C        1.7430     0.0840    -0.2910 C.3   1 <1>  -0.0550 
  6 C       -0.1590    -2.7320    -0.1670 C.3   1 <1>   0.1160 
  7 C       -1.5490    -1.6280    -1.7840 C.3   1 <1>   0.1160 
  8 C        2.2450     1.4080     0.3210 C.3   1 <1>  -0.0800 
  9 C        3.7300     1.6010     0.0640 C.3   1 <1>   0.2200 
 10 C        2.1930     1.3880     1.8520 C.3   1 <1>   0.1200 
 11 N        4.0630     3.0380     0.1740 N.am  1 <1>  -0.7300 
 12 C        4.3510     0.8450     1.2340 C.3   1 <1>   0.1200 
 13 O        3.4440     0.9470     2.2920 O.3   1 <1>  -0.5600 
 14 C        4.5700     3.8250    -0.8170 C.2   1 <1>   0.7150 
 15 O        4.7380     3.3240    -1.9120 O.2   1 <1>  -0.5700 
 16 C        4.8960     5.2050    -0.5550 C.2   1 <1>  -0.0450 
 17 S        4.6320     5.8360     1.0600 S.3   1 <1>  -0.0800 
 18 C        5.3960     6.2260    -1.2940 C.2   1 <1>   0.0460 
 19 C        5.2250     7.3960     0.5560 C.2   1 <1>   0.1980 
 20 N        5.5760     7.4400    -0.6650 N.2   1 <1>  -0.5650 
 21 C        5.7930     6.2000    -2.7580 C.3   1 <1>  -0.0590 
 22 C        5.2520     8.4910     1.6100 C.3   1 <1>   0.0200 
 23 C        5.7840     9.8270     1.0750 C.3   1 <1>  -0.2400 
 24 H        2.1870    -0.7430     0.2280 H     1 <1>   0.0800 
 25 H        2.0640     0.0380    -1.3140 H     1 <1>   0.0800 
 26 H       -0.2200    -3.6450    -0.7350 H     1 <1>   0.0800 
 27 H       -0.9490    -2.7220     0.5660 H     1 <1>   0.0800 
 28 H        0.7870    -2.7140     0.3450 H     1 <1>   0.0800 
 29 H       -1.6560    -2.5760    -2.2830 H     1 <1>   0.0800 
 30 H       -1.5840    -0.8510    -2.5290 H     1 <1>   0.0800 
 31 H       -2.3720    -1.4900    -1.1020 H     1 <1>   0.0800 
 32 H        1.6700     2.2230    -0.0860 H     1 <1>   0.0800 
 33 H        4.0530     1.2080    -0.8870 H     1 <1>   0.0800 
 34 H        1.4350     0.7380     2.2530 H     1 <1>   0.0800 
 35 H        2.0460     2.3820     2.2400 H     1 <1>   0.0800 
 36 H        3.9610     3.4370     1.1090 H     1 <1>   0.3700 
 37 H        5.3020     1.2490     1.5320 H     1 <1>   0.0800 
 38 H        4.4580    -0.1990     0.9980 H     1 <1>   0.0800 
 39 H        5.6420     5.2340    -3.1990 H     1 <1>   0.0800 
 40 H        6.8310     6.4620    -2.8520 H     1 <1>   0.0800 
 41 H        5.2060     6.9200    -3.2990 H     1 <1>   0.0800 
 42 H        4.2530     8.6330     1.9830 H     1 <1>   0.0800 
 43 H        5.8710     8.1650     2.4270 H     1 <1>   0.0800 
 44 H        5.1670    10.1730     0.2650 H     1 <1>   0.0800 
 45 H        6.7890     9.7050     0.7100 H     1 <1>   0.0800 
 46 H        5.7850    10.5690     1.8540 H     1 <1>   0.0800 
@<TRIPOS>BOND
  1   1   2  2   
  2   1   3  2   
  3   1   4  am  
  4   1   5  1   
  5   4   6  1   
  6   4   7  1   
  7   5   8  1   
  8   5  24  1   
  9   5  25  1   
 10   6  26  1   
 11   6  27  1   
 12   6  28  1   
 13   7  29  1   
 14   7  30  1   
 15   7  31  1   
 16   8   9  1   
 17   8  10  1   
 18   8  32  1   
 19   9  11  1   
 20   9  12  1   
 21   9  33  1   
 22  10  13  1   
 23  10  34  1   
 24  10  35  1   
 25  11  14  am  
 26  11  36  1   
 27  12  13  1   
 28  12  37  1   
 29  12  38  1   
 30  14  15  2   
 31  14  16  1   
 32  16  17  1   
 33  16  18  2   
 34  17  19  1   
 35  18  20  1   
 36  18  21  1   
 37  19  20  2   
 38  19  22  1   
 39  21  39  1   
 40  21  40  1   
 41  21  41  1   
 42  22  23  1   
 43  22  42  1   
 44  22  43  1   
 45  23  44  1   
 46  23  45  1   
 47  23  46  1   
@<TRIPOS>SUBSTRUCTURE
  1 ****  11 GROUP 4 **** **** 0

# MOE 2024.06 (io_trps.svl 2023.06)
