@<TRIPOS>MOLECULE
NONAME
44 46 1 0 0 
SMALL
USER_CHARGES


@<TRIPOS>ATOM
  1 S       -0.0330     0.8140     0.7300 S.3   1 <1>  -0.0800 
  2 C        1.2290    -0.3090     0.2340 C.2   1 <1>   0.4620 
  3 C       -0.8810    -0.4890     1.4950 C.2   1 <1>  -0.1100 
  4 N        1.0050    -1.5140     0.6140 N.2   1 <1>  -0.5650 
  5 N        2.3170     0.1450    -0.4860 N.pl3 1 <1>  -0.8220 
  6 C       -0.1920    -1.6390     1.3360 C.2   1 <1>   0.1410 
  7 C        2.5980     1.5830    -0.7800 C.3   1 <1>   0.2090 
  8 C        3.4070    -0.7860    -0.8860 C.3   1 <1>   0.2090 
  9 C       -0.6070    -2.9360     1.8520 C.2   1 <1>   0.7160 
 10 C        3.8850     2.0190    -0.0670 C.3   1 <1>   0.1000 
 11 C        4.7030    -0.3810    -0.1740 C.3   1 <1>  -0.1600 
 12 O       -1.6340    -3.0840     2.4810 O.2   1 <1>  -0.5700 
 13 N        0.1500    -4.0370     1.6460 N.am  1 <1>  -0.8000 
 14 C        4.1890     3.4690    -0.3990 C.2   1 <1>   0.2980 
 15 C        5.0640     1.0920    -0.4280 C.3   1 <1>  -0.1600 
 16 O        4.4520     3.7970    -1.6410 O.3   1 <1>  -0.0190 
 17 N        4.2060     4.4280     0.4350 N.2   1 <1>  -0.5650 
 18 N        4.6570     5.0760    -1.5900 N.2   1 <1>  -0.4100 
 19 C        4.5170     5.4300    -0.3750 C.2   1 <1>   0.3350 
 20 C        4.6730     6.8510     0.1390 C.3   1 <1>   0.0210 
 21 C        6.1440     7.2380     0.3950 C.3   1 <1>  -0.0800 
 22 C        6.7810     6.3810     1.4990 C.3   1 <1>  -0.2400 
 23 C        6.2460     8.7220     0.7750 C.3   1 <1>  -0.2400 
 24 H       -1.8110    -0.2780     1.9910 H     1 <1>   0.1500 
 25 H        1.7900     2.2190    -0.4690 H     1 <1>   0.0800 
 26 H        2.7140     1.7010    -1.8430 H     1 <1>   0.0800 
 27 H        3.5400    -0.7330    -1.9530 H     1 <1>   0.0800 
 28 H        3.1560    -1.8020    -0.6340 H     1 <1>   0.0800 
 29 H        3.7080     1.9560     0.9920 H     1 <1>   0.0800 
 30 H        5.5040    -1.0140    -0.5110 H     1 <1>   0.0800 
 31 H        4.5780    -0.5490     0.8820 H     1 <1>   0.0800 
 32 H       -0.1450    -4.9430     2.0020 H     1 <1>   0.3700 
 33 H        1.0200    -3.9690     1.1170 H     1 <1>   0.3700 
 34 H        5.9260     1.3630     0.1570 H     1 <1>   0.0800 
 35 H        5.3150     1.2180    -1.4670 H     1 <1>   0.0800 
 36 H        4.1000     6.9610     1.0420 H     1 <1>   0.0800 
 37 H        4.2560     7.5140    -0.5970 H     1 <1>   0.0800 
 38 H        6.6970     7.0840    -0.5170 H     1 <1>   0.0800 
 39 H        6.2340     6.4790     2.4200 H     1 <1>   0.0800 
 40 H        7.7980     6.6850     1.6680 H     1 <1>   0.0800 
 41 H        6.7890     5.3430     1.2150 H     1 <1>   0.0800 
 42 H        5.7080     8.9200     1.6850 H     1 <1>   0.0800 
 43 H        5.8400     9.3390    -0.0070 H     1 <1>   0.0800 
 44 H        7.2760     8.9990     0.9180 H     1 <1>   0.0800 
@<TRIPOS>BOND
  1   1   2  1   
  2   1   3  1   
  3   2   4  2   
  4   2   5  1   
  5   3   6  2   
  6   3  24  1   
  7   4   6  1   
  8   5   7  1   
  9   5   8  1   
 10   6   9  1   
 11   7  10  1   
 12   7  25  1   
 13   7  26  1   
 14   8  11  1   
 15   8  27  1   
 16   8  28  1   
 17   9  12  2   
 18   9  13  am  
 19  10  14  1   
 20  10  15  1   
 21  10  29  1   
 22  11  15  1   
 23  11  30  1   
 24  11  31  1   
 25  13  32  1   
 26  13  33  1   
 27  14  16  1   
 28  14  17  2   
 29  15  34  1   
 30  15  35  1   
 31  16  18  1   
 32  17  19  1   
 33  18  19  2   
 34  19  20  1   
 35  20  21  1   
 36  20  36  1   
 37  20  37  1   
 38  21  22  1   
 39  21  23  1   
 40  21  38  1   
 41  22  39  1   
 42  22  40  1   
 43  22  41  1   
 44  23  42  1   
 45  23  43  1   
 46  23  44  1   
@<TRIPOS>SUBSTRUCTURE
  1 ****  10 GROUP 4 **** **** 0

# MOE 2024.06 (io_trps.svl 2023.06)
