@<TRIPOS>MOLECULE
NONAME
44 45 1 0 0 
SMALL
USER_CHARGES


@<TRIPOS>ATOM
  1 S        2.2420    -0.0210    -0.9760 S.3   1 <1>  -0.0800 
  2 C        2.4660    -1.3980     0.0790 C.2   1 <1>   0.1980 
  3 C        0.5740    -0.4720    -1.1620 C.2   1 <1>  -0.1100 
  4 N        1.4160    -2.1000     0.2510 N.2   1 <1>  -0.5650 
  5 C        3.8560    -1.6180     0.6590 C.3   1 <1>   0.3890 
  6 C        0.3260    -1.5830    -0.4470 C.2   1 <1>   0.0460 
  7 N        4.1850    -0.6060     1.6970 N.pl3 1 <1>  -0.8690 
  8 C       -1.0210    -2.3180    -0.3280 C.3   1 <1>   0.1810 
  9 C        4.8250     0.5510     1.3930 C.ar  1 <1>   0.4100 
 10 C       -2.1150    -1.6200    -1.1540 C.3   1 <1>  -0.2400 
 11 C       -1.4680    -2.3450     1.1410 C.3   1 <1>  -0.2400 
 12 C       -0.8730    -3.7590    -0.8400 C.3   1 <1>  -0.2400 
 13 N        4.2170     1.6310     1.8450 N.ar  1 <1>  -0.6200 
 14 C        6.0150     0.5890     0.6720 C.ar  1 <1>  -0.1500 
 15 C        4.7940     2.7850     1.5560 C.ar  1 <1>   0.1600 
 16 C        6.5990     1.7970     0.3780 C.ar  1 <1>  -0.1500 
 17 C        5.9680     2.9580     0.8230 C.ar  1 <1>   0.0860 
 18 C        6.4810     4.2840     0.5600 C.2   1 <1>   0.5440 
 19 O        6.1400     5.2270     1.2480 O.2   1 <1>  -0.5700 
 20 N        7.3450     4.5140    -0.4770 N.am  1 <1>  -0.7300 
 21 C        7.9430     5.8220    -0.8090 C.3   1 <1>   0.1400 
 22 C        9.3670     5.5950    -1.3000 C.3   1 <1>  -0.2400 
 23 H       -0.0400     0.1490    -1.7870 H     1 <1>   0.1500 
 24 H        4.5770    -1.5880    -0.1380 H     1 <1>   0.0800 
 25 H        3.8920    -2.5950     1.1070 H     1 <1>   0.0800 
 26 H        3.3680    -0.4120     2.2840 H     1 <1>   0.4000 
 27 H       -2.2580    -0.6110    -0.8110 H     1 <1>   0.0800 
 28 H       -3.0500    -2.1440    -1.0610 H     1 <1>   0.0800 
 29 H       -1.8430    -1.5970    -2.1940 H     1 <1>   0.0800 
 30 H       -1.5550    -1.3430     1.5200 H     1 <1>   0.0800 
 31 H       -0.7450    -2.8690     1.7410 H     1 <1>   0.0800 
 32 H       -2.4170    -2.8390     1.2440 H     1 <1>   0.0800 
 33 H       -0.5400    -3.7560    -1.8620 H     1 <1>   0.0800 
 34 H       -1.8100    -4.2840    -0.7810 H     1 <1>   0.0800 
 35 H       -0.1470    -4.2900    -0.2520 H     1 <1>   0.0800 
 36 H        6.4700    -0.3320     0.3620 H     1 <1>   0.1500 
 37 H        4.3020     3.6710     1.9220 H     1 <1>   0.1500 
 38 H        7.5230     1.8420    -0.1700 H     1 <1>   0.1500 
 39 H        7.5330     3.7700    -1.1470 H     1 <1>   0.3700 
 40 H        7.9500     6.4560     0.0630 H     1 <1>   0.0800 
 41 H        7.3540     6.3000    -1.5740 H     1 <1>   0.0800 
 42 H        9.9520     5.1190    -0.5330 H     1 <1>   0.0800 
 43 H        9.8210     6.5410    -1.5340 H     1 <1>   0.0800 
 44 H        9.3700     4.9880    -2.1880 H     1 <1>   0.0800 
@<TRIPOS>BOND
  1   1   2  1   
  2   1   3  1   
  3   2   4  2   
  4   2   5  1   
  5   3   6  2   
  6   3  23  1   
  7   4   6  1   
  8   5   7  1   
  9   5  24  1   
 10   5  25  1   
 11   6   8  1   
 12   7   9  1   
 13   7  26  1   
 14   8  10  1   
 15   8  11  1   
 16   8  12  1   
 17   9  13  ar  
 18   9  14  ar  
 19  10  27  1   
 20  10  28  1   
 21  10  29  1   
 22  11  30  1   
 23  11  31  1   
 24  11  32  1   
 25  12  33  1   
 26  12  34  1   
 27  12  35  1   
 28  13  15  ar  
 29  14  16  ar  
 30  14  36  1   
 31  15  17  ar  
 32  15  37  1   
 33  16  17  ar  
 34  16  38  1   
 35  17  18  1   
 36  18  19  2   
 37  18  20  am  
 38  20  21  1   
 39  20  39  1   
 40  21  22  1   
 41  21  40  1   
 42  21  41  1   
 43  22  42  1   
 44  22  43  1   
 45  22  44  1   
@<TRIPOS>SUBSTRUCTURE
  1 ****   9 GROUP 4 **** **** 0

# MOE 2024.06 (io_trps.svl 2023.06)
