@<TRIPOS>MOLECULE
NONAME
38 39 1 0 0 
SMALL
USER_CHARGES


@<TRIPOS>ATOM
  1 F        0.0540     1.9470    -0.3900 F     1 <1>  -0.1900 
  2 C        1.2860     1.7610     0.0060 C.ar  1 <1>   0.1900 
  3 C        1.9720     0.6530    -0.4530 C.ar  1 <1>  -0.1430 
  4 C        1.8450     2.6790     0.8740 C.ar  1 <1>  -0.1500 
  5 C        3.2750     0.4540    -0.0160 C.ar  1 <1>   0.0830 
  6 C        1.3190    -0.3130    -1.4180 C.3   1 <1>   0.4870 
  7 C        3.1450     2.4760     1.3020 C.ar  1 <1>  -0.1500 
  8 O        3.9170    -0.6490    -0.4760 O.3   1 <1>  -0.3620 
  9 C        3.8580     1.3710     0.8610 C.ar  1 <1>  -0.1500 
 10 N        0.3750    -1.1840    -0.6780 N.4   1 <1>  -0.9590 
 11 C        5.2750    -0.8950    -0.1710 C.3   1 <1>   0.0400 
 12 C        1.1220    -2.0880     0.2840 C.3   1 <1>   0.3430 
 13 C       -0.5000    -1.9560    -1.6020 C.3   1 <1>   0.3430 
 14 C        0.4090    -3.4260     0.5690 C.3   1 <1>   0.2000 
 15 C       -1.6070    -2.6450    -0.7980 C.3   1 <1>  -0.1600 
 16 O        0.7540    -4.3270    -0.4260 O.3   1 <1>  -0.6800 
 17 C       -1.1130    -3.2460     0.5450 C.3   1 <1>  -0.1860 
 18 C       -1.7870    -4.5600     0.8710 C.2   1 <1>   0.9060 
 19 O       -2.5980    -4.5860     1.7940 O.co2 1 <1>  -0.9000 
 20 O       -1.4730    -5.5500     0.2000 O.co2 1 <1>  -0.9000 
 21 H        1.2780     3.5320     1.2060 H     1 <1>   0.1500 
 22 H        2.0680    -0.9140    -1.9070 H     1 <1>   0.0800 
 23 H        0.7880     0.2470    -2.1700 H     1 <1>   0.0800 
 24 H        3.6040     3.1780     1.9780 H     1 <1>   0.1500 
 25 H        4.8650     1.2450     1.2130 H     1 <1>   0.1500 
 26 H       -0.2400    -0.5800    -0.1200 H     1 <1>   0.4500 
 27 H        5.5750    -1.7980    -0.6730 H     1 <1>   0.0800 
 28 H        5.3800    -1.0200     0.8930 H     1 <1>   0.0800 
 29 H        5.8700    -0.0700    -0.5220 H     1 <1>   0.0800 
 30 H        2.1010    -2.3160    -0.1030 H     1 <1>   0.0800 
 31 H        1.2540    -1.5640     1.2150 H     1 <1>   0.0800 
 32 H       -0.9400    -1.3110    -2.3450 H     1 <1>   0.0800 
 33 H        0.0880    -2.7090    -2.1040 H     1 <1>   0.0800 
 34 H        0.7340    -3.8430     1.5080 H     1 <1>   0.0800 
 35 H       -2.4150    -1.9600    -0.6090 H     1 <1>   0.0800 
 36 H       -2.0070    -3.4350    -1.4120 H     1 <1>   0.0800 
 37 H        0.0710    -5.0660    -0.3690 H     1 <1>   0.4000 
 38 H       -1.3720    -2.5670     1.3360 H     1 <1>   0.0800 
@<TRIPOS>BOND
  1   1   2  1   
  2   2   3  ar  
  3   2   4  ar  
  4   3   5  ar  
  5   3   6  1   
  6   4   7  ar  
  7   4  21  1   
  8   5   8  1   
  9   5   9  ar  
 10   6  10  1   
 11   6  22  1   
 12   6  23  1   
 13   7   9  ar  
 14   7  24  1   
 15   8  11  1   
 16   9  25  1   
 17  10  12  1   
 18  10  13  1   
 19  10  26  1   
 20  11  27  1   
 21  11  28  1   
 22  11  29  1   
 23  12  14  1   
 24  12  30  1   
 25  12  31  1   
 26  13  15  1   
 27  13  32  1   
 28  13  33  1   
 29  14  16  1   
 30  14  17  1   
 31  14  34  1   
 32  15  17  1   
 33  15  35  1   
 34  15  36  1   
 35  16  37  1   
 36  17  18  1   
 37  17  38  1   
 38  18  19  ar  
 39  18  20  ar  
@<TRIPOS>SUBSTRUCTURE
  1 ****  12 GROUP 4 **** **** 0

# MOE 2024.06 (io_trps.svl 2023.06)
