@<TRIPOS>MOLECULE
NONAME
34 36 1 0 0 
SMALL
USER_CHARGES


@<TRIPOS>ATOM
  1 F       -2.3740    -0.3110    -1.5580 F     1 <1>  -0.1900 
  2 C       -2.6370     0.5120    -0.5770 C.ar  1 <1>   0.1900 
  3 C       -2.9920    -0.0210     0.6590 C.ar  1 <1>   0.0860 
  4 C       -2.5500     1.8760    -0.8290 C.ar  1 <1>  -0.1440 
  5 C       -3.2510     0.9130     1.6560 C.ar  1 <1>   0.1900 
  6 C       -3.0920    -1.4380     0.8860 C.2   1 <1>   0.5440 
  7 C       -2.8240     2.7620     0.2030 C.ar  1 <1>  -0.1500 
  8 C       -2.1670     2.3980    -2.2070 C.3   1 <1>  -0.0970 
  9 F       -3.5840     0.5010     2.8480 F     1 <1>  -0.1900 
 10 C       -3.1750     2.2790     1.4530 C.ar  1 <1>  -0.1500 
 11 O       -2.1050    -2.0580     1.2380 O.2   1 <1>  -0.5700 
 12 N       -4.2850    -2.0890     0.7160 N.am  1 <1>  -0.6600 
 13 C       -5.5360    -1.4680     0.1950 C.3   1 <1>   0.2350 
 14 C       -4.4430    -3.5690     0.7680 C.3   1 <1>   0.2350 
 15 C       -6.2520    -2.5740    -0.5560 C.3   1 <1>  -0.2420 
 16 C       -5.5850    -3.8790    -0.1880 C.3   1 <1>  -0.2420 
 17 C       -7.7120    -2.1850    -0.8060 C.2   1 <1>   0.9470 
 18 C       -5.5330    -3.3790    -1.6090 C.3   1 <1>  -0.2000 
 19 C       -6.1780    -5.2610     0.0970 C.2   1 <1>   0.9470 
 20 O       -8.3710    -1.7090     0.1300 O.co2 1 <1>  -0.9000 
 21 O       -8.1560    -2.1770    -1.9630 O.co2 1 <1>  -0.9000 
 22 O       -6.1480    -6.1320    -0.7840 O.co2 1 <1>  -0.9000 
 23 O       -6.5380    -5.5340     1.2510 O.co2 1 <1>  -0.9000 
 24 H       -2.7680     3.8250     0.0410 H     1 <1>   0.1500 
 25 H       -2.1530     3.4730    -2.2260 H     1 <1>   0.0800 
 26 H       -2.8750     2.0530    -2.9390 H     1 <1>   0.0800 
 27 H       -1.1900     2.0390    -2.4770 H     1 <1>   0.0800 
 28 H       -3.3900     2.9520     2.2640 H     1 <1>   0.1500 
 29 H       -6.1360    -1.1350     1.0250 H     1 <1>   0.0800 
 30 H       -5.3340    -0.6440    -0.4650 H     1 <1>   0.0800 
 31 H       -3.5410    -4.0710     0.4650 H     1 <1>   0.0800 
 32 H       -4.7040    -3.8640     1.7700 H     1 <1>   0.0800 
 33 H       -4.6040    -3.0200    -2.0110 H     1 <1>   0.1000 
 34 H       -6.1280    -3.8980    -2.3420 H     1 <1>   0.1000 
@<TRIPOS>BOND
  1   1   2  1   
  2   2   3  ar  
  3   2   4  ar  
  4   3   5  ar  
  5   3   6  1   
  6   4   7  ar  
  7   4   8  1   
  8   5   9  1   
  9   5  10  ar  
 10   6  11  2   
 11   6  12  am  
 12   7  10  ar  
 13   7  24  1   
 14   8  25  1   
 15   8  26  1   
 16   8  27  1   
 17  10  28  1   
 18  12  13  1   
 19  12  14  1   
 20  13  15  1   
 21  13  29  1   
 22  13  30  1   
 23  14  16  1   
 24  14  31  1   
 25  14  32  1   
 26  15  16  1   
 27  15  17  1   
 28  15  18  1   
 29  16  18  1   
 30  16  19  1   
 31  17  20  ar  
 32  17  21  ar  
 33  18  33  1   
 34  18  34  1   
 35  19  22  ar  
 36  19  23  ar  
@<TRIPOS>SUBSTRUCTURE
  1 ****  13 GROUP 4 **** **** 0

# MOE 2024.06 (io_trps.svl 2023.06)
