@<TRIPOS>MOLECULE
NONAME
52 54 1 0 0 
SMALL
USER_CHARGES


@<TRIPOS>ATOM
  1 F       -1.0730    -0.3050    -0.0390 F     1 <1>  -0.1900 
  2 C       -2.0560     0.4420     0.3880 C.ar  1 <1>   0.1900 
  3 C       -3.1440    -0.1730     1.0060 C.ar  1 <1>   0.0860 
  4 C       -1.9620     1.8140     0.1980 C.ar  1 <1>  -0.1440 
  5 C       -3.2360    -1.6040     1.1830 C.2   1 <1>   0.5440 
  6 C       -4.1610     0.6660     1.4590 C.ar  1 <1>  -0.1500 
  7 C       -3.0010     2.6110     0.6540 C.ar  1 <1>  -0.1500 
  8 C       -0.7540     2.4400    -0.4850 C.3   1 <1>  -0.0960 
  9 O       -3.2370    -2.0560     2.3120 O.2   1 <1>  -0.5700 
 10 N       -3.3710    -2.4600     0.1140 N.am  1 <1>  -0.6600 
 11 C       -4.0940     2.0370     1.2830 C.ar  1 <1>  -0.1500 
 12 C       -3.4330    -3.9520     0.3070 C.3   1 <1>   0.3640 
 13 C       -3.6250    -1.9660    -1.2770 C.3   1 <1>   0.1400 
 14 C       -2.1080    -4.6400    -0.0740 C.ar  1 <1>  -0.1430 
 15 C       -4.6420    -4.5680    -0.4710 C.3   1 <1>   0.2000 
 16 C       -4.0340    -3.0960    -2.2340 C.3   1 <1>   0.1200 
 17 C       -1.9870    -6.0050     0.1650 C.ar  1 <1>  -0.1500 
 18 C       -1.0190    -3.9720    -0.6260 C.ar  1 <1>  -0.1500 
 19 O       -5.0270    -3.8690    -1.6370 O.3   1 <1>  -0.5600 
 20 C       -5.8860    -4.6510     0.4200 C.3   1 <1>   0.1200 
 21 C       -0.8350    -6.6970    -0.1660 C.ar  1 <1>   0.0830 
 22 C        0.1470    -4.6490    -0.9430 C.ar  1 <1>  -0.1500 
 23 O       -5.7410    -5.6730     1.3550 O.3   1 <1>  -0.6800 
 24 O       -0.8290    -8.0360     0.0550 O.3   1 <1>  -0.3630 
 25 C        0.2540    -6.0070    -0.7060 C.ar  1 <1>   0.0830 
 26 C       -0.6890    -8.8640    -1.0790 C.3   1 <1>   0.0400 
 27 O        1.4340    -6.6040    -1.0020 O.3   1 <1>  -0.3630 
 28 C        2.1860    -7.0610     0.1000 C.3   1 <1>   0.0400 
 29 H       -5.0090     0.2280     1.9580 H     1 <1>   0.1500 
 30 H       -2.9650     3.6800     0.5270 H     1 <1>   0.1500 
 31 H       -0.8550     3.5090    -0.5480 H     1 <1>   0.0800 
 32 H       -0.6500     2.0470    -1.4810 H     1 <1>   0.0800 
 33 H        0.1380     2.2130     0.0700 H     1 <1>   0.0800 
 34 H       -4.8940     2.6630     1.6410 H     1 <1>   0.1500 
 35 H       -3.5800    -4.1700     1.3510 H     1 <1>   0.0800 
 36 H       -4.4160    -1.2360    -1.2530 H     1 <1>   0.0800 
 37 H       -2.7420    -1.4880    -1.6600 H     1 <1>   0.0800 
 38 H       -4.3960    -5.5630    -0.7920 H     1 <1>   0.0800 
 39 H       -3.1980    -3.7270    -2.4790 H     1 <1>   0.0800 
 40 H       -4.4350    -2.6860    -3.1440 H     1 <1>   0.0800 
 41 H       -2.7950    -6.5550     0.6140 H     1 <1>   0.1500 
 42 H       -1.0510    -2.9140    -0.8070 H     1 <1>   0.1500 
 43 H       -6.7630    -4.8600    -0.1680 H     1 <1>   0.0800 
 44 H       -6.0220    -3.7260     0.9550 H     1 <1>   0.0800 
 45 H        0.9830    -4.1210    -1.3650 H     1 <1>   0.1500 
 46 H       -5.8960    -6.5460     0.9430 H     1 <1>   0.4000 
 47 H       -0.8620    -9.8800    -0.7750 H     1 <1>   0.0800 
 48 H        0.3070    -8.7660    -1.4720 H     1 <1>   0.0800 
 49 H       -1.4130    -8.5690    -1.8170 H     1 <1>   0.0800 
 50 H        3.1240    -7.4390    -0.2650 H     1 <1>   0.0800 
 51 H        1.6450    -7.8430     0.6020 H     1 <1>   0.0800 
 52 H        2.3550    -6.2360     0.7700 H     1 <1>   0.0800 
@<TRIPOS>BOND
  1   1   2  1   
  2   2   3  ar  
  3   2   4  ar  
  4   3   5  1   
  5   3   6  ar  
  6   4   7  ar  
  7   4   8  1   
  8   5   9  2   
  9   5  10  am  
 10   6  11  ar  
 11   6  29  1   
 12   7  11  ar  
 13   7  30  1   
 14   8  31  1   
 15   8  32  1   
 16   8  33  1   
 17  10  12  1   
 18  10  13  1   
 19  11  34  1   
 20  12  14  1   
 21  12  15  1   
 22  12  35  1   
 23  13  16  1   
 24  13  36  1   
 25  13  37  1   
 26  14  17  ar  
 27  14  18  ar  
 28  15  19  1   
 29  15  20  1   
 30  15  38  1   
 31  16  19  1   
 32  16  39  1   
 33  16  40  1   
 34  17  21  ar  
 35  17  41  1   
 36  18  22  ar  
 37  18  42  1   
 38  20  23  1   
 39  20  43  1   
 40  20  44  1   
 41  21  24  1   
 42  21  25  ar  
 43  22  25  ar  
 44  22  45  1   
 45  23  46  1   
 46  24  26  1   
 47  25  27  1   
 48  26  47  1   
 49  26  48  1   
 50  26  49  1   
 51  27  28  1   
 52  28  50  1   
 53  28  51  1   
 54  28  52  1   
@<TRIPOS>SUBSTRUCTURE
  1 ****  10 GROUP 4 **** **** 0

# MOE 2024.06 (io_trps.svl 2023.06)
