@<TRIPOS>MOLECULE
NONAME
48 49 1 0 0 
SMALL
USER_CHARGES


@<TRIPOS>ATOM
  1 O       -2.3950     3.0950    -0.1980 O.co2 1 <1>  -0.9000 
  2 C       -1.3480     2.9240     0.4240 C.2   1 <1>   0.9060 
  3 O       -0.9870     1.8280     0.8630 O.co2 1 <1>  -0.9000 
  4 C       -0.4290     4.1050     0.5130 C.3   1 <1>  -0.1860 
  5 C        0.8200     3.8730     1.3650 C.3   1 <1>   0.2000 
  6 C       -0.0640     4.3950    -0.9240 C.3   1 <1>   0.3430 
  7 O        1.4740     2.7590     0.8890 O.3   1 <1>  -0.6800 
  8 C        1.7770     5.0540     1.2400 C.3   1 <1>  -0.1600 
  9 N        0.8590     5.5670    -1.0030 N.4   1 <1>  -0.9590 
 10 C        2.1130     5.3190    -0.2270 C.3   1 <1>   0.3430 
 11 C        1.1510     5.9060    -2.4280 C.3   1 <1>   0.3430 
 12 C        1.2530     7.4220    -2.6480 C.3   1 <1>   0.1200 
 13 O        2.1660     7.9710    -1.7210 O.3   1 <1>  -0.3630 
 14 C        1.8430     9.1190    -1.0690 C.ar  1 <1>   0.0830 
 15 C        2.1530     9.2340     0.2850 C.ar  1 <1>   0.0830 
 16 C        1.2200    10.1760    -1.7230 C.ar  1 <1>  -0.1500 
 17 O        2.7840     8.2190     0.9290 O.3   1 <1>  -0.3630 
 18 C        1.8010    10.3800     0.9830 C.ar  1 <1>  -0.1500 
 19 C        0.8810    11.3220    -1.0230 C.ar  1 <1>  -0.1500 
 20 C        4.1000     8.4690     1.3750 C.3   1 <1>   0.2000 
 21 C        1.1670    11.4220     0.3290 C.ar  1 <1>  -0.1500 
 22 C        5.0630     8.2240     0.2130 C.3   1 <1>  -0.2400 
 23 C        4.3820     7.5280     2.5430 C.3   1 <1>  -0.2400 
 24 H       -1.0020     4.9190     0.9140 H     1 <1>   0.0800 
 25 H        0.5520     3.6860     2.3930 H     1 <1>   0.0800 
 26 H       -0.9690     4.5840    -1.4810 H     1 <1>   0.0800 
 27 H        0.4120     3.5210    -1.3410 H     1 <1>   0.0800 
 28 H        0.7860     2.0290     0.8940 H     1 <1>   0.4000 
 29 H        1.3380     5.9330     1.6740 H     1 <1>   0.0800 
 30 H        2.6770     4.8350     1.7850 H     1 <1>   0.0800 
 31 H        0.3990     6.3720    -0.5600 H     1 <1>   0.4500 
 32 H        2.6240     4.4580    -0.6270 H     1 <1>   0.0800 
 33 H        2.7680     6.1720    -0.2960 H     1 <1>   0.0800 
 34 H        2.0680     5.4330    -2.7380 H     1 <1>   0.0800 
 35 H        0.3610     5.5290    -3.0560 H     1 <1>   0.0800 
 36 H        0.2830     7.8670    -2.5070 H     1 <1>   0.0800 
 37 H        1.6060     7.6430    -3.6390 H     1 <1>   0.0800 
 38 H        1.0030    10.1230    -2.7740 H     1 <1>   0.1500 
 39 H        2.0200    10.4590     2.0330 H     1 <1>   0.1500 
 40 H        0.3970    12.1410    -1.5290 H     1 <1>   0.1500 
 41 H        4.1710     9.4910     1.7100 H     1 <1>   0.0800 
 42 H        0.8980    12.3140     0.8700 H     1 <1>   0.1500 
 43 H        4.9700     7.2170    -0.1490 H     1 <1>   0.0800 
 44 H        6.0760     8.3810     0.5390 H     1 <1>   0.0800 
 45 H        4.8600     8.9120    -0.5880 H     1 <1>   0.0800 
 46 H        4.3560     6.5040     2.2210 H     1 <1>   0.0800 
 47 H        3.6560     7.6800     3.3220 H     1 <1>   0.0800 
 48 H        5.3580     7.7320     2.9470 H     1 <1>   0.0800 
@<TRIPOS>BOND
  1   1   2  ar  
  2   2   3  ar  
  3   2   4  1   
  4   4   5  1   
  5   4   6  1   
  6   4  24  1   
  7   5   7  1   
  8   5   8  1   
  9   5  25  1   
 10   6   9  1   
 11   6  26  1   
 12   6  27  1   
 13   7  28  1   
 14   8  10  1   
 15   8  29  1   
 16   8  30  1   
 17   9  10  1   
 18   9  11  1   
 19   9  31  1   
 20  10  32  1   
 21  10  33  1   
 22  11  12  1   
 23  11  34  1   
 24  11  35  1   
 25  12  13  1   
 26  12  36  1   
 27  12  37  1   
 28  13  14  1   
 29  14  15  ar  
 30  14  16  ar  
 31  15  17  1   
 32  15  18  ar  
 33  16  19  ar  
 34  16  38  1   
 35  17  20  1   
 36  18  21  ar  
 37  18  39  1   
 38  19  21  ar  
 39  19  40  1   
 40  20  22  1   
 41  20  23  1   
 42  20  41  1   
 43  21  42  1   
 44  22  43  1   
 45  22  44  1   
 46  22  45  1   
 47  23  46  1   
 48  23  47  1   
 49  23  48  1   
@<TRIPOS>SUBSTRUCTURE
  1 ****   9 GROUP 4 **** **** 0

# MOE 2024.06 (io_trps.svl 2023.06)
