@<TRIPOS>MOLECULE
NONAME
38 40 1 0 0 
SMALL
USER_CHARGES


@<TRIPOS>ATOM
  1 CL       0.1940    -0.6260    -1.0790 Cl    1 <1>  -0.1770 
  2 C        0.6440    -2.3090    -0.9770 C.ar  1 <1>   0.1770 
  3 C       -0.1510    -3.1800    -0.2600 C.ar  1 <1>  -0.1500 
  4 C        1.7890    -2.7400    -1.6190 C.ar  1 <1>  -0.1500 
  5 C        0.1910    -4.5290    -0.1710 C.ar  1 <1>  -0.0230 
  6 C        2.1440    -4.0750    -1.5350 C.ar  1 <1>  -0.1500 
  7 N       -0.6310    -5.4400     0.5610 N.pl3 1 <1>   0.5930 
  8 C        1.3530    -4.9570    -0.8180 C.ar  1 <1>  -0.1500 
  9 N       -1.5240    -5.0520     1.5120 N.2   1 <1>  -0.7070 
 10 C       -0.6820    -6.7890     0.4300 C.2   1 <1>  -0.3020 
 11 C       -2.0840    -6.1360     1.9460 C.2   1 <1>   0.1390 
 12 C       -1.5990    -7.2640     1.3000 C.2   1 <1>  -0.1810 
 13 C       -2.0120    -8.7000     1.5250 C.3   1 <1>   0.5240 
 14 N       -2.3470    -9.2420     0.2050 N.4   1 <1>  -0.9590 
 15 C       -2.0410   -10.7130     0.0810 C.3   1 <1>   0.3170 
 16 C       -3.7340    -8.9980    -0.2660 C.3   1 <1>   0.3430 
 17 C       -0.7050   -10.9110    -0.6640 C.2   1 <1>   0.9060 
 18 C       -3.2490   -11.3120    -0.6450 C.3   1 <1>  -0.1600 
 19 C       -4.3970   -10.3780    -0.2980 C.3   1 <1>   0.2000 
 20 O       -0.1960    -9.8730    -1.1260 O.co2 1 <1>  -0.9000 
 21 O       -0.2020   -12.0290    -0.7580 O.co2 1 <1>  -0.9000 
 22 O       -4.8340   -10.6910     0.9840 O.3   1 <1>  -0.6800 
 23 H       -1.0340    -2.8070     0.2280 H     1 <1>   0.1500 
 24 H        2.3900    -2.0400    -2.1720 H     1 <1>   0.1500 
 25 H        3.0340    -4.4270    -2.0280 H     1 <1>   0.1500 
 26 H        1.6560    -5.9890    -0.7660 H     1 <1>   0.1500 
 27 H       -0.0670    -7.3280    -0.2710 H     1 <1>   0.1500 
 28 H       -2.8380    -6.1370     2.7180 H     1 <1>   0.1500 
 29 H       -2.8570    -8.7710     2.1890 H     1 <1>   0.0800 
 30 H       -1.1800    -9.2420     1.9470 H     1 <1>   0.0800 
 31 H       -1.6370    -8.8460    -0.4540 H     1 <1>   0.4500 
 32 H       -1.9560   -11.1570     1.0560 H     1 <1>   0.0800 
 33 H       -4.2710    -8.3220     0.3780 H     1 <1>   0.0800 
 34 H       -3.7010    -8.5950    -1.2640 H     1 <1>   0.0800 
 35 H       -3.4210   -12.3340    -0.3570 H     1 <1>   0.0800 
 36 H       -3.0660   -11.2860    -1.7050 H     1 <1>   0.0800 
 37 H       -5.2300   -10.4310    -0.9790 H     1 <1>   0.0800 
 38 H       -5.2600   -11.5730     0.9970 H     1 <1>   0.4000 
@<TRIPOS>BOND
  1   1   2  1   
  2   2   3  ar  
  3   2   4  ar  
  4   3   5  ar  
  5   3  23  1   
  6   4   6  ar  
  7   4  24  1   
  8   5   7  1   
  9   5   8  ar  
 10   6   8  ar  
 11   6  25  1   
 12   7   9  1   
 13   7  10  1   
 14   8  26  1   
 15   9  11  2   
 16  10  12  2   
 17  10  27  1   
 18  11  12  1   
 19  11  28  1   
 20  12  13  1   
 21  13  14  1   
 22  13  29  1   
 23  13  30  1   
 24  14  15  1   
 25  14  16  1   
 26  14  31  1   
 27  15  17  1   
 28  15  18  1   
 29  15  32  1   
 30  16  19  1   
 31  16  33  1   
 32  16  34  1   
 33  17  20  ar  
 34  17  21  ar  
 35  18  19  1   
 36  18  35  1   
 37  18  36  1   
 38  19  22  1   
 39  19  37  1   
 40  22  38  1   
@<TRIPOS>SUBSTRUCTURE
  1 ****  10 GROUP 4 **** **** 0

# MOE 2024.06 (io_trps.svl 2023.06)
