@<TRIPOS>MOLECULE
NONAME
38 40 1 0 0 
SMALL
USER_CHARGES


@<TRIPOS>ATOM
  1 F        0.7960    -1.4220     1.9150 F     1 <1>  -0.3400 
  2 C        1.3800    -0.9180     0.8320 C.3   1 <1>   1.1640 
  3 F        0.5020    -1.0480    -0.1590 F     1 <1>  -0.3400 
  4 F        1.4770     0.3920     1.0540 F     1 <1>  -0.3400 
  5 C        2.7490    -1.5800     0.5180 C.ar  1 <1>   0.1660 
  6 N        2.8040    -2.8810     0.2600 N.ar  1 <1>  -0.6200 
  7 C        3.9020    -0.8320     0.5060 C.ar  1 <1>  -0.1500 
  8 C        4.0010    -3.3960     0.0030 C.ar  1 <1>   0.7200 
  9 C        5.0960    -1.4620     0.2260 C.ar  1 <1>   0.4100 
 10 N        5.1530    -2.7450    -0.0240 N.ar  1 <1>  -0.6200 
 11 N        4.0420    -4.7430    -0.2690 N.pl3 1 <1>  -0.8380 
 12 N        6.2700    -0.7440     0.1950 N.pl3 1 <1>  -0.8380 
 13 C        5.2950    -5.5180    -0.3860 C.3   1 <1>   0.2090 
 14 C        2.8660    -5.6320    -0.1620 C.3   1 <1>   0.2090 
 15 C        6.4450     0.2330    -0.9460 C.3   1 <1>   0.2700 
 16 C        7.5400    -1.4450     0.5640 C.3   1 <1>   0.2090 
 17 C        4.8820    -6.9620    -0.1230 C.3   1 <1>  -0.1600 
 18 C        3.4030    -7.0180    -0.4980 C.3   1 <1>  -0.1600 
 19 C        7.7910     0.9810    -0.9670 C.2   1 <1>   0.5690 
 20 C        8.6660    -0.4480     0.9030 C.3   1 <1>   0.1400 
 21 O        7.9500     1.8990    -1.7330 O.2   1 <1>  -0.5700 
 22 N        8.7970     0.6130    -0.1330 N.am  1 <1>  -0.7300 
 23 H        3.9130     0.2200     0.7140 H     1 <1>   0.1500 
 24 H        6.0300    -5.1840     0.3270 H     1 <1>   0.0800 
 25 H        5.6810    -5.4080    -1.3850 H     1 <1>   0.0800 
 26 H        2.0920    -5.3280    -0.8470 H     1 <1>   0.0800 
 27 H        2.4910    -5.6030     0.8470 H     1 <1>   0.0800 
 28 H        5.6620     0.9680    -0.9040 H     1 <1>   0.0800 
 29 H        6.3490    -0.2990    -1.8750 H     1 <1>   0.0800 
 30 H        7.8500    -2.0680    -0.2580 H     1 <1>   0.0800 
 31 H        7.3630    -2.0850     1.4120 H     1 <1>   0.0800 
 32 H        5.0000    -7.1690     0.9260 H     1 <1>   0.0800 
 33 H        5.4770    -7.6560    -0.6880 H     1 <1>   0.0800 
 34 H        3.3000    -7.1810    -1.5560 H     1 <1>   0.0800 
 35 H        2.8720    -7.7890     0.0310 H     1 <1>   0.0800 
 36 H        9.5960    -0.9820     0.9890 H     1 <1>   0.0800 
 37 H        8.4520     0.0120     1.8520 H     1 <1>   0.0800 
 38 H        9.6520     1.1730    -0.1540 H     1 <1>   0.3700 
@<TRIPOS>BOND
  1   1   2  1   
  2   2   3  1   
  3   2   4  1   
  4   2   5  1   
  5   5   6  ar  
  6   5   7  ar  
  7   6   8  ar  
  8   7   9  ar  
  9   7  23  1   
 10   8  10  ar  
 11   8  11  1   
 12   9  10  ar  
 13   9  12  1   
 14  11  13  1   
 15  11  14  1   
 16  12  15  1   
 17  12  16  1   
 18  13  17  1   
 19  13  24  1   
 20  13  25  1   
 21  14  18  1   
 22  14  26  1   
 23  14  27  1   
 24  15  19  1   
 25  15  28  1   
 26  15  29  1   
 27  16  20  1   
 28  16  30  1   
 29  16  31  1   
 30  17  18  1   
 31  17  32  1   
 32  17  33  1   
 33  18  34  1   
 34  18  35  1   
 35  19  21  2   
 36  19  22  am  
 37  20  22  1   
 38  20  36  1   
 39  20  37  1   
 40  22  38  1   
@<TRIPOS>SUBSTRUCTURE
  1 ****   9 GROUP 4 **** **** 0

# MOE 2024.06 (io_trps.svl 2023.06)
