@<TRIPOS>MOLECULE
NONAME
46 49 1 0 0 
SMALL
USER_CHARGES


@<TRIPOS>ATOM
  1 O       -0.0430    -0.3570    -0.2020 O.3   1 <1>  -0.2800 
  2 C       -0.2670    -1.6360    -0.4760 C.2   1 <1>   0.5620 
  3 C        1.1580    -0.3250     0.3400 C.ar  1 <1>   0.1400 
  4 N        0.6820    -2.4440    -0.1440 N.2   1 <1>  -0.5650 
  5 N       -1.4630    -2.0100    -1.0470 N.pl3 1 <1>  -0.8220 
  6 C        1.6210    -1.6170     0.3800 C.ar  1 <1>   0.2270 
  7 C        1.8970     0.7480     0.8110 C.ar  1 <1>  -0.1500 
  8 C       -1.6850    -3.4370    -1.3830 C.3   1 <1>   0.2090 
  9 C       -2.7010    -1.2390    -0.7630 C.3   1 <1>   0.2090 
 10 C        2.8810    -1.8790     0.9090 C.ar  1 <1>  -0.1500 
 11 C        3.1500     0.4860     1.3370 C.ar  1 <1>  -0.1500 
 12 C       -2.3820    -4.1310    -0.1890 C.3   1 <1>   0.4230 
 13 C       -3.4090    -1.9050     0.4250 C.3   1 <1>  -0.1600 
 14 C        3.6380    -0.8230     1.3850 C.ar  1 <1>  -0.1500 
 15 N       -2.5050    -5.6450    -0.3280 N.4   1 <1>  -0.9590 
 16 C       -3.7120    -3.4180     0.2070 C.3   1 <1>   0.0000 
 17 C       -3.5210    -6.2640     0.5850 C.3   1 <1>   0.3430 
 18 C       -2.6970    -6.1510    -1.7270 C.3   1 <1>   0.2630 
 19 C       -4.2370    -4.0170     1.5460 C.3   1 <1>  -0.1600 
 20 C       -4.7700    -3.5960    -0.9210 C.3   1 <1>   0.1200 
 21 C       -3.6990    -5.4280     1.8510 C.3   1 <1>  -0.1600 
 22 O       -5.8930    -2.8180    -0.6980 O.3   1 <1>  -0.6800 
 23 H        1.4960     1.7440     0.7590 H     1 <1>   0.1500 
 24 H       -2.2830    -3.4880    -2.2740 H     1 <1>   0.0800 
 25 H       -0.7410    -3.9130    -1.5850 H     1 <1>   0.0800 
 26 H       -2.4650    -0.2150    -0.5220 H     1 <1>   0.0800 
 27 H       -3.3350    -1.2310    -1.6330 H     1 <1>   0.0800 
 28 H        3.2420    -2.8900     0.9370 H     1 <1>   0.1500 
 29 H        3.7570     1.2930     1.7130 H     1 <1>   0.1500 
 30 H       -1.7180    -3.9610     0.6440 H     1 <1>   0.0800 
 31 H       -2.7700    -1.7790     1.2820 H     1 <1>   0.0800 
 32 H       -4.3120    -1.3600     0.6350 H     1 <1>   0.0800 
 33 H        4.6150    -1.0060     1.7980 H     1 <1>   0.1500 
 34 H       -1.5890    -5.9990    -0.0090 H     1 <1>   0.4500 
 35 H       -4.4720    -6.3280     0.0820 H     1 <1>   0.0800 
 36 H       -3.2160    -7.2650     0.8480 H     1 <1>   0.0800 
 37 H       -3.6190    -5.7780    -2.1400 H     1 <1>   0.0800 
 38 H       -2.7300    -7.2290    -1.7330 H     1 <1>   0.0800 
 39 H       -1.8820    -5.8360    -2.3590 H     1 <1>   0.0800 
 40 H       -3.9640    -3.3860     2.3750 H     1 <1>   0.0800 
 41 H       -5.3130    -4.0480     1.5410 H     1 <1>   0.0800 
 42 H       -5.0980    -4.6160    -0.9980 H     1 <1>   0.0800 
 43 H       -4.3800    -3.2920    -1.8760 H     1 <1>   0.0800 
 44 H       -4.3840    -5.9300     2.5140 H     1 <1>   0.0800 
 45 H       -2.7560    -5.3620     2.3660 H     1 <1>   0.0800 
 46 H       -6.3580    -3.0610     0.1270 H     1 <1>   0.4000 
@<TRIPOS>BOND
  1   1   2  1   
  2   1   3  1   
  3   2   4  2   
  4   2   5  1   
  5   3   6  ar  
  6   3   7  ar  
  7   4   6  1   
  8   5   8  1   
  9   5   9  1   
 10   6  10  ar  
 11   7  11  ar  
 12   7  23  1   
 13   8  12  1   
 14   8  24  1   
 15   8  25  1   
 16   9  13  1   
 17   9  26  1   
 18   9  27  1   
 19  10  14  ar  
 20  10  28  1   
 21  11  14  ar  
 22  11  29  1   
 23  12  15  1   
 24  12  16  1   
 25  12  30  1   
 26  13  16  1   
 27  13  31  1   
 28  13  32  1   
 29  14  33  1   
 30  15  17  1   
 31  15  18  1   
 32  15  34  1   
 33  16  19  1   
 34  16  20  1   
 35  17  21  1   
 36  17  35  1   
 37  17  36  1   
 38  18  37  1   
 39  18  38  1   
 40  18  39  1   
 41  19  21  1   
 42  19  40  1   
 43  19  41  1   
 44  20  22  1   
 45  20  42  1   
 46  20  43  1   
 47  21  44  1   
 48  21  45  1   
 49  22  46  1   
@<TRIPOS>SUBSTRUCTURE
  1 ****   5 GROUP 4 **** **** 0

# MOE 2024.06 (io_trps.svl 2023.06)
