@<TRIPOS>MOLECULE
Untitled Document
51 54 1 0 0 
SMALL
USER_CHARGES


@<TRIPOS>ATOM
  1 O       -3.6550     0.8660    -0.3300 O.3   1 <1>  -0.3630 
  2 C       -3.8590     2.2000    -0.1550 C.ar  1 <1>   0.0830 
  3 C       -4.6510    -0.0760    -0.6710 C.3   1 <1>   0.0400 
  4 C       -5.0860     2.8540    -0.2150 C.ar  1 <1>   0.0830 
  5 C       -2.6740     2.9330     0.1090 C.ar  1 <1>   0.0000 
  6 O       -6.2390     2.1650    -0.4520 O.3   1 <1>  -0.3630 
  7 C       -5.1220     4.2440    -0.0240 C.ar  1 <1>  -0.1500 
  8 C       -2.7160     4.3320     0.3050 C.ar  1 <1>   0.0000 
  9 C       -1.4310     2.3130     0.2350 C.ar  1 <1>   0.2110 
 10 C       -7.5140     2.7720    -0.4720 C.3   1 <1>   0.0400 
 11 C       -3.9780     4.9520     0.2220 C.ar  1 <1>  -0.1500 
 12 C       -1.4940     5.0150     0.5550 C.ar  1 <1>  -0.1430 
 13 N       -0.3010     2.9910     0.4000 N.ar  1 <1>  -0.2100 
 14 C       -0.2680     4.3800     0.3800 C.ar  1 <1>   0.3610 
 15 C       -1.6260     6.4450     1.0930 C.3   1 <1>  -0.0970 
 16 C        0.9190     2.2350     0.7910 C.3   1 <1>   0.3280 
 17 C        1.0420     5.0130     0.1610 C.ar  1 <1>   0.0000 
 18 C        2.1450     2.7340     0.0500 C.3   1 <1>  -0.0170 
 19 C        2.2160     4.2470     0.0800 C.ar  1 <1>  -0.1430 
 20 C        1.2250     6.3830    -0.0600 C.ar  1 <1>  -0.1500 
 21 C        3.4680     4.8270    -0.0410 C.ar  1 <1>  -0.1500 
 22 C        2.4610     6.9870    -0.1880 C.ar  1 <1>   0.0830 
 23 C        3.6210     6.2040    -0.1410 C.ar  1 <1>   0.0830 
 24 O        2.4050     8.3400    -0.3590 O.3   1 <1>  -0.3630 
 25 O        4.8520     6.7800    -0.2000 O.3   1 <1>  -0.3630 
 26 C        3.4590     9.0770    -0.9380 C.3   1 <1>   0.0400 
 27 C        6.0510     6.0570    -0.0270 C.3   1 <1>   0.0400 
 28 H       -4.1840    -1.0370    -0.7850 H     1 <1>   0.0800 
 29 H       -5.1100     0.2190    -1.5990 H     1 <1>   0.0800 
 30 H       -5.3800    -0.1160     0.1190 H     1 <1>   0.0800 
 31 H       -6.0500     4.7810    -0.0740 H     1 <1>   0.1500 
 32 H       -1.3970     1.2360     0.2260 H     1 <1>   0.1500 
 33 H       -8.2450     2.0040    -0.6550 H     1 <1>   0.0800 
 34 H       -7.5450     3.4970    -1.2660 H     1 <1>   0.0800 
 35 H       -7.7010     3.2300     0.4820 H     1 <1>   0.0800 
 36 H       -4.0650     6.0170     0.3420 H     1 <1>   0.1500 
 37 H       -2.4370     6.5080     1.7980 H     1 <1>   0.0800 
 38 H       -1.8150     7.1410     0.2930 H     1 <1>   0.0800 
 39 H       -0.7510     6.7470     1.6400 H     1 <1>   0.0800 
 40 H        0.7910     1.1830     0.6020 H     1 <1>   0.0800 
 41 H        1.0720     2.3690     1.8480 H     1 <1>   0.0800 
 42 H        2.1040     2.4040    -0.9740 H     1 <1>   0.0800 
 43 H        3.0240     2.3040     0.4980 H     1 <1>   0.0800 
 44 H        0.3950     7.0470    -0.1720 H     1 <1>   0.1500 
 45 H        4.3320     4.1900    -0.0730 H     1 <1>   0.1500 
 46 H        3.0840    10.0500    -1.2000 H     1 <1>   0.0800 
 47 H        3.8040     8.5660    -1.8190 H     1 <1>   0.0800 
 48 H        4.2510     9.1760    -0.2170 H     1 <1>   0.0800 
 49 H        6.8670     6.7560    -0.0460 H     1 <1>   0.0800 
 50 H        6.1570     5.3540    -0.8350 H     1 <1>   0.0800 
 51 H        6.0240     5.5560     0.9240 H     1 <1>   0.0800 
@<TRIPOS>BOND
  1   1   2  1   
  2   1   3  1   
  3   2   4  ar  
  4   2   5  ar  
  5   3  28  1   
  6   3  29  1   
  7   3  30  1   
  8   4   6  1   
  9   4   7  ar  
 10   5   8  ar  
 11   5   9  ar  
 12   6  10  1   
 13   7  11  ar  
 14   7  31  1   
 15   8  11  ar  
 16   8  12  ar  
 17   9  13  ar  
 18   9  32  1   
 19  10  33  1   
 20  10  34  1   
 21  10  35  1   
 22  11  36  1   
 23  12  14  ar  
 24  12  15  1   
 25  13  14  ar  
 26  13  16  1   
 27  14  17  1   
 28  15  37  1   
 29  15  38  1   
 30  15  39  1   
 31  16  18  1   
 32  16  40  1   
 33  16  41  1   
 34  17  19  ar  
 35  17  20  ar  
 36  18  19  1   
 37  18  42  1   
 38  18  43  1   
 39  19  21  ar  
 40  20  22  ar  
 41  20  44  1   
 42  21  23  ar  
 43  21  45  1   
 44  22  23  ar  
 45  22  24  1   
 46  23  25  1   
 47  24  26  1   
 48  25  27  1   
 49  26  46  1   
 50  26  47  1   
 51  26  48  1   
 52  27  49  1   
 53  27  50  1   
 54  27  51  1   
@<TRIPOS>SUBSTRUCTURE
  1 ****  14 GROUP 4 **** **** 0

# MOE 2024.06 (io_trps.svl 2023.06)
