@<TRIPOS>MOLECULE
NONAME
38 39 1 0 0 
SMALL
USER_CHARGES


@<TRIPOS>ATOM
  1 CL      -0.7610    -1.3570     0.9210 Cl    1 <1>  -0.1770 
  2 C        0.9610    -1.3850     0.6160 C.ar  1 <1>   0.1770 
  3 C        1.5270    -2.3520    -0.2060 C.ar  1 <1>  -0.0090 
  4 C        1.7210    -0.4090     1.2320 C.ar  1 <1>  -0.1500 
  5 S        0.5120    -3.6140    -1.0100 S.o2  1 <1>   1.4470 
  6 C        2.9080    -2.3170    -0.3960 C.ar  1 <1>  -0.1500 
  7 C        3.0830    -0.4110     1.0150 C.ar  1 <1>   0.1900 
  8 O       -0.5580    -3.0110    -1.7650 O.2   1 <1>  -0.6500 
  9 O        1.3700    -4.5910    -1.6420 O.2   1 <1>  -0.6500 
 10 N       -0.2600    -4.3950     0.2570 N.am  1 <1>  -0.9140 
 11 C        3.7030    -1.3520     0.2070 C.ar  1 <1>  -0.1440 
 12 F        3.8010     0.5110     1.5980 F     1 <1>  -0.1900 
 13 C       -0.8240    -5.6810    -0.1380 C.3   1 <1>   0.1960 
 14 C        5.2080    -1.3350    -0.0150 C.3   1 <1>  -0.0970 
 15 C       -1.5340    -6.3250     1.0500 C.3   1 <1>   0.0200 
 16 C       -2.1330    -7.6500     0.6350 C.2   1 <1>   0.1980 
 17 S       -1.0560    -9.0200     0.4910 S.3   1 <1>  -0.0800 
 18 N       -3.3470    -7.9070     0.3650 N.2   1 <1>  -0.5650 
 19 C       -2.4120   -10.0040     0.0210 C.2   1 <1>  -0.1400 
 20 C       -3.5150    -9.2360     0.0160 C.2   1 <1>   0.0460 
 21 C       -2.1210   -11.4620    -0.2810 C.3   1 <1>  -0.0600 
 22 C       -4.9280    -9.6550    -0.3280 C.3   1 <1>  -0.0590 
 23 H        1.2680     0.3330     1.8630 H     1 <1>   0.1500 
 24 H        3.3660    -3.0610    -1.0290 H     1 <1>   0.1500 
 25 H       -1.0450    -3.7760     0.4630 H     1 <1>   0.4200 
 26 H       -0.0360    -6.3350    -0.4760 H     1 <1>   0.0800 
 27 H       -1.5230    -5.5440    -0.9490 H     1 <1>   0.0800 
 28 H        5.5150    -2.1350    -0.6640 H     1 <1>   0.0800 
 29 H        5.7200    -1.4420     0.9250 H     1 <1>   0.0800 
 30 H        5.5020    -0.4010    -0.4620 H     1 <1>   0.0800 
 31 H       -2.3250    -5.6850     1.3920 H     1 <1>   0.0800 
 32 H       -0.8390    -6.4860     1.8540 H     1 <1>   0.0800 
 33 H       -1.4130   -11.5320    -1.0870 H     1 <1>   0.0800 
 34 H       -3.0180   -11.9800    -0.5640 H     1 <1>   0.0800 
 35 H       -1.7070   -11.9380     0.5890 H     1 <1>   0.0800 
 36 H       -5.2820    -9.0730    -1.1590 H     1 <1>   0.0800 
 37 H       -5.5700    -9.4790     0.5160 H     1 <1>   0.0800 
 38 H       -4.9720   -10.6950    -0.5870 H     1 <1>   0.0800 
@<TRIPOS>BOND
  1   1   2  1   
  2   2   3  ar  
  3   2   4  ar  
  4   3   5  1   
  5   3   6  ar  
  6   4   7  ar  
  7   4  23  1   
  8   5   8  2   
  9   5   9  2   
 10   5  10  am  
 11   6  11  ar  
 12   6  24  1   
 13   7  11  ar  
 14   7  12  1   
 15  10  13  1   
 16  10  25  1   
 17  11  14  1   
 18  13  15  1   
 19  13  26  1   
 20  13  27  1   
 21  14  28  1   
 22  14  29  1   
 23  14  30  1   
 24  15  16  1   
 25  15  31  1   
 26  15  32  1   
 27  16  17  1   
 28  16  18  2   
 29  17  19  1   
 30  18  20  1   
 31  19  20  2   
 32  19  21  1   
 33  20  22  1   
 34  21  33  1   
 35  21  34  1   
 36  21  35  1   
 37  22  36  1   
 38  22  37  1   
 39  22  38  1   
@<TRIPOS>SUBSTRUCTURE
  1 ****  10 GROUP 4 **** **** 0

# MOE 2024.06 (io_trps.svl 2023.06)
