@<TRIPOS>MOLECULE
NONAME
54 55 1 0 0 
SMALL
USER_CHARGES


@<TRIPOS>ATOM
  1 O        1.0960     2.4580     0.3360 O.co2 1 <1>  -0.9000 
  2 C        0.0070     2.7530     0.8310 C.2   1 <1>   0.9060 
  3 O       -0.0800     3.4400     1.8540 O.co2 1 <1>  -0.9000 
  4 C       -1.2160     2.4960    -0.0120 C.3   1 <1>  -0.1860 
  5 C       -2.5950     2.9030     0.5530 C.3   1 <1>   0.2000 
  6 C       -0.9480     3.2520    -1.3080 C.3   1 <1>   0.3430 
  7 O       -2.5740     2.8420     1.9250 O.3   1 <1>  -0.6800 
  8 C       -3.0270     4.3190     0.1510 C.3   1 <1>  -0.1600 
  9 N       -0.9210     4.7500    -1.1080 N.4   1 <1>  -0.9590 
 10 C       -1.8090     5.2240     0.0110 C.3   1 <1>   0.3430 
 11 C        0.4860     5.1650    -0.8180 C.3   1 <1>   0.3430 
 12 C        0.6860     6.6470    -1.1230 C.3   1 <1>  -0.1600 
 13 C        2.1110     7.0880    -0.7330 C.3   1 <1>  -0.0990 
 14 C        2.4000     8.5640    -1.0080 C.2   1 <1>   0.4230 
 15 O        1.5660     9.1880    -1.6150 O.2   1 <1>  -0.5700 
 16 C        3.6420     9.1540    -0.5450 C.ar  1 <1>   0.0860 
 17 C        4.6500     8.4280     0.0950 C.ar  1 <1>  -0.1500 
 18 C        3.8860    10.5150    -0.7280 C.ar  1 <1>  -0.1500 
 19 C        5.8210     9.0260     0.5250 C.ar  1 <1>  -0.1500 
 20 C        5.0550    11.1140    -0.3000 C.ar  1 <1>  -0.1500 
 21 C        6.0510    10.3850     0.3370 C.ar  1 <1>  -0.1430 
 22 C        7.3420    11.0980     0.7980 C.3   1 <1>   0.1430 
 23 C        8.0490    11.7170    -0.4170 C.3   1 <1>  -0.2400 
 24 C        8.3430    10.1540     1.4860 C.3   1 <1>  -0.2400 
 25 C        6.9860    12.2060     1.8010 C.3   1 <1>  -0.2400 
 26 H       -1.2290     1.4450    -0.2240 H     1 <1>   0.0800 
 27 H       -3.3480     2.2050     0.2280 H     1 <1>   0.0800 
 28 H       -1.7250     3.0030    -2.0110 H     1 <1>   0.0800 
 29 H       -0.0080     2.9200    -1.7220 H     1 <1>   0.0800 
 30 H       -1.6500     3.1050     2.2230 H     1 <1>   0.4000 
 31 H       -3.5530     4.2910    -0.7860 H     1 <1>   0.0800 
 32 H       -3.7020     4.7180     0.8880 H     1 <1>   0.0800 
 33 H       -1.2060     5.1990    -1.9840 H     1 <1>   0.4500 
 34 H       -1.2630     5.1980     0.9430 H     1 <1>   0.0800 
 35 H       -2.1170     6.2410    -0.1660 H     1 <1>   0.0800 
 36 H        0.7190     4.9740     0.2190 H     1 <1>   0.0800 
 37 H        1.1700     4.5800    -1.4120 H     1 <1>   0.0800 
 38 H        0.5370     6.8220    -2.1740 H     1 <1>   0.0800 
 39 H       -0.0160     7.2410    -0.5660 H     1 <1>   0.0800 
 40 H        2.8270     6.4980    -1.2770 H     1 <1>   0.0800 
 41 H        2.2490     6.9040     0.3180 H     1 <1>   0.0800 
 42 H        4.5370     7.3740     0.2690 H     1 <1>   0.1500 
 43 H        3.1390    11.1170    -1.2190 H     1 <1>   0.1500 
 44 H        6.5470     8.4010     1.0100 H     1 <1>   0.1500 
 45 H        5.1800    12.1680    -0.4730 H     1 <1>   0.1500 
 46 H        8.9690    12.1890    -0.1220 H     1 <1>   0.0800 
 47 H        7.4310    12.4590    -0.8890 H     1 <1>   0.0800 
 48 H        8.2720    10.9540    -1.1400 H     1 <1>   0.0800 
 49 H        9.2230    10.6920     1.7900 H     1 <1>   0.0800 
 50 H        8.6470     9.3720     0.8140 H     1 <1>   0.0800 
 51 H        7.9050     9.7130     2.3640 H     1 <1>   0.0800 
 52 H        7.8750    12.6920     2.1620 H     1 <1>   0.0800 
 53 H        6.4600    11.7870     2.6400 H     1 <1>   0.0800 
 54 H        6.3590    12.9520     1.3490 H     1 <1>   0.0800 
@<TRIPOS>BOND
  1   1   2  ar  
  2   2   3  ar  
  3   2   4  1   
  4   4   5  1   
  5   4   6  1   
  6   4  26  1   
  7   5   7  1   
  8   5   8  1   
  9   5  27  1   
 10   6   9  1   
 11   6  28  1   
 12   6  29  1   
 13   7  30  1   
 14   8  10  1   
 15   8  31  1   
 16   8  32  1   
 17   9  10  1   
 18   9  11  1   
 19   9  33  1   
 20  10  34  1   
 21  10  35  1   
 22  11  12  1   
 23  11  36  1   
 24  11  37  1   
 25  12  13  1   
 26  12  38  1   
 27  12  39  1   
 28  13  14  1   
 29  13  40  1   
 30  13  41  1   
 31  14  15  2   
 32  14  16  1   
 33  16  17  ar  
 34  16  18  ar  
 35  17  19  ar  
 36  17  42  1   
 37  18  20  ar  
 38  18  43  1   
 39  19  21  ar  
 40  19  44  1   
 41  20  21  ar  
 42  20  45  1   
 43  21  22  1   
 44  22  23  1   
 45  22  24  1   
 46  22  25  1   
 47  23  46  1   
 48  23  47  1   
 49  23  48  1   
 50  24  49  1   
 51  24  50  1   
 52  24  51  1   
 53  25  52  1   
 54  25  53  1   
 55  25  54  1   
@<TRIPOS>SUBSTRUCTURE
  1 ****  13 GROUP 4 **** **** 0

# MOE 2024.06 (io_trps.svl 2023.06)
