@<TRIPOS>MOLECULE
NONAME
41 42 1 0 0 
SMALL
USER_CHARGES


@<TRIPOS>ATOM
  1 S        1.9710    -1.2860     2.3040 S.3   1 <1>  -0.0800 
  2 C        0.8750    -1.0350     0.9730 C.2   1 <1>   0.1980 
  3 C        1.1980    -2.8150     2.6090 C.2   1 <1>  -0.1100 
  4 N        0.0480    -1.9810     0.8040 N.2   1 <1>  -0.5650 
  5 C        0.9730     0.2350     0.1390 C.3   1 <1>   0.5230 
  6 C        0.1970    -3.0290     1.7250 C.2   1 <1>   0.1410 
  7 N       -0.3370     0.4740    -0.5620 N.4   1 <1>  -0.9590 
  8 C       -0.6410    -4.2300     1.6620 C.2   1 <1>   0.7160 
  9 C       -0.1900     1.1920    -1.8590 C.3   1 <1>   0.2630 
 10 C       -1.3360     1.1240     0.3340 C.3   1 <1>   0.2630 
 11 O       -0.1740    -5.2760     2.0830 O.2   1 <1>  -0.5700 
 12 N       -1.9190    -4.2740     1.1220 N.am  1 <1>  -0.6600 
 13 C       -2.5780    -5.5910     0.8800 C.3   1 <1>   0.3200 
 14 C       -2.6660    -3.1020     0.5700 C.3   1 <1>   0.1400 
 15 C       -2.0600    -6.1800    -0.4180 C.2   1 <1>   0.0060 
 16 C       -2.3240    -2.8650    -0.9120 C.3   1 <1>   0.1200 
 17 N       -2.7210    -6.2190    -1.5320 N.2   1 <1>  -0.5650 
 18 N       -0.8210    -6.7090    -0.5040 N.pl3 1 <1>   0.0330 
 19 O       -2.5310    -1.5210    -1.2360 O.3   1 <1>  -0.6800 
 20 C       -1.8660    -6.8110    -2.3900 C.2   1 <1>   0.0770 
 21 C       -0.6990    -7.1140    -1.7800 C.2   1 <1>  -0.3020 
 22 H        1.5670    -3.4230     3.4170 H     1 <1>   0.1500 
 23 H        1.7590     0.1030    -0.5840 H     1 <1>   0.0800 
 24 H        1.2200     1.0730     0.7690 H     1 <1>   0.0800 
 25 H       -0.7260    -0.4790    -0.7580 H     1 <1>   0.4500 
 26 H        0.1960     2.1860    -1.6990 H     1 <1>   0.0800 
 27 H       -1.1470     1.2670    -2.3490 H     1 <1>   0.0800 
 28 H        0.4820     0.6560    -2.5090 H     1 <1>   0.0800 
 29 H       -1.0150     2.1160     0.6050 H     1 <1>   0.0800 
 30 H       -1.4640     0.5390     1.2310 H     1 <1>   0.0800 
 31 H       -2.2900     1.1890    -0.1640 H     1 <1>   0.0800 
 32 H       -3.6450    -5.4680     0.8140 H     1 <1>   0.0800 
 33 H       -2.3780    -6.2670     1.6930 H     1 <1>   0.0800 
 34 H       -2.4220    -2.2290     1.1490 H     1 <1>   0.0800 
 35 H       -3.7250    -3.2680     0.6690 H     1 <1>   0.0800 
 36 H       -2.9370    -3.4770    -1.5530 H     1 <1>   0.0800 
 37 H       -1.2900    -3.0940    -1.1040 H     1 <1>   0.0800 
 38 H       -0.1330    -6.7540     0.2600 H     1 <1>   0.2700 
 39 H       -3.4610    -1.4080    -1.5290 H     1 <1>   0.4000 
 40 H       -2.1390    -6.9900    -3.4170 H     1 <1>   0.1500 
 41 H        0.1840    -7.5840    -2.1730 H     1 <1>   0.1500 
@<TRIPOS>BOND
  1   1   2  1   
  2   1   3  1   
  3   2   4  2   
  4   2   5  1   
  5   3   6  2   
  6   3  22  1   
  7   4   6  1   
  8   5   7  1   
  9   5  23  1   
 10   5  24  1   
 11   6   8  1   
 12   7   9  1   
 13   7  10  1   
 14   7  25  1   
 15   8  11  2   
 16   8  12  am  
 17   9  26  1   
 18   9  27  1   
 19   9  28  1   
 20  10  29  1   
 21  10  30  1   
 22  10  31  1   
 23  12  13  1   
 24  12  14  1   
 25  13  15  1   
 26  13  32  1   
 27  13  33  1   
 28  14  16  1   
 29  14  34  1   
 30  14  35  1   
 31  15  17  2   
 32  15  18  1   
 33  16  19  1   
 34  16  36  1   
 35  16  37  1   
 36  17  20  1   
 37  18  21  1   
 38  18  38  1   
 39  19  39  1   
 40  20  21  2   
 41  20  40  1   
 42  21  41  1   
@<TRIPOS>SUBSTRUCTURE
  1 ****   4 GROUP 4 **** **** 0

# MOE 2024.06 (io_trps.svl 2023.06)
