@<TRIPOS>MOLECULE
NONAME
35 36 1 0 0 
SMALL
USER_CHARGES


@<TRIPOS>ATOM
  1 O        1.4130    -1.2710    -1.3470 O.3   1 <1>  -0.0190 
  2 N        1.4800     0.0170    -1.4830 N.2   1 <1>  -0.4100 
  3 C        1.6890    -1.4740    -0.0820 C.2   1 <1>   0.2980 
  4 C        1.7960     0.5020    -0.3460 C.2   1 <1>   0.3350 
  5 N        1.9300    -0.4240     0.5990 N.2   1 <1>  -0.5650 
  6 C        1.7090    -2.9100     0.4420 C.3   1 <1>   0.2900 
  7 C        1.9830     1.9880    -0.0540 C.3   1 <1>   0.3010 
  8 N        0.3730    -3.5150     0.6750 N.3   1 <1>  -0.8100 
  9 O        3.3440     2.3240     0.0070 O.3   1 <1>  -0.5600 
 10 C       -0.4140    -3.6450    -0.5660 C.3   1 <1>   0.2910 
 11 C       -0.3720    -2.7930     1.7190 C.3   1 <1>   0.0300 
 12 C        3.5890     3.6640     0.2850 C.3   1 <1>   0.0400 
 13 C       -1.5770    -4.6040    -0.3810 C.2   1 <1>  -0.1810 
 14 C       -2.7870    -4.5550    -1.0640 C.2   1 <1>   0.1390 
 15 C       -1.6990    -5.6740     0.4350 C.2   1 <1>  -0.3020 
 16 N       -3.5960    -5.5060    -0.7070 N.2   1 <1>  -0.7070 
 17 N       -2.9190    -6.1990     0.2240 N.pl3 1 <1>   0.3140 
 18 C       -3.5010    -7.3730     0.8820 C.3   1 <1>   0.0160 
 19 H        2.2540    -2.9190     1.3690 H     1 <1>   0.0800 
 20 H        2.2570    -3.5220    -0.2530 H     1 <1>   0.0800 
 21 H        1.5270     2.2260     0.8900 H     1 <1>   0.0800 
 22 H        1.5260     2.5670    -0.8360 H     1 <1>   0.0800 
 23 H        0.2120    -4.0270    -1.3540 H     1 <1>   0.0800 
 24 H       -0.7880    -2.6800    -0.8660 H     1 <1>   0.0800 
 25 H        0.2160    -2.7370     2.6190 H     1 <1>   0.0800 
 26 H       -1.2870    -3.3110     1.9470 H     1 <1>   0.0800 
 27 H       -0.6110    -1.7930     1.3960 H     1 <1>   0.0800 
 28 H        4.6550     3.8100     0.3070 H     1 <1>   0.0800 
 29 H        3.1710     3.9130     1.2450 H     1 <1>   0.0800 
 30 H        3.1570     4.2750    -0.4900 H     1 <1>   0.0800 
 31 H       -3.0400    -3.8180    -1.8070 H     1 <1>   0.1500 
 32 H       -0.9890    -6.0690     1.1380 H     1 <1>   0.1500 
 33 H       -2.9160    -7.6270     1.7460 H     1 <1>   0.0800 
 34 H       -3.5080    -8.1920     0.1880 H     1 <1>   0.0800 
 35 H       -4.5070    -7.1420     1.1780 H     1 <1>   0.0800 
@<TRIPOS>BOND
  1   1   2  1   
  2   1   3  1   
  3   2   4  2   
  4   3   5  2   
  5   3   6  1   
  6   4   5  1   
  7   4   7  1   
  8   6   8  1   
  9   6  19  1   
 10   6  20  1   
 11   7   9  1   
 12   7  21  1   
 13   7  22  1   
 14   8  10  1   
 15   8  11  1   
 16   9  12  1   
 17  10  13  1   
 18  10  23  1   
 19  10  24  1   
 20  11  25  1   
 21  11  26  1   
 22  11  27  1   
 23  12  28  1   
 24  12  29  1   
 25  12  30  1   
 26  13  14  1   
 27  13  15  2   
 28  14  16  2   
 29  14  31  1   
 30  15  17  1   
 31  15  32  1   
 32  16  17  1   
 33  17  18  1   
 34  18  33  1   
 35  18  34  1   
 36  18  35  1   
@<TRIPOS>SUBSTRUCTURE
  1 ****   8 GROUP 4 **** **** 0

# MOE 2024.06 (io_trps.svl 2023.06)
