@<TRIPOS>MOLECULE
NONAME
47 50 1 0 0 
SMALL
USER_CHARGES


@<TRIPOS>ATOM
  1 S        0.0640    -0.7570     1.1100 S.3   1 <1>  -0.0800 
  2 C       -1.4400     0.1430     1.2410 C.2   1 <1>  -0.1400 
  3 C        0.8990     0.6420     0.4570 C.2   1 <1>  -0.1400 
  4 C       -1.2700     1.4060     0.8090 C.2   1 <1>  -0.1500 
  5 C       -2.6450    -0.5910     1.7890 C.3   1 <1>   0.3200 
  6 C        0.0600     1.6900     0.3630 C.2   1 <1>  -0.1500 
  7 C        2.3640     0.4770     0.1140 C.3   1 <1>  -0.0600 
  8 N       -3.0150    -1.6500     0.8380 N.am  1 <1>  -0.7300 
  9 C       -4.2750    -2.0510     0.5430 C.2   1 <1>   0.5690 
 10 O       -5.2260    -1.5920     1.1310 O.2   1 <1>  -0.5700 
 11 C       -4.4920    -3.1060    -0.5490 C.3   1 <1>   0.2610 
 12 O       -3.2570    -3.7200    -0.8870 O.3   1 <1>  -0.5600 
 13 C       -5.5690    -4.1300    -0.0940 C.3   1 <1>   0.3640 
 14 C       -3.3590    -4.7300    -1.8580 C.3   1 <1>   0.1810 
 15 N       -5.2980    -5.5400    -0.5170 N.am  1 <1>  -0.5090 
 16 C       -6.9440    -3.7080    -0.6160 C.ar  1 <1>  -0.1430 
 17 C       -4.3200    -5.8350    -1.4300 C.2   1 <1>   0.5690 
 18 C       -6.2340    -6.5610     0.0130 C.3   1 <1>   0.0490 
 19 C       -7.8310    -3.0460     0.2240 C.ar  1 <1>   0.1600 
 20 C       -7.3400    -3.9660    -1.9170 C.ar  1 <1>  -0.1500 
 21 O       -4.1930    -6.9230    -1.9410 O.2   1 <1>  -0.5700 
 22 C       -6.2980    -6.7720     1.4940 C.3   1 <1>  -0.2000 
 23 C       -5.6920    -7.8180     0.6150 C.3   1 <1>  -0.2000 
 24 N       -9.0440    -2.6440    -0.1180 N.ar  1 <1>  -0.6200 
 25 C       -8.6000    -3.5500    -2.2890 C.ar  1 <1>  -0.1500 
 26 C       -9.4000    -2.9030    -1.3640 C.ar  1 <1>   0.1600 
 27 H       -2.0320     2.1660     0.7800 H     1 <1>   0.1500 
 28 H       -3.4680     0.0910     1.9180 H     1 <1>   0.0800 
 29 H       -2.4050    -1.0300     2.7420 H     1 <1>   0.0800 
 30 H        0.3190     2.6670    -0.0060 H     1 <1>   0.1500 
 31 H        2.7610     1.3980    -0.2710 H     1 <1>   0.0800 
 32 H        2.4820    -0.2910    -0.6300 H     1 <1>   0.0800 
 33 H        2.9160     0.2000     0.9930 H     1 <1>   0.0800 
 34 H       -2.2310    -2.0760     0.3320 H     1 <1>   0.3700 
 35 H       -4.8390    -2.5920    -1.4270 H     1 <1>   0.0800 
 36 H       -5.5960    -4.1230     0.9820 H     1 <1>   0.0800 
 37 H       -3.6890    -4.2920    -2.7820 H     1 <1>   0.0800 
 38 H       -2.3790    -5.1480    -1.9990 H     1 <1>   0.0800 
 39 H       -7.1460    -6.6250    -0.5590 H     1 <1>   0.1000 
 40 H       -7.5290    -2.8310     1.2360 H     1 <1>   0.1500 
 41 H       -6.7050    -4.4790    -2.6190 H     1 <1>   0.1500 
 42 H       -5.6390    -6.2290     2.1470 H     1 <1>   0.1000 
 43 H       -7.2510    -6.9830     1.9460 H     1 <1>   0.1000 
 44 H       -6.2310    -8.7350     0.4550 H     1 <1>   0.1000 
 45 H       -4.6260    -7.9630     0.6220 H     1 <1>   0.1000 
 46 H       -8.9640    -3.7250    -3.2850 H     1 <1>   0.1500 
 47 H      -10.3840    -2.5840    -1.6640 H     1 <1>   0.1500 
@<TRIPOS>BOND
  1   1   2  1   
  2   1   3  1   
  3   2   4  2   
  4   2   5  1   
  5   3   6  2   
  6   3   7  1   
  7   4   6  1   
  8   4  27  1   
  9   5   8  1   
 10   5  28  1   
 11   5  29  1   
 12   6  30  1   
 13   7  31  1   
 14   7  32  1   
 15   7  33  1   
 16   8   9  am  
 17   8  34  1   
 18   9  10  2   
 19   9  11  1   
 20  11  12  1   
 21  11  13  1   
 22  11  35  1   
 23  12  14  1   
 24  13  15  1   
 25  13  16  1   
 26  13  36  1   
 27  14  17  1   
 28  14  37  1   
 29  14  38  1   
 30  15  17  am  
 31  15  18  1   
 32  16  19  ar  
 33  16  20  ar  
 34  17  21  2   
 35  18  22  1   
 36  18  23  1   
 37  18  39  1   
 38  19  24  ar  
 39  19  40  1   
 40  20  25  ar  
 41  20  41  1   
 42  22  23  1   
 43  22  42  1   
 44  22  43  1   
 45  23  44  1   
 46  23  45  1   
 47  24  26  ar  
 48  25  26  ar  
 49  25  46  1   
 50  26  47  1   
@<TRIPOS>SUBSTRUCTURE
  1 ****  11 GROUP 4 **** **** 0

# MOE 2024.06 (io_trps.svl 2023.06)
