@<TRIPOS>MOLECULE
NONAME
42 44 1 0 0 
SMALL
USER_CHARGES


@<TRIPOS>ATOM
  1 O       -0.6940     0.2960     0.6290 O.2   1 <1>  -0.5700 
  2 C       -1.6290     0.7790     0.0340 C.2   1 <1>   0.5690 
  3 N       -2.6880    -0.0010    -0.3480 N.am  1 <1>  -0.6600 
  4 C       -1.6270     2.2820    -0.2730 C.3   1 <1>  -0.0190 
  5 C       -3.9930     0.4530    -0.8910 C.3   1 <1>   0.1400 
  6 C       -2.7360    -1.4570    -0.0620 C.3   1 <1>   0.1400 
  7 C       -0.2460     2.9040    -0.5000 C.3   1 <1>  -0.1600 
  8 C       -2.2070     3.1340     0.8580 C.3   1 <1>  -0.1600 
  9 C       -4.9800    -0.6130    -0.4200 C.3   1 <1>   0.2000 
 10 C       -4.1520    -1.9030    -0.4470 C.3   1 <1>  -0.0800 
 11 C       -0.4610     4.4060    -0.3120 C.3   1 <1>  -0.1600 
 12 C       -1.6740     4.5500     0.6150 C.3   1 <1>  -0.1600 
 13 O       -5.3370    -0.3170     0.8860 O.3   1 <1>  -0.6800 
 14 C       -4.6980    -3.0550     0.4170 C.3   1 <1>  -0.0170 
 15 C       -3.8570    -4.3100     0.2440 C.ar  1 <1>  -0.1440 
 16 C       -4.0690    -5.1890    -0.7990 C.ar  1 <1>  -0.1500 
 17 C       -2.8380    -4.6360     1.1170 C.ar  1 <1>  -0.1500 
 18 C       -3.2720    -6.3160    -0.9180 C.ar  1 <1>   0.1600 
 19 C       -2.0980    -5.7880     0.9070 C.ar  1 <1>   0.1600 
 20 N       -2.2910    -6.6360    -0.0910 N.ar  1 <1>  -0.6200 
 21 H       -2.2010     2.4580    -1.1640 H     1 <1>   0.0800 
 22 H       -4.2720     1.4290    -0.5350 H     1 <1>   0.0800 
 23 H       -3.9420     0.4580    -1.9660 H     1 <1>   0.0800 
 24 H       -1.9880    -1.9820    -0.6320 H     1 <1>   0.0800 
 25 H       -2.5520    -1.6130     0.9880 H     1 <1>   0.0800 
 26 H        0.4420     2.5530     0.2510 H     1 <1>   0.0800 
 27 H        0.1490     2.6660    -1.4730 H     1 <1>   0.0800 
 28 H       -3.2820     3.1060     0.8800 H     1 <1>   0.0800 
 29 H       -1.8290     2.7720     1.8000 H     1 <1>   0.0800 
 30 H       -5.8740    -0.6620    -1.0190 H     1 <1>   0.0800 
 31 H       -4.1120    -2.2410    -1.4680 H     1 <1>   0.0800 
 32 H        0.4150     4.8730     0.1050 H     1 <1>   0.0800 
 33 H       -0.6790     4.8630    -1.2630 H     1 <1>   0.0800 
 34 H       -2.4270     5.1540     0.1380 H     1 <1>   0.0800 
 35 H       -1.3980     5.0130     1.5470 H     1 <1>   0.0800 
 36 H       -4.5200    -0.1470     1.4000 H     1 <1>   0.4000 
 37 H       -5.7140    -3.2660     0.1320 H     1 <1>   0.0800 
 38 H       -4.7100    -2.7740     1.4560 H     1 <1>   0.0800 
 39 H       -4.8450    -5.0090    -1.5200 H     1 <1>   0.1500 
 40 H       -2.6090    -4.0060     1.9570 H     1 <1>   0.1500 
 41 H       -3.4520    -6.9900    -1.7380 H     1 <1>   0.1500 
 42 H       -1.3060    -6.0240     1.5970 H     1 <1>   0.1500 
@<TRIPOS>BOND
  1   1   2  2   
  2   2   3  am  
  3   2   4  1   
  4   3   5  1   
  5   3   6  1   
  6   4   7  1   
  7   4   8  1   
  8   4  21  1   
  9   5   9  1   
 10   5  22  1   
 11   5  23  1   
 12   6  10  1   
 13   6  24  1   
 14   6  25  1   
 15   7  11  1   
 16   7  26  1   
 17   7  27  1   
 18   8  12  1   
 19   8  28  1   
 20   8  29  1   
 21   9  10  1   
 22   9  13  1   
 23   9  30  1   
 24  10  14  1   
 25  10  31  1   
 26  11  12  1   
 27  11  32  1   
 28  11  33  1   
 29  12  34  1   
 30  12  35  1   
 31  13  36  1   
 32  14  15  1   
 33  14  37  1   
 34  14  38  1   
 35  15  16  ar  
 36  15  17  ar  
 37  16  18  ar  
 38  16  39  1   
 39  17  19  ar  
 40  17  40  1   
 41  18  20  ar  
 42  18  41  1   
 43  19  20  ar  
 44  19  42  1   
@<TRIPOS>SUBSTRUCTURE
  1 ****   6 GROUP 4 **** **** 0

# MOE 2024.06 (io_trps.svl 2023.06)
