@<TRIPOS>MOLECULE
NONAME
41 42 1 0 0 
SMALL
USER_CHARGES


@<TRIPOS>ATOM
  1 F       -2.2820     1.2480     2.9630 F     1 <1>  -0.1900 
  2 C       -1.4450     1.0280     1.9840 C.ar  1 <1>   0.1900 
  3 C       -1.8780     1.1490     0.6720 C.ar  1 <1>  -0.1440 
  4 C       -0.1480     0.6770     2.3100 C.ar  1 <1>  -0.1500 
  5 C       -0.9600     0.9020    -0.3390 C.ar  1 <1>  -0.1500 
  6 C       -3.3050     1.5360     0.3280 C.3   1 <1>   0.2840 
  7 C        0.7540     0.4360     1.2880 C.ar  1 <1>  -0.1500 
  8 C        0.3460     0.5490    -0.0330 C.ar  1 <1>  -0.1500 
  9 N       -4.0110     0.3360    -0.1480 N.am  1 <1>  -0.7300 
 10 C       -4.7720     0.2400    -1.2640 C.2   1 <1>   0.5690 
 11 O       -4.9820     1.1900    -1.9810 O.2   1 <1>  -0.5700 
 12 C       -5.3630    -1.1270    -1.6270 C.3   1 <1>   0.1710 
 13 N       -5.5020    -2.0770    -0.4710 N.3   1 <1>  -0.8100 
 14 C       -5.7570    -3.4840    -0.9010 C.3   1 <1>   0.3330 
 15 C       -6.5980    -1.6010     0.4030 C.3   1 <1>   0.0300 
 16 C       -5.9790    -4.4260     0.2940 C.ar  1 <1>   0.1670 
 17 C       -4.5830    -4.0270    -1.7250 C.3   1 <1>  -0.2400 
 18 N       -7.0400    -5.2100     0.2830 N.ar  1 <1>  -0.6200 
 19 C       -5.0880    -4.4510     1.3450 C.ar  1 <1>  -0.1500 
 20 C       -7.1790    -6.0020     1.3350 C.ar  1 <1>   0.4700 
 21 C       -5.3380    -5.3160     2.3810 C.ar  1 <1>   0.1600 
 22 N       -6.3890    -6.1060     2.3920 N.ar  1 <1>  -0.6200 
 23 H        0.1470     0.5970     3.3410 H     1 <1>   0.1500 
 24 H       -1.2640     0.9830    -1.3690 H     1 <1>   0.1500 
 25 H       -3.3040     2.2900    -0.4410 H     1 <1>   0.0800 
 26 H       -3.8190     1.9340     1.1850 H     1 <1>   0.0800 
 27 H        1.7700     0.1620     1.5170 H     1 <1>   0.1500 
 28 H        1.0480     0.3610    -0.8270 H     1 <1>   0.1500 
 29 H       -3.9080    -0.5140     0.4150 H     1 <1>   0.3700 
 30 H       -4.7030    -1.5320    -2.3680 H     1 <1>   0.0800 
 31 H       -6.3210    -0.9750    -2.0930 H     1 <1>   0.0800 
 32 H       -6.6470    -3.5080    -1.5080 H     1 <1>   0.0800 
 33 H       -6.4490    -0.5700     0.6740 H     1 <1>   0.0800 
 34 H       -6.6360    -2.1710     1.3140 H     1 <1>   0.0800 
 35 H       -7.5470    -1.6900    -0.1000 H     1 <1>   0.0800 
 36 H       -3.6510    -3.8290    -1.2280 H     1 <1>   0.0800 
 37 H       -4.5690    -3.6070    -2.7130 H     1 <1>   0.0800 
 38 H       -4.6890    -5.0910    -1.8370 H     1 <1>   0.0800 
 39 H       -4.2270    -3.8090     1.3510 H     1 <1>   0.1500 
 40 H       -8.0440    -6.6450     1.3300 H     1 <1>   0.1500 
 41 H       -4.6640    -5.3620     3.2200 H     1 <1>   0.1500 
@<TRIPOS>BOND
  1   1   2  1   
  2   2   3  ar  
  3   2   4  ar  
  4   3   5  ar  
  5   3   6  1   
  6   4   7  ar  
  7   4  23  1   
  8   5   8  ar  
  9   5  24  1   
 10   6   9  1   
 11   6  25  1   
 12   6  26  1   
 13   7   8  ar  
 14   7  27  1   
 15   8  28  1   
 16   9  10  am  
 17   9  29  1   
 18  10  11  2   
 19  10  12  1   
 20  12  13  1   
 21  12  30  1   
 22  12  31  1   
 23  13  14  1   
 24  13  15  1   
 25  14  16  1   
 26  14  17  1   
 27  14  32  1   
 28  15  33  1   
 29  15  34  1   
 30  15  35  1   
 31  16  18  ar  
 32  16  19  ar  
 33  17  36  1   
 34  17  37  1   
 35  17  38  1   
 36  18  20  ar  
 37  19  21  ar  
 38  19  39  1   
 39  20  22  ar  
 40  20  40  1   
 41  21  22  ar  
 42  21  41  1   
@<TRIPOS>SUBSTRUCTURE
  1 ****  13 GROUP 4 **** **** 0

# MOE 2024.06 (io_trps.svl 2023.06)
