@<TRIPOS>MOLECULE
NONAME
54 57 1 0 0 
SMALL
USER_CHARGES


@<TRIPOS>ATOM
  1 O       -1.2810    -0.5330     1.9780 O.2   1 <1>  -0.5700 
  2 C       -1.6940     0.4770     1.4400 C.2   1 <1>   0.5440 
  3 N       -2.6160     0.3650     0.4140 N.am  1 <1>  -0.6600 
  4 C       -1.2180     1.7660     1.9100 C.ar  1 <1>   0.0860 
  5 C       -3.4110     1.5380    -0.0630 C.3   1 <1>   0.2200 
  6 C       -2.9510    -0.9830    -0.1390 C.3   1 <1>   0.0600 
  7 C       -0.6340     2.6830     1.0410 C.ar  1 <1>  -0.1500 
  8 C       -1.3480     2.1360     3.2470 C.ar  1 <1>  -0.1500 
  9 C       -4.9240     1.3310    -0.0580 C.3   1 <1>  -0.1600 
 10 C       -3.0990     1.9350    -1.5030 C.3   1 <1>  -0.1600 
 11 C       -0.2380     3.9500     1.4490 C.ar  1 <1>   0.0000 
 12 C       -0.9420     3.3840     3.6840 C.ar  1 <1>  -0.1500 
 13 C       -5.4500     2.4390    -0.9810 C.3   1 <1>  -0.0800 
 14 C       -4.2810     2.8230    -1.9080 C.3   1 <1>  -0.0800 
 15 C        0.3090     4.8880     0.4980 C.ar  1 <1>   0.0000 
 16 C       -0.3970     4.2850     2.7890 C.ar  1 <1>  -0.1500 
 17 C       -5.8450     3.7200    -0.2290 C.3   1 <1>  -0.1600 
 18 C       -4.0140     4.3180    -1.6800 C.3   1 <1>  -0.1600 
 19 C       -0.3170     6.1080     0.2570 C.ar  1 <1>  -0.1500 
 20 C        1.4670     4.5930    -0.2170 C.ar  1 <1>  -0.1500 
 21 C       -5.3040     4.8560    -1.0830 C.3   1 <1>   0.2000 
 22 C        0.1870     7.0030    -0.6690 C.ar  1 <1>  -0.1500 
 23 C        1.9770     5.4840    -1.1430 C.ar  1 <1>  -0.1500 
 24 O       -5.0380     5.9540    -0.2960 O.3   1 <1>  -0.6800 
 25 C        1.3430     6.6930    -1.3790 C.ar  1 <1>   0.0820 
 26 O        1.9030     7.5080    -2.3040 O.3   1 <1>  -0.3620 
 27 C        1.3400     8.7620    -2.6190 C.3   1 <1>   0.0400 
 28 H       -3.2180     2.3910     0.5630 H     1 <1>   0.0800 
 29 H       -3.2110    -0.9180    -1.1790 H     1 <1>   0.0800 
 30 H       -3.7760    -1.4020     0.4100 H     1 <1>   0.0800 
 31 H       -2.1060    -1.6440    -0.0440 H     1 <1>   0.0800 
 32 H       -0.4940     2.4020     0.0130 H     1 <1>   0.1500 
 33 H       -1.7730     1.4310     3.9400 H     1 <1>   0.1500 
 34 H       -5.1800     0.3830    -0.4920 H     1 <1>   0.0800 
 35 H       -5.3310     1.3890     0.9360 H     1 <1>   0.0800 
 36 H       -2.1580     2.4450    -1.5920 H     1 <1>   0.0800 
 37 H       -3.0870     1.0660    -2.1340 H     1 <1>   0.0800 
 38 H       -1.0510     3.6520     4.7210 H     1 <1>   0.1500 
 39 H       -6.2870     2.0860    -1.5610 H     1 <1>   0.0800 
 40 H       -4.5500     2.6540    -2.9380 H     1 <1>   0.0800 
 41 H       -0.0840     5.2570     3.1290 H     1 <1>   0.1500 
 42 H       -5.3800     3.7410     0.7410 H     1 <1>   0.0800 
 43 H       -6.9120     3.7940    -0.1170 H     1 <1>   0.0800 
 44 H       -3.7740     4.8180    -2.6010 H     1 <1>   0.0800 
 45 H       -3.2070     4.4510    -0.9800 H     1 <1>   0.0800 
 46 H       -1.2130     6.3530     0.7990 H     1 <1>   0.1500 
 47 H        1.9700     3.6590    -0.0420 H     1 <1>   0.1500 
 48 H       -6.0040     5.1340    -1.8550 H     1 <1>   0.0800 
 49 H       -0.3300     7.9310    -0.8240 H     1 <1>   0.1500 
 50 H        2.8710     5.2480    -1.6910 H     1 <1>   0.1500 
 51 H       -4.4290     5.7040     0.4220 H     1 <1>   0.4000 
 52 H        1.9520     9.2230    -3.3730 H     1 <1>   0.0800 
 53 H        1.3290     9.3720    -1.7330 H     1 <1>   0.0800 
 54 H        0.3440     8.6120    -2.9980 H     1 <1>   0.0800 
@<TRIPOS>BOND
  1   1   2  2   
  2   2   3  am  
  3   2   4  1   
  4   3   5  1   
  5   3   6  1   
  6   4   7  ar  
  7   4   8  ar  
  8   5   9  1   
  9   5  10  1   
 10   5  28  1   
 11   6  29  1   
 12   6  30  1   
 13   6  31  1   
 14   7  11  ar  
 15   7  32  1   
 16   8  12  ar  
 17   8  33  1   
 18   9  13  1   
 19   9  34  1   
 20   9  35  1   
 21  10  14  1   
 22  10  36  1   
 23  10  37  1   
 24  11  15  1   
 25  11  16  ar  
 26  12  16  ar  
 27  12  38  1   
 28  13  14  1   
 29  13  17  1   
 30  13  39  1   
 31  14  18  1   
 32  14  40  1   
 33  15  19  ar  
 34  15  20  ar  
 35  16  41  1   
 36  17  21  1   
 37  17  42  1   
 38  17  43  1   
 39  18  21  1   
 40  18  44  1   
 41  18  45  1   
 42  19  22  ar  
 43  19  46  1   
 44  20  23  ar  
 45  20  47  1   
 46  21  24  1   
 47  21  48  1   
 48  22  25  ar  
 49  22  49  1   
 50  23  25  ar  
 51  23  50  1   
 52  24  51  1   
 53  25  26  1   
 54  26  27  1   
 55  27  52  1   
 56  27  53  1   
 57  27  54  1   
@<TRIPOS>SUBSTRUCTURE
  1 ****   7 GROUP 4 **** **** 0

# MOE 2024.06 (io_trps.svl 2023.06)
