@<TRIPOS>MOLECULE
NONAME
49 50 1 0 0 
SMALL
USER_CHARGES


@<TRIPOS>ATOM
  1 CL       2.6400     1.7040    -2.3100 Cl    1 <1>  -0.1770 
  2 C        1.6880     2.9870    -1.5960 C.ar  1 <1>   0.1770 
  3 C        1.8350     3.3480    -0.2590 C.ar  1 <1>  -0.1440 
  4 C        0.7840     3.6270    -2.4230 C.ar  1 <1>  -0.1500 
  5 C        1.0390     4.3790     0.2270 C.ar  1 <1>  -0.1500 
  6 C        2.8190     2.6690     0.6920 C.3   1 <1>   0.3640 
  7 C        0.0020     4.6510    -1.9220 C.ar  1 <1>  -0.1500 
  8 C        0.1320     5.0250    -0.5960 C.ar  1 <1>  -0.1500 
  9 N        2.4460     1.2420     0.8250 N.am  1 <1>  -0.7300 
 10 C        4.3060     2.8680     0.2810 C.3   1 <1>   0.2610 
 11 C        3.3310     0.2240     0.7480 C.2   1 <1>   0.5690 
 12 O        5.1460     1.8680     0.8450 O.3   1 <1>  -0.5600 
 13 C        4.7950     4.2580     0.7080 C.2   1 <1>   0.5690 
 14 O        2.9710    -0.9180     0.8800 O.2   1 <1>  -0.5700 
 15 C        4.8020     0.5460     0.4760 C.3   1 <1>   0.1810 
 16 O        4.2300     5.2540     0.3210 O.2   1 <1>  -0.5700 
 17 N        5.8950     4.3630     1.5030 N.am  1 <1>  -0.7300 
 18 C        6.4120     5.5820     2.1930 C.3   1 <1>   0.1400 
 19 C        7.2030     6.5130     1.2490 C.3   1 <1>   0.3430 
 20 N        6.3320     7.0620     0.1590 N.4   1 <1>  -0.9590 
 21 C        6.9940     7.1360    -1.1730 C.3   1 <1>   0.4230 
 22 C        5.6920     8.3400     0.6030 C.3   1 <1>   0.2630 
 23 C        6.0380     7.7370    -2.2050 C.3   1 <1>  -0.2400 
 24 C        7.3790     5.7270    -1.6320 C.3   1 <1>  -0.2400 
 25 H        0.6930     3.3230    -3.4510 H     1 <1>   0.1500 
 26 H        1.1170     4.6930     1.2540 H     1 <1>   0.1500 
 27 H        2.7010     3.1100     1.6660 H     1 <1>   0.0800 
 28 H       -0.7060     5.1550    -2.5590 H     1 <1>   0.1500 
 29 H       -0.4780     5.8210    -0.2040 H     1 <1>   0.1500 
 30 H        1.4580     1.0160     0.9540 H     1 <1>   0.3700 
 31 H        4.4100     2.8070    -0.7850 H     1 <1>   0.0800 
 32 H        5.0090     0.4160    -0.5710 H     1 <1>   0.0800 
 33 H        5.4230    -0.1270     1.0390 H     1 <1>   0.0800 
 34 H        6.3070     3.4620     1.7920 H     1 <1>   0.3700 
 35 H        5.5880     6.1220     2.6280 H     1 <1>   0.0800 
 36 H        7.0570     5.2720     2.9970 H     1 <1>   0.0800 
 37 H        8.0220     5.9520     0.8370 H     1 <1>   0.0800 
 38 H        7.6240     7.3260     1.8170 H     1 <1>   0.0800 
 39 H        5.5570     6.3730     0.0490 H     1 <1>   0.4500 
 40 H        7.8800     7.7480    -1.1110 H     1 <1>   0.0800 
 41 H        6.4280     9.1240     0.6740 H     1 <1>   0.0800 
 42 H        5.2270     8.2090     1.5660 H     1 <1>   0.0800 
 43 H        4.9290     8.6410    -0.0960 H     1 <1>   0.0800 
 44 H        5.1010     7.2060    -2.2180 H     1 <1>   0.0800 
 45 H        6.4720     7.6690    -3.1870 H     1 <1>   0.0800 
 46 H        5.8620     8.7800    -2.0170 H     1 <1>   0.0800 
 47 H        6.5180     5.0830    -1.6530 H     1 <1>   0.0800 
 48 H        8.1370     5.2920    -1.0100 H     1 <1>   0.0800 
 49 H        7.7830     5.7710    -2.6280 H     1 <1>   0.0800 
@<TRIPOS>BOND
  1   1   2  1   
  2   2   3  ar  
  3   2   4  ar  
  4   3   5  ar  
  5   3   6  1   
  6   4   7  ar  
  7   4  25  1   
  8   5   8  ar  
  9   5  26  1   
 10   6   9  1   
 11   6  10  1   
 12   6  27  1   
 13   7   8  ar  
 14   7  28  1   
 15   8  29  1   
 16   9  11  am  
 17   9  30  1   
 18  10  12  1   
 19  10  13  1   
 20  10  31  1   
 21  11  14  2   
 22  11  15  1   
 23  12  15  1   
 24  13  16  2   
 25  13  17  am  
 26  15  32  1   
 27  15  33  1   
 28  17  18  1   
 29  17  34  1   
 30  18  19  1   
 31  18  35  1   
 32  18  36  1   
 33  19  20  1   
 34  19  37  1   
 35  19  38  1   
 36  20  21  1   
 37  20  22  1   
 38  20  39  1   
 39  21  23  1   
 40  21  24  1   
 41  21  40  1   
 42  22  41  1   
 43  22  42  1   
 44  22  43  1   
 45  23  44  1   
 46  23  45  1   
 47  23  46  1   
 48  24  47  1   
 49  24  48  1   
 50  24  49  1   
@<TRIPOS>SUBSTRUCTURE
  1 ****  13 GROUP 4 **** **** 0

# MOE 2024.06 (io_trps.svl 2023.06)
