@<TRIPOS>MOLECULE
NONAME
44 46 1 0 0 
SMALL
USER_CHARGES


@<TRIPOS>ATOM
  1 F       -4.1580     2.6650    -2.1300 F     1 <1>  -0.3400 
  2 C       -3.1220     3.0940    -1.4240 C.3   1 <1>   0.8800 
  3 F       -2.4260     2.0130    -1.0990 F     1 <1>  -0.3400 
  4 O       -3.6150     3.6860    -0.2460 O.3   1 <1>  -0.3630 
  5 C       -2.8450     4.4550     0.5630 C.ar  1 <1>   0.0830 
  6 C       -3.4750     5.0890     1.6430 C.ar  1 <1>   0.0860 
  7 C       -1.4770     4.6260     0.3520 C.ar  1 <1>  -0.1500 
  8 C       -4.8900     4.9450     1.9070 C.2   1 <1>   0.5440 
  9 C       -2.6970     5.8820     2.4860 C.ar  1 <1>  -0.1500 
 10 C       -0.7340     5.4250     1.2000 C.ar  1 <1>  -0.1500 
 11 O       -5.2430     4.3140     2.8870 O.2   1 <1>  -0.5700 
 12 N       -5.8500     5.5380     1.1100 N.am  1 <1>  -0.6600 
 13 C       -1.3440     6.0550     2.2690 C.ar  1 <1>  -0.1500 
 14 C       -7.3060     5.2530     1.2890 C.3   1 <1>   0.1400 
 15 C       -5.5560     6.4930     0.0090 C.3   1 <1>   0.1400 
 16 C       -7.9200     4.6730    -0.0100 C.3   1 <1>   0.0000 
 17 C       -6.1430     5.9700    -1.3080 C.3   1 <1>  -0.1600 
 18 C       -9.4290     4.3860     0.1360 C.3   1 <1>   0.2000 
 19 C       -7.6410     5.6420    -1.1800 C.3   1 <1>  -0.1600 
 20 C       -7.3640     3.2630    -0.2790 C.3   1 <1>  -0.1600 
 21 O      -10.0900     5.3260     0.9070 O.3   1 <1>  -0.6800 
 22 C       -9.5580     3.0000     0.7720 C.3   1 <1>  -0.1600 
 23 C       -8.1920     2.3230     0.5990 C.3   1 <1>  -0.1600 
 24 H       -2.5250     3.7620    -2.0180 H     1 <1>   0.0800 
 25 H       -0.9600     4.1410    -0.4540 H     1 <1>   0.1500 
 26 H       -3.1720     6.3610     3.3240 H     1 <1>   0.1500 
 27 H        0.3230     5.5550     1.0350 H     1 <1>   0.1500 
 28 H       -0.7650     6.6730     2.9340 H     1 <1>   0.1500 
 29 H       -7.4600     4.5680     2.1030 H     1 <1>   0.0800 
 30 H       -7.7940     6.1770     1.5420 H     1 <1>   0.0800 
 31 H       -6.0040     7.4430     0.2490 H     1 <1>   0.0800 
 32 H       -4.4970     6.6450    -0.1000 H     1 <1>   0.0800 
 33 H       -6.0030     6.7100    -2.0750 H     1 <1>   0.0800 
 34 H       -5.6040     5.0890    -1.6050 H     1 <1>   0.0800 
 35 H       -9.8910     4.3750    -0.8370 H     1 <1>   0.0800 
 36 H       -7.9960     5.2210    -2.1050 H     1 <1>   0.0800 
 37 H       -8.1850     6.5560    -1.0090 H     1 <1>   0.0800 
 38 H       -7.5200     3.0000    -1.3120 H     1 <1>   0.0800 
 39 H       -6.3140     3.1760    -0.0630 H     1 <1>   0.0800 
 40 H       -9.8140     5.2410     1.8380 H     1 <1>   0.4000 
 41 H       -9.8010     3.0610     1.8190 H     1 <1>   0.0800 
 42 H      -10.3210     2.4390     0.2620 H     1 <1>   0.0800 
 43 H       -7.7140     2.2200     1.5590 H     1 <1>   0.0800 
 44 H       -8.2800     1.3470     0.1520 H     1 <1>   0.0800 
@<TRIPOS>BOND
  1   1   2  1   
  2   2   3  1   
  3   2   4  1   
  4   2  24  1   
  5   4   5  1   
  6   5   6  ar  
  7   5   7  ar  
  8   6   8  1   
  9   6   9  ar  
 10   7  10  ar  
 11   7  25  1   
 12   8  11  2   
 13   8  12  am  
 14   9  13  ar  
 15   9  26  1   
 16  10  13  ar  
 17  10  27  1   
 18  12  14  1   
 19  12  15  1   
 20  13  28  1   
 21  14  16  1   
 22  14  29  1   
 23  14  30  1   
 24  15  17  1   
 25  15  31  1   
 26  15  32  1   
 27  16  18  1   
 28  16  19  1   
 29  16  20  1   
 30  17  19  1   
 31  17  33  1   
 32  17  34  1   
 33  18  21  1   
 34  18  22  1   
 35  18  35  1   
 36  19  36  1   
 37  19  37  1   
 38  20  23  1   
 39  20  38  1   
 40  20  39  1   
 41  21  40  1   
 42  22  23  1   
 43  22  41  1   
 44  22  42  1   
 45  23  43  1   
 46  23  44  1   
@<TRIPOS>SUBSTRUCTURE
  1 ****  12 GROUP 4 **** **** 0

# MOE 2024.06 (io_trps.svl 2023.06)
