@<TRIPOS>MOLECULE
NONAME
44 46 1 0 0 
SMALL
USER_CHARGES


@<TRIPOS>ATOM
  1 F        1.5710     1.2770     2.6790 F     1 <1>  -0.1900 
  2 C        2.1110     1.3620     1.4930 C.ar  1 <1>   0.1900 
  3 C        2.3780     0.1950     0.7810 C.ar  1 <1>   0.0860 
  4 C        2.3690     2.6280     1.0060 C.ar  1 <1>  -0.1500 
  5 C        2.9480     0.3570    -0.4920 C.ar  1 <1>   0.0830 
  6 C        2.0360    -1.0890     1.3370 C.2   1 <1>   0.5440 
  7 C        2.9170     2.7600    -0.2570 C.ar  1 <1>  -0.1500 
  8 O        3.2690    -0.6770    -1.3030 O.3   1 <1>  -0.3630 
  9 C        3.1990     1.6250    -0.9980 C.ar  1 <1>  -0.1500 
 10 O        2.7770    -1.6250     2.1390 O.2   1 <1>  -0.5700 
 11 N        0.8980    -1.7480     0.9410 N.am  1 <1>  -0.6600 
 12 C        4.0230    -1.7670    -0.8090 C.3   1 <1>   0.0400 
 13 C       -0.0340    -1.2780    -0.1150 C.3   1 <1>   0.1400 
 14 C        0.5800    -3.1430     1.3360 C.3   1 <1>   0.1400 
 15 C       -1.1290    -2.3450    -0.1670 C.3   1 <1>   0.2000 
 16 C       -0.4310    -3.6290     0.2900 C.3   1 <1>  -0.0800 
 17 O       -2.0970    -2.0200     0.7690 O.3   1 <1>  -0.6800 
 18 C        0.2710    -4.3220    -0.8950 C.3   1 <1>   0.0210 
 19 C        0.9930    -5.5820    -0.4590 C.2   1 <1>   0.1080 
 20 N        0.3730    -6.6210     0.0040 N.2   1 <1>  -0.7070 
 21 C        2.3710    -5.7650    -0.4970 C.2   1 <1>  -0.1500 
 22 N        1.3490    -7.5070     0.2780 N.pl3 1 <1>   0.3000 
 23 C        2.5690    -7.0100    -0.0160 C.2   1 <1>  -0.3320 
 24 C        3.8690    -7.7680     0.1850 C.3   1 <1>  -0.0600 
 25 H        2.1420     3.4930     1.6040 H     1 <1>   0.1500 
 26 H        3.1230     3.7370    -0.6610 H     1 <1>   0.1500 
 27 H        3.6250     1.7190    -1.9820 H     1 <1>   0.1500 
 28 H        4.5850    -2.1840    -1.6250 H     1 <1>   0.0800 
 29 H        3.3540    -2.5100    -0.4150 H     1 <1>   0.0800 
 30 H        4.6940    -1.4190    -0.0420 H     1 <1>   0.0800 
 31 H       -0.4360    -0.3060     0.1130 H     1 <1>   0.0800 
 32 H        0.4890    -1.2420    -1.0540 H     1 <1>   0.0800 
 33 H        1.4700    -3.7490     1.3710 H     1 <1>   0.0800 
 34 H        0.1310    -3.1340     2.3140 H     1 <1>   0.0800 
 35 H       -1.6030    -2.4240    -1.1300 H     1 <1>   0.0800 
 36 H       -1.1310    -4.3240     0.7220 H     1 <1>   0.0800 
 37 H       -1.6630    -1.8630     1.6310 H     1 <1>   0.4000 
 38 H        0.9770    -3.6560    -1.3570 H     1 <1>   0.0800 
 39 H       -0.4610    -4.5970    -1.6320 H     1 <1>   0.0800 
 40 H        3.0980    -5.0510    -0.8380 H     1 <1>   0.1500 
 41 H        1.1500    -8.4370     0.6640 H     1 <1>   0.2700 
 42 H        4.7020    -7.1600    -0.1220 H     1 <1>   0.0800 
 43 H        3.8690    -8.6700    -0.4010 H     1 <1>   0.0800 
 44 H        3.9950    -8.0210     1.2220 H     1 <1>   0.0800 
@<TRIPOS>BOND
  1   1   2  1   
  2   2   3  ar  
  3   2   4  ar  
  4   3   5  ar  
  5   3   6  1   
  6   4   7  ar  
  7   4  25  1   
  8   5   8  1   
  9   5   9  ar  
 10   6  10  2   
 11   6  11  am  
 12   7   9  ar  
 13   7  26  1   
 14   8  12  1   
 15   9  27  1   
 16  11  13  1   
 17  11  14  1   
 18  12  28  1   
 19  12  29  1   
 20  12  30  1   
 21  13  15  1   
 22  13  31  1   
 23  13  32  1   
 24  14  16  1   
 25  14  33  1   
 26  14  34  1   
 27  15  16  1   
 28  15  17  1   
 29  15  35  1   
 30  16  18  1   
 31  16  36  1   
 32  17  37  1   
 33  18  19  1   
 34  18  38  1   
 35  18  39  1   
 36  19  20  2   
 37  19  21  1   
 38  20  22  1   
 39  21  23  2   
 40  21  40  1   
 41  22  23  1   
 42  22  41  1   
 43  23  24  1   
 44  24  42  1   
 45  24  43  1   
 46  24  44  1   
@<TRIPOS>SUBSTRUCTURE
  1 ****  11 GROUP 4 **** **** 0

# MOE 2024.06 (io_trps.svl 2023.06)
