@<TRIPOS>MOLECULE
NONAME
48 52 1 0 0 
SMALL
USER_CHARGES


@<TRIPOS>ATOM
  1 O        0.1030     0.9660    -0.9420 O.2   1 <1>  -0.5700 
  2 C       -0.3150     1.9140    -0.3030 C.2   1 <1>   0.5440 
  3 N       -1.5390     1.8030     0.3260 N.am  1 <1>  -0.6600 
  4 C        0.4720     3.1310    -0.2460 C.ar  1 <1>   0.0860 
  5 C       -2.4000     2.9750     0.6800 C.3   1 <1>   0.1400 
  6 C       -2.2450     0.4980     0.4470 C.3   1 <1>   0.1400 
  7 C        0.7220     3.7890     0.9480 C.ar  1 <1>  -0.1500 
  8 C        1.0130     3.6760    -1.4300 C.ar  1 <1>  -0.1500 
  9 C       -3.6250     3.0420    -0.2520 C.3   1 <1>   0.1440 
 10 C       -3.4740     0.4890    -0.4690 C.3   1 <1>  -0.1600 
 11 C        1.4630     4.9700     0.9710 C.ar  1 <1>   0.0000 
 12 C        1.7490     4.8360    -1.4280 C.ar  1 <1>  -0.1500 
 13 C       -4.5480     4.1750     0.1580 C.ar  1 <1>   0.1660 
 14 C       -4.3930     1.7010    -0.2190 C.3   1 <1>  -0.1600 
 15 C       -3.2300     3.4470    -1.6990 C.3   1 <1>  -0.1600 
 16 C        1.9710     5.4900    -0.2150 C.ar  1 <1>  -0.1520 
 17 C        1.8640     5.8540     1.9960 C.2   1 <1>  -0.1500 
 18 N       -4.9660     4.4120     1.3820 N.ar  1 <1>  -0.6200 
 19 C       -4.9100     4.9410    -0.9090 C.ar  1 <1>  -0.1430 
 20 C       -4.2910     4.4460    -2.1920 C.3   1 <1>  -0.0170 
 21 N        2.6530     6.6410     0.0750 N.pl3 1 <1>   0.0330 
 22 C        2.5800     6.8510     1.4240 C.2   1 <1>  -0.3020 
 23 C       -5.7720     5.4590     1.4920 C.ar  1 <1>   0.4770 
 24 C       -5.7490     6.0030    -0.6800 C.ar  1 <1>   0.1600 
 25 N       -6.1900     6.2730     0.5320 N.ar  1 <1>  -0.6200 
 26 C       -6.2700     5.7660     2.8830 C.3   1 <1>  -0.0970 
 27 H       -1.8560     3.8990     0.6130 H     1 <1>   0.0800 
 28 H       -2.7330     2.8660     1.6980 H     1 <1>   0.0800 
 29 H       -2.5500     0.3610     1.4700 H     1 <1>   0.0800 
 30 H       -1.5880    -0.3150     0.1860 H     1 <1>   0.0800 
 31 H        0.3460     3.3930     1.8740 H     1 <1>   0.1500 
 32 H        0.8340     3.1490    -2.3520 H     1 <1>   0.1500 
 33 H       -4.0270    -0.4190    -0.3060 H     1 <1>   0.0800 
 34 H       -3.1370     0.4780    -1.4900 H     1 <1>   0.0800 
 35 H        2.1550     5.2390    -2.3400 H     1 <1>   0.1500 
 36 H       -5.1890     1.7140    -0.9420 H     1 <1>   0.0800 
 37 H       -4.8430     1.5920     0.7530 H     1 <1>   0.0800 
 38 H       -3.1420     2.6050    -2.3610 H     1 <1>   0.0800 
 39 H       -2.2800     3.9530    -1.6810 H     1 <1>   0.0800 
 40 H        1.6230     5.7200     3.0360 H     1 <1>   0.1500 
 41 H       -5.0380     3.9460    -2.7840 H     1 <1>   0.0800 
 42 H       -3.8480     5.2470    -2.7580 H     1 <1>   0.0800 
 43 H        3.1360     7.2330    -0.6080 H     1 <1>   0.2700 
 44 H        3.0440     7.7000     1.8950 H     1 <1>   0.1500 
 45 H       -6.0630     6.6370    -1.4910 H     1 <1>   0.1500 
 46 H       -6.3510     4.8600     3.4550 H     1 <1>   0.0800 
 47 H       -7.2360     6.2340     2.8340 H     1 <1>   0.0800 
 48 H       -5.5790     6.4290     3.3670 H     1 <1>   0.0800 
@<TRIPOS>BOND
  1   1   2  2   
  2   2   3  am  
  3   2   4  1   
  4   3   5  1   
  5   3   6  1   
  6   4   7  ar  
  7   4   8  ar  
  8   5   9  1   
  9   5  27  1   
 10   5  28  1   
 11   6  10  1   
 12   6  29  1   
 13   6  30  1   
 14   7  11  ar  
 15   7  31  1   
 16   8  12  ar  
 17   8  32  1   
 18   9  13  1   
 19   9  14  1   
 20   9  15  1   
 21  10  14  1   
 22  10  33  1   
 23  10  34  1   
 24  11  16  ar  
 25  11  17  1   
 26  12  16  ar  
 27  12  35  1   
 28  13  18  ar  
 29  13  19  ar  
 30  14  36  1   
 31  14  37  1   
 32  15  20  1   
 33  15  38  1   
 34  15  39  1   
 35  16  21  1   
 36  17  22  2   
 37  17  40  1   
 38  18  23  ar  
 39  19  20  1   
 40  19  24  ar  
 41  20  41  1   
 42  20  42  1   
 43  21  22  1   
 44  21  43  1   
 45  22  44  1   
 46  23  25  ar  
 47  23  26  1   
 48  24  25  ar  
 49  24  45  1   
 50  26  46  1   
 51  26  47  1   
 52  26  48  1   
@<TRIPOS>SUBSTRUCTURE
  1 ****   5 GROUP 4 **** **** 0

# MOE 2024.06 (io_trps.svl 2023.06)
