@<TRIPOS>MOLECULE
NONAME
47 49 1 0 0 
SMALL
USER_CHARGES


@<TRIPOS>ATOM
  1 O       -0.2750     0.1960     0.6820 O.2   1 <1>  -0.5700 
  2 C       -1.3060     0.7830     0.4170 C.2   1 <1>   0.5440 
  3 N       -2.4390     0.0460     0.1550 N.am  1 <1>  -0.6600 
  4 C       -1.3200     2.2320     0.3670 C.ar  1 <1>   0.0860 
  5 C       -3.6530     0.5620    -0.5230 C.3   1 <1>   0.1400 
  6 C       -2.4460    -1.4380     0.1830 C.3   1 <1>   0.1400 
  7 C       -2.2560     2.9770     1.0800 C.ar  1 <1>  -0.1500 
  8 C       -0.3920     2.9300    -0.4000 C.ar  1 <1>  -0.1500 
  9 C       -4.3780    -0.6820    -1.0360 C.3   1 <1>   0.2000 
 10 C       -3.8820    -1.8340    -0.1660 C.3   1 <1>  -0.0800 
 11 C       -2.2860     4.3590     1.0170 C.ar  1 <1>   0.0830 
 12 C       -0.4020     4.3120    -0.4750 C.ar  1 <1>   0.0830 
 13 O       -5.7540    -0.5560    -0.9180 O.3   1 <1>  -0.6800 
 14 C       -4.0070    -3.2000    -0.8620 C.3   1 <1>  -0.0170 
 15 O       -3.2510     4.9740     1.7440 O.3   1 <1>  -0.3630 
 16 C       -1.3560     5.0340     0.2340 C.ar  1 <1>  -0.1500 
 17 O        0.5460     4.8820    -1.2600 O.3   1 <1>  -0.3630 
 18 C       -3.5500    -4.3340     0.0410 C.ar  1 <1>   0.1660 
 19 C       -3.3450     6.3810     1.8060 C.3   1 <1>   0.0400 
 20 C        0.6820     6.2830    -1.3570 C.3   1 <1>   0.0400 
 21 N       -2.2480    -4.5720     0.0720 N.ar  1 <1>  -0.6200 
 22 C       -4.4860    -5.0470     0.7750 C.ar  1 <1>  -0.1500 
 23 C       -1.8630    -5.5570     0.8680 C.ar  1 <1>   0.1600 
 24 C       -4.0710    -6.0710     1.5990 C.ar  1 <1>  -0.1500 
 25 C       -2.7180    -6.3240     1.6400 C.ar  1 <1>  -0.1500 
 26 H       -4.2610     1.0910     0.1900 H     1 <1>   0.0800 
 27 H       -3.3850     1.2120    -1.3380 H     1 <1>   0.0800 
 28 H       -1.7520    -1.8070    -0.5530 H     1 <1>   0.0800 
 29 H       -2.1560    -1.8050     1.1530 H     1 <1>   0.0800 
 30 H       -2.9710     2.4710     1.7020 H     1 <1>   0.1500 
 31 H        0.3540     2.3810    -0.9460 H     1 <1>   0.1500 
 32 H       -4.1370    -0.8420    -2.0740 H     1 <1>   0.0800 
 33 H       -4.4370    -1.8530     0.7560 H     1 <1>   0.0800 
 34 H       -6.0020    -0.4180     0.0160 H     1 <1>   0.4000 
 35 H       -3.4170    -3.2110    -1.7620 H     1 <1>   0.0800 
 36 H       -5.0310    -3.3600    -1.1460 H     1 <1>   0.0800 
 37 H       -1.3740     6.1020     0.1780 H     1 <1>   0.1500 
 38 H       -4.1640     6.6320     2.4560 H     1 <1>   0.0800 
 39 H       -3.5340     6.7620     0.8180 H     1 <1>   0.0800 
 40 H       -2.4280     6.7750     2.2050 H     1 <1>   0.0800 
 41 H        1.5120     6.4920    -2.0070 H     1 <1>   0.0800 
 42 H        0.8740     6.6840    -0.3780 H     1 <1>   0.0800 
 43 H       -0.2200     6.6930    -1.7750 H     1 <1>   0.0800 
 44 H       -5.5310    -4.8040     0.7050 H     1 <1>   0.1500 
 45 H       -0.8070    -5.7630     0.9060 H     1 <1>   0.1500 
 46 H       -4.7700    -6.6440     2.1830 H     1 <1>   0.1500 
 47 H       -2.3250    -7.1080     2.2620 H     1 <1>   0.1500 
@<TRIPOS>BOND
  1   1   2  2   
  2   2   3  am  
  3   2   4  1   
  4   3   5  1   
  5   3   6  1   
  6   4   7  ar  
  7   4   8  ar  
  8   5   9  1   
  9   5  26  1   
 10   5  27  1   
 11   6  10  1   
 12   6  28  1   
 13   6  29  1   
 14   7  11  ar  
 15   7  30  1   
 16   8  12  ar  
 17   8  31  1   
 18   9  10  1   
 19   9  13  1   
 20   9  32  1   
 21  10  14  1   
 22  10  33  1   
 23  11  15  1   
 24  11  16  ar  
 25  12  16  ar  
 26  12  17  1   
 27  13  34  1   
 28  14  18  1   
 29  14  35  1   
 30  14  36  1   
 31  15  19  1   
 32  16  37  1   
 33  17  20  1   
 34  18  21  ar  
 35  18  22  ar  
 36  19  38  1   
 37  19  39  1   
 38  19  40  1   
 39  20  41  1   
 40  20  42  1   
 41  20  43  1   
 42  21  23  ar  
 43  22  24  ar  
 44  22  44  1   
 45  23  25  ar  
 46  23  45  1   
 47  24  25  ar  
 48  24  46  1   
 49  25  47  1   
@<TRIPOS>SUBSTRUCTURE
  1 ****   3 GROUP 4 **** **** 0

# MOE 2024.06 (io_trps.svl 2023.06)
