@<TRIPOS>MOLECULE
NONAME
45 46 1 0 0 
SMALL
USER_CHARGES


@<TRIPOS>ATOM
  1 F       -0.1630     0.7310     0.5350 F     1 <1>  -0.3400 
  2 C       -0.8360     1.3330    -0.4320 C.3   1 <1>   1.0200 
  3 F       -0.2930     2.5220    -0.6130 F     1 <1>  -0.3400 
  4 F       -0.6270     0.6290    -1.5320 F     1 <1>  -0.3400 
  5 C       -2.3180     1.4160    -0.1040 C.3   1 <1>  -0.1600 
  6 C       -2.8530     0.0010     0.0920 C.3   1 <1>   0.3430 
  7 N       -4.3010     0.0230     0.4560 N.4   1 <1>  -0.9590 
  8 C       -4.7060    -1.3140     1.0320 C.3   1 <1>   0.3430 
  9 C       -5.1640     0.3730    -0.7180 C.3   1 <1>   0.3430 
 10 C       -6.0780    -1.3160     1.7460 C.3   1 <1>   0.1400 
 11 C       -6.3130     1.2920    -0.2990 C.3   1 <1>  -0.1600 
 12 N       -7.1560    -0.7010     0.9100 N.am  1 <1>  -0.6600 
 13 C       -7.1480     0.7860     0.8820 C.3   1 <1>   0.1400 
 14 C       -8.1010    -1.3930     0.1920 C.2   1 <1>   0.5690 
 15 O       -8.8180    -0.8270    -0.5950 O.2   1 <1>  -0.5700 
 16 C       -8.2460    -2.8950     0.3450 C.3   1 <1>  -0.0990 
 17 C       -9.2880    -3.4890    -0.6180 C.3   1 <1>   0.0960 
 18 N       -9.3930    -4.9510    -0.4350 N.pl3 1 <1>   0.3140 
 19 N       -8.3500    -5.7490    -0.5160 N.2   1 <1>  -0.4180 
 20 C      -10.4490    -5.7010    -0.1570 C.2   1 <1>   0.0070 
 21 N       -8.7840    -6.9360    -0.2910 N.2   1 <1>   0.0000 
 22 N      -10.0930    -6.9240    -0.0640 N.2   1 <1>  -0.3380 
 23 C      -11.8710    -5.2050     0.0260 C.3   1 <1>  -0.0600 
 24 H       -2.8100     1.9140    -0.9180 H     1 <1>   0.0800 
 25 H       -2.4310     1.9930     0.7950 H     1 <1>   0.0800 
 26 H       -2.2900    -0.4740     0.8820 H     1 <1>   0.0800 
 27 H       -2.7090    -0.5770    -0.8090 H     1 <1>   0.0800 
 28 H       -4.4540     0.7380     1.1790 H     1 <1>   0.4500 
 29 H       -3.9630    -1.6360     1.7440 H     1 <1>   0.0800 
 30 H       -4.7300    -2.0490     0.2440 H     1 <1>   0.0800 
 31 H       -5.5720    -0.5260    -1.1530 H     1 <1>   0.0800 
 32 H       -4.5860     0.8710    -1.4790 H     1 <1>   0.0800 
 33 H       -5.9980    -0.7760     2.6740 H     1 <1>   0.0800 
 34 H       -6.3320    -2.3280     2.0050 H     1 <1>   0.0800 
 35 H       -6.9720     1.3910    -1.1450 H     1 <1>   0.0800 
 36 H       -5.9440     2.2780    -0.0840 H     1 <1>   0.0800 
 37 H       -8.1580     1.1580     0.7950 H     1 <1>   0.0800 
 38 H       -6.7510     1.1640     1.8090 H     1 <1>   0.0800 
 39 H       -8.5400    -3.1080     1.3570 H     1 <1>   0.0800 
 40 H       -7.2940    -3.3510     0.1480 H     1 <1>   0.0800 
 41 H       -9.0020    -3.2980    -1.6370 H     1 <1>   0.0800 
 42 H      -10.2490    -3.0390    -0.4450 H     1 <1>   0.0800 
 43 H      -11.9220    -4.5140     0.8480 H     1 <1>   0.0800 
 44 H      -12.5220    -6.0360     0.2370 H     1 <1>   0.0800 
 45 H      -12.2150    -4.7220    -0.8700 H     1 <1>   0.0800 
@<TRIPOS>BOND
  1   1   2  1   
  2   2   3  1   
  3   2   4  1   
  4   2   5  1   
  5   5   6  1   
  6   5  24  1   
  7   5  25  1   
  8   6   7  1   
  9   6  26  1   
 10   6  27  1   
 11   7   8  1   
 12   7   9  1   
 13   7  28  1   
 14   8  10  1   
 15   8  29  1   
 16   8  30  1   
 17   9  11  1   
 18   9  31  1   
 19   9  32  1   
 20  10  12  1   
 21  10  33  1   
 22  10  34  1   
 23  11  13  1   
 24  11  35  1   
 25  11  36  1   
 26  12  13  1   
 27  12  14  am  
 28  13  37  1   
 29  13  38  1   
 30  14  15  2   
 31  14  16  1   
 32  16  17  1   
 33  16  39  1   
 34  16  40  1   
 35  17  18  1   
 36  17  41  1   
 37  17  42  1   
 38  18  19  1   
 39  18  20  1   
 40  19  21  2   
 41  20  22  2   
 42  20  23  1   
 43  21  22  1   
 44  23  43  1   
 45  23  44  1   
 46  23  45  1   
@<TRIPOS>SUBSTRUCTURE
  1 ****  12 GROUP 4 **** **** 0

# MOE 2024.06 (io_trps.svl 2023.06)
