@<TRIPOS>MOLECULE
NONAME
37 39 1 0 0 
SMALL
USER_CHARGES


@<TRIPOS>ATOM
  1 F       -1.3180     0.3560    -1.3990 F     1 <1>  -0.1900 
  2 C       -1.9640    -0.6790    -0.9010 C.ar  1 <1>   0.1900 
  3 C       -3.0930    -0.5250    -0.0960 C.ar  1 <1>   0.4100 
  4 C       -1.5200    -1.9380    -1.1950 C.ar  1 <1>   0.1600 
  5 N       -3.7130    -1.5990     0.3610 N.ar  1 <1>  -0.6200 
  6 N       -3.6270     0.7110     0.2690 N.pl3 1 <1>  -0.8380 
  7 N       -2.1330    -3.0120    -0.7380 N.ar  1 <1>  -0.6200 
  8 C       -3.1980    -2.7670     0.0210 C.ar  1 <1>   0.7200 
  9 C       -2.7470     1.8050     0.7590 C.3   1 <1>   0.1290 
 10 C       -5.0580     0.8280     0.6670 C.3   1 <1>   0.1290 
 11 N       -3.8640    -3.8240     0.5250 N.pl3 1 <1>  -0.8690 
 12 C       -4.1170    -5.0160    -0.2860 C.3   1 <1>   0.4330 
 13 C       -5.6120    -5.2230    -0.3300 C.ar  1 <1>  -0.1440 
 14 C       -3.6140    -6.2600     0.4570 C.3   1 <1>  -0.1600 
 15 C       -6.0010    -6.2330     0.5160 C.ar  1 <1>  -0.1440 
 16 C       -6.5450    -4.5350    -1.0850 C.ar  1 <1>  -0.1500 
 17 C       -4.8140    -6.8230     1.2390 C.3   1 <1>  -0.0170 
 18 C       -7.3320    -6.5890     0.6280 C.ar  1 <1>  -0.1500 
 19 C       -7.8820    -4.8840    -0.9800 C.ar  1 <1>  -0.1500 
 20 C       -8.2740    -5.9080    -0.1280 C.ar  1 <1>  -0.1500 
 21 H       -0.6510    -2.0690    -1.8150 H     1 <1>   0.1500 
 22 H       -3.1010     2.1680     1.7090 H     1 <1>   0.0800 
 23 H       -2.7480     2.6140     0.0490 H     1 <1>   0.0800 
 24 H       -1.7380     1.4520     0.8870 H     1 <1>   0.0800 
 25 H       -5.4160     1.8220     0.4660 H     1 <1>   0.0800 
 26 H       -5.1620     0.6140     1.7170 H     1 <1>   0.0800 
 27 H       -5.6560     0.1280     0.1090 H     1 <1>   0.0800 
 28 H       -4.7130    -3.5210     0.9970 H     1 <1>   0.4000 
 29 H       -3.6930    -4.9360    -1.2730 H     1 <1>   0.0800 
 30 H       -3.3150    -6.9850    -0.2770 H     1 <1>   0.0800 
 31 H       -2.7730    -6.0390     1.0910 H     1 <1>   0.0800 
 32 H       -6.2350    -3.7390    -1.7400 H     1 <1>   0.1500 
 33 H       -4.8020    -6.4670     2.2550 H     1 <1>   0.0800 
 34 H       -4.8300    -7.8980     1.2250 H     1 <1>   0.0800 
 35 H       -7.6330    -7.3810     1.2910 H     1 <1>   0.1500 
 36 H       -8.6200    -4.3590    -1.5610 H     1 <1>   0.1500 
 37 H       -9.3140    -6.1730    -0.0530 H     1 <1>   0.1500 
@<TRIPOS>BOND
  1   1   2  1   
  2   2   3  ar  
  3   2   4  ar  
  4   3   5  ar  
  5   3   6  1   
  6   4   7  ar  
  7   4  21  1   
  8   5   8  ar  
  9   6   9  1   
 10   6  10  1   
 11   7   8  ar  
 12   8  11  1   
 13   9  22  1   
 14   9  23  1   
 15   9  24  1   
 16  10  25  1   
 17  10  26  1   
 18  10  27  1   
 19  11  12  1   
 20  11  28  1   
 21  12  13  1   
 22  12  14  1   
 23  12  29  1   
 24  13  15  ar  
 25  13  16  ar  
 26  14  17  1   
 27  14  30  1   
 28  14  31  1   
 29  15  17  1   
 30  15  18  ar  
 31  16  19  ar  
 32  16  32  1   
 33  17  33  1   
 34  17  34  1   
 35  18  20  ar  
 36  18  35  1   
 37  19  20  ar  
 38  19  36  1   
 39  20  37  1   
@<TRIPOS>SUBSTRUCTURE
  1 ****  11 GROUP 4 **** **** 0

# MOE 2024.06 (io_trps.svl 2023.06)
