@<TRIPOS>MOLECULE
NONAME
53 56 1 0 0 
SMALL
USER_CHARGES


@<TRIPOS>ATOM
  1 N        0.6950     0.0530     0.1090 N.2   1 <1>   0.0000 
  2 N        1.3340    -1.0530     0.1600 N.2   1 <1>  -0.4180 
  3 N        1.5210     1.0920     0.2000 N.2   1 <1>  -0.3380 
  4 N        2.6250    -0.7490     0.2820 N.pl3 1 <1>   0.5930 
  5 C        2.7040     0.5990     0.3220 C.2   1 <1>   0.2700 
  6 C        3.6630    -1.7240     0.3070 C.ar  1 <1>  -0.0230 
  7 N        3.8610     1.3960     0.4700 N.pl3 1 <1>  -0.8220 
  8 C        3.6130    -2.7880     1.2030 C.ar  1 <1>  -0.1500 
  9 C        4.7500    -1.6280    -0.5580 C.ar  1 <1>  -0.1500 
 10 C        3.7110     2.8550     0.2030 C.3   1 <1>   0.2090 
 11 C        4.9050     0.9870     1.4660 C.3   1 <1>   0.2090 
 12 C        4.6310    -3.7240     1.2430 C.ar  1 <1>  -0.1500 
 13 C        5.7670    -2.5650    -0.5190 C.ar  1 <1>  -0.1500 
 14 C        5.0870     3.5310     0.2160 C.3   1 <1>  -0.0800 
 15 C        5.2790     2.1580     2.3800 C.3   1 <1>  -0.1600 
 16 C        5.7090    -3.6120     0.3830 C.ar  1 <1>  -0.1500 
 17 C        5.7590     3.3990     1.6040 C.3   1 <1>  -0.1600 
 18 C        4.9440     4.9920    -0.2350 C.3   1 <1>   0.3430 
 19 N        6.2570     5.6970    -0.2260 N.4   1 <1>  -0.9590 
 20 C        6.1410     7.1920    -0.2820 C.3   1 <1>   0.3430 
 21 C        7.2480     5.2150    -1.2480 C.3   1 <1>   0.3430 
 22 C        7.5250     7.8610    -0.0860 C.3   1 <1>   0.1100 
 23 C        8.6180     5.9160    -1.0660 C.3   1 <1>   0.1100 
 24 N        8.6120     6.8650     0.0710 N.3   1 <1>  -0.8100 
 25 C        9.9180     7.5190     0.2310 C.3   1 <1>   0.0300 
 26 H        2.7740    -2.8870     1.8720 H     1 <1>   0.1500 
 27 H        4.8010    -0.8170    -1.2640 H     1 <1>   0.1500 
 28 H        3.0680     3.2880     0.9520 H     1 <1>   0.0800 
 29 H        3.2410     2.9830    -0.7590 H     1 <1>   0.0800 
 30 H        5.7800     0.6470     0.9370 H     1 <1>   0.0800 
 31 H        4.5440     0.1730     2.0710 H     1 <1>   0.0800 
 32 H        4.5830    -4.5430     1.9410 H     1 <1>   0.1500 
 33 H        6.6030    -2.4830    -1.1920 H     1 <1>   0.1500 
 34 H        5.6780     3.0070    -0.5130 H     1 <1>   0.0800 
 35 H        6.0430     1.8430     3.0700 H     1 <1>   0.0800 
 36 H        4.4100     2.4090     2.9650 H     1 <1>   0.0800 
 37 H        6.5000    -4.3420     0.4140 H     1 <1>   0.1500 
 38 H        5.5520     4.2640     2.2120 H     1 <1>   0.0800 
 39 H        6.8260     3.3390     1.4720 H     1 <1>   0.0800 
 40 H        4.2680     5.4920     0.4400 H     1 <1>   0.0800 
 41 H        4.5160     5.0280    -1.2240 H     1 <1>   0.0800 
 42 H        6.7420     5.5310     0.6710 H     1 <1>   0.4500 
 43 H        5.4760     7.5390     0.4910 H     1 <1>   0.0800 
 44 H        5.7310     7.4960    -1.2310 H     1 <1>   0.0800 
 45 H        6.8790     5.4080    -2.2420 H     1 <1>   0.0800 
 46 H        7.3920     4.1520    -1.1520 H     1 <1>   0.0800 
 47 H        7.4880     8.4860     0.7900 H     1 <1>   0.0800 
 48 H        7.7310     8.4990    -0.9290 H     1 <1>   0.0800 
 49 H        8.8740     6.4350    -1.9750 H     1 <1>   0.0800 
 50 H        9.3730     5.1660    -0.8990 H     1 <1>   0.0800 
 51 H        9.9020     8.1720     1.0880 H     1 <1>   0.0800 
 52 H       10.1660     8.0980    -0.6440 H     1 <1>   0.0800 
 53 H       10.6840     6.7790     0.3880 H     1 <1>   0.0800 
@<TRIPOS>BOND
  1   1   2  2   
  2   1   3  1   
  3   2   4  1   
  4   3   5  2   
  5   4   5  1   
  6   4   6  1   
  7   5   7  1   
  8   6   8  ar  
  9   6   9  ar  
 10   7  10  1   
 11   7  11  1   
 12   8  12  ar  
 13   8  26  1   
 14   9  13  ar  
 15   9  27  1   
 16  10  14  1   
 17  10  28  1   
 18  10  29  1   
 19  11  15  1   
 20  11  30  1   
 21  11  31  1   
 22  12  16  ar  
 23  12  32  1   
 24  13  16  ar  
 25  13  33  1   
 26  14  17  1   
 27  14  18  1   
 28  14  34  1   
 29  15  17  1   
 30  15  35  1   
 31  15  36  1   
 32  16  37  1   
 33  17  38  1   
 34  17  39  1   
 35  18  19  1   
 36  18  40  1   
 37  18  41  1   
 38  19  20  1   
 39  19  21  1   
 40  19  42  1   
 41  20  22  1   
 42  20  43  1   
 43  20  44  1   
 44  21  23  1   
 45  21  45  1   
 46  21  46  1   
 47  22  24  1   
 48  22  47  1   
 49  22  48  1   
 50  23  24  1   
 51  23  49  1   
 52  23  50  1   
 53  24  25  1   
 54  25  51  1   
 55  25  52  1   
 56  25  53  1   
@<TRIPOS>SUBSTRUCTURE
  1 ****   7 GROUP 4 **** **** 0

# MOE 2024.06 (io_trps.svl 2023.06)
