@<TRIPOS>MOLECULE
NONAME
37 38 1 0 0 
SMALL
USER_CHARGES


@<TRIPOS>ATOM
  1 O        0.7310     0.5860     2.4880 O.2   1 <1>  -0.5700 
  2 C        0.6280    -0.1790     1.5570 C.2   1 <1>   0.5690 
  3 N        1.1040     0.0670     0.3060 N.am  1 <1>  -0.4930 
  4 C       -0.0730    -1.5210     1.7820 C.3   1 <1>   0.1710 
  5 C        1.7870     1.1970    -0.2090 C.2   1 <1>   0.0630 
  6 N       -0.5170    -2.2160     0.5300 N.3   1 <1>  -0.8100 
  7 C        2.1590     1.4260    -1.5360 C.2   1 <1>   0.1080 
  8 C        2.2250     2.2860     0.4530 C.2   1 <1>  -0.3020 
  9 C       -0.8340    -3.6220     0.8320 C.3   1 <1>   0.2900 
 10 C       -1.6990    -1.5360    -0.0420 C.3   1 <1>   0.0300 
 11 N        2.7760     2.5570    -1.6870 N.2   1 <1>  -0.7070 
 12 C        1.8930     0.4900    -2.6940 C.3   1 <1>  -0.0590 
 13 N        2.8150     3.0900    -0.4540 N.pl3 1 <1>   0.3140 
 14 C       -1.0690    -4.3790    -0.4550 C.2   1 <1>  -0.3320 
 15 C        3.4410     4.3890    -0.1880 C.3   1 <1>   0.0160 
 16 N       -0.2190    -4.3130    -1.4970 N.pl3 1 <1>   0.3000 
 17 C       -2.0720    -5.2050    -0.8260 C.2   1 <1>  -0.1500 
 18 N       -0.6340    -5.0710    -2.5300 N.2   1 <1>  -0.7070 
 19 C       -1.7450    -5.6020    -2.1180 C.2   1 <1>   0.1390 
 20 H        0.8740    -0.6750    -0.3580 H     1 <1>   0.3700 
 21 H       -0.9160    -1.3610     2.4320 H     1 <1>   0.0800 
 22 H        0.6290    -2.1450     2.3070 H     1 <1>   0.0800 
 23 H        2.1460     2.5200     1.4980 H     1 <1>   0.1500 
 24 H       -1.7040    -3.6850     1.4650 H     1 <1>   0.0800 
 25 H       -0.0060    -4.0780     1.3490 H     1 <1>   0.0800 
 26 H       -1.4860    -0.4990    -0.2360 H     1 <1>   0.0800 
 27 H       -2.5340    -1.5930     0.6360 H     1 <1>   0.0800 
 28 H       -1.9820    -1.9960    -0.9740 H     1 <1>   0.0800 
 29 H        0.8530     0.2240    -2.7200 H     1 <1>   0.0800 
 30 H        2.4910    -0.3950    -2.5900 H     1 <1>   0.0800 
 31 H        2.1490     0.9760    -3.6180 H     1 <1>   0.0800 
 32 H        2.7880     4.9750     0.4310 H     1 <1>   0.0800 
 33 H        3.6090     4.8950    -1.1200 H     1 <1>   0.0800 
 34 H        4.3780     4.2300     0.3120 H     1 <1>   0.0800 
 35 H        0.6370    -3.7450    -1.5260 H     1 <1>   0.2700 
 36 H       -2.9420    -5.5130    -0.2740 H     1 <1>   0.1500 
 37 H       -2.3380    -6.2730    -2.7180 H     1 <1>   0.1500 
@<TRIPOS>BOND
  1   1   2  2   
  2   2   3  am  
  3   2   4  1   
  4   3   5  1   
  5   3  20  1   
  6   4   6  1   
  7   4  21  1   
  8   4  22  1   
  9   5   7  1   
 10   5   8  2   
 11   6   9  1   
 12   6  10  1   
 13   7  11  2   
 14   7  12  1   
 15   8  13  1   
 16   8  23  1   
 17   9  14  1   
 18   9  24  1   
 19   9  25  1   
 20  10  26  1   
 21  10  27  1   
 22  10  28  1   
 23  11  13  1   
 24  12  29  1   
 25  12  30  1   
 26  12  31  1   
 27  13  15  1   
 28  14  16  1   
 29  14  17  2   
 30  15  32  1   
 31  15  33  1   
 32  15  34  1   
 33  16  18  1   
 34  16  35  1   
 35  17  19  1   
 36  17  36  1   
 37  18  19  2   
 38  19  37  1   
@<TRIPOS>SUBSTRUCTURE
  1 ****   3 GROUP 4 **** **** 0

# MOE 2024.06 (io_trps.svl 2023.06)
