@<TRIPOS>MOLECULE
NONAME
42 45 1 0 0 
SMALL
USER_CHARGES


@<TRIPOS>ATOM
  1 S        0.8490    -0.3800     0.7510 S.3   1 <1>  -0.0800 
  2 C       -0.2440    -1.1180    -0.3980 C.2   1 <1>   0.1980 
  3 C        1.5780     0.5070    -0.5560 C.2   1 <1>  -0.1100 
  4 N       -0.0790    -0.7390    -1.6040 N.2   1 <1>  -0.5650 
  5 C       -1.2630    -2.1090     0.1520 C.3   1 <1>   0.5230 
  6 C        0.9560     0.1810    -1.6990 C.2   1 <1>   0.0770 
  7 N       -2.3600    -2.3600    -0.8430 N.4   1 <1>  -0.9590 
  8 C       -3.1730    -1.1220    -1.1300 C.3   1 <1>   0.3430 
  9 C       -3.2150    -3.5350    -0.4750 C.3   1 <1>   0.3430 
 10 C       -4.0120    -0.6390     0.0780 C.3   1 <1>   0.1440 
 11 C       -4.5220    -3.1310     0.2300 C.3   1 <1>  -0.1600 
 12 C       -5.2490     0.0410    -0.4690 C.ar  1 <1>   0.1670 
 13 C       -4.4220    -1.8080     1.0100 C.3   1 <1>  -0.1600 
 14 C       -3.3320     0.5130     0.8710 C.3   1 <1>  -0.1600 
 15 N       -6.0240    -0.4570    -1.4050 N.ar  1 <1>  -0.6200 
 16 C       -5.4720     1.2460     0.1230 C.ar  1 <1>  -0.1430 
 17 C       -4.4220     1.5640     1.1560 C.3   1 <1>  -0.0170 
 18 C       -7.0560     0.3150    -1.7240 C.ar  1 <1>   0.4770 
 19 C       -6.5680     1.9650    -0.2860 C.ar  1 <1>   0.1600 
 20 N       -7.3720     1.5000    -1.2200 N.ar  1 <1>  -0.6200 
 21 C       -7.9840    -0.2100    -2.7930 C.3   1 <1>  -0.0970 
 22 H        2.3930     1.1730    -0.3310 H     1 <1>   0.1500 
 23 H       -1.6740    -1.7230     1.0680 H     1 <1>   0.0800 
 24 H       -0.7520    -3.0310     0.3740 H     1 <1>   0.0800 
 25 H        1.1970     0.5740    -2.6750 H     1 <1>   0.1500 
 26 H       -1.8590    -2.5670    -1.7210 H     1 <1>   0.4500 
 27 H       -3.8550    -1.3510    -1.9340 H     1 <1>   0.0800 
 28 H       -2.5400    -0.3220    -1.4750 H     1 <1>   0.0800 
 29 H       -2.6560    -4.1980     0.1660 H     1 <1>   0.0800 
 30 H       -3.4700    -4.0880    -1.3660 H     1 <1>   0.0800 
 31 H       -4.8220    -3.9240     0.8930 H     1 <1>   0.0800 
 32 H       -5.2980    -3.0420    -0.5110 H     1 <1>   0.0800 
 33 H       -5.3700    -1.5890     1.4740 H     1 <1>   0.0800 
 34 H       -3.7060    -1.9330     1.8010 H     1 <1>   0.0800 
 35 H       -2.5820     0.9800     0.2560 H     1 <1>   0.0800 
 36 H       -2.8640     0.1870     1.7820 H     1 <1>   0.0800 
 37 H       -4.0470     2.5680     1.0490 H     1 <1>   0.0800 
 38 H       -4.8350     1.4330     2.1420 H     1 <1>   0.0800 
 39 H       -6.7910     2.9240     0.1490 H     1 <1>   0.1500 
 40 H       -7.8330    -1.2620    -2.9420 H     1 <1>   0.0800 
 41 H       -7.7950     0.3100    -3.7130 H     1 <1>   0.0800 
 42 H       -9.0040    -0.0430    -2.4990 H     1 <1>   0.0800 
@<TRIPOS>BOND
  1   1   2  1   
  2   1   3  1   
  3   2   4  2   
  4   2   5  1   
  5   3   6  2   
  6   3  22  1   
  7   4   6  1   
  8   5   7  1   
  9   5  23  1   
 10   5  24  1   
 11   6  25  1   
 12   7   8  1   
 13   7   9  1   
 14   7  26  1   
 15   8  10  1   
 16   8  27  1   
 17   8  28  1   
 18   9  11  1   
 19   9  29  1   
 20   9  30  1   
 21  10  12  1   
 22  10  13  1   
 23  10  14  1   
 24  11  13  1   
 25  11  31  1   
 26  11  32  1   
 27  12  15  ar  
 28  12  16  ar  
 29  13  33  1   
 30  13  34  1   
 31  14  17  1   
 32  14  35  1   
 33  14  36  1   
 34  15  18  ar  
 35  16  17  1   
 36  16  19  ar  
 37  17  37  1   
 38  17  38  1   
 39  18  20  ar  
 40  18  21  1   
 41  19  20  ar  
 42  19  39  1   
 43  21  40  1   
 44  21  41  1   
 45  21  42  1   
@<TRIPOS>SUBSTRUCTURE
  1 ****  10 GROUP 4 **** **** 0

# MOE 2024.06 (io_trps.svl 2023.06)
