@<TRIPOS>MOLECULE
NONAME
36 38 1 0 0 
SMALL
USER_CHARGES


@<TRIPOS>ATOM
  1 CL      -0.5380     1.7890    -1.7720 Cl    1 <1>  -0.1240 
  2 C        0.8090     2.7330    -1.2000 C.2   1 <1>   0.1640 
  3 S        1.3810     2.3870     0.4170 S.3   1 <1>  -0.0800 
  4 C        1.5170     3.7120    -1.7850 C.2   1 <1>  -0.1500 
  5 C        2.6350     3.6240     0.2760 C.2   1 <1>  -0.0220 
  6 C        2.5550     4.2170    -0.9370 C.2   1 <1>  -0.1500 
  7 S        3.7280     3.8930     1.6920 S.o2  1 <1>   1.5000 
  8 O        3.1310     4.8760     2.5700 O.2   1 <1>  -0.6500 
  9 O        4.1860     2.6340     2.2370 O.2   1 <1>  -0.6500 
 10 N        5.0700     4.6170     0.9490 N.am  1 <1>  -0.8490 
 11 C        5.8270     5.5070     1.8570 C.3   1 <1>   0.1960 
 12 C        5.9180     3.6380     0.2450 C.3   1 <1>   0.1960 
 13 C        6.8520     6.4510     1.1700 C.3   1 <1>   0.2200 
 14 C        6.9100     4.2680    -0.7510 C.3   1 <1>  -0.0190 
 15 N        6.5470     6.6970    -0.2770 N.am  1 <1>  -0.6600 
 16 C        8.3060     5.9710     1.3520 C.3   1 <1>   0.1200 
 17 C        6.5050     5.6670    -1.1790 C.2   1 <1>   0.5690 
 18 C        8.3640     4.2380    -0.2600 C.3   1 <1>   0.1200 
 19 C        6.1200     8.0780    -0.6340 C.3   1 <1>   0.0600 
 20 O        8.4650     4.6100     1.0790 O.3   1 <1>  -0.5600 
 21 O        6.1630     5.8260    -2.3280 O.2   1 <1>  -0.5700 
 22 H        1.3540     4.0990    -2.7760 H     1 <1>   0.1500 
 23 H        3.2040     5.0110    -1.2740 H     1 <1>   0.1500 
 24 H        5.1310     6.1520     2.3660 H     1 <1>   0.0800 
 25 H        6.3150     4.9200     2.6180 H     1 <1>   0.0800 
 26 H        6.4430     3.0260     0.9610 H     1 <1>   0.0800 
 27 H        5.2780     2.9810    -0.3190 H     1 <1>   0.0800 
 28 H        6.7940     7.3960     1.6800 H     1 <1>   0.0800 
 29 H        6.8930     3.6610    -1.6370 H     1 <1>   0.0800 
 30 H        8.5930     6.1100     2.3790 H     1 <1>   0.0800 
 31 H        8.9800     6.5400     0.7350 H     1 <1>   0.0800 
 32 H        8.9940     4.8770    -0.8570 H     1 <1>   0.0800 
 33 H        8.7420     3.2330    -0.3280 H     1 <1>   0.0800 
 34 H        6.8900     8.7800    -0.3670 H     1 <1>   0.0800 
 35 H        5.2130     8.3230    -0.1110 H     1 <1>   0.0800 
 36 H        5.9370     8.1590    -1.6920 H     1 <1>   0.0800 
@<TRIPOS>BOND
  1   1   2  1   
  2   2   3  1   
  3   2   4  2   
  4   3   5  1   
  5   4   6  1   
  6   4  22  1   
  7   5   6  2   
  8   5   7  1   
  9   6  23  1   
 10   7   8  2   
 11   7   9  2   
 12   7  10  am  
 13  10  11  1   
 14  10  12  1   
 15  11  13  1   
 16  11  24  1   
 17  11  25  1   
 18  12  14  1   
 19  12  26  1   
 20  12  27  1   
 21  13  15  1   
 22  13  16  1   
 23  13  28  1   
 24  14  17  1   
 25  14  18  1   
 26  14  29  1   
 27  15  17  am  
 28  15  19  1   
 29  16  20  1   
 30  16  30  1   
 31  16  31  1   
 32  17  21  2   
 33  18  20  1   
 34  18  32  1   
 35  18  33  1   
 36  19  34  1   
 37  19  35  1   
 38  19  36  1   
@<TRIPOS>SUBSTRUCTURE
  1 ****  10 GROUP 4 **** **** 0

# MOE 2024.06 (io_trps.svl 2023.06)
