@<TRIPOS>MOLECULE
NONAME
56 59 1 0 0 
SMALL
USER_CHARGES


@<TRIPOS>ATOM
  1 O       -0.5330     0.4040     1.1060 O.2   1 <1>  -0.5700 
  2 C       -1.4820     1.0750     0.7320 C.2   1 <1>   0.7150 
  3 N       -2.6920     0.4280     0.5680 N.am  1 <1>  -0.6600 
  4 C       -1.3030     2.4910     0.4550 C.2   1 <1>   0.0550 
  5 C       -3.8540     0.9620    -0.1890 C.3   1 <1>   0.1400 
  6 C       -2.8860    -1.0180     0.8160 C.3   1 <1>   0.1400 
  7 O       -2.3280     3.3420     0.5200 O.3   1 <1>  -0.2800 
  8 C       -0.1860     3.2070     0.1250 C.2   1 <1>  -0.1810 
  9 C       -4.7930    -0.2300    -0.4230 C.3   1 <1>   0.2000 
 10 C       -3.8910    -1.4560    -0.2490 C.3   1 <1>  -0.0800 
 11 C       -1.9060     4.5560     0.2530 C.2   1 <1>  -0.0400 
 12 C       -0.5820     4.5380    -0.0050 C.2   1 <1>  -0.1500 
 13 C        1.2460     2.7430    -0.0800 C.3   1 <1>  -0.0590 
 14 O       -5.7840    -0.2580     0.5660 O.3   1 <1>  -0.5600 
 15 C       -4.6320    -2.7590     0.1040 C.3   1 <1>   0.0200 
 16 C       -2.9020     5.7020     0.2800 C.3   1 <1>   0.3000 
 17 C       -6.9040     0.5290     0.3090 C.3   1 <1>   0.0400 
 18 C       -3.7290    -3.9810     0.0960 C.2   1 <1>  -0.0400 
 19 O       -2.2600     6.9030    -0.0960 O.3   1 <1>  -0.3630 
 20 O       -4.2240    -5.1300     0.4720 O.3   1 <1>  -0.0190 
 21 C       -2.4420    -4.1820    -0.2350 C.2   1 <1>  -0.1500 
 22 C       -2.9430     8.0730    -0.1570 C.ar  1 <1>   0.0820 
 23 N       -3.3420    -6.0850     0.4150 N.2   1 <1>  -0.4100 
 24 C       -2.2580    -5.5420    -0.0080 C.2   1 <1>   0.1080 
 25 C       -4.2910     8.2060     0.1690 C.ar  1 <1>  -0.1500 
 26 C       -2.2300     9.1860    -0.5730 C.ar  1 <1>  -0.1500 
 27 C       -0.9610    -6.2890    -0.2250 C.3   1 <1>  -0.0590 
 28 C       -4.9060     9.4430     0.0750 C.ar  1 <1>  -0.1500 
 29 C       -2.8470    10.4210    -0.6660 C.ar  1 <1>  -0.1500 
 30 C       -4.1860    10.5490    -0.3420 C.ar  1 <1>  -0.1500 
 31 H       -4.3410     1.7420     0.3690 H     1 <1>   0.0800 
 32 H       -3.5080     1.3520    -1.1300 H     1 <1>   0.0800 
 33 H       -1.9600    -1.5620     0.7420 H     1 <1>   0.0800 
 34 H       -3.2990    -1.1470     1.8020 H     1 <1>   0.0800 
 35 H       -5.2600    -0.2090    -1.3930 H     1 <1>   0.0800 
 36 H       -3.3540    -1.6000    -1.1700 H     1 <1>   0.0800 
 37 H        0.0550     5.3680    -0.2550 H     1 <1>   0.1500 
 38 H        1.6250     3.1270    -1.0100 H     1 <1>   0.0800 
 39 H        1.3060     1.6710    -0.1060 H     1 <1>   0.0800 
 40 H        1.8620     3.1030     0.7230 H     1 <1>   0.0800 
 41 H       -5.4250    -2.9200    -0.6040 H     1 <1>   0.0800 
 42 H       -5.0800    -2.6710     1.0790 H     1 <1>   0.0800 
 43 H       -3.2940     5.8210     1.2740 H     1 <1>   0.0800 
 44 H       -3.6990     5.5110    -0.4160 H     1 <1>   0.0800 
 45 H       -7.5770     0.4320     1.1420 H     1 <1>   0.0800 
 46 H       -7.3860     0.1790    -0.5870 H     1 <1>   0.0800 
 47 H       -6.6080     1.5580     0.2040 H     1 <1>   0.0800 
 48 H       -1.6980    -3.4960    -0.5930 H     1 <1>   0.1500 
 49 H       -4.8770     7.3690     0.4970 H     1 <1>   0.1500 
 50 H       -1.1900     9.0790    -0.8230 H     1 <1>   0.1500 
 51 H       -0.1790    -5.8400     0.3600 H     1 <1>   0.0800 
 52 H       -0.6920    -6.2570    -1.2640 H     1 <1>   0.0800 
 53 H       -1.0740    -7.3150     0.0750 H     1 <1>   0.0800 
 54 H       -5.9470     9.5470     0.3270 H     1 <1>   0.1500 
 55 H       -2.2850    11.2800    -0.9900 H     1 <1>   0.1500 
 56 H       -4.6670    11.5090    -0.4140 H     1 <1>   0.1500 
@<TRIPOS>BOND
  1   1   2  2   
  2   2   3  am  
  3   2   4  1   
  4   3   5  1   
  5   3   6  1   
  6   4   7  1   
  7   4   8  2   
  8   5   9  1   
  9   5  31  1   
 10   5  32  1   
 11   6  10  1   
 12   6  33  1   
 13   6  34  1   
 14   7  11  1   
 15   8  12  1   
 16   8  13  1   
 17   9  10  1   
 18   9  14  1   
 19   9  35  1   
 20  10  15  1   
 21  10  36  1   
 22  11  12  2   
 23  11  16  1   
 24  12  37  1   
 25  13  38  1   
 26  13  39  1   
 27  13  40  1   
 28  14  17  1   
 29  15  18  1   
 30  15  41  1   
 31  15  42  1   
 32  16  19  1   
 33  16  43  1   
 34  16  44  1   
 35  17  45  1   
 36  17  46  1   
 37  17  47  1   
 38  18  20  1   
 39  18  21  2   
 40  19  22  1   
 41  20  23  1   
 42  21  24  1   
 43  21  48  1   
 44  22  25  ar  
 45  22  26  ar  
 46  23  24  2   
 47  24  27  1   
 48  25  28  ar  
 49  25  49  1   
 50  26  29  ar  
 51  26  50  1   
 52  27  51  1   
 53  27  52  1   
 54  27  53  1   
 55  28  30  ar  
 56  28  54  1   
 57  29  30  ar  
 58  29  55  1   
 59  30  56  1   
@<TRIPOS>SUBSTRUCTURE
  1 ****   5 GROUP 4 **** **** 0

# MOE 2024.06 (io_trps.svl 2023.06)
