@<TRIPOS>MOLECULE
Untitled Document
56 59 1 0 0 
SMALL
USER_CHARGES


@<TRIPOS>ATOM
  1 O        0.4180    -1.3050    -1.7670 O.2   1 <1>  -0.5700 
  2 C        0.3200    -2.2760    -1.0590 C.2   1 <1>   0.4230 
  3 C       -0.9520    -2.7860    -0.5880 C.ar  1 <1>   0.0860 
  4 C        1.6200    -2.9970    -0.6670 C.3   1 <1>  -0.0190 
  5 C       -1.0410    -3.9730     0.1490 C.ar  1 <1>  -0.1440 
  6 C       -2.1390    -2.1010    -0.8550 C.ar  1 <1>  -0.1500 
  7 C        1.4300    -3.8590     0.5990 C.3   1 <1>  -0.1600 
  8 C        2.7840    -1.9920    -0.4890 C.3   1 <1>  -0.1600 
  9 C       -2.2670    -4.4390     0.5930 C.ar  1 <1>  -0.1500 
 10 C        0.2110    -4.7770     0.4630 C.3   1 <1>  -0.0170 
 11 C       -3.3610    -2.5660    -0.4100 C.ar  1 <1>  -0.1500 
 12 C        4.1390    -2.6640    -0.2600 C.3   1 <1>   0.3430 
 13 C       -3.4270    -3.7390     0.3170 C.ar  1 <1>  -0.1500 
 14 N        5.2040    -1.6360    -0.0970 N.4   1 <1>  -0.9590 
 15 C        5.5200    -0.9120    -1.3880 C.3   1 <1>   0.3430 
 16 C        6.4630    -2.2450     0.4710 C.3   1 <1>   0.3430 
 17 C        6.6370     0.1370    -1.2210 C.3   1 <1>   0.2090 
 18 C        7.5890    -1.2090     0.6630 C.3   1 <1>   0.2090 
 19 N        7.8550    -0.4660    -0.6040 N.pl3 1 <1>  -0.8380 
 20 C        8.9620     0.3930    -0.5490 C.ar  1 <1>   0.1000 
 21 C        9.0220     1.5490     0.2530 C.ar  1 <1>   0.0830 
 22 C       10.0560     0.0700    -1.3390 C.ar  1 <1>  -0.1500 
 23 O        7.9360     1.8600     1.0300 O.3   1 <1>  -0.3630 
 24 C       10.1700     2.3370     0.2360 C.ar  1 <1>  -0.1500 
 25 C       11.1910     0.8590    -1.3490 C.ar  1 <1>  -0.1500 
 26 C        7.9290     3.0120     1.8470 C.3   1 <1>   0.0400 
 27 C       11.2480     1.9930    -0.5610 C.ar  1 <1>  -0.1500 
 28 H        1.8570    -3.6500    -1.4890 H     1 <1>   0.0800 
 29 H       -2.0990    -1.1860    -1.4230 H     1 <1>   0.1500 
 30 H        1.2800    -3.2200     1.4530 H     1 <1>   0.0800 
 31 H        2.2960    -4.4690     0.7820 H     1 <1>   0.0800 
 32 H        2.5550    -1.3380     0.3340 H     1 <1>   0.0800 
 33 H        2.8450    -1.3960    -1.3820 H     1 <1>   0.0800 
 34 H       -2.3310    -5.3540     1.1580 H     1 <1>   0.1500 
 35 H        0.3730    -5.4920    -0.3260 H     1 <1>   0.0800 
 36 H        0.0740    -5.3230     1.3810 H     1 <1>   0.0800 
 37 H       -4.2610    -2.0170    -0.6300 H     1 <1>   0.1500 
 38 H        4.3750    -3.3090    -1.0910 H     1 <1>   0.0800 
 39 H        4.0850    -3.2670     0.6310 H     1 <1>   0.0800 
 40 H       -4.3780    -4.1060     0.6660 H     1 <1>   0.1500 
 41 H        4.8800    -0.9260     0.5740 H     1 <1>   0.4500 
 42 H        4.6390    -0.4160    -1.7610 H     1 <1>   0.0800 
 43 H        5.8390    -1.6230    -2.1320 H     1 <1>   0.0800 
 44 H        6.8270    -3.0090    -0.1960 H     1 <1>   0.0800 
 45 H        6.2520    -2.7070     1.4210 H     1 <1>   0.0800 
 46 H        6.2810     0.9500    -0.6130 H     1 <1>   0.0800 
 47 H        6.8970     0.5390    -2.1850 H     1 <1>   0.0800 
 48 H        8.4900    -1.7120     0.9680 H     1 <1>   0.0800 
 49 H        7.3170    -0.5210     1.4440 H     1 <1>   0.0800 
 50 H       10.0120    -0.8110    -1.9510 H     1 <1>   0.1500 
 51 H       10.2540     3.2240     0.8330 H     1 <1>   0.1500 
 52 H       12.0290     0.5900    -1.9700 H     1 <1>   0.1500 
 53 H        6.9830     3.0580     2.3560 H     1 <1>   0.0800 
 54 H        8.0510     3.8820     1.2260 H     1 <1>   0.0800 
 55 H        8.7250     2.9360     2.5660 H     1 <1>   0.0800 
 56 H       12.1320     2.6080    -0.5680 H     1 <1>   0.1500 
@<TRIPOS>BOND
  1   1   2  2   
  2   2   3  1   
  3   2   4  1   
  4   3   5  ar  
  5   3   6  ar  
  6   4   7  1   
  7   4   8  1   
  8   4  28  1   
  9   5   9  ar  
 10   5  10  1   
 11   6  11  ar  
 12   6  29  1   
 13   7  10  1   
 14   7  30  1   
 15   7  31  1   
 16   8  12  1   
 17   8  32  1   
 18   8  33  1   
 19   9  13  ar  
 20   9  34  1   
 21  10  35  1   
 22  10  36  1   
 23  11  13  ar  
 24  11  37  1   
 25  12  14  1   
 26  12  38  1   
 27  12  39  1   
 28  13  40  1   
 29  14  15  1   
 30  14  16  1   
 31  14  41  1   
 32  15  17  1   
 33  15  42  1   
 34  15  43  1   
 35  16  18  1   
 36  16  44  1   
 37  16  45  1   
 38  17  19  1   
 39  17  46  1   
 40  17  47  1   
 41  18  19  1   
 42  18  48  1   
 43  18  49  1   
 44  19  20  1   
 45  20  21  ar  
 46  20  22  ar  
 47  21  23  1   
 48  21  24  ar  
 49  22  25  ar  
 50  22  50  1   
 51  23  26  1   
 52  24  27  ar  
 53  24  51  1   
 54  25  27  ar  
 55  25  52  1   
 56  26  53  1   
 57  26  54  1   
 58  26  55  1   
 59  27  56  1   
@<TRIPOS>SUBSTRUCTURE
  1 ****  14 GROUP 4 **** **** 0

# MOE 2024.06 (io_trps.svl 2023.06)
