@<TRIPOS>MOLECULE
NONAME
50 52 1 0 0 
SMALL
USER_CHARGES


@<TRIPOS>ATOM
  1 O       -1.3430    -0.6120    -1.0850 O.3   1 <1>  -0.5600 
  2 C       -1.8270    -1.2130     0.0870 C.3   1 <1>   0.1200 
  3 C       -2.2570    -0.4840    -2.1360 C.3   1 <1>   0.1200 
  4 C       -2.6030    -0.1900     0.9550 C.3   1 <1>   0.4230 
  5 C       -3.5480     0.2670    -1.7330 C.3   1 <1>  -0.0800 
  6 N       -2.4440     1.1950     0.3710 N.4   1 <1>  -0.9590 
  7 C       -4.0680    -0.6390     1.2170 C.3   1 <1>   0.1100 
  8 C       -4.6500    -0.6730    -1.1990 C.3   1 <1>   0.1100 
  9 C       -3.3110     1.4850    -0.8190 C.3   1 <1>   0.3430 
 10 C       -2.5450     2.2740     1.3920 C.3   1 <1>   0.2630 
 11 N       -5.0720    -0.3170     0.1670 N.3   1 <1>  -0.8100 
 12 C       -6.4250    -0.8260     0.4990 C.3   1 <1>   0.2530 
 13 C       -6.4690    -2.3450     0.5700 C.ar  1 <1>  -0.1440 
 14 C       -6.3330    -3.0140     1.7650 C.ar  1 <1>   0.1600 
 15 C       -6.6490    -3.1230    -0.5510 C.ar  1 <1>   0.1600 
 16 N       -6.3280    -4.3210     1.8440 N.ar  1 <1>  -0.6200 
 17 N       -6.6510    -4.4310    -0.5060 N.ar  1 <1>  -0.6200 
 18 C       -6.4830    -4.9670     0.6980 C.ar  1 <1>   0.7200 
 19 N       -6.4580    -6.3120     0.8150 N.pl3 1 <1>  -0.8690 
 20 C       -6.9660    -7.2700    -0.1670 C.3   1 <1>   0.2890 
 21 C       -8.3750    -7.6740     0.2490 C.3   1 <1>  -0.2400 
 22 C       -6.0250    -8.4680    -0.1760 C.3   1 <1>  -0.2400 
 23 H       -2.4190    -2.0760    -0.1670 H     1 <1>   0.0800 
 24 H       -0.9710    -1.5610     0.6390 H     1 <1>   0.0800 
 25 H       -1.7510     0.0630    -2.9140 H     1 <1>   0.0800 
 26 H       -2.4780    -1.4670    -2.5190 H     1 <1>   0.0800 
 27 H       -2.1150    -0.2060     1.9150 H     1 <1>   0.0800 
 28 H       -3.9460     0.6570    -2.6520 H     1 <1>   0.0800 
 29 H       -1.4890     1.1500    -0.0240 H     1 <1>   0.4500 
 30 H       -4.3900    -0.1810     2.1360 H     1 <1>   0.0800 
 31 H       -4.0540    -1.7010     1.3890 H     1 <1>   0.0800 
 32 H       -4.3360    -1.7040    -1.2330 H     1 <1>   0.0800 
 33 H       -5.5000    -0.5820    -1.8560 H     1 <1>   0.0800 
 34 H       -4.2700     1.8460    -0.4840 H     1 <1>   0.0800 
 35 H       -2.8530     2.2710    -1.3980 H     1 <1>   0.0800 
 36 H       -3.5430     2.3050     1.7990 H     1 <1>   0.0800 
 37 H       -2.3250     3.2310     0.9460 H     1 <1>   0.0800 
 38 H       -1.8460     2.1000     2.1930 H     1 <1>   0.0800 
 39 H       -6.7360    -0.4130     1.4440 H     1 <1>   0.0800 
 40 H       -7.1290    -0.4810    -0.2410 H     1 <1>   0.0800 
 41 H       -6.2180    -2.4640     2.6840 H     1 <1>   0.1500 
 42 H       -6.7900    -2.6630    -1.5130 H     1 <1>   0.1500 
 43 H       -6.4520    -6.6250     1.7810 H     1 <1>   0.4000 
 44 H       -6.9890    -6.8270    -1.1500 H     1 <1>   0.0800 
 45 H       -8.3700    -8.1210     1.2270 H     1 <1>   0.0800 
 46 H       -8.7740    -8.3830    -0.4530 H     1 <1>   0.0800 
 47 H       -9.0130    -6.8090     0.2560 H     1 <1>   0.0800 
 48 H       -5.9860    -8.9300     0.7930 H     1 <1>   0.0800 
 49 H       -5.0370    -8.1500    -0.4590 H     1 <1>   0.0800 
 50 H       -6.3650    -9.1940    -0.8920 H     1 <1>   0.0800 
@<TRIPOS>BOND
  1   1   2  1   
  2   1   3  1   
  3   2   4  1   
  4   2  23  1   
  5   2  24  1   
  6   3   5  1   
  7   3  25  1   
  8   3  26  1   
  9   4   6  1   
 10   4   7  1   
 11   4  27  1   
 12   5   8  1   
 13   5   9  1   
 14   5  28  1   
 15   6   9  1   
 16   6  10  1   
 17   6  29  1   
 18   7  11  1   
 19   7  30  1   
 20   7  31  1   
 21   8  11  1   
 22   8  32  1   
 23   8  33  1   
 24   9  34  1   
 25   9  35  1   
 26  10  36  1   
 27  10  37  1   
 28  10  38  1   
 29  11  12  1   
 30  12  13  1   
 31  12  39  1   
 32  12  40  1   
 33  13  14  ar  
 34  13  15  ar  
 35  14  16  ar  
 36  14  41  1   
 37  15  17  ar  
 38  15  42  1   
 39  16  18  ar  
 40  17  18  ar  
 41  18  19  1   
 42  19  20  1   
 43  19  43  1   
 44  20  21  1   
 45  20  22  1   
 46  20  44  1   
 47  21  45  1   
 48  21  46  1   
 49  21  47  1   
 50  22  48  1   
 51  22  49  1   
 52  22  50  1   
@<TRIPOS>SUBSTRUCTURE
  1 ****  13 GROUP 4 **** **** 0

# MOE 2024.06 (io_trps.svl 2023.06)
