@<TRIPOS>MOLECULE
NONAME
46 50 1 0 0 
SMALL
USER_CHARGES


@<TRIPOS>ATOM
  1 O       -0.1710     1.2800    -1.9370 O.2   1 <1>  -0.5700 
  2 C       -0.4630     1.9670    -0.9760 C.2   1 <1>   0.5440 
  3 N       -1.6900     1.7790    -0.3680 N.am  1 <1>  -0.6600 
  4 C        0.4720     2.9780    -0.5230 C.ar  1 <1>   0.0860 
  5 C       -2.3510     2.7900     0.5160 C.3   1 <1>   0.1400 
  6 C       -2.5810     0.6410    -0.7260 C.3   1 <1>   0.1400 
  7 C        0.8520     3.0670     0.8220 C.ar  1 <1>  -0.1500 
  8 C        1.0200     3.8980    -1.4290 C.ar  1 <1>  -0.1500 
  9 C       -3.5820     3.3940    -0.1860 C.3   1 <1>   0.1440 
 10 C       -3.8330     1.1690    -1.4390 C.3   1 <1>  -0.1600 
 11 C        1.7170     4.0670     1.2080 C.ar  1 <1>   0.0820 
 12 C        1.8950     4.8970    -1.0270 C.ar  1 <1>  -0.1500 
 13 C       -4.2980     4.3620     0.7380 C.ar  1 <1>   0.1660 
 14 C       -4.5450     2.2690    -0.6270 C.3   1 <1>  -0.1600 
 15 C       -3.1780     4.3110    -1.3750 C.3   1 <1>  -0.1600 
 16 O        2.1810     4.3310     2.4340 O.3   1 <1>  -0.3630 
 17 C        2.2240     4.9610     0.3120 C.ar  1 <1>   0.0820 
 18 N       -4.6270     4.1200     1.9860 N.ar  1 <1>  -0.6200 
 19 C       -4.5670     5.5460     0.1160 C.ar  1 <1>  -0.1440 
 20 C       -4.0820     5.5540    -1.3110 C.3   1 <1>  -0.0170 
 21 C        3.0340     5.4680     2.3120 C.3   1 <1>   0.4000 
 22 O        3.0270     5.8280     0.9320 O.3   1 <1>  -0.3630 
 23 C       -5.2330     5.1310     2.5890 C.ar  1 <1>   0.7200 
 24 C       -5.2130     6.5180     0.8420 C.ar  1 <1>   0.1600 
 25 N       -5.5580     6.3170     2.0940 N.ar  1 <1>  -0.6200 
 26 N       -5.5850     4.9210     3.8580 N.pl3 1 <1>  -0.9000 
 27 H       -1.6780     3.5820     0.7860 H     1 <1>   0.0800 
 28 H       -2.6620     2.3040     1.4250 H     1 <1>   0.0800 
 29 H       -2.8640     0.1240     0.1750 H     1 <1>   0.0800 
 30 H       -2.0680    -0.0610    -1.3610 H     1 <1>   0.0800 
 31 H        0.4740     2.3690     1.5460 H     1 <1>   0.1500 
 32 H        0.7470     3.8160    -2.4680 H     1 <1>   0.1500 
 33 H       -4.5110     0.3510    -1.6050 H     1 <1>   0.0800 
 34 H       -3.5420     1.5430    -2.4040 H     1 <1>   0.0800 
 35 H        2.3120     5.6020    -1.7230 H     1 <1>   0.1500 
 36 H       -5.3560     2.6820    -1.2010 H     1 <1>   0.0800 
 37 H       -4.9700     1.8210     0.2550 H     1 <1>   0.0800 
 38 H       -3.2520     3.8180    -2.3270 H     1 <1>   0.0800 
 39 H       -2.1600     4.6330    -1.2470 H     1 <1>   0.0800 
 40 H       -4.9200     5.4500    -1.9790 H     1 <1>   0.0800 
 41 H       -3.5360     6.4520    -1.5430 H     1 <1>   0.0800 
 42 H        4.0330     5.2050     2.6110 H     1 <1>   0.0800 
 43 H        2.6410     6.2790     2.8990 H     1 <1>   0.0800 
 44 H       -5.4480     7.4680     0.3920 H     1 <1>   0.1500 
 45 H       -6.2950     5.5510     4.2180 H     1 <1>   0.4000 
 46 H       -5.6500     3.9460     4.1330 H     1 <1>   0.4000 
@<TRIPOS>BOND
  1   1   2  2   
  2   2   3  am  
  3   2   4  1   
  4   3   5  1   
  5   3   6  1   
  6   4   7  ar  
  7   4   8  ar  
  8   5   9  1   
  9   5  27  1   
 10   5  28  1   
 11   6  10  1   
 12   6  29  1   
 13   6  30  1   
 14   7  11  ar  
 15   7  31  1   
 16   8  12  ar  
 17   8  32  1   
 18   9  13  1   
 19   9  14  1   
 20   9  15  1   
 21  10  14  1   
 22  10  33  1   
 23  10  34  1   
 24  11  16  1   
 25  11  17  ar  
 26  12  17  ar  
 27  12  35  1   
 28  13  18  ar  
 29  13  19  ar  
 30  14  36  1   
 31  14  37  1   
 32  15  20  1   
 33  15  38  1   
 34  15  39  1   
 35  16  21  1   
 36  17  22  1   
 37  18  23  ar  
 38  19  20  1   
 39  19  24  ar  
 40  20  40  1   
 41  20  41  1   
 42  21  22  1   
 43  21  42  1   
 44  21  43  1   
 45  23  25  ar  
 46  23  26  1   
 47  24  25  ar  
 48  24  44  1   
 49  26  45  1   
 50  26  46  1   
@<TRIPOS>SUBSTRUCTURE
  1 ****   5 GROUP 4 **** **** 0

# MOE 2024.06 (io_trps.svl 2023.06)
