@<TRIPOS>MOLECULE
NONAME
19 18 1 0 0 
SMALL
USER_CHARGES


@<TRIPOS>ATOM
  1 N       -7.6500    -1.0700    -0.8250 N.pl3 1 <1>  -0.9560 
  2 C       -7.5650     0.1030    -0.2890 C.cat 1 <1>   1.2070 
  3 N       -6.4070     0.6990    -0.1790 N.pl3 1 <1>  -0.9050 
  4 N       -8.6240     0.7400     0.1300 N.pl3 1 <1>  -0.8310 
  5 C       -5.2300     0.2150     0.1050 C.cat 1 <1>   1.2070 
  6 C      -10.0770     0.3560     0.0710 C.3   1 <1>   0.1140 
  7 N       -4.1950     0.8630    -0.2890 N.pl3 1 <1>  -0.9560 
  8 N       -5.0720    -0.8660     0.7850 N.pl3 1 <1>  -0.9560 
  9 H       -8.5490    -1.5350    -0.9400 H     1 <1>   0.4700 
 10 H       -6.8810    -1.5620    -1.2760 H     1 <1>   0.4700 
 11 H       -6.4230     1.6910    -0.3570 H     1 <1>   0.4700 
 12 H       -8.4880     1.6370     0.6020 H     1 <1>   0.4700 
 13 H      -10.2370    -0.5540    -0.4830 H     1 <1>   0.1060 
 14 H      -10.6490     1.1380    -0.4060 H     1 <1>   0.1060 
 15 H      -10.4690     0.2180     1.0680 H     1 <1>   0.1060 
 16 H       -3.2440     0.5590    -0.0770 H     1 <1>   0.4700 
 17 H       -4.2100     1.7090    -0.8580 H     1 <1>   0.4700 
 18 H       -4.1490    -1.2300     1.0270 H     1 <1>   0.4700 
 19 H       -5.8270    -1.3960     1.2170 H     1 <1>   0.4700 
@<TRIPOS>BOND
  1   1   2  ar  
  2   1   9  1   
  3   1  10  1   
  4   2   3  ar  
  5   2   4  ar  
  6   3   5  ar  
  7   3  11  1   
  8   4   6  1   
  9   4  12  1   
 10   5   7  ar  
 11   5   8  ar  
 12   6  13  1   
 13   6  14  1   
 14   6  15  1   
 15   7  16  1   
 16   7  17  1   
 17   8  18  1   
 18   8  19  1   
@<TRIPOS>SUBSTRUCTURE
  1 ****   3 GROUP 4 **** **** 0

# MOE 2024.06 (io_trps.svl 2023.06)
