@<TRIPOS>MOLECULE
NONAME
50 52 1 0 0 
SMALL
USER_CHARGES


@<TRIPOS>ATOM
  1 S        0.1530    -1.2170    -0.7450 S.o2  1 <1>   1.0900 
  2 O        1.5520    -1.4710    -0.9970 O.2   1 <1>  -0.6500 
  3 O       -0.3380     0.1410    -0.7320 O.2   1 <1>  -0.6500 
  4 C       -0.7930    -2.1670    -1.9410 C.3   1 <1>   0.0890 
  5 C       -0.2490    -1.9540     0.8300 C.3   1 <1>  -0.1350 
  6 C       -2.2450    -2.3790    -1.5360 C.ar  1 <1>  -0.1440 
  7 C       -2.7110    -3.6370    -1.1870 C.ar  1 <1>   0.1600 
  8 C       -3.1200    -1.3110    -1.4910 C.ar  1 <1>  -0.1500 
  9 N       -3.9430    -3.9110    -0.7930 N.ar  1 <1>  -0.6200 
 10 C       -4.4070    -1.5790    -1.0930 C.ar  1 <1>  -0.1500 
 11 C       -4.7780    -2.8750    -0.7540 C.ar  1 <1>   0.4100 
 12 N       -6.0780    -3.1300    -0.3730 N.pl3 1 <1>  -0.8380 
 13 C       -6.2520    -4.0470     0.8030 C.3   1 <1>   0.2090 
 14 C       -7.0220    -3.3640    -1.5180 C.3   1 <1>   0.2090 
 15 C       -6.5250    -5.4550     0.2410 C.3   1 <1>   0.4230 
 16 C       -8.2580    -4.1860    -1.1120 C.3   1 <1>  -0.1600 
 17 N       -6.2490    -6.6390     1.1190 N.4   1 <1>  -0.9590 
 18 C       -7.9620    -5.4930    -0.3070 C.3   1 <1>  -0.1060 
 19 C       -6.3550    -7.9030     0.3410 C.3   1 <1>   0.3430 
 20 C       -4.9870    -6.5480     1.8930 C.3   1 <1>   0.2630 
 21 C       -8.9710    -5.5910     0.8520 C.2   1 <1>   0.9060 
 22 C       -8.0620    -6.7500    -1.2010 C.3   1 <1>  -0.1600 
 23 C       -7.7010    -8.0110    -0.3900 C.3   1 <1>  -0.1600 
 24 O      -10.1730    -5.5630     0.5940 O.co2 1 <1>  -0.9000 
 25 O       -8.5590    -5.7540     2.0120 O.co2 1 <1>  -0.9000 
 26 H       -0.7660    -1.6650    -2.8890 H     1 <1>   0.0800 
 27 H       -0.3230    -3.1220    -2.0780 H     1 <1>   0.0800 
 28 H        0.0070    -2.9950     0.8380 H     1 <1>   0.0800 
 29 H       -1.2960    -1.8490     1.0410 H     1 <1>   0.0800 
 30 H        0.3000    -1.4640     1.6100 H     1 <1>   0.0800 
 31 H       -2.0330    -4.4720    -1.2310 H     1 <1>   0.1500 
 32 H       -2.8150    -0.3080    -1.7490 H     1 <1>   0.1500 
 33 H       -5.1440    -0.8000    -1.0310 H     1 <1>   0.1500 
 34 H       -5.3590    -4.0260     1.3970 H     1 <1>   0.0800 
 35 H       -7.0730    -3.7070     1.4110 H     1 <1>   0.0800 
 36 H       -7.3410    -2.4120    -1.9060 H     1 <1>   0.0800 
 37 H       -6.4990    -3.8810    -2.3050 H     1 <1>   0.0800 
 38 H       -5.8600    -5.5430    -0.6010 H     1 <1>   0.0800 
 39 H       -8.8710    -3.5340    -0.5100 H     1 <1>   0.0800 
 40 H       -8.8450    -4.4130    -1.9840 H     1 <1>   0.0800 
 41 H       -7.0720    -6.5910     1.7790 H     1 <1>   0.4500 
 42 H       -5.5600    -7.9370    -0.3860 H     1 <1>   0.0800 
 43 H       -6.2450    -8.7470     1.0020 H     1 <1>   0.0800 
 44 H       -4.1490    -6.4340     1.2250 H     1 <1>   0.0800 
 45 H       -4.8510    -7.4380     2.4850 H     1 <1>   0.0800 
 46 H       -5.0220    -5.7010     2.5580 H     1 <1>   0.0800 
 47 H       -9.0680    -6.8450    -1.5760 H     1 <1>   0.0800 
 48 H       -7.3990    -6.6550    -2.0440 H     1 <1>   0.0800 
 49 H       -7.6760    -8.8610    -1.0490 H     1 <1>   0.0800 
 50 H       -8.4730    -8.2020     0.3370 H     1 <1>   0.0800 
@<TRIPOS>BOND
  1   1   2  2   
  2   1   3  2   
  3   1   4  1   
  4   1   5  1   
  5   4   6  1   
  6   4  26  1   
  7   4  27  1   
  8   5  28  1   
  9   5  29  1   
 10   5  30  1   
 11   6   7  ar  
 12   6   8  ar  
 13   7   9  ar  
 14   7  31  1   
 15   8  10  ar  
 16   8  32  1   
 17   9  11  ar  
 18  10  11  ar  
 19  10  33  1   
 20  11  12  1   
 21  12  13  1   
 22  12  14  1   
 23  13  15  1   
 24  13  34  1   
 25  13  35  1   
 26  14  16  1   
 27  14  36  1   
 28  14  37  1   
 29  15  17  1   
 30  15  18  1   
 31  15  38  1   
 32  16  18  1   
 33  16  39  1   
 34  16  40  1   
 35  17  19  1   
 36  17  20  1   
 37  17  41  1   
 38  18  21  1   
 39  18  22  1   
 40  19  23  1   
 41  19  42  1   
 42  19  43  1   
 43  20  44  1   
 44  20  45  1   
 45  20  46  1   
 46  21  24  ar  
 47  21  25  ar  
 48  22  23  1   
 49  22  47  1   
 50  22  48  1   
 51  23  49  1   
 52  23  50  1   
@<TRIPOS>SUBSTRUCTURE
  1 ****   9 GROUP 4 **** **** 0

# MOE 2024.06 (io_trps.svl 2023.06)
