@<TRIPOS>MOLECULE
NONAME
40 42 1 0 0 
SMALL
USER_CHARGES


@<TRIPOS>ATOM
  1 O        1.1990     0.6500    -1.2760 O.3   1 <1>  -0.0190 
  2 N        0.5440     1.7700    -1.3300 N.2   1 <1>  -0.4100 
  3 C        1.6580     0.6070    -0.0480 C.2   1 <1>   0.2980 
  4 C        0.6350     2.3160    -0.1810 C.2   1 <1>   0.3350 
  5 N        1.3540     1.6100     0.6820 N.2   1 <1>  -0.5650 
  6 C        2.5190    -0.5880     0.3780 C.3   1 <1>   0.4690 
  7 C        0.0020     3.6450     0.2360 C.3   1 <1>   0.1010 
  8 N        2.0630    -1.9040    -0.1470 N.pl3 1 <1>  -0.8380 
  9 C        3.9550    -0.4600    -0.1400 C.3   1 <1>  -0.1600 
 10 C       -1.3470     3.4030     0.9260 C.3   1 <1>  -0.2400 
 11 C       -0.1750     4.6100    -0.9470 C.3   1 <1>  -0.2400 
 12 C        0.9300    -2.5250     0.3140 C.ar  1 <1>   0.7200 
 13 C        3.1650    -2.6390    -0.8040 C.3   1 <1>   0.2090 
 14 C        4.4240    -1.8920    -0.3850 C.3   1 <1>  -0.1600 
 15 N        0.6480    -3.7100    -0.2080 N.ar  1 <1>  -0.6200 
 16 N        0.2270    -1.8800     1.2410 N.ar  1 <1>  -0.6200 
 17 C       -0.4460    -4.2840     0.2240 C.ar  1 <1>   0.3930 
 18 C       -0.8660    -2.4740     1.6540 C.ar  1 <1>   0.1600 
 19 O       -0.7140    -5.4860    -0.3240 O.3   1 <1>  -0.3630 
 20 C       -1.2580    -3.6940     1.1730 C.ar  1 <1>  -0.1500 
 21 C       -1.8750    -6.2260    -0.0220 C.3   1 <1>   0.0400 
 22 H        2.5380    -0.6350     1.4530 H     1 <1>   0.0800 
 23 H        0.6670     4.1080     0.9440 H     1 <1>   0.0800 
 24 H        3.9490     0.0800    -1.0710 H     1 <1>   0.0800 
 25 H        4.5770     0.0660     0.5610 H     1 <1>   0.0800 
 26 H       -2.0320     2.9300     0.2450 H     1 <1>   0.0800 
 27 H       -1.7710     4.3320     1.2620 H     1 <1>   0.0800 
 28 H       -1.2110     2.7580     1.7760 H     1 <1>   0.0800 
 29 H       -0.8540     4.1950    -1.6710 H     1 <1>   0.0800 
 30 H        0.7720     4.7790    -1.4270 H     1 <1>   0.0800 
 31 H       -0.5630     5.5540    -0.6080 H     1 <1>   0.0800 
 32 H        3.1990    -3.6700    -0.4920 H     1 <1>   0.0800 
 33 H        3.0280    -2.5900    -1.8710 H     1 <1>   0.0800 
 34 H        4.7930    -2.3200     0.5310 H     1 <1>   0.0800 
 35 H        5.1910    -1.9520    -1.1360 H     1 <1>   0.0800 
 36 H       -1.4600    -1.9690     2.3970 H     1 <1>   0.1500 
 37 H       -2.1550    -4.1540     1.5310 H     1 <1>   0.1500 
 38 H       -1.8540    -7.1300    -0.6040 H     1 <1>   0.0800 
 39 H       -2.7410    -5.6430    -0.2840 H     1 <1>   0.0800 
 40 H       -1.8730    -6.4680     1.0260 H     1 <1>   0.0800 
@<TRIPOS>BOND
  1   1   2  1   
  2   1   3  1   
  3   2   4  2   
  4   3   5  2   
  5   3   6  1   
  6   4   5  1   
  7   4   7  1   
  8   6   8  1   
  9   6   9  1   
 10   6  22  1   
 11   7  10  1   
 12   7  11  1   
 13   7  23  1   
 14   8  12  1   
 15   8  13  1   
 16   9  14  1   
 17   9  24  1   
 18   9  25  1   
 19  10  26  1   
 20  10  27  1   
 21  10  28  1   
 22  11  29  1   
 23  11  30  1   
 24  11  31  1   
 25  12  15  ar  
 26  12  16  ar  
 27  13  14  1   
 28  13  32  1   
 29  13  33  1   
 30  14  34  1   
 31  14  35  1   
 32  15  17  ar  
 33  16  18  ar  
 34  17  19  1   
 35  17  20  ar  
 36  18  20  ar  
 37  18  36  1   
 38  19  21  1   
 39  20  37  1   
 40  21  38  1   
 41  21  39  1   
 42  21  40  1   
@<TRIPOS>SUBSTRUCTURE
  1 ****   8 GROUP 4 **** **** 0

# MOE 2024.06 (io_trps.svl 2023.06)
