@<TRIPOS>MOLECULE
NONAME
52 55 1 0 0 
SMALL
USER_CHARGES


@<TRIPOS>ATOM
  1 O       -0.4260     0.6190     1.2470 O.2   1 <1>  -0.5700 
  2 C       -1.4840     1.0850     0.8630 C.2   1 <1>   0.6160 
  3 N       -2.6000     0.2710     0.8630 N.am  1 <1>  -0.6600 
  4 C       -1.5330     2.4590     0.4150 C.2   1 <1>   0.0140 
  5 C       -3.7530     0.5010    -0.0580 C.3   1 <1>   0.1400 
  6 C       -2.5670    -1.0270     1.6020 C.3   1 <1>   0.1400 
  7 C       -2.5600     3.3170     0.7280 C.2   1 <1>  -0.0410 
  8 C       -0.4640     2.9850    -0.3780 C.2   1 <1>  -0.1500 
  9 C       -4.3560    -0.8330    -0.4960 C.3   1 <1>  -0.1600 
 10 C       -3.9830    -1.5000     1.9430 C.3   1 <1>  -0.1600 
 11 N       -2.5790     4.6140     0.2790 N.am  1 <1>  -0.5390 
 12 C       -0.4900     4.2750    -0.8120 C.2   1 <1>  -0.1360 
 13 C       -4.9170    -1.6020     0.7160 C.3   1 <1>   0.4240 
 14 C       -1.5750     5.1330    -0.4890 C.2   1 <1>   0.6160 
 15 O       -6.0960    -0.9400     1.1100 O.3   1 <1>  -0.5600 
 16 C       -5.1780    -3.0820     0.3610 C.ar  1 <1>  -0.1440 
 17 O       -1.6570     6.2920    -0.8570 O.2   1 <1>  -0.5700 
 18 C       -7.2880    -1.2830     0.4710 C.3   1 <1>   0.1200 
 19 C       -6.4560    -3.6220     0.3950 C.ar  1 <1>  -0.1440 
 20 C       -4.1240    -3.9130     0.0020 C.ar  1 <1>  -0.1500 
 21 C       -7.6220    -2.7380     0.7860 C.3   1 <1>  -0.0170 
 22 C       -6.6690    -4.9530     0.0750 C.ar  1 <1>  -0.1500 
 23 C       -4.3150    -5.2470    -0.3150 C.ar  1 <1>   0.0820 
 24 C       -5.6130    -5.7830    -0.2920 C.ar  1 <1>   0.0820 
 25 O       -3.1740    -5.9230    -0.6320 O.3   1 <1>  -0.3620 
 26 O       -5.8210    -7.0870    -0.6420 O.3   1 <1>  -0.3620 
 27 C       -3.0400    -7.3020    -0.3720 C.3   1 <1>   0.0400 
 28 C       -7.1160    -7.6250    -0.8020 C.3   1 <1>   0.0400 
 29 H       -3.4250     1.0450    -0.9270 H     1 <1>   0.0800 
 30 H       -4.5040     1.0830     0.4500 H     1 <1>   0.0800 
 31 H       -2.0020    -0.9080     2.5110 H     1 <1>   0.0800 
 32 H       -2.0640    -1.7590     0.9950 H     1 <1>   0.0800 
 33 H       -3.3810     2.9920     1.3470 H     1 <1>   0.1500 
 34 H        0.3570     2.3270    -0.6110 H     1 <1>   0.1500 
 35 H       -3.5870    -1.4060    -0.9810 H     1 <1>   0.0800 
 36 H       -5.1260    -0.6700    -1.2240 H     1 <1>   0.0800 
 37 H       -4.3900    -0.8080     2.6580 H     1 <1>   0.0800 
 38 H       -3.9200    -2.4550     2.4320 H     1 <1>   0.0800 
 39 H       -3.3250     5.2760     0.5020 H     1 <1>   0.3700 
 40 H        0.2940     4.7010    -1.4080 H     1 <1>   0.1500 
 41 H       -7.1800    -1.1350    -0.5890 H     1 <1>   0.0800 
 42 H       -8.0600    -0.6320     0.8410 H     1 <1>   0.0800 
 43 H       -3.1200    -3.5350    -0.0340 H     1 <1>   0.1500 
 44 H       -8.5060    -3.0220     0.2440 H     1 <1>   0.0800 
 45 H       -7.8200    -2.8400     1.8380 H     1 <1>   0.0800 
 46 H       -7.6730    -5.3270     0.1180 H     1 <1>   0.1500 
 47 H       -1.9920    -7.5420    -0.3690 H     1 <1>   0.0800 
 48 H       -3.5360    -7.8520    -1.1510 H     1 <1>   0.0800 
 49 H       -3.4720    -7.5230     0.5880 H     1 <1>   0.0800 
 50 H       -7.0150    -8.6370    -1.1490 H     1 <1>   0.0800 
 51 H       -7.6490    -7.0410    -1.5320 H     1 <1>   0.0800 
 52 H       -7.6190    -7.6130     0.1480 H     1 <1>   0.0800 
@<TRIPOS>BOND
  1   1   2  2   
  2   2   3  am  
  3   2   4  1   
  4   3   5  1   
  5   3   6  1   
  6   4   7  2   
  7   4   8  1   
  8   5   9  1   
  9   5  29  1   
 10   5  30  1   
 11   6  10  1   
 12   6  31  1   
 13   6  32  1   
 14   7  11  1   
 15   7  33  1   
 16   8  12  2   
 17   8  34  1   
 18   9  13  1   
 19   9  35  1   
 20   9  36  1   
 21  10  13  1   
 22  10  37  1   
 23  10  38  1   
 24  11  14  am  
 25  11  39  1   
 26  12  14  1   
 27  12  40  1   
 28  13  15  1   
 29  13  16  1   
 30  14  17  2   
 31  15  18  1   
 32  16  19  ar  
 33  16  20  ar  
 34  18  21  1   
 35  18  41  1   
 36  18  42  1   
 37  19  21  1   
 38  19  22  ar  
 39  20  23  ar  
 40  20  43  1   
 41  21  44  1   
 42  21  45  1   
 43  22  24  ar  
 44  22  46  1   
 45  23  24  ar  
 46  23  25  1   
 47  24  26  1   
 48  25  27  1   
 49  26  28  1   
 50  27  47  1   
 51  27  48  1   
 52  27  49  1   
 53  28  50  1   
 54  28  51  1   
 55  28  52  1   
@<TRIPOS>SUBSTRUCTURE
  1 ****   9 GROUP 4 **** **** 0

# MOE 2024.06 (io_trps.svl 2023.06)
