@<TRIPOS>MOLECULE
NONAME
40 42 1 0 0 
SMALL
USER_CHARGES


@<TRIPOS>ATOM
  1 O        0.4170    -0.5990    -1.4410 O.3   1 <1>  -0.6800 
  2 C        1.7980    -0.4480    -1.3700 C.3   1 <1>   0.2000 
  3 C        2.3950    -1.4470    -0.3870 C.3   1 <1>  -0.0800 
  4 C        2.1880     0.9090    -0.7950 C.3   1 <1>   0.2090 
  5 C        3.7010    -0.7790     0.0540 C.3   1 <1>   0.2090 
  6 C        2.5890    -2.8530    -0.9790 C.3   1 <1>  -0.0170 
  7 N        3.5090     0.6820    -0.1440 N.pl3 1 <1>  -0.8380 
  8 C        3.1750    -3.8160     0.0420 C.ar  1 <1>   0.1660 
  9 C        4.5970     1.3760    -0.6270 C.ar  1 <1>   0.4100 
 10 N        4.4940    -3.8310     0.1520 N.ar  1 <1>  -0.6200 
 11 C        2.3310    -4.6220     0.8040 C.ar  1 <1>   0.1600 
 12 N        4.8000     1.3160    -1.9280 N.ar  1 <1>  -0.6200 
 13 C        5.4510     2.0790     0.2180 C.ar  1 <1>  -0.1440 
 14 C        4.9080    -4.6980     1.0610 C.ar  1 <1>   0.1600 
 15 N        2.7430    -5.4880     1.7160 N.ar  1 <1>  -0.6200 
 16 C        5.8610     1.9620    -2.3610 C.ar  1 <1>   0.4700 
 17 C        6.5340     2.6980    -0.3660 C.ar  1 <1>   0.1670 
 18 C        5.1680     2.1370     1.7210 C.3   1 <1>  -0.0970 
 19 C        4.0610    -5.4990     1.8180 C.ar  1 <1>   0.1600 
 20 N        6.7460     2.6510    -1.6660 N.ar  1 <1>  -0.6200 
 21 C        7.5660     3.4780     0.4280 C.3   1 <1>  -0.0970 
 22 H        0.1850    -1.3930    -1.9580 H     1 <1>   0.4000 
 23 H        2.2200    -0.5510    -2.3550 H     1 <1>   0.0800 
 24 H        1.7600    -1.5040     0.4800 H     1 <1>   0.0800 
 25 H        1.4790     1.2160    -0.0460 H     1 <1>   0.0800 
 26 H        2.2480     1.6550    -1.5680 H     1 <1>   0.0800 
 27 H        4.5250    -1.1190    -0.5530 H     1 <1>   0.0800 
 28 H        3.9170    -0.9940     1.0870 H     1 <1>   0.0800 
 29 H        3.2450    -2.8040    -1.8320 H     1 <1>   0.0800 
 30 H        1.6420    -3.2310    -1.3190 H     1 <1>   0.0800 
 31 H        1.2690    -4.5470     0.6570 H     1 <1>   0.1500 
 32 H        5.9690    -4.7780     1.2160 H     1 <1>   0.1500 
 33 H        6.0320     1.9220    -3.4230 H     1 <1>   0.1500 
 34 H        5.5970     3.0110     2.1740 H     1 <1>   0.0800 
 35 H        5.5670     1.2600     2.1970 H     1 <1>   0.0800 
 36 H        4.1090     2.1710     1.9010 H     1 <1>   0.0800 
 37 H        4.4930    -6.1740     2.5340 H     1 <1>   0.1500 
 38 H        7.8090     2.9660     1.3400 H     1 <1>   0.0800 
 39 H        7.1830     4.4550     0.6550 H     1 <1>   0.0800 
 40 H        8.4700     3.5870    -0.1440 H     1 <1>   0.0800 
@<TRIPOS>BOND
  1   1   2  1   
  2   1  22  1   
  3   2   3  1   
  4   2   4  1   
  5   2  23  1   
  6   3   5  1   
  7   3   6  1   
  8   3  24  1   
  9   4   7  1   
 10   4  25  1   
 11   4  26  1   
 12   5   7  1   
 13   5  27  1   
 14   5  28  1   
 15   6   8  1   
 16   6  29  1   
 17   6  30  1   
 18   7   9  1   
 19   8  10  ar  
 20   8  11  ar  
 21   9  12  ar  
 22   9  13  ar  
 23  10  14  ar  
 24  11  15  ar  
 25  11  31  1   
 26  12  16  ar  
 27  13  17  ar  
 28  13  18  1   
 29  14  19  ar  
 30  14  32  1   
 31  15  19  ar  
 32  16  20  ar  
 33  16  33  1   
 34  17  20  ar  
 35  17  21  1   
 36  18  34  1   
 37  18  35  1   
 38  18  36  1   
 39  19  37  1   
 40  21  38  1   
 41  21  39  1   
 42  21  40  1   
@<TRIPOS>SUBSTRUCTURE
  1 ****   5 GROUP 4 **** **** 0

# MOE 2024.06 (io_trps.svl 2023.06)
