@<TRIPOS>MOLECULE
NONAME
56 59 1 0 0 
SMALL
USER_CHARGES


@<TRIPOS>ATOM
  1 CL      -0.2510    -0.8130     2.5010 Cl    1 <1>  -0.1770 
  2 C       -0.2470    -2.0010     1.2170 C.ar  1 <1>   0.1770 
  3 C        0.8790    -2.1610     0.4190 C.ar  1 <1>  -0.1440 
  4 C       -1.3820    -2.7610     1.0270 C.ar  1 <1>  -0.1500 
  5 C        0.8390    -3.1130    -0.5890 C.ar  1 <1>  -0.1500 
  6 C        2.1270    -1.3190     0.6370 C.3   1 <1>  -0.0960 
  7 C       -1.4210    -3.7140     0.0200 C.ar  1 <1>   0.1000 
  8 C       -0.2970    -3.8780    -0.7850 C.ar  1 <1>  -0.1500 
  9 N       -2.5730    -4.4720    -0.1670 N.pl3 1 <1>  -0.8380 
 10 C       -2.4310    -5.9390    -0.2630 C.3   1 <1>   0.2090 
 11 C       -3.6120    -3.8810    -1.0320 C.3   1 <1>   0.2090 
 12 C       -3.7550    -6.5680     0.1590 C.3   1 <1>  -0.1600 
 13 C       -4.9580    -4.4750    -0.6260 C.3   1 <1>  -0.1600 
 14 C       -4.9170    -6.0090    -0.6750 C.3   1 <1>   0.4230 
 15 N       -6.2050    -6.5650    -0.1690 N.4   1 <1>  -0.9590 
 16 C       -7.4520    -6.0870    -0.8310 C.3   1 <1>   0.3430 
 17 C       -6.3050    -8.0570    -0.1670 C.3   1 <1>   0.3430 
 18 C       -8.5160    -7.0780    -0.3600 C.3   1 <1>   0.2000 
 19 C       -7.7740    -8.4140    -0.4430 C.3   1 <1>  -0.0800 
 20 O       -8.8040    -6.7830     0.9690 O.3   1 <1>  -0.6800 
 21 C       -8.3050    -9.5470     0.4580 C.3   1 <1>   0.0200 
 22 C       -7.5240   -10.8260     0.2230 C.2   1 <1>  -0.0400 
 23 O       -6.2580   -10.8830     0.5380 O.3   1 <1>  -0.0190 
 24 C       -7.8730   -12.0170    -0.2870 C.2   1 <1>  -0.1500 
 25 N       -5.7360   -12.0360     0.2500 N.2   1 <1>  -0.4100 
 26 C       -6.6880   -12.7460    -0.2420 C.2   1 <1>   0.1080 
 27 C       -6.5300   -14.1770    -0.7060 C.3   1 <1>  -0.0590 
 28 H       -2.2370    -2.6200     1.6590 H     1 <1>   0.1500 
 29 H        1.6930    -3.2620    -1.2260 H     1 <1>   0.1500 
 30 H        2.8960    -1.5780    -0.0680 H     1 <1>   0.0800 
 31 H        2.5070    -1.4770     1.6310 H     1 <1>   0.0800 
 32 H        1.8910    -0.2760     0.5180 H     1 <1>   0.0800 
 33 H       -0.3140    -4.6050    -1.5740 H     1 <1>   0.1500 
 34 H       -2.1800    -6.2160    -1.2730 H     1 <1>   0.0800 
 35 H       -1.6390    -6.2680     0.3910 H     1 <1>   0.0800 
 36 H       -3.6240    -2.8100    -0.9060 H     1 <1>   0.0800 
 37 H       -3.3890    -4.0990    -2.0640 H     1 <1>   0.0800 
 38 H       -3.9070    -6.3530     1.2020 H     1 <1>   0.0800 
 39 H       -3.6670    -7.6310     0.0340 H     1 <1>   0.0800 
 40 H       -5.7010    -4.0900    -1.2980 H     1 <1>   0.0800 
 41 H       -5.1820    -4.1400     0.3710 H     1 <1>   0.0800 
 42 H       -4.7760    -6.3130    -1.7000 H     1 <1>   0.0800 
 43 H       -6.3090    -6.2760     0.8170 H     1 <1>   0.4500 
 44 H       -7.7050    -5.0800    -0.5420 H     1 <1>   0.0800 
 45 H       -7.3490    -6.1450    -1.9020 H     1 <1>   0.0800 
 46 H       -5.6780    -8.4890    -0.9300 H     1 <1>   0.0800 
 47 H       -5.9970    -8.4430     0.7920 H     1 <1>   0.0800 
 48 H       -9.4220    -7.0340    -0.9420 H     1 <1>   0.0800 
 49 H       -7.8270    -8.7560    -1.4630 H     1 <1>   0.0800 
 50 H       -9.6490    -7.1930     1.2550 H     1 <1>   0.4000 
 51 H       -9.3430    -9.7280     0.2390 H     1 <1>   0.0800 
 52 H       -8.2240    -9.2830     1.4980 H     1 <1>   0.0800 
 53 H       -8.8210   -12.3670    -0.6540 H     1 <1>   0.1500 
 54 H       -7.2170   -14.8110    -0.1770 H     1 <1>   0.0800 
 55 H       -5.5280   -14.5180    -0.5160 H     1 <1>   0.0800 
 56 H       -6.7250   -14.2440    -1.7600 H     1 <1>   0.0800 
@<TRIPOS>BOND
  1   1   2  1   
  2   2   3  ar  
  3   2   4  ar  
  4   3   5  ar  
  5   3   6  1   
  6   4   7  ar  
  7   4  28  1   
  8   5   8  ar  
  9   5  29  1   
 10   6  30  1   
 11   6  31  1   
 12   6  32  1   
 13   7   8  ar  
 14   7   9  1   
 15   8  33  1   
 16   9  10  1   
 17   9  11  1   
 18  10  12  1   
 19  10  34  1   
 20  10  35  1   
 21  11  13  1   
 22  11  36  1   
 23  11  37  1   
 24  12  14  1   
 25  12  38  1   
 26  12  39  1   
 27  13  14  1   
 28  13  40  1   
 29  13  41  1   
 30  14  15  1   
 31  14  42  1   
 32  15  16  1   
 33  15  17  1   
 34  15  43  1   
 35  16  18  1   
 36  16  44  1   
 37  16  45  1   
 38  17  19  1   
 39  17  46  1   
 40  17  47  1   
 41  18  19  1   
 42  18  20  1   
 43  18  48  1   
 44  19  21  1   
 45  19  49  1   
 46  20  50  1   
 47  21  22  1   
 48  21  51  1   
 49  21  52  1   
 50  22  23  1   
 51  22  24  2   
 52  23  25  1   
 53  24  26  1   
 54  24  53  1   
 55  25  26  2   
 56  26  27  1   
 57  27  54  1   
 58  27  55  1   
 59  27  56  1   
@<TRIPOS>SUBSTRUCTURE
  1 ****  12 GROUP 4 **** **** 0

# MOE 2024.06 (io_trps.svl 2023.06)
