@<TRIPOS>MOLECULE
NONAME
41 43 1 0 0 
SMALL
USER_CHARGES


@<TRIPOS>ATOM
  1 O       -2.0590     0.4660    -2.0030 O.2   1 <1>  -0.5700 
  2 C       -1.9750     0.6540    -0.8040 C.2   1 <1>   0.7150 
  3 N       -2.0180    -0.4310     0.0190 N.am  1 <1>  -0.7300 
  4 C       -1.8490     1.9780    -0.2380 C.2   1 <1>   0.0550 
  5 C       -2.0910    -1.8490    -0.4000 C.3   1 <1>   0.2200 
  6 O       -1.7880     2.1240     1.0810 O.3   1 <1>  -0.2800 
  7 C       -1.7740     3.2020    -0.8080 C.2   1 <1>   0.0460 
  8 C       -3.4790    -2.4270    -0.1590 C.3   1 <1>  -0.0800 
  9 C       -1.2690    -2.6900     0.5670 C.3   1 <1>   0.1200 
 10 C       -1.6790     3.4300     1.2080 C.2   1 <1>   0.2980 
 11 N       -1.6660     4.1280     0.1370 N.2   1 <1>  -0.5650 
 12 C       -1.7950     3.6310    -2.2620 C.3   1 <1>  -0.0590 
 13 C       -3.4300    -2.8430     1.3160 C.3   1 <1>   0.1200 
 14 C       -4.6640    -1.5120    -0.5200 C.3   1 <1>  -0.0160 
 15 O       -2.0820    -2.8530     1.6890 O.3   1 <1>  -0.5600 
 16 C       -1.5780     3.9970     2.6040 C.3   1 <1>  -0.0600 
 17 C       -5.9860    -2.2390    -0.3290 C.ar  1 <1>  -0.1440 
 18 C       -6.4800    -3.1060    -1.2810 C.ar  1 <1>  -0.1500 
 19 C       -6.7590    -2.0720     0.8030 C.ar  1 <1>  -0.1500 
 20 C       -7.6860    -3.7520    -1.0610 C.ar  1 <1>   0.1600 
 21 C       -7.9510    -2.7670     0.9260 C.ar  1 <1>   0.1600 
 22 N       -8.4320    -3.6050     0.0220 N.ar  1 <1>  -0.6200 
 23 H       -1.9650    -0.2790     1.0290 H     1 <1>   0.3700 
 24 H       -1.7630    -1.9640    -1.4200 H     1 <1>   0.0800 
 25 H       -3.5630    -3.3280    -0.7420 H     1 <1>   0.0800 
 26 H       -0.3440    -2.2180     0.8520 H     1 <1>   0.0800 
 27 H       -1.0730    -3.6650     0.1560 H     1 <1>   0.0800 
 28 H       -1.8750     2.7880    -2.9220 H     1 <1>   0.0800 
 29 H       -0.8900     4.1630    -2.4920 H     1 <1>   0.0800 
 30 H       -2.6310     4.2830    -2.4320 H     1 <1>   0.0800 
 31 H       -3.8440    -3.8260     1.4670 H     1 <1>   0.0800 
 32 H       -3.9360    -2.1340     1.9470 H     1 <1>   0.0800 
 33 H       -4.5740    -1.1990    -1.5460 H     1 <1>   0.0800 
 34 H       -4.6550    -0.6250     0.0890 H     1 <1>   0.0800 
 35 H       -1.4900     5.0670     2.5580 H     1 <1>   0.0800 
 36 H       -0.7130     3.5940     3.0960 H     1 <1>   0.0800 
 37 H       -2.4580     3.7400     3.1630 H     1 <1>   0.0800 
 38 H       -5.9410    -3.2860    -2.1930 H     1 <1>   0.1500 
 39 H       -6.4480    -1.4100     1.5900 H     1 <1>   0.1500 
 40 H       -8.0550    -4.4250    -1.8150 H     1 <1>   0.1500 
 41 H       -8.5410    -2.6250     1.8150 H     1 <1>   0.1500 
@<TRIPOS>BOND
  1   1   2  2   
  2   2   3  am  
  3   2   4  1   
  4   3   5  1   
  5   3  23  1   
  6   4   6  1   
  7   4   7  2   
  8   5   8  1   
  9   5   9  1   
 10   5  24  1   
 11   6  10  1   
 12   7  11  1   
 13   7  12  1   
 14   8  13  1   
 15   8  14  1   
 16   8  25  1   
 17   9  15  1   
 18   9  26  1   
 19   9  27  1   
 20  10  11  2   
 21  10  16  1   
 22  12  28  1   
 23  12  29  1   
 24  12  30  1   
 25  13  15  1   
 26  13  31  1   
 27  13  32  1   
 28  14  17  1   
 29  14  33  1   
 30  14  34  1   
 31  16  35  1   
 32  16  36  1   
 33  16  37  1   
 34  17  18  ar  
 35  17  19  ar  
 36  18  20  ar  
 37  18  38  1   
 38  19  21  ar  
 39  19  39  1   
 40  20  22  ar  
 41  20  40  1   
 42  21  22  ar  
 43  21  41  1   
@<TRIPOS>SUBSTRUCTURE
  1 ****   3 GROUP 4 **** **** 0

# MOE 2024.06 (io_trps.svl 2023.06)
