@<TRIPOS>MOLECULE
NONAME
50 53 1 0 0 
SMALL
USER_CHARGES


@<TRIPOS>ATOM
  1 O       -1.3490     0.1600     0.9680 O.2   1 <1>  -0.5700 
  2 C       -2.1620     1.0680     0.9870 C.2   1 <1>   0.5440 
  3 N       -3.4860     0.7380     1.1710 N.am  1 <1>  -0.6600 
  4 C       -1.7360     2.4400     0.7890 C.ar  1 <1>   0.0860 
  5 C       -3.8560    -0.6140     1.6780 C.3   1 <1>   0.1400 
  6 C       -4.5720     1.3790     0.3750 C.3   1 <1>   0.1400 
  7 C       -0.7210     2.7520    -0.1170 C.ar  1 <1>  -0.1500 
  8 C       -2.3220     3.4960     1.4940 C.ar  1 <1>  -0.1500 
  9 C       -4.1110    -1.5370     0.4650 C.3   1 <1>   0.4230 
 10 C       -4.9000     0.4730    -0.8230 C.3   1 <1>  -0.1600 
 11 C       -0.3220     4.0580    -0.3250 C.ar  1 <1>   0.0830 
 12 C       -1.9250     4.8070     1.2990 C.ar  1 <1>  -0.1500 
 13 N       -4.3700    -2.9740     0.8200 N.4   1 <1>  -0.9590 
 14 C       -5.2720    -0.9740    -0.3850 C.3   1 <1>  -0.1060 
 15 O        0.6500     4.3100    -1.2380 O.3   1 <1>  -0.3620 
 16 C       -0.9210     5.0950     0.3930 C.ar  1 <1>   0.0830 
 17 C       -4.4860    -3.8300    -0.3870 C.3   1 <1>   0.3430 
 18 C       -3.4470    -3.5470     1.8350 C.3   1 <1>   0.2630 
 19 C       -6.5510    -0.9700     0.4750 C.2   1 <1>   0.9060 
 20 C       -5.4610    -1.8440    -1.6500 C.3   1 <1>  -0.1600 
 21 C        0.8070     5.6530    -1.6560 C.3   1 <1>   0.1200 
 22 O       -0.5320     6.3800     0.2260 O.3   1 <1>  -0.3630 
 23 C       -5.6140    -3.3310    -1.2930 C.3   1 <1>  -0.1600 
 24 O       -6.7070    -1.8640     1.3240 O.co2 1 <1>  -0.9000 
 25 O       -7.3830    -0.0770     0.3230 O.co2 1 <1>  -0.9000 
 26 C        0.6870     6.6030    -0.4560 C.3   1 <1>   0.1200 
 27 H       -3.0500    -0.9900     2.2800 H     1 <1>   0.0800 
 28 H       -4.7330    -0.5340     2.2980 H     1 <1>   0.0800 
 29 H       -5.4450     1.5100     0.9950 H     1 <1>   0.0800 
 30 H       -4.2700     2.3480     0.0180 H     1 <1>   0.0800 
 31 H       -0.2410     1.9630    -0.6670 H     1 <1>   0.1500 
 32 H       -3.1000     3.2800     2.2060 H     1 <1>   0.1500 
 33 H       -3.2150    -1.5040    -0.1320 H     1 <1>   0.0800 
 34 H       -5.7220     0.9080    -1.3650 H     1 <1>   0.0800 
 35 H       -4.0510     0.4600    -1.4830 H     1 <1>   0.0800 
 36 H       -2.3850     5.6090     1.8480 H     1 <1>   0.1500 
 37 H       -5.3430    -2.9020     1.2260 H     1 <1>   0.4500 
 38 H       -3.5550    -3.8140    -0.9290 H     1 <1>   0.0800 
 39 H       -4.6940    -4.8460    -0.0940 H     1 <1>   0.0800 
 40 H       -2.4300    -3.5040     1.4800 H     1 <1>   0.0800 
 41 H       -3.7080    -4.5720     2.0360 H     1 <1>   0.0800 
 42 H       -3.5190    -2.9930     2.7570 H     1 <1>   0.0800 
 43 H       -6.3370    -1.5120    -2.1830 H     1 <1>   0.0800 
 44 H       -4.6140    -1.7270    -2.3030 H     1 <1>   0.0800 
 45 H        1.7720     5.7440    -2.1210 H     1 <1>   0.0800 
 46 H        0.0430     5.8690    -2.3810 H     1 <1>   0.0800 
 47 H       -5.6270    -3.9150    -2.1950 H     1 <1>   0.0800 
 48 H       -6.5570    -3.4910    -0.7970 H     1 <1>   0.0800 
 49 H        0.7050     7.6290    -0.7760 H     1 <1>   0.0800 
 50 H        1.4930     6.4340     0.2360 H     1 <1>   0.0800 
@<TRIPOS>BOND
  1   1   2  2   
  2   2   3  am  
  3   2   4  1   
  4   3   5  1   
  5   3   6  1   
  6   4   7  ar  
  7   4   8  ar  
  8   5   9  1   
  9   5  27  1   
 10   5  28  1   
 11   6  10  1   
 12   6  29  1   
 13   6  30  1   
 14   7  11  ar  
 15   7  31  1   
 16   8  12  ar  
 17   8  32  1   
 18   9  13  1   
 19   9  14  1   
 20   9  33  1   
 21  10  14  1   
 22  10  34  1   
 23  10  35  1   
 24  11  15  1   
 25  11  16  ar  
 26  12  16  ar  
 27  12  36  1   
 28  13  17  1   
 29  13  18  1   
 30  13  37  1   
 31  14  19  1   
 32  14  20  1   
 33  15  21  1   
 34  16  22  1   
 35  17  23  1   
 36  17  38  1   
 37  17  39  1   
 38  18  40  1   
 39  18  41  1   
 40  18  42  1   
 41  19  24  ar  
 42  19  25  ar  
 43  20  23  1   
 44  20  43  1   
 45  20  44  1   
 46  21  26  1   
 47  21  45  1   
 48  21  46  1   
 49  22  26  1   
 50  23  47  1   
 51  23  48  1   
 52  26  49  1   
 53  26  50  1   
@<TRIPOS>SUBSTRUCTURE
  1 ****   3 GROUP 4 **** **** 0

# MOE 2024.06 (io_trps.svl 2023.06)
