@<TRIPOS>MOLECULE
NONAME
51 54 1 0 0 
SMALL
USER_CHARGES


@<TRIPOS>ATOM
  1 O        0.7370     0.2570    -0.8610 O.3   1 <1>  -0.6800 
  2 C        2.0460     0.0110    -1.2540 C.3   1 <1>   0.2000 
  3 C        2.6120    -1.1980    -0.5110 C.3   1 <1>  -0.0800 
  4 C        2.9680     1.1700    -0.8830 C.3   1 <1>   0.2090 
  5 C        4.1180    -0.9310    -0.4200 C.3   1 <1>   0.2090 
  6 C        2.2800    -2.5350    -1.1920 C.3   1 <1>   0.0210 
  7 N        4.2790     0.5300    -0.6090 N.pl3 1 <1>  -0.8380 
  8 C        2.9030    -3.6950    -0.4440 C.2   1 <1>   0.1080 
  9 C        5.3740     1.2300    -0.1650 C.ar  1 <1>   0.7200 
 10 N        2.4830    -4.0790     0.7200 N.2   1 <1>  -0.7070 
 11 C        3.9750    -4.4570    -0.8960 C.2   1 <1>  -0.1500 
 12 N        5.2650     2.5520    -0.1340 N.ar  1 <1>  -0.6200 
 13 N        6.4410     0.5140     0.1820 N.ar  1 <1>  -0.6200 
 14 N        3.2860    -5.1080     1.0490 N.pl3 1 <1>   0.3000 
 15 C        4.1980    -5.3570     0.0850 C.2   1 <1>  -0.3320 
 16 C        6.3180     3.2250     0.2850 C.ar  1 <1>   0.3100 
 17 C        7.4760     1.1960     0.6010 C.ar  1 <1>   0.1600 
 18 C        5.2450    -6.4530     0.1640 C.3   1 <1>  -0.0600 
 19 C        6.2520     4.6660     0.3390 C.ar  1 <1>   0.0000 
 20 C        7.4650     2.5640     0.6730 C.ar  1 <1>  -0.1500 
 21 C        6.9190     5.4900    -0.5750 C.ar  1 <1>   0.1670 
 22 C        5.5180     5.2840     1.3390 C.ar  1 <1>  -0.1500 
 23 N        6.9310     6.8120    -0.5280 N.ar  1 <1>  -0.6200 
 24 C        7.7070     4.8930    -1.7290 C.3   1 <1>  -0.0970 
 25 C        5.5130     6.6590     1.3860 C.ar  1 <1>  -0.1500 
 26 C        6.2320     7.3730     0.4420 C.ar  1 <1>   0.1670 
 27 C        6.2480     8.8860     0.4770 C.3   1 <1>  -0.0970 
 28 H        0.2080    -0.5630    -0.9010 H     1 <1>   0.4000 
 29 H        2.0670    -0.1370    -2.3200 H     1 <1>   0.0800 
 30 H        2.2330    -1.2050     0.4970 H     1 <1>   0.0800 
 31 H        2.6200     1.6610     0.0100 H     1 <1>   0.0800 
 32 H        3.0540     1.8770    -1.6890 H     1 <1>   0.0800 
 33 H        4.6530    -1.4410    -1.2030 H     1 <1>   0.0800 
 34 H        4.5040    -1.2450     0.5350 H     1 <1>   0.0800 
 35 H        2.6360    -2.5330    -2.2070 H     1 <1>   0.0800 
 36 H        1.2150    -2.6780    -1.2120 H     1 <1>   0.0800 
 37 H        4.4960    -4.3340    -1.8280 H     1 <1>   0.1500 
 38 H        3.1870    -5.6160     1.9360 H     1 <1>   0.2700 
 39 H        8.3550     0.6470     0.8950 H     1 <1>   0.1500 
 40 H        5.8510    -6.4490    -0.7240 H     1 <1>   0.0800 
 41 H        4.7710    -7.4150     0.2500 H     1 <1>   0.0800 
 42 H        5.8830    -6.2970     1.0150 H     1 <1>   0.0800 
 43 H        8.3190     3.1120     1.0210 H     1 <1>   0.1500 
 44 H        4.9690     4.6960     2.0540 H     1 <1>   0.1500 
 45 H        7.2600     3.9790    -2.0740 H     1 <1>   0.0800 
 46 H        8.7170     4.7030    -1.4190 H     1 <1>   0.0800 
 47 H        7.7250     5.5830    -2.5540 H     1 <1>   0.0800 
 48 H        4.9550     7.1700     2.1480 H     1 <1>   0.1500 
 49 H        5.6610     9.2640     1.2930 H     1 <1>   0.0800 
 50 H        5.8510     9.2680    -0.4450 H     1 <1>   0.0800 
 51 H        7.2600     9.2310     0.5860 H     1 <1>   0.0800 
@<TRIPOS>BOND
  1   1   2  1   
  2   1  28  1   
  3   2   3  1   
  4   2   4  1   
  5   2  29  1   
  6   3   5  1   
  7   3   6  1   
  8   3  30  1   
  9   4   7  1   
 10   4  31  1   
 11   4  32  1   
 12   5   7  1   
 13   5  33  1   
 14   5  34  1   
 15   6   8  1   
 16   6  35  1   
 17   6  36  1   
 18   7   9  1   
 19   8  10  2   
 20   8  11  1   
 21   9  12  ar  
 22   9  13  ar  
 23  10  14  1   
 24  11  15  2   
 25  11  37  1   
 26  12  16  ar  
 27  13  17  ar  
 28  14  15  1   
 29  14  38  1   
 30  15  18  1   
 31  16  19  1   
 32  16  20  ar  
 33  17  20  ar  
 34  17  39  1   
 35  18  40  1   
 36  18  41  1   
 37  18  42  1   
 38  19  21  ar  
 39  19  22  ar  
 40  20  43  1   
 41  21  23  ar  
 42  21  24  1   
 43  22  25  ar  
 44  22  44  1   
 45  23  26  ar  
 46  24  45  1   
 47  24  46  1   
 48  24  47  1   
 49  25  26  ar  
 50  25  48  1   
 51  26  27  1   
 52  27  49  1   
 53  27  50  1   
 54  27  51  1   
@<TRIPOS>SUBSTRUCTURE
  1 ****   9 GROUP 4 **** **** 0

# MOE 2024.06 (io_trps.svl 2023.06)
