@<TRIPOS>MOLECULE
NONAME
48 49 1 0 0 
SMALL
USER_CHARGES


@<TRIPOS>ATOM
  1 O        4.0860    -0.6340    -0.0870 O.2   1 <1>  -0.5700 
  2 C        2.9000    -0.8250    -0.2380 C.2   1 <1>   0.5690 
  3 N        1.9670     0.1680    -0.1130 N.am  1 <1>  -0.4930 
  4 C        2.4430    -2.2460    -0.5910 C.3   1 <1>   0.2370 
  5 C        2.1210     1.5110     0.3120 C.2   1 <1>   0.0630 
  6 N        0.9570    -2.3040    -0.6840 N.pl3 1 <1>   0.0480 
  7 C        2.9860    -3.3040     0.3980 C.3   1 <1>  -0.1600 
  8 C        1.3100     2.1580     1.2450 C.2   1 <1>   0.1080 
  9 C        3.0200     2.4450    -0.0690 C.2   1 <1>  -0.3320 
 10 C        0.2310    -2.2490    -1.8340 C.2   1 <1>  -0.3020 
 11 C        0.0630    -2.2670     0.3460 C.2   1 <1>  -0.3020 
 12 C        2.5900    -4.7440     0.0300 C.3   1 <1>  -0.1600 
 13 N        1.6690     3.3860     1.4450 N.2   1 <1>  -0.7070 
 14 C        0.1380     1.5300     1.9660 C.3   1 <1>  -0.0590 
 15 N        2.7330     3.5670     0.6400 N.pl3 1 <1>   0.3140 
 16 C        4.1500     2.3420    -1.0850 C.3   1 <1>  -0.0600 
 17 C       -1.0930    -2.1870    -1.5390 C.2   1 <1>  -0.1500 
 18 C       -1.2000    -2.1980    -0.1460 C.2   1 <1>  -0.1500 
 19 C        3.2150    -5.7480     1.0020 C.3   1 <1>  -0.2400 
 20 C        3.4440     4.8610     0.6030 C.3   1 <1>   0.0960 
 21 C        2.8290     5.7970    -0.4480 C.3   1 <1>  -0.1600 
 22 C        3.5720     7.1370    -0.5070 C.3   1 <1>  -0.2400 
 23 H        0.9930    -0.1290    -0.2250 H     1 <1>   0.3700 
 24 H        2.8370    -2.4680    -1.5650 H     1 <1>   0.0800 
 25 H        2.6510    -3.0710     1.3930 H     1 <1>   0.0800 
 26 H        4.0610    -3.2360     0.4040 H     1 <1>   0.0800 
 27 H        0.6890    -2.2540    -2.8080 H     1 <1>   0.1500 
 28 H        0.3680    -2.2920     1.3780 H     1 <1>   0.1500 
 29 H        2.9200    -4.9690    -0.9700 H     1 <1>   0.0800 
 30 H        1.5180    -4.8540     0.0590 H     1 <1>   0.0800 
 31 H        0.4270     0.5820     2.3790 H     1 <1>   0.0800 
 32 H       -0.6760     1.3910     1.2800 H     1 <1>   0.0800 
 33 H       -0.1840     2.1740     2.7640 H     1 <1>   0.0800 
 34 H        4.0530     1.4430    -1.6650 H     1 <1>   0.0800 
 35 H        5.0970     2.3180    -0.5770 H     1 <1>   0.0800 
 36 H        4.1290     3.1780    -1.7600 H     1 <1>   0.0800 
 37 H       -1.9230    -2.1370    -2.2240 H     1 <1>   0.1500 
 38 H       -2.1260    -2.1610     0.4040 H     1 <1>   0.1500 
 39 H        4.2890    -5.6830     0.9740 H     1 <1>   0.0800 
 40 H        2.9270    -6.7490     0.7320 H     1 <1>   0.0800 
 41 H        2.8820    -5.5570     2.0070 H     1 <1>   0.0800 
 42 H        4.4800     4.6800     0.3890 H     1 <1>   0.0800 
 43 H        3.3700     5.3070     1.5780 H     1 <1>   0.0800 
 44 H        1.7960     5.9740    -0.1970 H     1 <1>   0.0800 
 45 H        2.8670     5.3270    -1.4150 H     1 <1>   0.0800 
 46 H        3.5260     7.6340     0.4460 H     1 <1>   0.0800 
 47 H        3.1180     7.7740    -1.2460 H     1 <1>   0.0800 
 48 H        4.6030     6.9860    -0.7730 H     1 <1>   0.0800 
@<TRIPOS>BOND
  1   1   2  2   
  2   2   3  am  
  3   2   4  1   
  4   3   5  1   
  5   3  23  1   
  6   4   6  1   
  7   4   7  1   
  8   4  24  1   
  9   5   8  1   
 10   5   9  2   
 11   6  10  1   
 12   6  11  1   
 13   7  12  1   
 14   7  25  1   
 15   7  26  1   
 16   8  13  2   
 17   8  14  1   
 18   9  15  1   
 19   9  16  1   
 20  10  17  2   
 21  10  27  1   
 22  11  18  2   
 23  11  28  1   
 24  12  19  1   
 25  12  29  1   
 26  12  30  1   
 27  13  15  1   
 28  14  31  1   
 29  14  32  1   
 30  14  33  1   
 31  15  20  1   
 32  16  34  1   
 33  16  35  1   
 34  16  36  1   
 35  17  18  1   
 36  17  37  1   
 37  18  38  1   
 38  19  39  1   
 39  19  40  1   
 40  19  41  1   
 41  20  21  1   
 42  20  42  1   
 43  20  43  1   
 44  21  22  1   
 45  21  44  1   
 46  21  45  1   
 47  22  46  1   
 48  22  47  1   
 49  22  48  1   
@<TRIPOS>SUBSTRUCTURE
  1 ****   3 GROUP 4 **** **** 0

# MOE 2024.06 (io_trps.svl 2023.06)
