@<TRIPOS>MOLECULE
NONAME
48 49 1 0 0 
SMALL
USER_CHARGES


@<TRIPOS>ATOM
  1 F       -3.4770    -0.2600     1.6300 F     1 <1>  -0.1900 
  2 C       -3.0190     0.5480     0.7080 C.ar  1 <1>   0.1900 
  3 C       -2.9180     1.9010     0.9870 C.ar  1 <1>   0.1900 
  4 C       -2.6490     0.0350    -0.5320 C.ar  1 <1>   0.0860 
  5 F       -3.2850     2.3610     2.1550 F     1 <1>  -0.1900 
  6 C       -2.4370     2.7930     0.0490 C.ar  1 <1>  -0.1500 
  7 C       -2.7500    -1.3710    -0.8510 C.2   1 <1>   0.5440 
  8 C       -2.1550     0.9480    -1.4690 C.ar  1 <1>  -0.1500 
  9 C       -2.0510     2.3030    -1.1900 C.ar  1 <1>  -0.1500 
 10 O       -1.7280    -1.9870    -1.0870 O.2   1 <1>  -0.5700 
 11 N       -3.9600    -2.0280    -0.9310 N.am  1 <1>  -0.6600 
 12 C       -5.3000    -1.3830    -0.7960 C.3   1 <1>   0.1400 
 13 C       -4.0480    -3.5160    -1.0520 C.3   1 <1>   0.1400 
 14 C       -6.1230    -2.0680     0.3160 C.3   1 <1>   0.2000 
 15 C       -4.9580    -4.1010     0.0490 C.3   1 <1>   0.2000 
 16 O       -6.1930    -3.4430     0.0510 O.3   1 <1>  -0.5600 
 17 C       -7.5650    -1.5210     0.4380 C.3   1 <1>  -0.0800 
 18 C       -5.2540    -5.5940    -0.1420 C.3   1 <1>  -0.1600 
 19 C       -7.5900    -0.0150     0.7560 C.3   1 <1>  -0.2400 
 20 C       -8.3570    -2.2640     1.5270 C.3   1 <1>  -0.2400 
 21 C       -4.0020    -6.4770    -0.0200 C.3   1 <1>  -0.1600 
 22 C       -4.3650    -7.9630    -0.1230 C.3   1 <1>  -0.1600 
 23 C       -3.1190    -8.8450    -0.0050 C.3   1 <1>  -0.2400 
 24 H       -2.3640     3.8410     0.2830 H     1 <1>   0.1500 
 25 H       -1.8440     0.5760    -2.4320 H     1 <1>   0.1500 
 26 H       -1.6660     2.9780    -1.9370 H     1 <1>   0.1500 
 27 H       -5.1950    -0.3380    -0.5800 H     1 <1>   0.0800 
 28 H       -5.8290    -1.4740    -1.7280 H     1 <1>   0.0800 
 29 H       -4.4470    -3.7680    -2.0180 H     1 <1>   0.0800 
 30 H       -3.0700    -3.9550    -0.9730 H     1 <1>   0.0800 
 31 H       -5.6220    -1.9380     1.2610 H     1 <1>   0.0800 
 32 H       -4.5000    -3.9510     1.0120 H     1 <1>   0.0800 
 33 H       -8.0620    -1.6740    -0.5050 H     1 <1>   0.0800 
 34 H       -5.9620    -5.8920     0.6120 H     1 <1>   0.0800 
 35 H       -5.7080    -5.7440    -1.1060 H     1 <1>   0.0800 
 36 H       -7.0330     0.1910     1.6540 H     1 <1>   0.0800 
 37 H       -8.6030     0.3160     0.9020 H     1 <1>   0.0800 
 38 H       -7.1750     0.5600    -0.0510 H     1 <1>   0.0800 
 39 H       -7.8790    -2.1570     2.4840 H     1 <1>   0.0800 
 40 H       -8.4210    -3.3130     1.2950 H     1 <1>   0.0800 
 41 H       -9.3590    -1.8790     1.5950 H     1 <1>   0.0800 
 42 H       -3.3020    -6.2340    -0.8000 H     1 <1>   0.0800 
 43 H       -3.5250    -6.2930     0.9280 H     1 <1>   0.0800 
 44 H       -5.0570    -8.2230     0.6590 H     1 <1>   0.0800 
 45 H       -4.8440    -8.1530    -1.0690 H     1 <1>   0.0800 
 46 H       -2.6350    -8.6860     0.9430 H     1 <1>   0.0800 
 47 H       -2.4210    -8.6180    -0.7920 H     1 <1>   0.0800 
 48 H       -3.3930    -9.8820    -0.0790 H     1 <1>   0.0800 
@<TRIPOS>BOND
  1   1   2  1   
  2   2   3  ar  
  3   2   4  ar  
  4   3   5  1   
  5   3   6  ar  
  6   4   7  1   
  7   4   8  ar  
  8   6   9  ar  
  9   6  24  1   
 10   7  10  2   
 11   7  11  am  
 12   8   9  ar  
 13   8  25  1   
 14   9  26  1   
 15  11  12  1   
 16  11  13  1   
 17  12  14  1   
 18  12  27  1   
 19  12  28  1   
 20  13  15  1   
 21  13  29  1   
 22  13  30  1   
 23  14  16  1   
 24  14  17  1   
 25  14  31  1   
 26  15  16  1   
 27  15  18  1   
 28  15  32  1   
 29  17  19  1   
 30  17  20  1   
 31  17  33  1   
 32  18  21  1   
 33  18  34  1   
 34  18  35  1   
 35  19  36  1   
 36  19  37  1   
 37  19  38  1   
 38  20  39  1   
 39  20  40  1   
 40  20  41  1   
 41  21  22  1   
 42  21  42  1   
 43  21  43  1   
 44  22  23  1   
 45  22  44  1   
 46  22  45  1   
 47  23  46  1   
 48  23  47  1   
 49  23  48  1   
@<TRIPOS>SUBSTRUCTURE
  1 ****  11 GROUP 4 **** **** 0

# MOE 2024.06 (io_trps.svl 2023.06)
