@<TRIPOS>MOLECULE
NONAME
50 52 1 0 0 
SMALL
USER_CHARGES


@<TRIPOS>ATOM
  1 F       -0.5420     0.8850     0.2270 F     1 <1>  -0.3400 
  2 C       -1.8380     1.1260     0.0640 C.3   1 <1>   1.3000 
  3 F       -2.4140     1.1400     1.2610 F     1 <1>  -0.3400 
  4 F       -1.9600     2.3380    -0.4580 F     1 <1>  -0.3400 
  5 O       -2.4370     0.1690    -0.7870 O.3   1 <1>  -0.3630 
  6 C       -2.4420    -1.1170    -0.3760 C.ar  1 <1>   0.0830 
  7 C       -1.3680    -1.9420    -0.6680 C.ar  1 <1>  -0.1500 
  8 C       -3.5330    -1.6150     0.3180 C.ar  1 <1>  -0.1500 
  9 C       -1.3810    -3.2620    -0.2540 C.ar  1 <1>  -0.1500 
 10 C       -3.5440    -2.9350     0.7320 C.ar  1 <1>  -0.1500 
 11 C       -2.4680    -3.7670     0.4470 C.ar  1 <1>  -0.1430 
 12 C       -2.4770    -5.2220     0.8880 C.3   1 <1>   0.4870 
 13 N       -3.6460    -5.9300     0.3030 N.4   1 <1>  -0.9590 
 14 C       -3.7980    -7.3690     0.7390 C.3   1 <1>   0.3430 
 15 C       -3.8620    -5.7150    -1.1530 C.3   1 <1>   0.3430 
 16 C       -4.9120    -8.1600    -0.0370 C.3   1 <1>   0.4230 
 17 C       -5.2710    -6.1960    -1.5530 C.3   1 <1>  -0.1600 
 18 N       -5.5710    -9.2530     0.7680 N.4   1 <1>  -0.9590 
 19 C       -5.9750    -7.1660    -0.5450 C.3   1 <1>  -0.1060 
 20 C       -6.5690   -10.0260    -0.0220 C.3   1 <1>   0.3430 
 21 C       -4.6760   -10.1550     1.5490 C.3   1 <1>   0.2630 
 22 C       -6.4530    -6.4340     0.7260 C.2   1 <1>   0.9060 
 23 C       -7.1290    -7.8900    -1.2880 C.3   1 <1>  -0.1600 
 24 C       -7.6780    -9.0920    -0.5060 C.3   1 <1>  -0.1600 
 25 O       -6.1690    -5.2420     0.8650 O.co2 1 <1>  -0.9000 
 26 O       -6.8140    -7.1140     1.6910 O.co2 1 <1>  -0.9000 
 27 H       -0.5280    -1.5510    -1.2160 H     1 <1>   0.1500 
 28 H       -4.3720    -0.9760     0.5340 H     1 <1>   0.1500 
 29 H       -0.5330    -3.8850    -0.4860 H     1 <1>   0.1500 
 30 H       -4.4060    -3.3000     1.2720 H     1 <1>   0.1500 
 31 H       -2.5290    -5.2600     1.9640 H     1 <1>   0.0800 
 32 H       -1.5630    -5.6970     0.5730 H     1 <1>   0.0800 
 33 H       -4.4810    -5.4260     0.7110 H     1 <1>   0.4500 
 34 H       -2.8610    -7.8840     0.6170 H     1 <1>   0.0800 
 35 H       -4.0590    -7.3700     1.7850 H     1 <1>   0.0800 
 36 H       -3.7730    -4.6660    -1.3930 H     1 <1>   0.0800 
 37 H       -3.1150    -6.2510    -1.7140 H     1 <1>   0.0800 
 38 H       -4.4500    -8.6140    -0.8970 H     1 <1>   0.0800 
 39 H       -5.8960    -5.3290    -1.6910 H     1 <1>   0.0800 
 40 H       -5.1840    -6.6550    -2.5220 H     1 <1>   0.0800 
 41 H       -6.1650    -8.6940     1.4450 H     1 <1>   0.4500 
 42 H       -6.0880   -10.4920    -0.8670 H     1 <1>   0.0800 
 43 H       -7.0060   -10.7970     0.5920 H     1 <1>   0.0800 
 44 H       -4.0350   -10.7150     0.8880 H     1 <1>   0.0800 
 45 H       -5.2680   -10.8490     2.1250 H     1 <1>   0.0800 
 46 H       -4.0700    -9.5860     2.2340 H     1 <1>   0.0800 
 47 H       -7.9290    -7.1920    -1.4730 H     1 <1>   0.0800 
 48 H       -6.7850    -8.2470    -2.2440 H     1 <1>   0.0800 
 49 H       -8.3550    -9.6460    -1.1340 H     1 <1>   0.0800 
 50 H       -8.2480    -8.7520     0.3420 H     1 <1>   0.0800 
@<TRIPOS>BOND
  1   1   2  1   
  2   2   3  1   
  3   2   4  1   
  4   2   5  1   
  5   5   6  1   
  6   6   7  ar  
  7   6   8  ar  
  8   7   9  ar  
  9   7  27  1   
 10   8  10  ar  
 11   8  28  1   
 12   9  11  ar  
 13   9  29  1   
 14  10  11  ar  
 15  10  30  1   
 16  11  12  1   
 17  12  13  1   
 18  12  31  1   
 19  12  32  1   
 20  13  14  1   
 21  13  15  1   
 22  13  33  1   
 23  14  16  1   
 24  14  34  1   
 25  14  35  1   
 26  15  17  1   
 27  15  36  1   
 28  15  37  1   
 29  16  18  1   
 30  16  19  1   
 31  16  38  1   
 32  17  19  1   
 33  17  39  1   
 34  17  40  1   
 35  18  20  1   
 36  18  21  1   
 37  18  41  1   
 38  19  22  1   
 39  19  23  1   
 40  20  24  1   
 41  20  42  1   
 42  20  43  1   
 43  21  44  1   
 44  21  45  1   
 45  21  46  1   
 46  22  25  ar  
 47  22  26  ar  
 48  23  24  1   
 49  23  47  1   
 50  23  48  1   
 51  24  49  1   
 52  24  50  1   
@<TRIPOS>SUBSTRUCTURE
  1 ****  13 GROUP 4 **** **** 0

# MOE 2024.06 (io_trps.svl 2023.06)
