@<TRIPOS>MOLECULE
NONAME
52 56 1 0 0 
SMALL
USER_CHARGES


@<TRIPOS>ATOM
  1 O       -0.4150     0.2130    -0.4220 O.2   1 <1>  -0.5700 
  2 C       -1.4480     0.8650    -0.4540 C.2   1 <1>   0.7160 
  3 N       -2.6290     0.1450    -0.5480 N.am  1 <1>  -0.6600 
  4 C       -1.3970     2.3320    -0.3870 C.2   1 <1>   0.2030 
  5 C       -3.9980     0.7160    -0.5250 C.3   1 <1>   0.1400 
  6 C       -2.6850    -1.3350    -0.5600 C.3   1 <1>   0.1400 
  7 N       -2.3840     3.1740    -0.6710 N.2   1 <1>  -0.7070 
  8 C       -0.2600     3.0710    -0.0060 C.2   1 <1>  -0.1810 
  9 C       -4.9410    -0.4890    -0.4810 C.3   1 <1>   0.2000 
 10 C       -4.0830    -1.6750    -0.0430 C.3   1 <1>  -0.0800 
 11 N       -1.8850     4.4050    -0.4880 N.pl3 1 <1>   0.3000 
 12 C       -0.6030     4.3670    -0.0900 C.2   1 <1>  -0.3320 
 13 C        1.1230     2.6060     0.4220 C.3   1 <1>   0.0210 
 14 O       -5.9720    -0.2980     0.4260 O.3   1 <1>  -0.6800 
 15 C       -4.6230    -3.0210    -0.5520 C.3   1 <1>  -0.0170 
 16 C        0.2960     5.5490     0.2170 C.3   1 <1>   0.0200 
 17 C        1.9040     3.7610     1.0790 C.3   1 <1>  -0.1600 
 18 C       -3.7290    -4.1700    -0.1200 C.ar  1 <1>   0.1670 
 19 C        1.7600     5.0780     0.2910 C.3   1 <1>  -0.1600 
 20 N       -2.7530    -4.4970    -0.9100 N.ar  1 <1>  -0.6200 
 21 C       -3.9860    -4.8090     1.1030 C.ar  1 <1>  -0.1500 
 22 C       -1.9340    -5.5070    -0.5210 C.ar  1 <1>   0.3100 
 23 C       -3.1840    -5.8290     1.5170 C.ar  1 <1>  -0.1500 
 24 C       -2.1120    -6.2070     0.6930 C.ar  1 <1>   0.0000 
 25 C       -0.8630    -5.8710    -1.3520 C.ar  1 <1>  -0.1500 
 26 C       -1.2150    -7.2420     1.0230 C.ar  1 <1>  -0.1500 
 27 C       -0.0010    -6.8800    -1.0120 C.ar  1 <1>  -0.1500 
 28 C       -0.1810    -7.5730     0.1900 C.ar  1 <1>  -0.1500 
 29 H       -4.1140     1.3370     0.3470 H     1 <1>   0.0800 
 30 H       -4.1690     1.2980    -1.4140 H     1 <1>   0.0800 
 31 H       -2.5520    -1.6820    -1.5710 H     1 <1>   0.0800 
 32 H       -1.9190    -1.7650     0.0640 H     1 <1>   0.0800 
 33 H       -5.3690    -0.6510    -1.4550 H     1 <1>   0.0800 
 34 H       -4.0230    -1.6980     1.0310 H     1 <1>   0.0800 
 35 H       -2.4390     5.2550    -0.6440 H     1 <1>   0.2700 
 36 H        1.0390     1.7890     1.1170 H     1 <1>   0.0800 
 37 H        1.6500     2.2550    -0.4470 H     1 <1>   0.0800 
 38 H       -5.6080    -0.0800     1.3050 H     1 <1>   0.4000 
 39 H       -4.6840    -3.0100    -1.6260 H     1 <1>   0.0800 
 40 H       -5.6180    -3.1760    -0.1730 H     1 <1>   0.0800 
 41 H        0.1990     6.3040    -0.5440 H     1 <1>   0.0800 
 42 H        0.0040     5.9740     1.1620 H     1 <1>   0.0800 
 43 H        1.5270     3.9090     2.0770 H     1 <1>   0.0800 
 44 H        2.9420     3.4890     1.1550 H     1 <1>   0.0800 
 45 H        2.1250     4.9220    -0.7090 H     1 <1>   0.0800 
 46 H        2.3600     5.8460     0.7470 H     1 <1>   0.0800 
 47 H       -4.8170    -4.4810     1.7020 H     1 <1>   0.1500 
 48 H       -3.3500    -6.3420     2.4470 H     1 <1>   0.1500 
 49 H       -0.7420    -5.3260    -2.2690 H     1 <1>   0.1500 
 50 H       -1.3580    -7.7700     1.9490 H     1 <1>   0.1500 
 51 H        0.8160    -7.1490    -1.6580 H     1 <1>   0.1500 
 52 H        0.5040    -8.3630     0.4450 H     1 <1>   0.1500 
@<TRIPOS>BOND
  1   1   2  2   
  2   2   3  am  
  3   2   4  1   
  4   3   5  1   
  5   3   6  1   
  6   4   7  2   
  7   4   8  1   
  8   5   9  1   
  9   5  29  1   
 10   5  30  1   
 11   6  10  1   
 12   6  31  1   
 13   6  32  1   
 14   7  11  1   
 15   8  12  2   
 16   8  13  1   
 17   9  10  1   
 18   9  14  1   
 19   9  33  1   
 20  10  15  1   
 21  10  34  1   
 22  11  12  1   
 23  11  35  1   
 24  12  16  1   
 25  13  17  1   
 26  13  36  1   
 27  13  37  1   
 28  14  38  1   
 29  15  18  1   
 30  15  39  1   
 31  15  40  1   
 32  16  19  1   
 33  16  41  1   
 34  16  42  1   
 35  17  19  1   
 36  17  43  1   
 37  17  44  1   
 38  18  20  ar  
 39  18  21  ar  
 40  19  45  1   
 41  19  46  1   
 42  20  22  ar  
 43  21  23  ar  
 44  21  47  1   
 45  22  24  ar  
 46  22  25  ar  
 47  23  24  ar  
 48  23  48  1   
 49  24  26  ar  
 50  25  27  ar  
 51  25  49  1   
 52  26  28  ar  
 53  26  50  1   
 54  27  28  ar  
 55  27  51  1   
 56  28  52  1   
@<TRIPOS>SUBSTRUCTURE
  1 ****   6 GROUP 4 **** **** 0

# MOE 2024.06 (io_trps.svl 2023.06)
