@<TRIPOS>MOLECULE
NONAME
41 43 1 0 0 
SMALL
USER_CHARGES


@<TRIPOS>ATOM
  1 S        0.1270     0.2140    -1.2030 S.3   1 <1>  -0.0800 
  2 C        0.0580     1.9630    -0.9280 C.2   1 <1>   0.4620 
  3 C       -0.9810    -0.0350     0.1240 C.ar  1 <1>   0.0400 
  4 N       -0.7050     2.3050     0.0460 N.2   1 <1>  -0.5650 
  5 N        0.8010     2.7950    -1.7380 N.pl3 1 <1>  -0.8220 
  6 C       -1.2970     1.2050     0.6450 C.ar  1 <1>   0.2270 
  7 C       -1.4880    -1.2250     0.6110 C.ar  1 <1>  -0.1500 
  8 C        0.8130     4.2600    -1.4990 C.3   1 <1>   0.2090 
  9 C        1.6770     2.2830    -2.8270 C.3   1 <1>   0.1290 
 10 C       -2.1750     1.2520     1.7200 C.ar  1 <1>  -0.1500 
 11 C       -2.3610    -1.1570     1.6840 C.ar  1 <1>  -0.1500 
 12 C        2.0730     4.6390    -0.7210 C.3   1 <1>  -0.1600 
 13 C       -2.7020     0.0770     2.2340 C.ar  1 <1>  -0.1500 
 14 C        2.0710     6.1230    -0.3470 C.3   1 <1>   0.0210 
 15 C        3.3450     6.4780     0.3990 C.2   1 <1>  -0.1810 
 16 C        4.5210     6.9900    -0.1480 C.2   1 <1>   0.1080 
 17 C        3.6000     6.3690     1.7210 C.2   1 <1>  -0.3320 
 18 N        5.4330     7.1920     0.7490 N.2   1 <1>  -0.7070 
 19 C        4.7590     7.2950    -1.6090 C.3   1 <1>  -0.0590 
 20 N        4.8630     6.8070     1.9040 N.pl3 1 <1>   0.3000 
 21 C        2.7210     5.8620     2.8520 C.3   1 <1>  -0.0600 
 22 H       -1.2090    -2.1640     0.1670 H     1 <1>   0.1500 
 23 H       -0.0600     4.5440    -0.9360 H     1 <1>   0.0800 
 24 H        0.7800     4.7800    -2.4410 H     1 <1>   0.0800 
 25 H        1.1200     1.6210    -3.4670 H     1 <1>   0.0800 
 26 H        2.5080     1.7470    -2.4000 H     1 <1>   0.0800 
 27 H        2.0550     3.0950    -3.4210 H     1 <1>   0.0800 
 28 H       -2.4330     2.2080     2.1370 H     1 <1>   0.1500 
 29 H       -2.7800    -2.0600     2.0950 H     1 <1>   0.1500 
 30 H        2.9440     4.4220    -1.3120 H     1 <1>   0.0800 
 31 H        2.1170     4.0530     0.1800 H     1 <1>   0.0800 
 32 H       -3.3830     0.1160     3.0670 H     1 <1>   0.1500 
 33 H        1.2230     6.3390     0.2790 H     1 <1>   0.0800 
 34 H        1.9890     6.7310    -1.2300 H     1 <1>   0.0800 
 35 H        4.4340     6.4710    -2.2150 H     1 <1>   0.0800 
 36 H        5.8080     7.4590    -1.7790 H     1 <1>   0.0800 
 37 H        4.2190     8.1810    -1.8850 H     1 <1>   0.0800 
 38 H        5.3630     6.8530     2.7990 H     1 <1>   0.2700 
 39 H        1.7720     5.5260     2.4750 H     1 <1>   0.0800 
 40 H        2.5460     6.6470     3.5660 H     1 <1>   0.0800 
 41 H        3.1980     5.0360     3.3480 H     1 <1>   0.0800 
@<TRIPOS>BOND
  1   1   2  1   
  2   1   3  1   
  3   2   4  2   
  4   2   5  1   
  5   3   6  ar  
  6   3   7  ar  
  7   4   6  1   
  8   5   8  1   
  9   5   9  1   
 10   6  10  ar  
 11   7  11  ar  
 12   7  22  1   
 13   8  12  1   
 14   8  23  1   
 15   8  24  1   
 16   9  25  1   
 17   9  26  1   
 18   9  27  1   
 19  10  13  ar  
 20  10  28  1   
 21  11  13  ar  
 22  11  29  1   
 23  12  14  1   
 24  12  30  1   
 25  12  31  1   
 26  13  32  1   
 27  14  15  1   
 28  14  33  1   
 29  14  34  1   
 30  15  16  1   
 31  15  17  2   
 32  16  18  2   
 33  16  19  1   
 34  17  20  1   
 35  17  21  1   
 36  18  20  1   
 37  19  35  1   
 38  19  36  1   
 39  19  37  1   
 40  20  38  1   
 41  21  39  1   
 42  21  40  1   
 43  21  41  1   
@<TRIPOS>SUBSTRUCTURE
  1 ****  12 GROUP 4 **** **** 0

# MOE 2024.06 (io_trps.svl 2023.06)
