@<TRIPOS>MOLECULE
NONAME
48 50 1 0 0 
SMALL
USER_CHARGES


@<TRIPOS>ATOM
  1 O       -2.6490    -1.6710     0.7720 O.3   1 <1>  -0.5600 
  2 C       -2.3140    -0.3280     0.5920 C.3   1 <1>   0.1200 
  3 C       -1.5380    -2.5150     0.8100 C.3   1 <1>   0.0400 
  4 C       -3.5870     0.5240     0.5960 C.3   1 <1>   0.0960 
  5 N       -4.4440     0.2640    -0.5870 N.pl3 1 <1>   0.0480 
  6 C       -5.2160    -0.8060    -0.9090 C.2   1 <1>   0.0060 
  7 C       -4.6480     1.1350    -1.5920 C.2   1 <1>  -0.3020 
  8 N       -5.8740    -0.6640    -2.0220 N.2   1 <1>  -0.5650 
  9 C       -5.3050    -2.0670    -0.0620 C.3   1 <1>   0.5230 
 10 C       -5.5140     0.5590    -2.4530 C.2   1 <1>   0.0770 
 11 N       -6.5370    -2.7870    -0.4780 N.4   1 <1>  -0.9590 
 12 C       -7.7790    -2.2640     0.1560 C.3   1 <1>   0.3430 
 13 C       -6.4950    -4.2670    -0.3380 C.3   1 <1>   0.3430 
 14 C       -8.7070    -3.4740     0.2520 C.3   1 <1>   0.2000 
 15 C       -7.7700    -4.6690     0.4080 C.3   1 <1>  -0.0800 
 16 O       -9.5690    -3.3870     1.3330 O.3   1 <1>  -0.6800 
 17 C       -8.3760    -5.9860    -0.1030 C.3   1 <1>  -0.0170 
 18 C       -7.3260    -7.0850    -0.0970 C.ar  1 <1>  -0.1430 
 19 C       -6.9010    -7.6760     1.0770 C.ar  1 <1>  -0.1500 
 20 C       -6.7390    -7.5450    -1.2590 C.ar  1 <1>  -0.1500 
 21 C       -5.9230    -8.6550     1.0350 C.ar  1 <1>   0.1600 
 22 C       -5.7670    -8.5300    -1.1910 C.ar  1 <1>   0.1600 
 23 N       -5.3390    -9.0860    -0.0710 N.ar  1 <1>  -0.6200 
 24 H       -1.6730    -0.0270     1.4040 H     1 <1>   0.0800 
 25 H       -1.7870    -0.2150    -0.3410 H     1 <1>   0.0800 
 26 H       -1.8800    -3.5250     0.9520 H     1 <1>   0.0800 
 27 H       -0.9010    -2.2330     1.6320 H     1 <1>   0.0800 
 28 H       -1.0010    -2.4430    -0.1210 H     1 <1>   0.0800 
 29 H       -3.3080     1.5620     0.5870 H     1 <1>   0.0800 
 30 H       -4.1470     0.3420     1.4950 H     1 <1>   0.0800 
 31 H       -4.1810     2.1020    -1.6500 H     1 <1>   0.1500 
 32 H       -5.3300    -1.8270     0.9870 H     1 <1>   0.0800 
 33 H       -4.4380    -2.6740    -0.2610 H     1 <1>   0.0800 
 34 H       -5.8990     0.9700    -3.3730 H     1 <1>   0.1500 
 35 H       -6.5900    -2.5190    -1.4810 H     1 <1>   0.4500 
 36 H       -7.5630    -1.9000     1.1460 H     1 <1>   0.0800 
 37 H       -8.2150    -1.4760    -0.4370 H     1 <1>   0.0800 
 38 H       -6.4790    -4.7220    -1.3160 H     1 <1>   0.0800 
 39 H       -5.6230    -4.5910     0.2080 H     1 <1>   0.0800 
 40 H       -9.2990    -3.5440    -0.6460 H     1 <1>   0.0800 
 41 H       -7.5020    -4.7850     1.4430 H     1 <1>   0.0800 
 42 H       -9.1250    -3.5370     2.1900 H     1 <1>   0.4000 
 43 H       -8.7600    -5.8600    -1.1010 H     1 <1>   0.0800 
 44 H       -9.2030    -6.2750     0.5250 H     1 <1>   0.0800 
 45 H       -7.3210    -7.3930     2.0250 H     1 <1>   0.1500 
 46 H       -7.0240    -7.1560    -2.2200 H     1 <1>   0.1500 
 47 H       -5.6020    -9.1090     1.9580 H     1 <1>   0.1500 
 48 H       -5.3190    -8.8800    -2.1060 H     1 <1>   0.1500 
@<TRIPOS>BOND
  1   1   2  1   
  2   1   3  1   
  3   2   4  1   
  4   2  24  1   
  5   2  25  1   
  6   3  26  1   
  7   3  27  1   
  8   3  28  1   
  9   4   5  1   
 10   4  29  1   
 11   4  30  1   
 12   5   6  1   
 13   5   7  1   
 14   6   8  2   
 15   6   9  1   
 16   7  10  2   
 17   7  31  1   
 18   8  10  1   
 19   9  11  1   
 20   9  32  1   
 21   9  33  1   
 22  10  34  1   
 23  11  12  1   
 24  11  13  1   
 25  11  35  1   
 26  12  14  1   
 27  12  36  1   
 28  12  37  1   
 29  13  15  1   
 30  13  38  1   
 31  13  39  1   
 32  14  15  1   
 33  14  16  1   
 34  14  40  1   
 35  15  17  1   
 36  15  41  1   
 37  16  42  1   
 38  17  18  1   
 39  17  43  1   
 40  17  44  1   
 41  18  19  ar  
 42  18  20  ar  
 43  19  21  ar  
 44  19  45  1   
 45  20  22  ar  
 46  20  46  1   
 47  21  23  ar  
 48  21  47  1   
 49  22  23  ar  
 50  22  48  1   
@<TRIPOS>SUBSTRUCTURE
  1 ****  13 GROUP 4 **** **** 0

# MOE 2024.06 (io_trps.svl 2023.06)
