@<TRIPOS>MOLECULE
NONAME
42 44 1 0 0 
SMALL
USER_CHARGES


@<TRIPOS>ATOM
  1 O        2.7600    -0.6520    -1.7440 O.2   1 <1>  -0.5700 
  2 C        1.9930    -0.8950    -0.8280 C.2   1 <1>   0.5440 
  3 N        1.5020     0.1440    -0.0840 N.am  1 <1>  -0.4930 
  4 C        1.6390    -2.2790    -0.5430 C.ar  1 <1>   0.0860 
  5 C        1.7070     1.5400    -0.2230 C.2   1 <1>   0.0630 
  6 C        0.4560    -2.6560     0.1610 C.ar  1 <1>   0.3100 
  7 C        2.4920    -3.2810    -0.9770 C.ar  1 <1>  -0.1500 
  8 C        0.7050     2.5100    -0.2790 C.2   1 <1>   0.1080 
  9 C        2.8620     2.2350    -0.3080 C.2   1 <1>  -0.3320 
 10 N       -0.4330    -1.7150     0.6090 N.ar  1 <1>  -0.6200 
 11 C        0.2040    -4.0380     0.3910 C.ar  1 <1>   0.3100 
 12 C        2.2390    -4.6300    -0.7490 C.ar  1 <1>  -0.1500 
 13 N        1.1820     3.7090    -0.3900 N.2   1 <1>  -0.7070 
 14 C       -0.7810     2.2350    -0.2230 C.3   1 <1>  -0.0590 
 15 N        2.5180     3.5430    -0.4190 N.pl3 1 <1>   0.3140 
 16 C        4.2950     1.7210    -0.2890 C.3   1 <1>  -0.0600 
 17 C       -1.4710    -2.1840     1.2290 C.ar  1 <1>   0.1600 
 18 N       -0.8960    -4.4870     1.0510 N.ar  1 <1>  -0.6200 
 19 C        1.1110    -4.9970    -0.0730 C.ar  1 <1>  -0.1500 
 20 C        3.4230     4.7000    -0.5690 C.3   1 <1>   0.0960 
 21 C       -1.6990    -3.5540     1.4480 C.ar  1 <1>   0.1600 
 22 C        3.8120     5.2760     0.8010 C.3   1 <1>  -0.1600 
 23 C        4.7660     6.4670     0.6560 C.3   1 <1>  -0.2400 
 24 H        0.7060    -0.1170     0.5060 H     1 <1>   0.3700 
 25 H        3.3900    -3.0220    -1.5150 H     1 <1>   0.1500 
 26 H        2.9360    -5.3710    -1.1080 H     1 <1>   0.1500 
 27 H       -1.0090     1.3230    -0.7440 H     1 <1>   0.0800 
 28 H       -1.3140     3.0430    -0.6890 H     1 <1>   0.0800 
 29 H       -1.0940     2.1530     0.8010 H     1 <1>   0.0800 
 30 H        4.3140     0.6760    -0.0420 H     1 <1>   0.0800 
 31 H        4.8760     2.2500     0.4430 H     1 <1>   0.0800 
 32 H        4.7410     1.8460    -1.2590 H     1 <1>   0.0800 
 33 H       -2.2070    -1.4930     1.6030 H     1 <1>   0.1500 
 34 H        0.8910    -6.0330     0.1170 H     1 <1>   0.1500 
 35 H        2.9130     5.4460    -1.1490 H     1 <1>   0.0800 
 36 H        4.2960     4.3860    -1.1090 H     1 <1>   0.0800 
 37 H       -2.5920    -3.8360     1.9770 H     1 <1>   0.1500 
 38 H        4.2850     4.5120     1.3920 H     1 <1>   0.0800 
 39 H        2.9190     5.5960     1.3110 H     1 <1>   0.0800 
 40 H        5.6740     6.1670     0.1620 H     1 <1>   0.0800 
 41 H        5.0180     6.8550     1.6280 H     1 <1>   0.0800 
 42 H        4.3030     7.2530     0.0860 H     1 <1>   0.0800 
@<TRIPOS>BOND
  1   1   2  2   
  2   2   3  am  
  3   2   4  1   
  4   3   5  1   
  5   3  24  1   
  6   4   6  ar  
  7   4   7  ar  
  8   5   8  1   
  9   5   9  2   
 10   6  10  ar  
 11   6  11  ar  
 12   7  12  ar  
 13   7  25  1   
 14   8  13  2   
 15   8  14  1   
 16   9  15  1   
 17   9  16  1   
 18  10  17  ar  
 19  11  18  ar  
 20  11  19  ar  
 21  12  19  ar  
 22  12  26  1   
 23  13  15  1   
 24  14  27  1   
 25  14  28  1   
 26  14  29  1   
 27  15  20  1   
 28  16  30  1   
 29  16  31  1   
 30  16  32  1   
 31  17  21  ar  
 32  17  33  1   
 33  18  21  ar  
 34  19  34  1   
 35  20  22  1   
 36  20  35  1   
 37  20  36  1   
 38  21  37  1   
 39  22  23  1   
 40  22  38  1   
 41  22  39  1   
 42  23  40  1   
 43  23  41  1   
 44  23  42  1   
@<TRIPOS>SUBSTRUCTURE
  1 ****   3 GROUP 4 **** **** 0

# MOE 2024.06 (io_trps.svl 2023.06)
