@<TRIPOS>MOLECULE
NONAME
51 53 1 0 0 
SMALL
USER_CHARGES


@<TRIPOS>ATOM
  1 CL       1.0920     1.9670     2.2220 Cl    1 <1>  -0.1770 
  2 C        2.7660     2.4510     2.2060 C.ar  1 <1>   0.1770 
  3 C        3.5540     2.1930     3.3090 C.ar  1 <1>  -0.1500 
  4 C        3.2720     3.0870     1.0870 C.ar  1 <1>  -0.1500 
  5 C        4.8720     2.5940     3.2480 C.ar  1 <1>   0.1900 
  6 C        4.6060     3.5010     1.0320 C.ar  1 <1>   0.0860 
  7 F        5.6460     2.3640     4.2730 F     1 <1>  -0.1900 
  8 C        5.4060     3.2320     2.1450 C.ar  1 <1>  -0.1500 
  9 C        5.1490     4.1790    -0.1340 C.2   1 <1>   0.5440 
 10 O        6.3400     4.1410    -0.3840 O.2   1 <1>  -0.5700 
 11 N        4.3680     4.9420    -0.9690 N.am  1 <1>  -0.6600 
 12 C        4.6270     4.9770    -2.4470 C.3   1 <1>   0.1400 
 13 C        3.5760     6.0800    -0.4360 C.3   1 <1>   0.1400 
 14 C        5.8850     5.7890    -2.8300 C.3   1 <1>   0.3430 
 15 C        4.4870     7.2880    -0.1760 C.3   1 <1>  -0.1600 
 16 N        6.3250     6.7020    -1.7340 N.4   1 <1>  -0.9590 
 17 C        5.3210     7.7450    -1.3770 C.3   1 <1>   0.3430 
 18 C        7.6800     7.2490    -1.9500 C.3   1 <1>   0.5230 
 19 C        8.1380     7.8320    -0.6340 C.2   1 <1>  -0.3320 
 20 N        8.6460     7.1010     0.4030 N.pl3 1 <1>   0.0480 
 21 C        8.1230     9.1430    -0.2830 C.2   1 <1>  -0.1500 
 22 C        8.9230     7.9690     1.3980 C.2   1 <1>  -0.3020 
 23 C        8.9120     5.6500     0.4780 C.3   1 <1>   0.0160 
 24 C        8.6140     9.2560     1.0300 C.2   1 <1>  -0.0860 
 25 C        8.7320    10.4920     1.7570 C.2   1 <1>   0.5950 
 26 O        8.3330    11.5450     1.3290 O.2   1 <1>  -0.5700 
 27 C        9.3730    10.4800     3.1260 C.3   1 <1>  -0.1790 
 28 H        3.1590     1.6990     4.1780 H     1 <1>   0.1500 
 29 H        2.6180     3.2550     0.2490 H     1 <1>   0.1500 
 30 H        6.4430     3.5150     2.1520 H     1 <1>   0.1500 
 31 H        3.7710     5.3880    -2.9520 H     1 <1>   0.0800 
 32 H        4.7470     3.9690    -2.8070 H     1 <1>   0.0800 
 33 H        3.0970     5.7940     0.4860 H     1 <1>   0.0800 
 34 H        2.8000     6.3420    -1.1360 H     1 <1>   0.0800 
 35 H        5.6990     6.3430    -3.7350 H     1 <1>   0.0800 
 36 H        6.6750     5.0850    -3.0340 H     1 <1>   0.0800 
 37 H        5.1400     7.0830     0.6550 H     1 <1>   0.0800 
 38 H        3.8630     8.1110     0.1240 H     1 <1>   0.0800 
 39 H        6.4010     6.0770    -0.9110 H     1 <1>   0.4500 
 40 H        5.8240     8.6590    -1.1090 H     1 <1>   0.0800 
 41 H        4.6810     7.9540    -2.2190 H     1 <1>   0.0800 
 42 H        7.6550     8.0170    -2.7060 H     1 <1>   0.0800 
 43 H        8.3600     6.4730    -2.2630 H     1 <1>   0.0800 
 44 H        7.8030     9.9980    -0.8590 H     1 <1>   0.1500 
 45 H        9.3370     7.6450     2.3370 H     1 <1>   0.1500 
 46 H        8.8150     5.1950    -0.4890 H     1 <1>   0.0800 
 47 H        8.2150     5.1960     1.1590 H     1 <1>   0.0800 
 48 H        9.9120     5.4920     0.8410 H     1 <1>   0.0800 
 49 H       10.3470    10.0310     3.0680 H     1 <1>   0.0800 
 50 H        8.7600     9.9210     3.8070 H     1 <1>   0.0800 
 51 H        9.4750    11.4860     3.4910 H     1 <1>   0.0800 
@<TRIPOS>BOND
  1   1   2  1   
  2   2   3  ar  
  3   2   4  ar  
  4   3   5  ar  
  5   3  28  1   
  6   4   6  ar  
  7   4  29  1   
  8   5   7  1   
  9   5   8  ar  
 10   6   8  ar  
 11   6   9  1   
 12   8  30  1   
 13   9  10  2   
 14   9  11  am  
 15  11  12  1   
 16  11  13  1   
 17  12  14  1   
 18  12  31  1   
 19  12  32  1   
 20  13  15  1   
 21  13  33  1   
 22  13  34  1   
 23  14  16  1   
 24  14  35  1   
 25  14  36  1   
 26  15  17  1   
 27  15  37  1   
 28  15  38  1   
 29  16  17  1   
 30  16  18  1   
 31  16  39  1   
 32  17  40  1   
 33  17  41  1   
 34  18  19  1   
 35  18  42  1   
 36  18  43  1   
 37  19  20  1   
 38  19  21  2   
 39  20  22  1   
 40  20  23  1   
 41  21  24  1   
 42  21  44  1   
 43  22  24  2   
 44  22  45  1   
 45  23  46  1   
 46  23  47  1   
 47  23  48  1   
 48  24  25  1   
 49  25  26  2   
 50  25  27  1   
 51  27  49  1   
 52  27  50  1   
 53  27  51  1   
@<TRIPOS>SUBSTRUCTURE
  1 ****  10 GROUP 4 **** **** 0

# MOE 2024.06 (io_trps.svl 2023.06)
