@<TRIPOS>MOLECULE
NONAME
50 52 1 0 0 
SMALL
USER_CHARGES


@<TRIPOS>ATOM
  1 O        0.2670    -0.3540     2.5620 O.2   1 <1>  -0.5700 
  2 C        0.7340    -0.8060     1.5450 C.2   1 <1>   0.5690 
  3 N        1.4420    -0.0940     0.6200 N.am  1 <1>  -0.5470 
  4 C        0.5160    -2.2860     1.2310 C.3   1 <1>   0.1710 
  5 C        1.8340     1.2490     0.5110 C.ar  1 <1>   0.1170 
  6 N        0.5330    -2.6070    -0.2320 N.3   1 <1>  -0.8100 
  7 C        2.3750     1.7060    -0.6930 C.ar  1 <1>  -0.1430 
  8 C        1.7090     2.1460     1.5670 C.ar  1 <1>  -0.1500 
  9 C       -0.6540    -2.0830    -0.9360 C.3   1 <1>   0.1100 
 10 C        0.4830    -4.0540    -0.4580 C.3   1 <1>   0.1100 
 11 C        2.7690     3.0290    -0.8170 C.ar  1 <1>  -0.1500 
 12 C        2.5430     0.7730    -1.8870 C.3   1 <1>  -0.0970 
 13 C        2.1030     3.4640     1.4340 C.ar  1 <1>  -0.1500 
 14 C       -1.7280    -3.1750    -0.8880 C.3   1 <1>   0.2000 
 15 C       -1.0000    -4.4420    -0.4330 C.3   1 <1>  -0.0800 
 16 C        2.6360     3.9140     0.2390 C.ar  1 <1>  -0.1430 
 17 O       -2.7070    -2.8520     0.0370 O.3   1 <1>  -0.6800 
 18 C       -1.3170    -5.6510    -1.3270 C.3   1 <1>   0.0200 
 19 C        3.0720     5.3600     0.0880 C.3   1 <1>  -0.0970 
 20 C       -0.5990    -6.9150    -0.8870 C.2   1 <1>  -0.0400 
 21 O       -0.4980    -7.9070    -1.7300 O.3   1 <1>  -0.0190 
 22 C        0.0030    -7.2860     0.2550 C.2   1 <1>  -0.1500 
 23 N        0.1440    -8.9170    -1.2190 N.2   1 <1>  -0.4100 
 24 C        0.4570    -8.5720    -0.0220 C.2   1 <1>   0.1080 
 25 C        1.2150    -9.4550     0.9450 C.3   1 <1>  -0.0590 
 26 H        1.6620    -0.6740    -0.1930 H     1 <1>   0.3700 
 27 H       -0.4120    -2.5960     1.6740 H     1 <1>   0.0800 
 28 H        1.3080    -2.8270     1.7170 H     1 <1>   0.0800 
 29 H        1.3020     1.8210     2.5060 H     1 <1>   0.1500 
 30 H       -1.0030    -1.1490    -0.5280 H     1 <1>   0.0800 
 31 H       -0.3840    -1.9200    -1.9650 H     1 <1>   0.0800 
 32 H        0.8970    -4.2580    -1.4320 H     1 <1>   0.0800 
 33 H        1.0590    -4.5940     0.2740 H     1 <1>   0.0800 
 34 H        3.1870     3.3800    -1.7430 H     1 <1>   0.1500 
 35 H        2.9520     1.2970    -2.7320 H     1 <1>   0.0800 
 36 H        1.5900     0.3650    -2.1730 H     1 <1>   0.0800 
 37 H        3.2110    -0.0310    -1.6350 H     1 <1>   0.0800 
 38 H        1.9940     4.1340     2.2680 H     1 <1>   0.1500 
 39 H       -2.2050    -3.2850    -1.8480 H     1 <1>   0.0800 
 40 H       -1.2720    -4.6790     0.5810 H     1 <1>   0.0800 
 41 H       -2.3000    -2.5620     0.8760 H     1 <1>   0.4000 
 42 H       -1.0320    -5.4300    -2.3410 H     1 <1>   0.0800 
 43 H       -2.3760    -5.8400    -1.3180 H     1 <1>   0.0800 
 44 H        2.5260     5.9920     0.7650 H     1 <1>   0.0800 
 45 H        2.8930     5.7020    -0.9150 H     1 <1>   0.0800 
 46 H        4.1220     5.4460     0.3040 H     1 <1>   0.0800 
 47 H        0.1270    -6.7590     1.1810 H     1 <1>   0.1500 
 48 H        2.0570    -8.9220     1.3460 H     1 <1>   0.0800 
 49 H        1.5690   -10.3340     0.4370 H     1 <1>   0.0800 
 50 H        0.5670    -9.7550     1.7470 H     1 <1>   0.0800 
@<TRIPOS>BOND
  1   1   2  2   
  2   2   3  am  
  3   2   4  1   
  4   3   5  1   
  5   3  26  1   
  6   4   6  1   
  7   4  27  1   
  8   4  28  1   
  9   5   7  ar  
 10   5   8  ar  
 11   6   9  1   
 12   6  10  1   
 13   7  11  ar  
 14   7  12  1   
 15   8  13  ar  
 16   8  29  1   
 17   9  14  1   
 18   9  30  1   
 19   9  31  1   
 20  10  15  1   
 21  10  32  1   
 22  10  33  1   
 23  11  16  ar  
 24  11  34  1   
 25  12  35  1   
 26  12  36  1   
 27  12  37  1   
 28  13  16  ar  
 29  13  38  1   
 30  14  15  1   
 31  14  17  1   
 32  14  39  1   
 33  15  18  1   
 34  15  40  1   
 35  16  19  1   
 36  17  41  1   
 37  18  20  1   
 38  18  42  1   
 39  18  43  1   
 40  19  44  1   
 41  19  45  1   
 42  19  46  1   
 43  20  21  1   
 44  20  22  2   
 45  21  23  1   
 46  22  24  1   
 47  22  47  1   
 48  23  24  2   
 49  24  25  1   
 50  25  48  1   
 51  25  49  1   
 52  25  50  1   
@<TRIPOS>SUBSTRUCTURE
  1 ****   6 GROUP 4 **** **** 0

# MOE 2024.06 (io_trps.svl 2023.06)
