@<TRIPOS>MOLECULE
NONAME
48 51 1 0 0 
SMALL
USER_CHARGES


@<TRIPOS>ATOM
  1 O       -3.2950     0.7860    -2.0650 O.2   1 <1>  -0.5700 
  2 C       -2.7400     0.9670    -1.0080 C.2   1 <1>   0.5690 
  3 N       -2.4080    -0.0710    -0.2000 N.am  1 <1>  -0.7300 
  4 C       -2.4260     2.3930    -0.5630 C.3   1 <1>  -0.0190 
  5 C       -2.7010    -1.4880    -0.4990 C.3   1 <1>   0.2200 
  6 C       -0.9470     2.6610    -0.2700 C.3   1 <1>  -0.1600 
  7 C       -3.1330     2.8230     0.7260 C.3   1 <1>  -0.1600 
  8 C       -4.0340    -1.8580     0.1250 C.3   1 <1>  -0.0800 
  9 C       -1.7370    -2.3940     0.2580 C.3   1 <1>   0.1200 
 10 C       -0.9420     3.9310     0.5830 C.3   1 <1>  -0.1600 
 11 C       -2.3180     4.0050     1.2590 C.3   1 <1>  -0.1600 
 12 C       -3.6330    -2.2140     1.5600 C.3   1 <1>   0.1200 
 13 C       -4.6930    -3.0400    -0.6130 C.3   1 <1>  -0.0170 
 14 O       -2.2780    -2.5630     1.5350 O.3   1 <1>  -0.5600 
 15 C       -6.0840    -3.3380    -0.0630 C.ar  1 <1>  -0.1440 
 16 C       -7.2040    -2.5240    -0.3600 C.ar  1 <1>   0.0000 
 17 C       -6.2860    -4.4180     0.7450 C.ar  1 <1>  -0.1500 
 18 C       -8.4470    -2.8820     0.2180 C.ar  1 <1>   0.3100 
 19 C       -7.1660    -1.3820    -1.1940 C.ar  1 <1>  -0.1500 
 20 C       -7.5590    -4.6860     1.2590 C.ar  1 <1>   0.1600 
 21 N       -8.6070    -3.9620     1.0230 N.ar  1 <1>  -0.6200 
 22 C       -9.5740    -2.0890    -0.0500 C.ar  1 <1>  -0.1500 
 23 C       -8.2850    -0.6310    -1.4360 C.ar  1 <1>  -0.1500 
 24 C       -9.5050    -0.9860    -0.8560 C.ar  1 <1>  -0.1500 
 25 H       -2.0060     0.1040     0.7230 H     1 <1>   0.3700 
 26 H       -2.7330     3.0620    -1.3490 H     1 <1>   0.0800 
 27 H       -2.6680    -1.6540    -1.5630 H     1 <1>   0.0800 
 28 H       -0.5290     1.8520     0.3020 H     1 <1>   0.0800 
 29 H       -0.3780     2.7810    -1.1760 H     1 <1>   0.0800 
 30 H       -4.1590     3.0910     0.5430 H     1 <1>   0.0800 
 31 H       -3.1060     2.0240     1.4470 H     1 <1>   0.0800 
 32 H       -4.7080    -1.0200     0.1200 H     1 <1>   0.0800 
 33 H       -0.7480    -1.9770     0.3360 H     1 <1>   0.0800 
 34 H       -1.6870    -3.3640    -0.2040 H     1 <1>   0.0800 
 35 H       -0.1450     3.9090     1.3060 H     1 <1>   0.0800 
 36 H       -0.8100     4.7910    -0.0510 H     1 <1>   0.0800 
 37 H       -2.7990     4.9320     0.9970 H     1 <1>   0.0800 
 38 H       -2.2290     3.9530     2.3310 H     1 <1>   0.0800 
 39 H       -4.1990    -3.0330     1.9660 H     1 <1>   0.0800 
 40 H       -3.7340    -1.3580     2.2040 H     1 <1>   0.0800 
 41 H       -4.0730    -3.9150    -0.5210 H     1 <1>   0.0800 
 42 H       -4.7710    -2.8210    -1.6630 H     1 <1>   0.0800 
 43 H       -5.4840    -5.0840     1.0080 H     1 <1>   0.1500 
 44 H       -6.2410    -1.0890    -1.6560 H     1 <1>   0.1500 
 45 H       -7.6740    -5.5490     1.8930 H     1 <1>   0.1500 
 46 H      -10.5020    -2.3820     0.4050 H     1 <1>   0.1500 
 47 H       -8.2380     0.2360    -2.0720 H     1 <1>   0.1500 
 48 H      -10.3780    -0.3870    -1.0530 H     1 <1>   0.1500 
@<TRIPOS>BOND
  1   1   2  2   
  2   2   3  am  
  3   2   4  1   
  4   3   5  1   
  5   3  25  1   
  6   4   6  1   
  7   4   7  1   
  8   4  26  1   
  9   5   8  1   
 10   5   9  1   
 11   5  27  1   
 12   6  10  1   
 13   6  28  1   
 14   6  29  1   
 15   7  11  1   
 16   7  30  1   
 17   7  31  1   
 18   8  12  1   
 19   8  13  1   
 20   8  32  1   
 21   9  14  1   
 22   9  33  1   
 23   9  34  1   
 24  10  11  1   
 25  10  35  1   
 26  10  36  1   
 27  11  37  1   
 28  11  38  1   
 29  12  14  1   
 30  12  39  1   
 31  12  40  1   
 32  13  15  1   
 33  13  41  1   
 34  13  42  1   
 35  15  16  ar  
 36  15  17  ar  
 37  16  18  ar  
 38  16  19  ar  
 39  17  20  ar  
 40  17  43  1   
 41  18  21  ar  
 42  18  22  ar  
 43  19  23  ar  
 44  19  44  1   
 45  20  21  ar  
 46  20  45  1   
 47  22  24  ar  
 48  22  46  1   
 49  23  24  ar  
 50  23  47  1   
 51  24  48  1   
@<TRIPOS>SUBSTRUCTURE
  1 ****   8 GROUP 4 **** **** 0

# MOE 2024.06 (io_trps.svl 2023.06)
