@<TRIPOS>MOLECULE
NONAME
60 64 1 0 0 
SMALL
USER_CHARGES


@<TRIPOS>ATOM
  1 S       -3.3450     1.1040    -3.8190 S.3   1 <1>  -0.0800 
  2 C       -4.2170     1.8200    -2.4840 C.2   1 <1>   0.2280 
  3 C       -3.3810    -0.4240    -2.9870 C.2   1 <1>  -0.1100 
  4 N       -4.4740     1.0090    -1.5330 N.2   1 <1>  -0.5650 
  5 C       -4.0140    -0.2690    -1.8130 C.2   1 <1>   0.0460 
  6 C       -4.2710    -1.3680    -0.7880 C.3   1 <1>   0.0210 
  7 C       -3.5990    -1.2180     0.6110 C.3   1 <1>   0.0610 
  8 C       -3.6690    -2.6050     1.2500 C.2   1 <1>   0.5690 
  9 C       -2.1280    -0.7390     0.5120 C.3   1 <1>   0.4230 
 10 C       -4.2150    -0.0660     1.4650 C.3   1 <1>  -0.1600 
 11 O       -2.7950    -3.3890     0.9710 O.2   1 <1>  -0.5700 
 12 N       -4.7070    -2.9490     2.0590 N.am  1 <1>  -0.7300 
 13 N       -2.3270     0.7120     0.3920 N.4   1 <1>  -0.9590 
 14 C       -1.3940    -0.8050     1.8700 C.3   1 <1>  -0.1600 
 15 C       -3.0440     0.9110     1.6510 C.3   1 <1>   0.4230 
 16 C       -4.8760    -4.2780     2.7060 C.3   1 <1>   0.0600 
 17 C       -1.1500     1.5930     0.1490 C.3   1 <1>   0.5240 
 18 C       -2.0680     0.3180     2.6740 C.3   1 <1>  -0.1600 
 19 C       -1.6370     2.9350    -0.3760 C.2   1 <1>   0.0460 
 20 N       -2.5240     3.6820     0.3110 N.2   1 <1>  -0.5650 
 21 C       -1.3240     3.5570    -1.5230 C.2   1 <1>  -0.0400 
 22 C       -2.7120     4.7210    -0.4470 C.2   1 <1>   0.4250 
 23 O       -2.0010     4.6660    -1.5590 O.3   1 <1>  -0.2800 
 24 C       -0.4090     3.2300    -2.6860 C.3   1 <1>  -0.0600 
 25 C       -3.5850     5.8500    -0.1990 C.ar  1 <1>   0.0530 
 26 C       -4.3660     5.9170     0.9570 C.ar  1 <1>  -0.1500 
 27 C       -3.6860     6.9120    -1.0990 C.ar  1 <1>  -0.1500 
 28 C       -5.2090     6.9860     1.2090 C.ar  1 <1>  -0.1430 
 29 C       -4.5260     7.9830    -0.8590 C.ar  1 <1>  -0.1500 
 30 C       -5.2880     8.0210     0.2940 C.ar  1 <1>  -0.1500 
 31 C       -6.0460     7.0300     2.4750 C.3   1 <1>  -0.0970 
 32 H       -4.4590     2.8680    -2.5590 H     1 <1>   0.1500 
 33 H       -2.9330    -1.2720    -3.4760 H     1 <1>   0.1500 
 34 H       -5.3350    -1.4630    -0.6580 H     1 <1>   0.0800 
 35 H       -3.9370    -2.2910    -1.2300 H     1 <1>   0.0800 
 36 H       -1.5860    -1.1880    -0.3060 H     1 <1>   0.0800 
 37 H       -4.5810    -0.3870     2.4240 H     1 <1>   0.0800 
 38 H       -5.0240     0.4270     0.9570 H     1 <1>   0.0800 
 39 H       -5.4810    -2.2990     2.2160 H     1 <1>   0.3700 
 40 H       -3.0130     0.9190    -0.3600 H     1 <1>   0.4500 
 41 H       -1.4750    -1.7570     2.3630 H     1 <1>   0.0800 
 42 H       -0.3460    -0.6040     1.7330 H     1 <1>   0.0800 
 43 H       -3.3430     1.9310     1.8430 H     1 <1>   0.0800 
 44 H       -4.0300    -4.9130     2.4970 H     1 <1>   0.0800 
 45 H       -5.7650    -4.7570     2.3330 H     1 <1>   0.0800 
 46 H       -4.9610    -4.1590     3.7730 H     1 <1>   0.0800 
 47 H       -0.5910     1.7410     1.0580 H     1 <1>   0.0800 
 48 H       -0.5040     1.1450    -0.5850 H     1 <1>   0.0800 
 49 H       -1.3550     1.0580     2.9930 H     1 <1>   0.0800 
 50 H       -2.5800    -0.0550     3.5440 H     1 <1>   0.0800 
 51 H        0.0670     2.2780    -2.5490 H     1 <1>   0.0800 
 52 H        0.3490     3.9890    -2.7740 H     1 <1>   0.0800 
 53 H       -0.9750     3.2080    -3.6000 H     1 <1>   0.0800 
 54 H       -4.3060     5.1140     1.6690 H     1 <1>   0.1500 
 55 H       -3.1000     6.9030    -2.0010 H     1 <1>   0.1500 
 56 H       -4.5880     8.7900    -1.5680 H     1 <1>   0.1500 
 57 H       -5.9410     8.8570     0.4750 H     1 <1>   0.1500 
 58 H       -6.0790     8.0320     2.8640 H     1 <1>   0.0800 
 59 H       -5.6300     6.3880     3.2310 H     1 <1>   0.0800 
 60 H       -7.0490     6.7070     2.2600 H     1 <1>   0.0800 
@<TRIPOS>BOND
  1   1   2  1   
  2   1   3  1   
  3   2   4  2   
  4   2  32  1   
  5   3   5  2   
  6   3  33  1   
  7   4   5  1   
  8   5   6  1   
  9   6   7  1   
 10   6  34  1   
 11   6  35  1   
 12   7   8  1   
 13   7   9  1   
 14   7  10  1   
 15   8  11  2   
 16   8  12  am  
 17   9  13  1   
 18   9  14  1   
 19   9  36  1   
 20  10  15  1   
 21  10  37  1   
 22  10  38  1   
 23  12  16  1   
 24  12  39  1   
 25  13  15  1   
 26  13  17  1   
 27  13  40  1   
 28  14  18  1   
 29  14  41  1   
 30  14  42  1   
 31  15  18  1   
 32  15  43  1   
 33  16  44  1   
 34  16  45  1   
 35  16  46  1   
 36  17  19  1   
 37  17  47  1   
 38  17  48  1   
 39  18  49  1   
 40  18  50  1   
 41  19  20  1   
 42  19  21  2   
 43  20  22  2   
 44  21  23  1   
 45  21  24  1   
 46  22  23  1   
 47  22  25  1   
 48  24  51  1   
 49  24  52  1   
 50  24  53  1   
 51  25  26  ar  
 52  25  27  ar  
 53  26  28  ar  
 54  26  54  1   
 55  27  29  ar  
 56  27  55  1   
 57  28  30  ar  
 58  28  31  1   
 59  29  30  ar  
 60  29  56  1   
 61  30  57  1   
 62  31  58  1   
 63  31  59  1   
 64  31  60  1   
@<TRIPOS>SUBSTRUCTURE
  1 ****  13 GROUP 4 **** **** 0

# MOE 2024.06 (io_trps.svl 2023.06)
