@<TRIPOS>MOLECULE
NONAME
48 50 1 0 0 
SMALL
USER_CHARGES


@<TRIPOS>ATOM
  1 O        0.6190    -1.1470    -1.0010 O.3   1 <1>  -0.3630 
  2 C        0.3200    -2.4460    -0.7640 C.ar  1 <1>   0.0830 
  3 C        1.6490    -0.4880    -0.2990 C.3   1 <1>   0.0400 
  4 C       -0.7020    -3.0020    -1.5150 C.ar  1 <1>  -0.1500 
  5 C        0.9740    -3.2370     0.1750 C.ar  1 <1>  -0.1500 
  6 C       -1.0700    -4.3230    -1.3340 C.ar  1 <1>  -0.1500 
  7 C        0.5990    -4.5570     0.3500 C.ar  1 <1>  -0.1500 
  8 C       -0.4310    -5.1290    -0.3930 C.ar  1 <1>   0.0280 
  9 C       -0.7980    -6.5120    -0.1760 C.2   1 <1>  -0.1780 
 10 C       -1.9150    -7.1420    -0.5810 C.2   1 <1>  -0.2880 
 11 C       -2.2280    -8.5940    -0.3120 C.3   1 <1>   0.4810 
 12 N       -3.2800    -8.6220     0.7340 N.4   1 <1>  -0.9590 
 13 C       -4.6260    -8.1970     0.2200 C.3   1 <1>   0.3430 
 14 C       -3.4330    -9.9960     1.2980 C.3   1 <1>   0.3430 
 15 C       -5.6110    -9.3090     0.6100 C.3   1 <1>   0.2000 
 16 C       -4.7400   -10.5560     0.7260 C.3   1 <1>  -0.0800 
 17 O       -6.1720    -9.0320     1.8500 O.3   1 <1>  -0.6800 
 18 C       -4.5750   -11.2320    -0.6560 C.3   1 <1>  -0.0170 
 19 C       -3.4090   -12.2070    -0.7150 C.ar  1 <1>   0.1670 
 20 N       -2.2160   -11.6750    -0.9410 N.ar  1 <1>  -0.6200 
 21 C       -3.6290   -13.5730    -0.5440 C.ar  1 <1>   0.1600 
 22 C       -1.2680   -12.6020    -1.0040 C.ar  1 <1>   0.1600 
 23 N       -2.6790   -14.4890    -0.5860 N.ar  1 <1>  -0.6200 
 24 C       -1.4930   -13.9620    -0.8290 C.ar  1 <1>   0.1600 
 25 H        1.7020     0.5240    -0.6580 H     1 <1>   0.0800 
 26 H        2.5800    -0.9920    -0.4890 H     1 <1>   0.0800 
 27 H        1.4140    -0.4920     0.7510 H     1 <1>   0.0800 
 28 H       -1.2020    -2.3890    -2.2430 H     1 <1>   0.1500 
 29 H        1.7720    -2.8410     0.7730 H     1 <1>   0.1500 
 30 H       -1.8600    -4.7210    -1.9420 H     1 <1>   0.1500 
 31 H        1.1180    -5.1500     1.0820 H     1 <1>   0.1500 
 32 H       -0.0550    -7.0550     0.3840 H     1 <1>   0.1500 
 33 H       -2.6850    -6.6450    -1.1420 H     1 <1>   0.1500 
 34 H       -1.3420    -9.0910     0.0490 H     1 <1>   0.0800 
 35 H       -2.5540    -9.0950    -1.2100 H     1 <1>   0.0800 
 36 H       -2.9680    -7.9690     1.4650 H     1 <1>   0.4500 
 37 H       -4.9340    -7.2490     0.6320 H     1 <1>   0.0800 
 38 H       -4.5940    -8.1180    -0.8540 H     1 <1>   0.0800 
 39 H       -2.5830   -10.6220     1.0810 H     1 <1>   0.0800 
 40 H       -3.5280    -9.9280     2.3700 H     1 <1>   0.0800 
 41 H       -6.4170    -9.4100    -0.0980 H     1 <1>   0.0800 
 42 H       -5.1670   -11.2750     1.4060 H     1 <1>   0.0800 
 43 H       -5.5150    -8.9270     2.5650 H     1 <1>   0.4000 
 44 H       -4.4220   -10.4960    -1.4270 H     1 <1>   0.0800 
 45 H       -5.4850   -11.7510    -0.9020 H     1 <1>   0.0800 
 46 H       -4.6290   -13.9270    -0.3650 H     1 <1>   0.1500 
 47 H       -0.2620   -12.2750    -1.2030 H     1 <1>   0.1500 
 48 H       -0.6590   -14.6400    -0.8950 H     1 <1>   0.1500 
@<TRIPOS>BOND
  1   1   2  1   
  2   1   3  1   
  3   2   4  ar  
  4   2   5  ar  
  5   3  25  1   
  6   3  26  1   
  7   3  27  1   
  8   4   6  ar  
  9   4  28  1   
 10   5   7  ar  
 11   5  29  1   
 12   6   8  ar  
 13   6  30  1   
 14   7   8  ar  
 15   7  31  1   
 16   8   9  1   
 17   9  10  2   
 18   9  32  1   
 19  10  11  1   
 20  10  33  1   
 21  11  12  1   
 22  11  34  1   
 23  11  35  1   
 24  12  13  1   
 25  12  14  1   
 26  12  36  1   
 27  13  15  1   
 28  13  37  1   
 29  13  38  1   
 30  14  16  1   
 31  14  39  1   
 32  14  40  1   
 33  15  16  1   
 34  15  17  1   
 35  15  41  1   
 36  16  18  1   
 37  16  42  1   
 38  17  43  1   
 39  18  19  1   
 40  18  44  1   
 41  18  45  1   
 42  19  20  ar  
 43  19  21  ar  
 44  20  22  ar  
 45  21  23  ar  
 46  21  46  1   
 47  22  24  ar  
 48  22  47  1   
 49  23  24  ar  
 50  24  48  1   
@<TRIPOS>SUBSTRUCTURE
  1 ****  11 GROUP 4 **** **** 0

# MOE 2024.06 (io_trps.svl 2023.06)
