@<TRIPOS>MOLECULE
NONAME
46 48 1 0 0 
SMALL
USER_CHARGES


@<TRIPOS>ATOM
  1 S        0.2900     0.0100     0.7940 S.o2  1 <1>   1.3330 
  2 O       -0.5510     0.0500     1.9690 O.2   1 <1>  -0.6500 
  3 O        1.7270     0.0810     0.9360 O.2   1 <1>  -0.6500 
  4 N       -0.0740    -1.4010    -0.0760 N.am  1 <1>  -0.8490 
  5 C       -0.2550     1.3080    -0.3140 C.3   1 <1>  -0.0550 
  6 C       -0.3700    -2.5360     0.8040 C.3   1 <1>   0.1160 
  7 C        0.9650    -1.7770    -1.0410 C.3   1 <1>   0.1160 
  8 C       -0.1210     2.7170     0.2870 C.3   1 <1>  -0.0800 
  9 C       -0.6820     3.7940    -0.6360 C.3   1 <1>   0.2000 
 10 C        1.3230     3.1620     0.5370 C.3   1 <1>   0.1400 
 11 O       -2.0550     3.8820    -0.4820 O.3   1 <1>  -0.6800 
 12 C        0.0250     5.0830    -0.2280 C.3   1 <1>   0.1400 
 13 N        1.3090     4.6360     0.3680 N.am  1 <1>  -0.6600 
 14 C        2.4180     5.4280     0.6260 C.2   1 <1>   0.5440 
 15 O        3.4400     4.8380     0.9400 O.2   1 <1>  -0.5700 
 16 C        2.4430     6.8960     0.5280 C.ar  1 <1>   0.3960 
 17 N        1.2790     7.6190     0.5750 N.ar  1 <1>  -0.6200 
 18 C        3.6470     7.5520     0.3970 C.ar  1 <1>  -0.1500 
 19 C        1.3500     8.9120     0.4920 C.ar  1 <1>   0.1600 
 20 C        3.7430     8.9480     0.3030 C.ar  1 <1>   0.0000 
 21 C        2.5380     9.6590     0.3520 C.ar  1 <1>   0.0000 
 22 C        4.9540     9.6520     0.1660 C.ar  1 <1>  -0.1500 
 23 C        2.5760    11.0650     0.2610 C.ar  1 <1>  -0.1500 
 24 C        4.9660    11.0180     0.0790 C.ar  1 <1>  -0.1500 
 25 C        3.7640    11.7320     0.1270 C.ar  1 <1>  -0.1500 
 26 H        0.3010     1.2560    -1.2280 H     1 <1>   0.0800 
 27 H       -1.2890     1.1390    -0.5500 H     1 <1>   0.0800 
 28 H       -0.6110    -3.4080     0.2220 H     1 <1>   0.0800 
 29 H       -1.2160    -2.3060     1.4300 H     1 <1>   0.0800 
 30 H        0.4780    -2.7510     1.4340 H     1 <1>   0.0800 
 31 H        0.6400    -2.6210    -1.6250 H     1 <1>   0.0800 
 32 H        1.8790    -2.0350    -0.5300 H     1 <1>   0.0800 
 33 H        1.1650    -0.9580    -1.7100 H     1 <1>   0.0800 
 34 H       -0.6350     2.7550     1.2330 H     1 <1>   0.0800 
 35 H       -0.4690     3.5760    -1.6690 H     1 <1>   0.0800 
 36 H        1.9960     2.7350    -0.1860 H     1 <1>   0.0800 
 37 H        1.6560     2.8960     1.5280 H     1 <1>   0.0800 
 38 H       -2.2820     4.0720     0.4490 H     1 <1>   0.4000 
 39 H       -0.5420     5.6140     0.5170 H     1 <1>   0.0800 
 40 H        0.2010     5.7140    -1.0820 H     1 <1>   0.0800 
 41 H        4.5590     6.9840     0.3670 H     1 <1>   0.1500 
 42 H        0.4300     9.4680     0.5320 H     1 <1>   0.1500 
 43 H        5.8740     9.0960     0.1310 H     1 <1>   0.1500 
 44 H        1.6500    11.6120     0.2990 H     1 <1>   0.1500 
 45 H        5.8920    11.5570    -0.0260 H     1 <1>   0.1500 
 46 H        3.7900    12.8060     0.0570 H     1 <1>   0.1500 
@<TRIPOS>BOND
  1   1   2  2   
  2   1   3  2   
  3   1   4  am  
  4   1   5  1   
  5   4   6  1   
  6   4   7  1   
  7   5   8  1   
  8   5  26  1   
  9   5  27  1   
 10   6  28  1   
 11   6  29  1   
 12   6  30  1   
 13   7  31  1   
 14   7  32  1   
 15   7  33  1   
 16   8   9  1   
 17   8  10  1   
 18   8  34  1   
 19   9  11  1   
 20   9  12  1   
 21   9  35  1   
 22  10  13  1   
 23  10  36  1   
 24  10  37  1   
 25  11  38  1   
 26  12  13  1   
 27  12  39  1   
 28  12  40  1   
 29  13  14  am  
 30  14  15  2   
 31  14  16  1   
 32  16  17  ar  
 33  16  18  ar  
 34  17  19  ar  
 35  18  20  ar  
 36  18  41  1   
 37  19  21  ar  
 38  19  42  1   
 39  20  21  ar  
 40  20  22  ar  
 41  21  23  ar  
 42  22  24  ar  
 43  22  43  1   
 44  23  25  ar  
 45  23  44  1   
 46  24  25  ar  
 47  24  45  1   
 48  25  46  1   
@<TRIPOS>SUBSTRUCTURE
  1 ****  13 GROUP 4 **** **** 0

# MOE 2024.06 (io_trps.svl 2023.06)
