@<TRIPOS>MOLECULE
Untitled Document
43 44 1 0 0 
SMALL
USER_CHARGES


@<TRIPOS>ATOM
  1 O        0.7860     0.2250    -1.9310 O.2   1 <1>  -0.5700 
  2 C        1.6170    -0.5240    -1.4430 C.2   1 <1>   0.7060 
  3 O        2.8300    -0.0280    -1.2110 O.3   1 <1>  -0.2330 
  4 C        1.3490    -1.8840    -1.0910 C.2   1 <1>  -0.1240 
  5 C        3.8460    -0.7280    -0.6610 C.ar  1 <1>   0.0820 
  6 C        2.3220    -2.6400    -0.5010 C.2   1 <1>  -0.1670 
  7 C       -0.0610    -2.3950    -1.4040 C.3   1 <1>  -0.0220 
  8 C        3.6160    -2.0640    -0.3070 C.ar  1 <1>   0.0280 
  9 C        5.0860    -0.0890    -0.4710 C.ar  1 <1>   0.0860 
 10 C        2.0940    -4.0750    -0.0170 C.3   1 <1>  -0.1020 
 11 C       -1.0150    -2.0410    -0.2660 C.3   1 <1>   0.1200 
 12 C        4.7100    -2.7790     0.2220 C.ar  1 <1>  -0.1500 
 13 C        6.1520    -0.8380     0.1000 C.ar  1 <1>  -0.1710 
 14 C        5.3320     1.2760    -0.8190 C.2   1 <1>   0.4240 
 15 O       -2.2280    -2.6790    -0.5010 O.3   1 <1>  -0.5600 
 16 C        5.9330    -2.2160     0.4250 C.ar  1 <1>   0.0820 
 17 O        7.2390    -0.2560     0.2990 O.3   1 <1>  -0.8290 
 18 O        4.5530     2.0770    -1.3090 O.2   1 <1>  -0.5700 
 19 C       -3.2100    -2.3760     0.4410 C.3   1 <1>   0.1200 
 20 O        6.8700    -3.0740     0.9440 O.3   1 <1>  -0.3630 
 21 C       -4.4850    -3.1280     0.0710 C.3   1 <1>   0.1200 
 22 C        8.2140    -2.6760     1.0850 C.3   1 <1>   0.0400 
 23 O       -5.4580    -2.8450     1.0280 O.3   1 <1>  -0.5600 
 24 C       -6.6760    -3.4720     0.7900 C.3   1 <1>   0.0400 
 25 H       -0.0630    -3.4550    -1.5670 H     1 <1>   0.0800 
 26 H       -0.4230    -1.9470    -2.3130 H     1 <1>   0.0800 
 27 H        2.4420    -4.1780     0.9950 H     1 <1>   0.0800 
 28 H        2.6380    -4.7610    -0.6420 H     1 <1>   0.0800 
 29 H        1.0620    -4.3650    -0.0120 H     1 <1>   0.0800 
 30 H       -1.1760    -0.9760    -0.2320 H     1 <1>   0.0800 
 31 H       -0.6230    -2.3840     0.6760 H     1 <1>   0.0800 
 32 H        4.6020    -3.8120     0.4790 H     1 <1>   0.1500 
 33 H        6.3180     1.6590    -0.6330 H     1 <1>   0.0600 
 34 H       -3.3910    -1.3150     0.4250 H     1 <1>   0.0800 
 35 H       -2.8670    -2.6870     1.4120 H     1 <1>   0.0800 
 36 H       -4.3020    -4.1880     0.0680 H     1 <1>   0.0800 
 37 H       -4.8400    -2.8020    -0.8920 H     1 <1>   0.0800 
 38 H        8.7860    -3.5180     1.4250 H     1 <1>   0.0800 
 39 H        8.2600    -1.8770     1.8030 H     1 <1>   0.0800 
 40 H        8.5740    -2.3360     0.1300 H     1 <1>   0.0800 
 41 H       -7.3550    -3.1940     1.5770 H     1 <1>   0.0800 
 42 H       -6.5330    -4.5390     0.7940 H     1 <1>   0.0800 
 43 H       -7.0660    -3.1440    -0.1580 H     1 <1>   0.0800 
@<TRIPOS>BOND
  1   1   2  2   
  2   2   3  1   
  3   2   4  1   
  4   3   5  1   
  5   4   6  2   
  6   4   7  1   
  7   5   8  ar  
  8   5   9  ar  
  9   6   8  1   
 10   6  10  1   
 11   7  11  1   
 12   7  25  1   
 13   7  26  1   
 14   8  12  ar  
 15   9  13  ar  
 16   9  14  1   
 17  10  27  1   
 18  10  28  1   
 19  10  29  1   
 20  11  15  1   
 21  11  30  1   
 22  11  31  1   
 23  12  16  ar  
 24  12  32  1   
 25  13  16  ar  
 26  13  17  1   
 27  14  18  2   
 28  14  33  1   
 29  15  19  1   
 30  16  20  1   
 31  19  21  1   
 32  19  34  1   
 33  19  35  1   
 34  20  22  1   
 35  21  23  1   
 36  21  36  1   
 37  21  37  1   
 38  22  38  1   
 39  22  39  1   
 40  22  40  1   
 41  23  24  1   
 42  24  41  1   
 43  24  42  1   
 44  24  43  1   
@<TRIPOS>SUBSTRUCTURE
  1 ****   6 GROUP 4 **** **** 0

# MOE 2024.06 (io_trps.svl 2023.06)
