@<TRIPOS>MOLECULE
NONAME
50 52 1 0 0 
SMALL
USER_CHARGES


@<TRIPOS>ATOM
  1 O       -0.4000    -2.8630    -1.3160 O.2   1 <1>  -0.5700 
  2 C       -1.5440    -3.0750    -0.9750 C.2   1 <1>   0.6900 
  3 N       -2.1440    -2.4130     0.0760 N.am  1 <1>  -0.4200 
  4 N       -2.2640    -4.0070    -1.6650 N.am  1 <1>  -0.5390 
  5 C       -3.4620    -2.6830     0.4020 C.2   1 <1>   0.6160 
  6 C       -1.3810    -1.3790     0.8330 C.3   1 <1>   0.0600 
  7 C       -3.5720    -4.3240    -1.3640 C.2   1 <1>  -0.0410 
  8 O       -4.0030    -2.0750     1.3100 O.2   1 <1>  -0.5700 
  9 C       -4.1850    -3.6820    -0.3400 C.2   1 <1>  -0.1240 
 10 C       -5.6260    -3.9370     0.1100 C.3   1 <1>  -0.0220 
 11 C       -6.3310    -5.0670    -0.6440 C.3   1 <1>   0.3430 
 12 N       -7.6510    -5.3950    -0.0310 N.4   1 <1>  -0.9590 
 13 C       -8.1400    -6.7110    -0.5630 C.3   1 <1>   0.3430 
 14 C       -8.6800    -4.3260    -0.2250 C.3   1 <1>   0.3430 
 15 C       -9.4360    -7.1600     0.1380 C.3   1 <1>   0.2000 
 16 C       -9.9830    -4.7210     0.4790 C.3   1 <1>  -0.1600 
 17 O       -9.9060    -8.3170    -0.4800 O.3   1 <1>  -0.5600 
 18 C      -10.5170    -6.0850     0.0070 C.3   1 <1>  -0.1600 
 19 C       -9.5710    -9.5260     0.1600 C.3   1 <1>   0.2630 
 20 C       -8.0640    -9.7930     0.1230 C.ar  1 <1>   0.1670 
 21 N       -7.3230    -9.2650     1.0950 N.ar  1 <1>  -0.6200 
 22 C       -7.5450   -10.5610    -0.9090 C.ar  1 <1>  -0.1500 
 23 C       -6.0300    -9.5530     1.0530 C.ar  1 <1>   0.1600 
 24 C       -6.1930   -10.8290    -0.9510 C.ar  1 <1>  -0.1500 
 25 C       -5.4240   -10.3100     0.0670 C.ar  1 <1>  -0.1500 
 26 H       -1.7410    -4.4450    -2.4280 H     1 <1>   0.3700 
 27 H       -0.3240    -1.5750     0.7800 H     1 <1>   0.0800 
 28 H       -1.6750    -1.3820     1.8690 H     1 <1>   0.0800 
 29 H       -1.5800    -0.4080     0.4140 H     1 <1>   0.0800 
 30 H       -4.0290    -5.0810    -1.9800 H     1 <1>   0.1500 
 31 H       -6.1780    -3.0210    -0.0120 H     1 <1>   0.0800 
 32 H       -5.6060    -4.1800     1.1580 H     1 <1>   0.0800 
 33 H       -5.7010    -5.9420    -0.6080 H     1 <1>   0.0800 
 34 H       -6.4610    -4.7910    -1.6780 H     1 <1>   0.0800 
 35 H       -7.5150    -5.5250     0.9820 H     1 <1>   0.4500 
 36 H       -7.3820    -7.4610    -0.4230 H     1 <1>   0.0800 
 37 H       -8.3400    -6.6220    -1.6180 H     1 <1>   0.0800 
 38 H       -8.8700    -4.1900    -1.2770 H     1 <1>   0.0800 
 39 H       -8.3270    -3.3910     0.1800 H     1 <1>   0.0800 
 40 H       -9.2470    -7.3610     1.1800 H     1 <1>   0.0800 
 41 H      -10.7260    -3.9660     0.2840 H     1 <1>   0.0800 
 42 H       -9.8220    -4.7390     1.5440 H     1 <1>   0.0800 
 43 H      -11.3750    -6.3640     0.5940 H     1 <1>   0.0800 
 44 H      -10.8220    -6.0110    -1.0240 H     1 <1>   0.0800 
 45 H      -10.0940   -10.3130    -0.3510 H     1 <1>   0.0800 
 46 H       -9.9240    -9.4950     1.1770 H     1 <1>   0.0800 
 47 H       -8.1920   -10.9530    -1.6740 H     1 <1>   0.1500 
 48 H       -5.4160    -9.1660     1.8500 H     1 <1>   0.1500 
 49 H       -5.7610   -11.4250    -1.7380 H     1 <1>   0.1500 
 50 H       -4.3660   -10.4980     0.1010 H     1 <1>   0.1500 
@<TRIPOS>BOND
  1   1   2  2   
  2   2   3  am  
  3   2   4  am  
  4   3   5  am  
  5   3   6  1   
  6   4   7  1   
  7   4  26  1   
  8   5   8  2   
  9   5   9  1   
 10   6  27  1   
 11   6  28  1   
 12   6  29  1   
 13   7   9  2   
 14   7  30  1   
 15   9  10  1   
 16  10  11  1   
 17  10  31  1   
 18  10  32  1   
 19  11  12  1   
 20  11  33  1   
 21  11  34  1   
 22  12  13  1   
 23  12  14  1   
 24  12  35  1   
 25  13  15  1   
 26  13  36  1   
 27  13  37  1   
 28  14  16  1   
 29  14  38  1   
 30  14  39  1   
 31  15  17  1   
 32  15  18  1   
 33  15  40  1   
 34  16  18  1   
 35  16  41  1   
 36  16  42  1   
 37  17  19  1   
 38  18  43  1   
 39  18  44  1   
 40  19  20  1   
 41  19  45  1   
 42  19  46  1   
 43  20  21  ar  
 44  20  22  ar  
 45  21  23  ar  
 46  22  24  ar  
 47  22  47  1   
 48  23  25  ar  
 49  23  48  1   
 50  24  25  ar  
 51  24  49  1   
 52  25  50  1   
@<TRIPOS>SUBSTRUCTURE
  1 ****  11 GROUP 4 **** **** 0

# MOE 2024.06 (io_trps.svl 2023.06)
