@<TRIPOS>MOLECULE
NONAME
46 49 1 0 0 
SMALL
USER_CHARGES


@<TRIPOS>ATOM
  1 F       -1.5220    -2.1660     0.8700 F     1 <1>  -0.1900 
  2 C       -0.4820    -2.8210     0.4300 C.ar  1 <1>   0.1900 
  3 C        0.7800    -2.3450     0.7260 C.ar  1 <1>  -0.1500 
  4 C       -0.6790    -3.9650    -0.3160 C.ar  1 <1>  -0.1500 
  5 C        1.8810    -3.0460     0.2620 C.ar  1 <1>  -0.1500 
  6 C        0.4300    -4.6540    -0.7740 C.ar  1 <1>  -0.1500 
  7 C        1.7170    -4.2130    -0.4820 C.ar  1 <1>  -0.1080 
  8 C        2.9090    -5.0190    -1.0050 C.3   1 <1>   0.3330 
  9 N        2.9100    -6.4430    -0.5030 N.am  1 <1>  -0.5100 
 10 C        4.2580    -4.8410    -0.2750 C.3   1 <1>   0.0000 
 11 C        2.2940    -7.4450    -1.1940 C.2   1 <1>   0.5690 
 12 C        4.4090    -6.3600    -0.4510 C.3   1 <1>   0.2250 
 13 O        2.1390    -7.3640    -2.3940 O.2   1 <1>  -0.5700 
 14 C        1.7740    -8.6920    -0.4400 C.3   1 <1>   0.2050 
 15 C        0.3390    -8.4120     0.0820 C.ar  1 <1>  -0.1440 
 16 C        2.6660    -9.1180     0.7450 C.3   1 <1>  -0.1600 
 17 C        1.8950    -9.9570    -1.3190 C.3   1 <1>  -0.1600 
 18 C        0.1500    -7.3860     1.0030 C.ar  1 <1>  -0.1500 
 19 C       -0.7870    -9.1230    -0.3270 C.ar  1 <1>  -0.1500 
 20 C        2.3420   -10.5930     0.9950 C.3   1 <1>  -0.1600 
 21 C        1.9070   -11.1550    -0.3620 C.3   1 <1>  -0.1600 
 22 C       -1.1050    -7.0790     1.4980 C.ar  1 <1>  -0.1500 
 23 C       -2.0450    -8.8210     0.1660 C.ar  1 <1>  -0.1500 
 24 C       -2.2070    -7.7990     1.0800 C.ar  1 <1>  -0.1500 
 25 H        0.8940    -1.4460     1.3040 H     1 <1>   0.1500 
 26 H       -1.6740    -4.3100    -0.5320 H     1 <1>   0.1500 
 27 H        2.8630    -2.6680     0.4880 H     1 <1>   0.1500 
 28 H        0.2830    -5.5460    -1.3620 H     1 <1>   0.1500 
 29 H        3.0100    -4.9790    -2.0770 H     1 <1>   0.0000 
 30 H        4.1750    -4.5600     0.7610 H     1 <1>   0.0000 
 31 H        4.9820    -4.2620    -0.8200 H     1 <1>   0.0000 
 32 H        4.8580    -6.6520    -1.3840 H     1 <1>   0.0000 
 33 H        4.8150    -6.8550     0.4130 H     1 <1>   0.0000 
 34 H        2.5150    -8.5230     1.6270 H     1 <1>   0.0800 
 35 H        3.6990    -9.0440     0.4560 H     1 <1>   0.0800 
 36 H        2.8450    -9.9280    -1.8240 H     1 <1>   0.0800 
 37 H        1.1400   -10.0230    -2.0790 H     1 <1>   0.0800 
 38 H        0.9840    -6.8000     1.3470 H     1 <1>   0.1500 
 39 H       -0.7190    -9.9250    -1.0370 H     1 <1>   0.1500 
 40 H        1.5240   -10.6690     1.6920 H     1 <1>   0.0800 
 41 H        3.1910   -11.1210     1.3940 H     1 <1>   0.0800 
 42 H        2.5860   -11.9140    -0.7100 H     1 <1>   0.0800 
 43 H        0.9220   -11.5820    -0.2790 H     1 <1>   0.0800 
 44 H       -1.2210    -6.2780     2.2070 H     1 <1>   0.1500 
 45 H       -2.8990    -9.3850    -0.1640 H     1 <1>   0.1500 
 46 H       -3.1840    -7.5630     1.4630 H     1 <1>   0.1500 
@<TRIPOS>BOND
  1   1   2  1   
  2   2   3  ar  
  3   2   4  ar  
  4   3   5  ar  
  5   3  25  1   
  6   4   6  ar  
  7   4  26  1   
  8   5   7  ar  
  9   5  27  1   
 10   6   7  ar  
 11   6  28  1   
 12   7   8  1   
 13   8   9  1   
 14   8  10  1   
 15   8  29  1   
 16   9  11  am  
 17   9  12  1   
 18  10  12  1   
 19  10  30  1   
 20  10  31  1   
 21  11  13  2   
 22  11  14  1   
 23  12  32  1   
 24  12  33  1   
 25  14  15  1   
 26  14  16  1   
 27  14  17  1   
 28  15  18  ar  
 29  15  19  ar  
 30  16  20  1   
 31  16  34  1   
 32  16  35  1   
 33  17  21  1   
 34  17  36  1   
 35  17  37  1   
 36  18  22  ar  
 37  18  38  1   
 38  19  23  ar  
 39  19  39  1   
 40  20  21  1   
 41  20  40  1   
 42  20  41  1   
 43  21  42  1   
 44  21  43  1   
 45  22  24  ar  
 46  22  44  1   
 47  23  24  ar  
 48  23  45  1   
 49  24  46  1   
@<TRIPOS>SUBSTRUCTURE
  1 ****  18 GROUP 4 **** **** 0

# MOE 2024.06 (io_trps.svl 2023.06)
