@<TRIPOS>MOLECULE
NONAME
45 47 1 0 0 
SMALL
USER_CHARGES


@<TRIPOS>ATOM
  1 CL       1.6790    -1.8580     3.5500 Cl    1 <1>  -0.1400 
  2 C        1.2200    -2.8780     2.2100 C.2   1 <1>   0.1400 
  3 C        1.3990    -4.2300     2.2710 C.2   1 <1>   0.2290 
  4 C        0.6630    -2.2640     1.0700 C.2   1 <1>  -0.1500 
  5 N        1.0280    -5.0190     1.1940 N.pl3 1 <1>  -0.6290 
  6 C        0.2990    -3.0580     0.0130 C.2   1 <1>  -0.1410 
  7 C        0.4880    -4.4510     0.0860 C.cat 1 <1>   0.7910 
  8 C        1.0840    -6.3770     0.9660 C.2   1 <1>   0.2000 
  9 N        0.2180    -5.4180    -0.7960 N.pl3 1 <1>  -0.7000 
 10 C        0.5840    -6.6450    -0.2660 C.2   1 <1>   0.2770 
 11 C        0.4260    -7.9180    -0.9530 C.2   1 <1>   0.7030 
 12 O       -0.0620    -7.9330    -2.0650 O.2   1 <1>  -0.5700 
 13 N        0.7860    -9.1070    -0.3850 N.am  1 <1>  -0.7300 
 14 C        0.7180   -10.4370    -1.0430 C.3   1 <1>   0.2200 
 15 C       -0.4860   -11.2240    -0.5380 C.3   1 <1>  -0.0800 
 16 C        1.8440   -11.2870    -0.4760 C.3   1 <1>   0.1200 
 17 C        0.0230   -11.8160     0.7880 C.3   1 <1>   0.1200 
 18 C       -1.7960   -10.4170    -0.4320 C.3   1 <1>  -0.0550 
 19 O        1.4050   -11.5930     0.8100 O.3   1 <1>  -0.5600 
 20 S       -3.2050   -11.4060     0.0580 S.o2  1 <1>   1.3330 
 21 O       -3.4350   -12.4250    -0.9400 O.2   1 <1>  -0.6500 
 22 O       -3.0050   -11.7770     1.4400 O.2   1 <1>  -0.6500 
 23 N       -4.4790   -10.2860    -0.0160 N.am  1 <1>  -0.8490 
 24 C       -5.0410   -10.1360    -1.3630 C.3   1 <1>   0.1160 
 25 C       -5.5510   -10.6060     0.9320 C.3   1 <1>   0.1160 
 26 H        1.8250    -4.7040     3.1410 H     1 <1>   0.1500 
 27 H        0.5380    -1.1920     1.0600 H     1 <1>   0.1500 
 28 H       -0.1310    -2.6430    -0.8800 H     1 <1>   0.1500 
 29 H        1.4770    -7.0700     1.6940 H     1 <1>   0.1500 
 30 H       -0.1910    -5.3090    -1.7310 H     1 <1>   0.4500 
 31 H        1.1260    -9.1910     0.5780 H     1 <1>   0.3700 
 32 H        0.7540   -10.3540    -2.1170 H     1 <1>   0.0800 
 33 H       -0.6550   -12.0460    -1.2130 H     1 <1>   0.0800 
 34 H        2.7860   -10.7690    -0.4290 H     1 <1>   0.0800 
 35 H        1.9560   -12.2080    -1.0230 H     1 <1>   0.0800 
 36 H       -0.1610   -12.8760     0.8470 H     1 <1>   0.0800 
 37 H       -0.4040   -11.3280     1.6480 H     1 <1>   0.0800 
 38 H       -1.9970    -9.9740    -1.3870 H     1 <1>   0.0800 
 39 H       -1.6790    -9.6240     0.2790 H     1 <1>   0.0800 
 40 H       -5.7830    -9.3560    -1.3690 H     1 <1>   0.0800 
 41 H       -5.4990   -11.0570    -1.6860 H     1 <1>   0.0800 
 42 H       -4.2670    -9.8730    -2.0640 H     1 <1>   0.0800 
 43 H       -6.3360    -9.8720     0.8710 H     1 <1>   0.0800 
 44 H       -5.1680   -10.6040     1.9390 H     1 <1>   0.0800 
 45 H       -5.9600   -11.5810     0.7210 H     1 <1>   0.0800 
@<TRIPOS>BOND
  1   1   2  1   
  2   2   3  2   
  3   2   4  1   
  4   3   5  1   
  5   3  26  1   
  6   4   6  2   
  7   4  27  1   
  8   5   7  ar  
  9   5   8  1   
 10   6   7  1   
 11   6  28  1   
 12   7   9  ar  
 13   8  10  2   
 14   8  29  1   
 15   9  10  1   
 16   9  30  1   
 17  10  11  1   
 18  11  12  2   
 19  11  13  am  
 20  13  14  1   
 21  13  31  1   
 22  14  15  1   
 23  14  16  1   
 24  14  32  1   
 25  15  17  1   
 26  15  18  1   
 27  15  33  1   
 28  16  19  1   
 29  16  34  1   
 30  16  35  1   
 31  17  19  1   
 32  17  36  1   
 33  17  37  1   
 34  18  20  1   
 35  18  38  1   
 36  18  39  1   
 37  20  21  2   
 38  20  22  2   
 39  20  23  am  
 40  23  24  1   
 41  23  25  1   
 42  24  40  1   
 43  24  41  1   
 44  24  42  1   
 45  25  43  1   
 46  25  44  1   
 47  25  45  1   
@<TRIPOS>SUBSTRUCTURE
  1 ****  11 GROUP 4 **** **** 0

# MOE 2024.06 (io_trps.svl 2023.06)
