@<TRIPOS>MOLECULE
NONAME
45 48 1 0 0 
SMALL
USER_CHARGES


@<TRIPOS>ATOM
  1 O       -2.1770     2.0110    -0.0180 O.3   1 <1>  -0.5600 
  2 C       -2.0280     1.8470    -1.4090 C.3   1 <1>   0.2000 
  3 C       -2.0560     0.8490     0.7690 C.3   1 <1>   0.2640 
  4 C       -0.5280     1.8990    -1.7580 C.3   1 <1>   0.3430 
  5 C       -2.7460     3.0480    -2.0590 C.3   1 <1>  -0.1600 
  6 C       -0.5880     0.5440     1.0490 C.ar  1 <1>   0.1660 
  7 N        0.0000     3.1170    -1.0840 N.4   1 <1>  -0.9590 
  8 C       -1.7860     4.1720    -2.5250 C.3   1 <1>  -0.1600 
  9 N       -0.0250    -0.4250     0.3380 N.ar  1 <1>  -0.6200 
 10 C        0.0850     1.2920     2.0040 C.ar  1 <1>  -0.1500 
 11 C       -0.5470     4.3990    -1.6370 C.3   1 <1>   0.3430 
 12 C        1.4840     3.1100    -0.8720 C.3   1 <1>   0.5240 
 13 C        1.2450    -0.6800     0.6150 C.ar  1 <1>   0.1600 
 14 C        1.4140     1.0340     2.2610 C.ar  1 <1>  -0.1500 
 15 C        1.9450     4.2880    -0.0030 C.2   1 <1>   0.3350 
 16 C        1.9990     0.0130     1.5450 C.ar  1 <1>  -0.1500 
 17 N        2.1530     4.1860     1.2760 N.2   1 <1>  -0.7070 
 18 N        2.1180     5.4900    -0.5530 N.2   1 <1>  -0.5650 
 19 N        2.5160     5.4260     1.5960 N.pl3 1 <1>   0.6010 
 20 C        2.4780     6.1980     0.4720 C.2   1 <1>   0.3120 
 21 C        2.8710     5.9810     2.8050 C.2   1 <1>  -0.1810 
 22 N        2.7740     7.5370     0.4650 N.2   1 <1>  -0.5760 
 23 C        3.1720     7.3070     2.8160 C.2   1 <1>  -0.1360 
 24 C        3.1080     8.0530     1.6040 C.2   1 <1>   0.3760 
 25 H       -2.4840     0.9210    -1.7170 H     1 <1>   0.0800 
 26 H       -2.5410     0.0220     0.2790 H     1 <1>   0.0800 
 27 H       -2.5650     1.0360     1.6970 H     1 <1>   0.0800 
 28 H       -0.3920     1.9610    -2.8240 H     1 <1>   0.0800 
 29 H       -0.0320     1.0140    -1.4060 H     1 <1>   0.0800 
 30 H       -3.4710     3.4480    -1.3710 H     1 <1>   0.0800 
 31 H       -3.2920     2.7000    -2.9190 H     1 <1>   0.0800 
 32 H       -0.4230     3.0390    -0.1420 H     1 <1>   0.4500 
 33 H       -2.3290     5.0980    -2.6110 H     1 <1>   0.0800 
 34 H       -1.4350     3.9370    -3.5150 H     1 <1>   0.0800 
 35 H       -0.4230     2.0710     2.5450 H     1 <1>   0.1500 
 36 H        0.2100     4.9050    -2.2160 H     1 <1>   0.0800 
 37 H       -0.8110     5.0470    -0.8160 H     1 <1>   0.0800 
 38 H        1.9900     3.1640    -1.8200 H     1 <1>   0.0800 
 39 H        1.7720     2.1960    -0.3810 H     1 <1>   0.0800 
 40 H        1.7120    -1.4850     0.0710 H     1 <1>   0.1500 
 41 H        1.9670     1.6000     2.9930 H     1 <1>   0.1500 
 42 H        3.0290    -0.2500     1.7120 H     1 <1>   0.1500 
 43 H        2.8860     5.3290     3.6590 H     1 <1>   0.1500 
 44 H        3.4610     7.8260     3.7130 H     1 <1>   0.1500 
 45 H        3.3530     9.1000     1.6490 H     1 <1>   0.0600 
@<TRIPOS>BOND
  1   1   2  1   
  2   1   3  1   
  3   2   4  1   
  4   2   5  1   
  5   2  25  1   
  6   3   6  1   
  7   3  26  1   
  8   3  27  1   
  9   4   7  1   
 10   4  28  1   
 11   4  29  1   
 12   5   8  1   
 13   5  30  1   
 14   5  31  1   
 15   6   9  ar  
 16   6  10  ar  
 17   7  11  1   
 18   7  12  1   
 19   7  32  1   
 20   8  11  1   
 21   8  33  1   
 22   8  34  1   
 23   9  13  ar  
 24  10  14  ar  
 25  10  35  1   
 26  11  36  1   
 27  11  37  1   
 28  12  15  1   
 29  12  38  1   
 30  12  39  1   
 31  13  16  ar  
 32  13  40  1   
 33  14  16  ar  
 34  14  41  1   
 35  15  17  2   
 36  15  18  1   
 37  16  42  1   
 38  17  19  1   
 39  18  20  2   
 40  19  20  1   
 41  19  21  1   
 42  20  22  1   
 43  21  23  2   
 44  21  43  1   
 45  22  24  2   
 46  23  24  1   
 47  23  44  1   
 48  24  45  1   
@<TRIPOS>SUBSTRUCTURE
  1 ****  12 GROUP 4 **** **** 0

# MOE 2024.06 (io_trps.svl 2023.06)
