@<TRIPOS>MOLECULE
NONAME
48 49 1 0 0 
SMALL
USER_CHARGES


@<TRIPOS>ATOM
  1 N       -1.1120    -0.2920    -0.8420 N.ar  1 <1>  -0.6200 
  2 C       -1.9860    -0.8790    -0.0480 C.ar  1 <1>   0.4100 
  3 C       -0.8210    -1.0300    -1.9070 C.ar  1 <1>   0.1600 
  4 N       -2.3640    -0.1750     1.1000 N.pl3 1 <1>  -0.8380 
  5 C       -2.5420    -2.1690    -0.3180 C.ar  1 <1>   0.4100 
  6 C       -1.3650    -2.2770    -2.1640 C.ar  1 <1>   0.1600 
  7 C       -3.2820     0.9660     0.8410 C.3   1 <1>   0.1290 
  8 C       -1.2440     0.2100     2.0030 C.3   1 <1>   0.1290 
  9 N       -2.2460    -2.8970    -1.3800 N.ar  1 <1>  -0.6200 
 10 N       -3.4640    -2.7130     0.5650 N.pl3 1 <1>  -0.8690 
 11 C       -3.2000    -4.0680     1.1590 C.3   1 <1>   0.2090 
 12 C       -3.3700    -5.2240     0.1360 C.3   1 <1>   0.5660 
 13 N       -4.3750    -4.8770    -0.9240 N.4   1 <1>  -0.9590 
 14 C       -3.6440    -6.5880     0.7770 C.ar  1 <1>  -0.1430 
 15 C       -5.7740    -4.6920    -0.4460 C.3   1 <1>   0.2630 
 16 C       -4.3050    -5.7990    -2.0880 C.3   1 <1>   0.2630 
 17 C       -2.8270    -7.6800     0.4830 C.ar  1 <1>  -0.1430 
 18 C       -4.7010    -6.7590     1.6680 C.ar  1 <1>  -0.1500 
 19 C       -3.0980    -8.9130     1.0560 C.ar  1 <1>  -0.1500 
 20 C       -1.6200    -7.5790    -0.4440 C.3   1 <1>  -0.0970 
 21 C       -4.9600    -7.9920     2.2350 C.ar  1 <1>  -0.1500 
 22 C       -4.1590    -9.0720     1.9260 C.ar  1 <1>  -0.1500 
 23 H       -0.1150    -0.6140    -2.6030 H     1 <1>   0.1500 
 24 H       -1.0600    -2.7910    -3.0600 H     1 <1>   0.1500 
 25 H       -4.0690     0.6620     0.1720 H     1 <1>   0.0800 
 26 H       -2.7400     1.7790     0.3870 H     1 <1>   0.0800 
 27 H       -3.7210     1.3040     1.7640 H     1 <1>   0.0800 
 28 H       -0.5550    -0.6110     2.1040 H     1 <1>   0.0800 
 29 H       -1.6260     0.4660     2.9760 H     1 <1>   0.0800 
 30 H       -0.7140     1.0550     1.5950 H     1 <1>   0.0800 
 31 H       -3.5830    -1.9990     1.3060 H     1 <1>   0.4000 
 32 H       -3.8730    -4.2140     1.9830 H     1 <1>   0.0800 
 33 H       -2.2000    -4.1020     1.5560 H     1 <1>   0.0800 
 34 H       -2.4170    -5.2910    -0.3590 H     1 <1>   0.0800 
 35 H       -4.0210    -3.9330    -1.2020 H     1 <1>   0.4500 
 36 H       -6.1840    -5.6320    -0.1170 H     1 <1>   0.0800 
 37 H       -6.3890    -4.3060    -1.2430 H     1 <1>   0.0800 
 38 H       -5.7970    -3.9890     0.3710 H     1 <1>   0.0800 
 39 H       -4.5750    -6.7990    -1.7850 H     1 <1>   0.0800 
 40 H       -3.3050    -5.8150    -2.4890 H     1 <1>   0.0800 
 41 H       -4.9800    -5.4750    -2.8620 H     1 <1>   0.0800 
 42 H       -5.3430    -5.9410     1.9420 H     1 <1>   0.1500 
 43 H       -2.4800    -9.7680     0.8360 H     1 <1>   0.1500 
 44 H       -1.9240    -7.3250    -1.4420 H     1 <1>   0.0800 
 45 H       -1.0930    -8.5160    -0.4910 H     1 <1>   0.0800 
 46 H       -0.9290    -6.8390    -0.0820 H     1 <1>   0.0800 
 47 H       -5.7820    -8.1150     2.9210 H     1 <1>   0.1500 
 48 H       -4.3570   -10.0360     2.3650 H     1 <1>   0.1500 
@<TRIPOS>BOND
  1   1   2  ar  
  2   1   3  ar  
  3   2   4  1   
  4   2   5  ar  
  5   3   6  ar  
  6   3  23  1   
  7   4   7  1   
  8   4   8  1   
  9   5   9  ar  
 10   5  10  1   
 11   6   9  ar  
 12   6  24  1   
 13   7  25  1   
 14   7  26  1   
 15   7  27  1   
 16   8  28  1   
 17   8  29  1   
 18   8  30  1   
 19  10  11  1   
 20  10  31  1   
 21  11  12  1   
 22  11  32  1   
 23  11  33  1   
 24  12  13  1   
 25  12  14  1   
 26  12  34  1   
 27  13  15  1   
 28  13  16  1   
 29  13  35  1   
 30  14  17  ar  
 31  14  18  ar  
 32  15  36  1   
 33  15  37  1   
 34  15  38  1   
 35  16  39  1   
 36  16  40  1   
 37  16  41  1   
 38  17  19  ar  
 39  17  20  1   
 40  18  21  ar  
 41  18  42  1   
 42  19  22  ar  
 43  19  43  1   
 44  20  44  1   
 45  20  45  1   
 46  20  46  1   
 47  21  22  ar  
 48  21  47  1   
 49  22  48  1   
@<TRIPOS>SUBSTRUCTURE
  1 ****  11 GROUP 4 **** **** 0

# MOE 2024.06 (io_trps.svl 2023.06)
