@<TRIPOS>MOLECULE
NONAME
40 42 1 0 0 
SMALL
USER_CHARGES


@<TRIPOS>ATOM
  1 CL       0.5770    -0.3990     0.1380 Cl    1 <1>  -0.1770 
  2 C       -0.4570    -1.8020     0.0570 C.ar  1 <1>   0.1770 
  3 C        0.1070    -3.0620     0.0190 C.ar  1 <1>  -0.1500 
  4 C       -1.8280    -1.6390     0.0320 C.ar  1 <1>  -0.1500 
  5 C       -0.7180    -4.1710    -0.0450 C.ar  1 <1>  -0.1500 
  6 C       -2.6420    -2.7560    -0.0340 C.ar  1 <1>  -0.1500 
  7 C       -2.1110    -4.0500    -0.0730 C.ar  1 <1>   0.0530 
  8 C       -2.9520    -5.2240    -0.1460 C.2   1 <1>   0.0870 
  9 O       -2.4330    -6.3880    -0.4660 O.3   1 <1>  -0.0190 
 10 C       -4.2780    -5.4350     0.0540 C.2   1 <1>  -0.2330 
 11 N       -3.3170    -7.3510    -0.4940 N.2   1 <1>  -0.4100 
 12 C       -4.4390    -6.7980    -0.1840 C.2   1 <1>   0.3720 
 13 C       -5.3030    -4.5220     0.4380 C.2   1 <1>   1.0330 
 14 N       -5.6420    -7.5050    -0.1030 N.pl3 1 <1>  -0.8210 
 15 O       -5.3810    -4.1110     1.6080 O.co2 1 <1>  -0.9000 
 16 O       -6.0660    -4.0350    -0.4170 O.co2 1 <1>  -0.9000 
 17 C       -6.6360    -7.1830    -1.1550 C.3   1 <1>   0.2090 
 18 C       -5.5610    -8.9360     0.2630 C.3   1 <1>   0.2090 
 19 C       -8.0190    -7.6050    -0.6640 C.3   1 <1>  -0.1600 
 20 C       -6.9320    -9.3910     0.7650 C.3   1 <1>  -0.1600 
 21 C       -8.0610    -9.0760    -0.2290 C.3   1 <1>   0.2800 
 22 O       -7.8470    -9.8560    -1.3600 O.3   1 <1>  -0.6800 
 23 C       -9.4460    -9.4400     0.3520 C.3   1 <1>   0.1200 
 24 O       -9.5780   -10.8190     0.4610 O.3   1 <1>  -0.6800 
 25 H        1.1760    -3.1690     0.0410 H     1 <1>   0.1500 
 26 H       -2.2570    -0.6540     0.0650 H     1 <1>   0.1500 
 27 H       -0.2750    -5.1510    -0.0700 H     1 <1>   0.1500 
 28 H       -3.7090    -2.6130    -0.0540 H     1 <1>   0.1500 
 29 H       -6.3770    -7.6980    -2.0630 H     1 <1>   0.0800 
 30 H       -6.6370    -6.1290    -1.3670 H     1 <1>   0.0800 
 31 H       -4.8280    -9.0640     1.0420 H     1 <1>   0.0800 
 32 H       -5.2510    -9.5120    -0.5920 H     1 <1>   0.0800 
 33 H       -8.7480    -7.4220    -1.4320 H     1 <1>   0.0800 
 34 H       -8.2690    -6.9770     0.1740 H     1 <1>   0.0800 
 35 H       -7.1280    -8.8760     1.6890 H     1 <1>   0.0800 
 36 H       -6.9120   -10.4430     0.9840 H     1 <1>   0.0800 
 37 H       -6.9840    -9.6090    -1.7420 H     1 <1>   0.4000 
 38 H      -10.2240    -9.0850    -0.3010 H     1 <1>   0.0800 
 39 H       -9.5840    -9.0050     1.3260 H     1 <1>   0.0800 
 40 H       -9.1600   -11.2040    -0.3400 H     1 <1>   0.4000 
@<TRIPOS>BOND
  1   1   2  1   
  2   2   3  ar  
  3   2   4  ar  
  4   3   5  ar  
  5   3  25  1   
  6   4   6  ar  
  7   4  26  1   
  8   5   7  ar  
  9   5  27  1   
 10   6   7  ar  
 11   6  28  1   
 12   7   8  1   
 13   8   9  1   
 14   8  10  2   
 15   9  11  1   
 16  10  12  1   
 17  10  13  1   
 18  11  12  2   
 19  12  14  1   
 20  13  15  ar  
 21  13  16  ar  
 22  14  17  1   
 23  14  18  1   
 24  17  19  1   
 25  17  29  1   
 26  17  30  1   
 27  18  20  1   
 28  18  31  1   
 29  18  32  1   
 30  19  21  1   
 31  19  33  1   
 32  19  34  1   
 33  20  21  1   
 34  20  35  1   
 35  20  36  1   
 36  21  22  1   
 37  21  23  1   
 38  22  37  1   
 39  23  24  1   
 40  23  38  1   
 41  23  39  1   
 42  24  40  1   
@<TRIPOS>SUBSTRUCTURE
  1 ****  10 GROUP 4 **** **** 0

# MOE 2024.06 (io_trps.svl 2023.06)
