@<TRIPOS>MOLECULE
NONAME
38 38 1 0 0 
SMALL
USER_CHARGES


@<TRIPOS>ATOM
  1 S       -0.1010    -0.7150     1.4170 S.3   1 <1>  -0.4600 
  2 C       -0.2010    -2.0660     0.2210 C.3   1 <1>   0.1500 
  3 C        1.3620     0.2310     0.9100 C.3   1 <1>  -0.0100 
  4 C       -1.6360    -2.5930     0.3130 C.3   1 <1>  -0.1600 
  5 C        0.8610    -3.0990     0.6070 C.3   1 <1>  -0.2400 
  6 C       -1.9060    -3.6920    -0.7130 C.3   1 <1>   0.3430 
  7 N       -3.2660    -4.2580    -0.5160 N.4   1 <1>  -0.9590 
  8 C       -3.4120    -5.6080    -1.1290 C.3   1 <1>   0.5230 
  9 C       -4.3790    -3.3250    -0.8920 C.3   1 <1>   0.3430 
 10 C       -3.9220    -6.5450    -0.0400 C.2   1 <1>   0.0070 
 11 C       -5.7280    -3.7250    -0.2750 C.3   1 <1>   0.1200 
 12 N       -4.0910    -6.1740     1.1940 N.2   1 <1>  -0.5650 
 13 N       -4.2410    -7.8440    -0.2580 N.pl3 1 <1>   0.0330 
 14 O       -6.6940    -2.8800    -0.7920 O.3   1 <1>  -0.6800 
 15 C       -4.5410    -7.2840     1.8100 C.2   1 <1>   0.0770 
 16 C       -4.6390    -8.3100     0.9380 C.2   1 <1>  -0.3020 
 17 H       -0.0010    -1.6400    -0.7480 H     1 <1>   0.0800 
 18 H        1.4200     1.1010     1.5400 H     1 <1>   0.0800 
 19 H        1.2400     0.5150    -0.1190 H     1 <1>   0.0800 
 20 H        2.2300    -0.3890     1.0440 H     1 <1>   0.0800 
 21 H       -2.3010    -1.7650     0.1480 H     1 <1>   0.0800 
 22 H       -1.7990    -2.9750     1.3060 H     1 <1>   0.0800 
 23 H        0.6760    -3.4740     1.5990 H     1 <1>   0.0800 
 24 H        1.8370    -2.6510     0.5910 H     1 <1>   0.0800 
 25 H        0.8680    -3.9240    -0.0810 H     1 <1>   0.0800 
 26 H       -1.1740    -4.4720    -0.5790 H     1 <1>   0.0800 
 27 H       -1.8060    -3.2990    -1.7120 H     1 <1>   0.0800 
 28 H       -3.3770    -4.4800     0.4960 H     1 <1>   0.4500 
 29 H       -2.4600    -5.9650    -1.4840 H     1 <1>   0.0800 
 30 H       -4.1060    -5.5770    -1.9530 H     1 <1>   0.0800 
 31 H       -4.4800    -3.2940    -1.9640 H     1 <1>   0.0800 
 32 H       -4.1500    -2.3300    -0.5480 H     1 <1>   0.0800 
 33 H       -5.7110    -3.6060     0.7950 H     1 <1>   0.0800 
 34 H       -6.0040    -4.7320    -0.5310 H     1 <1>   0.0800 
 35 H       -4.1980    -8.3860    -1.1300 H     1 <1>   0.2700 
 36 H       -7.5680    -3.0370    -0.3750 H     1 <1>   0.4000 
 37 H       -4.7750    -7.2920     2.8640 H     1 <1>   0.1500 
 38 H       -4.9620    -9.3230     1.1070 H     1 <1>   0.1500 
@<TRIPOS>BOND
  1   1   2  1   
  2   1   3  1   
  3   2   4  1   
  4   2   5  1   
  5   2  17  1   
  6   3  18  1   
  7   3  19  1   
  8   3  20  1   
  9   4   6  1   
 10   4  21  1   
 11   4  22  1   
 12   5  23  1   
 13   5  24  1   
 14   5  25  1   
 15   6   7  1   
 16   6  26  1   
 17   6  27  1   
 18   7   8  1   
 19   7   9  1   
 20   7  28  1   
 21   8  10  1   
 22   8  29  1   
 23   8  30  1   
 24   9  11  1   
 25   9  31  1   
 26   9  32  1   
 27  10  12  2   
 28  10  13  1   
 29  11  14  1   
 30  11  33  1   
 31  11  34  1   
 32  12  15  1   
 33  13  16  1   
 34  13  35  1   
 35  14  36  1   
 36  15  16  2   
 37  15  37  1   
 38  16  38  1   
@<TRIPOS>SUBSTRUCTURE
  1 ****   7 GROUP 4 **** **** 0

# MOE 2024.06 (io_trps.svl 2023.06)
