@<TRIPOS>MOLECULE
NONAME
48 50 1 0 0 
SMALL
USER_CHARGES


@<TRIPOS>ATOM
  1 F       -0.9180    -3.0860     1.6790 F     1 <1>  -0.3400 
  2 C       -1.7790    -2.3080     1.0250 C.3   1 <1>   1.2010 
  3 F       -1.4220    -2.3640    -0.2560 F     1 <1>  -0.3400 
  4 F       -1.5090    -1.0640     1.4200 F     1 <1>  -0.3400 
  5 C       -3.2630    -2.7240     1.2600 C.2   1 <1>   0.3350 
  6 N       -4.1720    -1.9750     1.7690 N.2   1 <1>  -0.4100 
  7 N       -3.7360    -3.9390     0.9420 N.2   1 <1>  -0.5650 
  8 O       -5.2760    -2.6550     1.8010 O.3   1 <1>  -0.0190 
  9 C       -4.9580    -3.8150     1.2860 C.2   1 <1>   0.2980 
 10 C       -6.0330    -4.8960     1.1720 C.3   1 <1>   0.2900 
 11 N       -6.9750    -4.6880     0.0410 N.3   1 <1>  -0.8100 
 12 C       -7.5750    -5.9810    -0.3510 C.3   1 <1>   0.1100 
 13 C       -7.9940    -3.6730     0.3680 C.3   1 <1>   0.1100 
 14 C       -8.4710    -5.9120    -1.5990 C.3   1 <1>   0.1400 
 15 C       -8.5780    -3.0800    -0.9170 C.3   1 <1>  -0.1600 
 16 N       -9.7910    -5.2700    -1.3140 N.am  1 <1>  -0.6600 
 17 C       -9.8500    -3.7830    -1.4030 C.3   1 <1>   0.1400 
 18 C      -10.9430    -5.9960    -1.0730 C.2   1 <1>   0.6160 
 19 O      -12.0170    -5.4190    -1.0770 O.2   1 <1>  -0.5700 
 20 C      -10.9300    -7.4190    -0.9050 C.2   1 <1>   0.0290 
 21 C      -10.5720    -7.9550     0.3700 C.2   1 <1>   0.6160 
 22 C      -11.2560    -8.2730    -1.9250 C.2   1 <1>  -0.1500 
 23 O      -10.2600    -7.2280     1.3090 O.2   1 <1>  -0.5700 
 24 N      -10.5510    -9.3430     0.5410 N.am  1 <1>  -0.4690 
 25 C      -11.2190    -9.6630    -1.7230 C.2   1 <1>  -0.1500 
 26 C      -10.8710   -10.1810    -0.5120 C.2   1 <1>  -0.0290 
 27 C      -10.2070    -9.9130     1.8820 C.3   1 <1>   0.0600 
 28 C      -10.8360   -11.6900    -0.3100 C.3   1 <1>  -0.1020 
 29 H       -6.5790    -4.9640     2.0970 H     1 <1>   0.0800 
 30 H       -5.5150    -5.8280     1.0310 H     1 <1>   0.0800 
 31 H       -8.1310    -6.3900     0.4730 H     1 <1>   0.0800 
 32 H       -6.7770    -6.6660    -0.5760 H     1 <1>   0.0800 
 33 H       -7.5400    -2.8660     0.9120 H     1 <1>   0.0800 
 34 H       -8.7700    -4.0940     0.9880 H     1 <1>   0.0800 
 35 H       -8.6320    -6.9120    -1.9580 H     1 <1>   0.0800 
 36 H       -7.9600    -5.3750    -2.3790 H     1 <1>   0.0800 
 37 H       -7.8310    -3.0720    -1.6910 H     1 <1>   0.0800 
 38 H       -8.8360    -2.0540    -0.7270 H     1 <1>   0.0800 
 39 H      -10.0530    -3.5010    -2.4210 H     1 <1>   0.0800 
 40 H      -10.6730    -3.4330    -0.8000 H     1 <1>   0.0800 
 41 H      -11.5480    -7.8920    -2.8890 H     1 <1>   0.1500 
 42 H      -11.4770   -10.3000    -2.5520 H     1 <1>   0.1500 
 43 H      -10.0350    -9.1430     2.6120 H     1 <1>   0.0800 
 44 H       -9.3150   -10.5080     1.8030 H     1 <1>   0.0800 
 45 H      -11.0180   -10.5260     2.2320 H     1 <1>   0.0800 
 46 H      -11.5440   -11.9820     0.4440 H     1 <1>   0.0800 
 47 H       -9.8510   -12.0050    -0.0140 H     1 <1>   0.0800 
 48 H      -11.0900   -12.2020    -1.2210 H     1 <1>   0.0800 
@<TRIPOS>BOND
  1   1   2  1   
  2   2   3  1   
  3   2   4  1   
  4   2   5  1   
  5   5   6  2   
  6   5   7  1   
  7   6   8  1   
  8   7   9  2   
  9   8   9  1   
 10   9  10  1   
 11  10  11  1   
 12  10  29  1   
 13  10  30  1   
 14  11  12  1   
 15  11  13  1   
 16  12  14  1   
 17  12  31  1   
 18  12  32  1   
 19  13  15  1   
 20  13  33  1   
 21  13  34  1   
 22  14  16  1   
 23  14  35  1   
 24  14  36  1   
 25  15  17  1   
 26  15  37  1   
 27  15  38  1   
 28  16  17  1   
 29  16  18  am  
 30  17  39  1   
 31  17  40  1   
 32  18  19  2   
 33  18  20  1   
 34  20  21  1   
 35  20  22  2   
 36  21  23  2   
 37  21  24  am  
 38  22  25  1   
 39  22  41  1   
 40  24  26  1   
 41  24  27  1   
 42  25  26  2   
 43  25  42  1   
 44  26  28  1   
 45  27  43  1   
 46  27  44  1   
 47  27  45  1   
 48  28  46  1   
 49  28  47  1   
 50  28  48  1   
@<TRIPOS>SUBSTRUCTURE
  1 ****  12 GROUP 4 **** **** 0

# MOE 2024.06 (io_trps.svl 2023.06)
