@<TRIPOS>MOLECULE
NONAME
50 52 1 0 0 
SMALL
USER_CHARGES


@<TRIPOS>ATOM
  1 O        3.6230    -1.6100    -1.4700 O.2   1 <1>  -0.5700 
  2 C        2.6370    -1.5850    -0.7650 C.2   1 <1>   0.5690 
  3 N        2.0070    -0.4110    -0.4620 N.am  1 <1>  -0.4930 
  4 C        2.0590    -2.8980    -0.1730 C.3   1 <1>   0.2050 
  5 C        2.3370     0.9140    -0.8350 C.2   1 <1>   0.0630 
  6 C        0.6160    -2.6400     0.3230 C.ar  1 <1>  -0.1440 
  7 C        2.1050    -4.0580    -1.1900 C.3   1 <1>  -0.1600 
  8 C        2.9770    -3.4370     0.9410 C.3   1 <1>  -0.1600 
  9 C        3.3960     1.3800    -1.6170 C.2   1 <1>   0.1390 
 10 C        1.6600     2.0260    -0.4850 C.2   1 <1>  -0.3020 
 11 C       -0.4500    -2.6820    -0.5700 C.ar  1 <1>  -0.1500 
 12 C        0.3480    -2.3090     1.6490 C.ar  1 <1>  -0.1500 
 13 C        3.4910    -4.7060    -1.0780 C.3   1 <1>  -0.1600 
 14 C        4.0890    -4.2210     0.2430 C.3   1 <1>  -0.1600 
 15 N        3.3850     2.6750    -1.7420 N.2   1 <1>  -0.7070 
 16 N        2.3040     3.0760    -1.0410 N.pl3 1 <1>   0.3140 
 17 C       -1.7430    -2.4180    -0.1570 C.ar  1 <1>  -0.1500 
 18 C       -0.9440    -2.0430     2.0650 C.ar  1 <1>  -0.1500 
 19 C        1.9380     4.4950    -0.9260 C.3   1 <1>   0.1570 
 20 C       -1.9980    -2.0960     1.1710 C.ar  1 <1>   0.0830 
 21 C        2.8160     5.1790     0.0970 C.2   1 <1>   0.5690 
 22 O       -3.2320    -1.8210     1.6610 O.3   1 <1>  -0.3630 
 23 O        2.2960     5.9300     0.8870 O.2   1 <1>  -0.5700 
 24 N        4.1570     4.9480     0.0940 N.am  1 <1>  -0.7300 
 25 C       -4.3820    -1.9230     0.8510 C.3   1 <1>   0.0400 
 26 C        5.1510     5.5410     1.0210 C.3   1 <1>   0.0600 
 27 H        1.1520    -0.5100     0.0910 H     1 <1>   0.3700 
 28 H        1.9130    -3.7200    -2.1930 H     1 <1>   0.0800 
 29 H        1.3670    -4.7940    -0.9230 H     1 <1>   0.0800 
 30 H        2.4230    -4.1240     1.5590 H     1 <1>   0.0800 
 31 H        3.3760    -2.6510     1.5570 H     1 <1>   0.0800 
 32 H        4.1390     0.7420    -2.0660 H     1 <1>   0.1500 
 33 H        0.7770     2.1280     0.1180 H     1 <1>   0.1500 
 34 H       -0.2850    -2.9180    -1.6080 H     1 <1>   0.1500 
 35 H        1.1350    -2.2470     2.3790 H     1 <1>   0.1500 
 36 H        4.1160    -4.3880    -1.8960 H     1 <1>   0.0800 
 37 H        3.4100    -5.7790    -1.0990 H     1 <1>   0.0800 
 38 H        4.4360    -5.0390     0.8500 H     1 <1>   0.0800 
 39 H        4.9180    -3.5640     0.0370 H     1 <1>   0.0800 
 40 H       -2.5360    -2.4650    -0.8790 H     1 <1>   0.1500 
 41 H       -1.1450    -1.7930     3.0920 H     1 <1>   0.1500 
 42 H        0.9090     4.5730    -0.6310 H     1 <1>   0.0800 
 43 H        2.0700     4.9650    -1.8810 H     1 <1>   0.0800 
 44 H        4.5060     4.2240    -0.5550 H     1 <1>   0.3700 
 45 H       -5.2390    -1.6920     1.4580 H     1 <1>   0.0800 
 46 H       -4.4590    -2.9290     0.4790 H     1 <1>   0.0800 
 47 H       -4.3050    -1.2160     0.0440 H     1 <1>   0.0800 
 48 H        4.6750     6.2570     1.6700 H     1 <1>   0.0800 
 49 H        5.9210     6.0380     0.4590 H     1 <1>   0.0800 
 50 H        5.5940     4.7660     1.6220 H     1 <1>   0.0800 
@<TRIPOS>BOND
  1   1   2  2   
  2   2   3  am  
  3   2   4  1   
  4   3   5  1   
  5   3  27  1   
  6   4   6  1   
  7   4   7  1   
  8   4   8  1   
  9   5   9  1   
 10   5  10  2   
 11   6  11  ar  
 12   6  12  ar  
 13   7  13  1   
 14   7  28  1   
 15   7  29  1   
 16   8  14  1   
 17   8  30  1   
 18   8  31  1   
 19   9  15  2   
 20   9  32  1   
 21  10  16  1   
 22  10  33  1   
 23  11  17  ar  
 24  11  34  1   
 25  12  18  ar  
 26  12  35  1   
 27  13  14  1   
 28  13  36  1   
 29  13  37  1   
 30  14  38  1   
 31  14  39  1   
 32  15  16  1   
 33  16  19  1   
 34  17  20  ar  
 35  17  40  1   
 36  18  20  ar  
 37  18  41  1   
 38  19  21  1   
 39  19  42  1   
 40  19  43  1   
 41  20  22  1   
 42  21  23  2   
 43  21  24  am  
 44  22  25  1   
 45  24  26  1   
 46  24  44  1   
 47  25  45  1   
 48  25  46  1   
 49  25  47  1   
 50  26  48  1   
 51  26  49  1   
 52  26  50  1   
@<TRIPOS>SUBSTRUCTURE
  1 ****   3 GROUP 4 **** **** 0

# MOE 2024.06 (io_trps.svl 2023.06)
