@<TRIPOS>MOLECULE
NONAME
52 54 1 0 0 
SMALL
USER_CHARGES


@<TRIPOS>ATOM
  1 O        0.0610     0.0020    -1.2970 O.2   1 <1>  -0.5700 
  2 C       -0.9020     0.7210    -1.1860 C.2   1 <1>   0.5690 
  3 N       -2.1590     0.2130    -0.9990 N.am  1 <1>  -0.6600 
  4 C       -0.6750     2.2200    -1.2450 C.3   1 <1>  -0.0990 
  5 C       -3.4090     0.9850    -0.7880 C.3   1 <1>   0.1400 
  6 C       -2.4250    -1.2420    -0.9150 C.3   1 <1>   0.1400 
  7 C       -0.3500     2.7840     0.1420 C.3   1 <1>  -0.0160 
  8 C       -4.4910    -0.0650    -0.5240 C.3   1 <1>   0.2000 
  9 C       -3.7530    -1.3540    -0.1630 C.3   1 <1>  -0.0800 
 10 C       -0.2280     4.2980     0.0870 C.ar  1 <1>  -0.1440 
 11 O       -5.3170     0.3110     0.5230 O.3   1 <1>  -0.6800 
 12 C       -4.5680    -2.6150    -0.5030 C.3   1 <1>  -0.0170 
 13 C        0.9620     4.8870    -0.3060 C.ar  1 <1>  -0.1500 
 14 C       -1.2980     5.1070     0.4270 C.ar  1 <1>  -0.1500 
 15 C       -3.8370    -3.8870    -0.1050 C.ar  1 <1>   0.1670 
 16 C        1.1010     6.2650    -0.3630 C.ar  1 <1>   0.0820 
 17 C       -1.1830     6.4850     0.3670 C.ar  1 <1>  -0.1500 
 18 N       -2.9270    -4.3350    -0.9540 N.ar  1 <1>  -0.6200 
 19 C       -4.1390    -4.5170     1.1020 C.ar  1 <1>   0.1600 
 20 O        2.3310     6.7040    -0.7540 O.3   1 <1>  -0.3630 
 21 C        0.0090     7.0860    -0.0330 C.ar  1 <1>   0.0820 
 22 C       -2.3410    -5.4380    -0.5190 C.ar  1 <1>   0.1600 
 23 N       -3.5550    -5.6200     1.5390 N.ar  1 <1>  -0.6200 
 24 C        2.8850     7.8810    -0.2100 C.3   1 <1>   0.0400 
 25 O        0.1250     8.4440    -0.1270 O.3   1 <1>  -0.3630 
 26 C       -2.6450    -6.0590     0.6860 C.ar  1 <1>   0.1600 
 27 C       -0.9820     9.3050     0.0300 C.3   1 <1>   0.0400 
 28 H        0.1500     2.4120    -1.9060 H     1 <1>   0.0800 
 29 H       -1.5350     2.7130    -1.6550 H     1 <1>   0.0800 
 30 H       -3.2910     1.6400     0.0570 H     1 <1>   0.0800 
 31 H       -3.6470     1.5530    -1.6700 H     1 <1>   0.0800 
 32 H       -2.5100    -1.6420    -1.9110 H     1 <1>   0.0800 
 33 H       -1.6310    -1.7550    -0.3970 H     1 <1>   0.0800 
 34 H        0.5740     2.3580     0.4940 H     1 <1>   0.0800 
 35 H       -1.1200     2.5070     0.8400 H     1 <1>   0.0800 
 36 H       -5.0960    -0.1910    -1.4060 H     1 <1>   0.0800 
 37 H       -3.5190    -1.3530     0.8870 H     1 <1>   0.0800 
 38 H       -4.8060     0.3840     1.3530 H     1 <1>   0.4000 
 39 H       -4.7730    -2.6470    -1.5580 H     1 <1>   0.0800 
 40 H       -5.5140    -2.5700     0.0080 H     1 <1>   0.0800 
 41 H        1.8060     4.2770    -0.5740 H     1 <1>   0.1500 
 42 H       -2.2300     4.6690     0.7390 H     1 <1>   0.1500 
 43 H       -2.0390     7.0710     0.6390 H     1 <1>   0.1500 
 44 H       -4.8960    -4.0890     1.7350 H     1 <1>   0.1500 
 45 H       -1.5830    -5.8730    -1.1470 H     1 <1>   0.1500 
 46 H        3.9510     7.8380    -0.3350 H     1 <1>   0.0800 
 47 H        2.6370     7.9370     0.8350 H     1 <1>   0.0800 
 48 H        2.4910     8.7280    -0.7420 H     1 <1>   0.0800 
 49 H       -2.1120    -6.9550     0.9540 H     1 <1>   0.1500 
 50 H       -0.6510    10.3100    -0.1600 H     1 <1>   0.0800 
 51 H       -1.3460     9.2260     1.0390 H     1 <1>   0.0800 
 52 H       -1.7410     9.0310    -0.6800 H     1 <1>   0.0800 
@<TRIPOS>BOND
  1   1   2  2   
  2   2   3  am  
  3   2   4  1   
  4   3   5  1   
  5   3   6  1   
  6   4   7  1   
  7   4  28  1   
  8   4  29  1   
  9   5   8  1   
 10   5  30  1   
 11   5  31  1   
 12   6   9  1   
 13   6  32  1   
 14   6  33  1   
 15   7  10  1   
 16   7  34  1   
 17   7  35  1   
 18   8   9  1   
 19   8  11  1   
 20   8  36  1   
 21   9  12  1   
 22   9  37  1   
 23  10  13  ar  
 24  10  14  ar  
 25  11  38  1   
 26  12  15  1   
 27  12  39  1   
 28  12  40  1   
 29  13  16  ar  
 30  13  41  1   
 31  14  17  ar  
 32  14  42  1   
 33  15  18  ar  
 34  15  19  ar  
 35  16  20  1   
 36  16  21  ar  
 37  17  21  ar  
 38  17  43  1   
 39  18  22  ar  
 40  19  23  ar  
 41  19  44  1   
 42  20  24  1   
 43  21  25  1   
 44  22  26  ar  
 45  22  45  1   
 46  23  26  ar  
 47  24  46  1   
 48  24  47  1   
 49  24  48  1   
 50  25  27  1   
 51  26  49  1   
 52  27  50  1   
 53  27  51  1   
 54  27  52  1   
@<TRIPOS>SUBSTRUCTURE
  1 ****   2 GROUP 4 **** **** 0

# MOE 2024.06 (io_trps.svl 2023.06)
