@<TRIPOS>MOLECULE
NONAME
42 45 1 0 0 
SMALL
USER_CHARGES


@<TRIPOS>ATOM
  1 O        0.5580     0.8910    -1.4740 O.2   1 <1>  -0.5700 
  2 C       -0.0290     1.7880    -0.9170 C.2   1 <1>   0.5690 
  3 N       -1.3400     1.6670    -0.5250 N.am  1 <1>  -0.6600 
  4 C        0.7670     3.0480    -0.6700 C.3   1 <1>   0.1570 
  5 C       -2.1130     2.6810     0.2730 C.3   1 <1>   0.1400 
  6 C       -2.1170     0.4250    -0.8060 C.3   1 <1>   0.1400 
  7 N        1.1670     3.0970     0.7360 N.pl3 1 <1>   0.3140 
  8 C       -3.4170     3.0780    -0.4460 C.3   1 <1>   0.1440 
  9 C       -3.4170     0.7750    -1.5410 C.3   1 <1>  -0.1600 
 10 N        0.9420     4.1360     1.5080 N.2   1 <1>  -0.4180 
 11 C        1.7780     2.1830     1.4670 C.2   1 <1>   0.0360 
 12 C       -4.1730     4.0530     0.4370 C.ar  1 <1>   0.1660 
 13 C       -4.2450     1.8140    -0.7660 C.3   1 <1>  -0.1600 
 14 C       -3.1370     3.9270    -1.7160 C.3   1 <1>  -0.1600 
 15 N        1.4110     3.8350     2.6660 N.2   1 <1>   0.0000 
 16 N        1.9390     2.6150     2.6580 N.2   1 <1>  -0.3380 
 17 N       -4.8100     3.7430     1.5440 N.ar  1 <1>  -0.6200 
 18 C       -4.1030     5.3260    -0.0450 C.ar  1 <1>  -0.1430 
 19 C       -3.2940     5.4050    -1.3150 C.3   1 <1>  -0.0170 
 20 C       -5.3900     4.7700     2.1480 C.ar  1 <1>   0.4770 
 21 C       -4.7420     6.3140     0.6620 C.ar  1 <1>   0.1600 
 22 N       -5.3980     6.0420     1.7710 N.ar  1 <1>  -0.6200 
 23 C       -6.1400     4.4600     3.4210 C.3   1 <1>  -0.0970 
 24 H        0.1810     3.9140    -0.9100 H     1 <1>   0.0800 
 25 H        1.6500     3.0440    -1.2800 H     1 <1>   0.0800 
 26 H       -1.5330     3.5640     0.4650 H     1 <1>   0.0800 
 27 H       -2.3600     2.2480     1.2280 H     1 <1>   0.0800 
 28 H       -2.3460    -0.0630     0.1270 H     1 <1>   0.0800 
 29 H       -1.5420    -0.2610    -1.4050 H     1 <1>   0.0800 
 30 H       -3.9980    -0.1210    -1.6700 H     1 <1>   0.0800 
 31 H       -3.1740     1.1470    -2.5210 H     1 <1>   0.0800 
 32 H        2.0830     1.2220     1.0960 H     1 <1>   0.1500 
 33 H       -5.1270     2.0780    -1.3220 H     1 <1>   0.0800 
 34 H       -4.5730     1.3710     0.1600 H     1 <1>   0.0800 
 35 H       -3.8810     3.7080    -2.4620 H     1 <1>   0.0800 
 36 H       -2.1710     3.7290    -2.1440 H     1 <1>   0.0800 
 37 H       -3.8040     5.9700    -2.0770 H     1 <1>   0.0800 
 38 H       -2.3370     5.8500    -1.1060 H     1 <1>   0.0800 
 39 H       -4.7170     7.3350     0.3210 H     1 <1>   0.1500 
 40 H       -5.8890     3.4770     3.7750 H     1 <1>   0.0800 
 41 H       -7.1950     4.5080     3.2310 H     1 <1>   0.0800 
 42 H       -5.8830     5.1790     4.1750 H     1 <1>   0.0800 
@<TRIPOS>BOND
  1   1   2  2   
  2   2   3  am  
  3   2   4  1   
  4   3   5  1   
  5   3   6  1   
  6   4   7  1   
  7   4  24  1   
  8   4  25  1   
  9   5   8  1   
 10   5  26  1   
 11   5  27  1   
 12   6   9  1   
 13   6  28  1   
 14   6  29  1   
 15   7  10  1   
 16   7  11  1   
 17   8  12  1   
 18   8  13  1   
 19   8  14  1   
 20   9  13  1   
 21   9  30  1   
 22   9  31  1   
 23  10  15  2   
 24  11  16  2   
 25  11  32  1   
 26  12  17  ar  
 27  12  18  ar  
 28  13  33  1   
 29  13  34  1   
 30  14  19  1   
 31  14  35  1   
 32  14  36  1   
 33  15  16  1   
 34  17  20  ar  
 35  18  19  1   
 36  18  21  ar  
 37  19  37  1   
 38  19  38  1   
 39  20  22  ar  
 40  20  23  1   
 41  21  22  ar  
 42  21  39  1   
 43  23  40  1   
 44  23  41  1   
 45  23  42  1   
@<TRIPOS>SUBSTRUCTURE
  1 ****   5 GROUP 4 **** **** 0

# MOE 2024.06 (io_trps.svl 2023.06)
