@<TRIPOS>MOLECULE
NONAME
55 59 1 0 0 
SMALL
USER_CHARGES


@<TRIPOS>ATOM
  1 O        0.9700    -1.8360     0.6290 O.3   1 <1>  -0.5600 
  2 C        0.1870    -2.0570    -0.5270 C.3   1 <1>   0.4180 
  3 C        0.7790    -0.6240     1.3150 C.3   1 <1>   0.1200 
  4 C       -1.2370    -1.5590    -0.3220 C.2   1 <1>  -0.2880 
  5 C        0.1880    -3.5760    -0.7550 C.3   1 <1>  -0.1600 
  6 C        0.8710    -1.3750    -1.7180 C.3   1 <1>  -0.1600 
  7 C       -0.6550    -0.5220     1.8480 C.3   1 <1>  -0.0220 
  8 C       -1.6410    -0.8780     0.7520 C.2   1 <1>  -0.2760 
  9 C        1.5160    -4.1220    -1.2990 C.3   1 <1>   0.3430 
 10 C        2.3080    -1.8670    -1.9330 C.3   1 <1>   0.3430 
 11 C       -3.0680    -0.4130     0.9880 C.3   1 <1>  -0.1020 
 12 N        2.5770    -3.0980    -1.1250 N.4   1 <1>  -0.9590 
 13 C        3.9690    -3.6090    -1.2270 C.3   1 <1>   0.4810 
 14 C        4.9290    -2.5830    -0.6530 C.2   1 <1>  -0.1240 
 15 C        6.1890    -2.4280    -1.3000 C.2   1 <1>   0.3760 
 16 C        4.6520    -1.8110     0.4370 C.2   1 <1>  -0.1810 
 17 N        7.0840    -1.5750    -0.9280 N.2   1 <1>  -0.5760 
 18 N        5.5970    -0.8990     0.8470 N.pl3 1 <1>   0.6010 
 19 C        6.7830    -0.7890     0.1660 C.2   1 <1>  -0.0260 
 20 N        5.5030    -0.0250     1.8580 N.2   1 <1>  -0.7070 
 21 C        7.4930     0.1960     0.8010 C.2   1 <1>  -0.0540 
 22 C        6.6370     0.6140     1.8200 C.2   1 <1>   0.1390 
 23 C        8.8110     0.7170     0.5230 C.ar  1 <1>   0.0540 
 24 C        9.6400     1.1630     1.5520 C.ar  1 <1>  -0.1500 
 25 C        9.3030     0.7980    -0.7790 C.ar  1 <1>  -0.1500 
 26 C       10.8990     1.6740     1.2930 C.ar  1 <1>  -0.1500 
 27 C       10.5600     1.3070    -1.0450 C.ar  1 <1>  -0.1500 
 28 C       11.3620     1.7480    -0.0080 C.ar  1 <1>  -0.1500 
 29 H        0.9850     0.1920     0.6440 H     1 <1>   0.0800 
 30 H        1.4810    -0.5850     2.1310 H     1 <1>   0.0800 
 31 H       -1.9010    -1.8170    -1.1280 H     1 <1>   0.1500 
 32 H       -0.5850    -3.8340    -1.4570 H     1 <1>   0.0800 
 33 H       -0.0620    -4.0670     0.1690 H     1 <1>   0.0800 
 34 H        0.8620    -0.3080    -1.5930 H     1 <1>   0.0800 
 35 H        0.3010    -1.5800    -2.6060 H     1 <1>   0.0800 
 36 H       -0.8220     0.4850     2.1870 H     1 <1>   0.0800 
 37 H       -0.7840    -1.1820     2.6870 H     1 <1>   0.0800 
 38 H        1.4110    -4.3620    -2.3450 H     1 <1>   0.0800 
 39 H        1.7710    -5.0250    -0.7660 H     1 <1>   0.0800 
 40 H        2.9890    -1.0870    -1.6280 H     1 <1>   0.0800 
 41 H        2.4710    -2.0630    -2.9810 H     1 <1>   0.0800 
 42 H       -3.4500    -0.8390     1.8980 H     1 <1>   0.0800 
 43 H       -3.7050    -0.7160     0.1770 H     1 <1>   0.0800 
 44 H       -3.1030     0.6600     1.0650 H     1 <1>   0.0800 
 45 H        2.4330    -2.7770    -0.1460 H     1 <1>   0.4500 
 46 H        4.2080    -3.8040    -2.2600 H     1 <1>   0.0800 
 47 H        4.0660    -4.5300    -0.6750 H     1 <1>   0.0800 
 48 H        6.4040    -3.0550    -2.1490 H     1 <1>   0.0600 
 49 H        3.7560    -1.8330     1.0280 H     1 <1>   0.1500 
 50 H        6.8820     1.4000     2.5150 H     1 <1>   0.1500 
 51 H        9.3000     1.1040     2.5690 H     1 <1>   0.1500 
 52 H        8.6880     0.4570    -1.5930 H     1 <1>   0.1500 
 53 H       11.5210     2.0120     2.1040 H     1 <1>   0.1500 
 54 H       10.9160     1.3590    -2.0590 H     1 <1>   0.1500 
 55 H       12.3410     2.1440    -0.2130 H     1 <1>   0.1500 
@<TRIPOS>BOND
  1   1   2  1   
  2   1   3  1   
  3   2   4  1   
  4   2   5  1   
  5   2   6  1   
  6   3   7  1   
  7   3  29  1   
  8   3  30  1   
  9   4   8  2   
 10   4  31  1   
 11   5   9  1   
 12   5  32  1   
 13   5  33  1   
 14   6  10  1   
 15   6  34  1   
 16   6  35  1   
 17   7   8  1   
 18   7  36  1   
 19   7  37  1   
 20   8  11  1   
 21   9  12  1   
 22   9  38  1   
 23   9  39  1   
 24  10  12  1   
 25  10  40  1   
 26  10  41  1   
 27  11  42  1   
 28  11  43  1   
 29  11  44  1   
 30  12  13  1   
 31  12  45  1   
 32  13  14  1   
 33  13  46  1   
 34  13  47  1   
 35  14  15  1   
 36  14  16  2   
 37  15  17  2   
 38  15  48  1   
 39  16  18  1   
 40  16  49  1   
 41  17  19  1   
 42  18  19  1   
 43  18  20  1   
 44  19  21  2   
 45  20  22  2   
 46  21  22  1   
 47  21  23  1   
 48  22  50  1   
 49  23  24  ar  
 50  23  25  ar  
 51  24  26  ar  
 52  24  51  1   
 53  25  27  ar  
 54  25  52  1   
 55  26  28  ar  
 56  26  53  1   
 57  27  28  ar  
 58  27  54  1   
 59  28  55  1   
@<TRIPOS>SUBSTRUCTURE
  1 ****  16 GROUP 4 **** **** 0

# MOE 2024.06 (io_trps.svl 2023.06)
