@<TRIPOS>MOLECULE
NONAME
52 55 1 0 0 
SMALL
USER_CHARGES


@<TRIPOS>ATOM
  1 O       -1.7470    -0.3210     2.2210 O.2   1 <1>  -0.5700 
  2 C       -2.4010    -1.2770     1.8260 C.2   1 <1>   0.6160 
  3 N       -2.2200    -1.7820     0.5470 N.am  1 <1>  -0.4690 
  4 C       -3.3730    -1.9060     2.6510 C.2   1 <1>  -0.1360 
  5 C       -2.9740    -2.8430     0.1030 C.2   1 <1>  -0.0410 
  6 C       -1.1790    -1.1810    -0.3280 C.3   1 <1>   0.0600 
  7 C       -4.1140    -2.9520     2.2020 C.2   1 <1>  -0.1500 
  8 C       -3.9370    -3.4440     0.8730 C.2   1 <1>   0.0140 
  9 C       -4.7280    -4.5440     0.3710 C.2   1 <1>   0.6160 
 10 O       -4.1650    -5.4530    -0.2120 O.2   1 <1>  -0.5700 
 11 N       -6.1020    -4.5940     0.5060 N.am  1 <1>  -0.6600 
 12 C       -6.9530    -3.3890     0.7630 C.3   1 <1>   0.1400 
 13 C       -6.8550    -5.8500     0.1880 C.3   1 <1>   0.1400 
 14 C       -7.8640    -3.0750    -0.4440 C.3   1 <1>   0.1430 
 15 C       -8.3280    -5.5760    -0.1590 C.3   1 <1>  -0.1600 
 16 C       -8.9360    -2.1190     0.0490 C.ar  1 <1>   0.1670 
 17 C       -8.4530    -4.3590    -1.0870 C.3   1 <1>  -0.1600 
 18 C       -7.1200    -2.2090    -1.4970 C.3   1 <1>  -0.1600 
 19 N       -9.9650    -2.4510     0.7880 N.ar  1 <1>  -0.6200 
 20 C       -8.6910    -0.8400    -0.3490 C.ar  1 <1>  -0.1430 
 21 C       -7.4300    -0.7380    -1.1700 C.3   1 <1>  -0.0170 
 22 C      -10.7780    -1.4450     1.1190 C.ar  1 <1>   0.7200 
 23 C       -9.5790     0.1300     0.0400 C.ar  1 <1>   0.1600 
 24 N      -10.6260    -0.1620     0.7750 N.ar  1 <1>  -0.6200 
 25 N      -11.8770    -1.7610     1.8950 N.pl3 1 <1>  -0.8380 
 26 C      -12.3520    -3.1620     2.0620 C.3   1 <1>   0.1290 
 27 C      -12.6970    -0.7150     2.5660 C.3   1 <1>   0.1290 
 28 H       -3.4790    -1.5080     3.6420 H     1 <1>   0.1500 
 29 H       -2.7860    -3.2080    -0.8940 H     1 <1>   0.1500 
 30 H       -0.2200    -1.2540     0.1560 H     1 <1>   0.0800 
 31 H       -1.4060    -0.1430    -0.4940 H     1 <1>   0.0800 
 32 H       -1.1360    -1.6910    -1.2730 H     1 <1>   0.0800 
 33 H       -4.8430    -3.4380     2.8290 H     1 <1>   0.1500 
 34 H       -6.3580    -2.5230     0.9870 H     1 <1>   0.0800 
 35 H       -7.5650    -3.5890     1.6260 H     1 <1>   0.0800 
 36 H       -6.7950    -6.5220     1.0270 H     1 <1>   0.0800 
 37 H       -6.3900    -6.3330    -0.6550 H     1 <1>   0.0800 
 38 H       -8.8890    -5.4050     0.7450 H     1 <1>   0.0800 
 39 H       -8.7460    -6.4450    -0.6350 H     1 <1>   0.0800 
 40 H       -7.9210    -4.5910    -1.9930 H     1 <1>   0.0800 
 41 H       -9.4850    -4.2010    -1.3500 H     1 <1>   0.0800 
 42 H       -7.5170    -2.4140    -2.4760 H     1 <1>   0.0800 
 43 H       -6.0620    -2.4060    -1.5140 H     1 <1>   0.0800 
 44 H       -7.5800    -0.1570    -2.0630 H     1 <1>   0.0800 
 45 H       -6.6440    -0.3040    -0.5770 H     1 <1>   0.0800 
 46 H       -9.4290     1.1550    -0.2510 H     1 <1>   0.1500 
 47 H      -12.0760    -3.7590     1.2100 H     1 <1>   0.0800 
 48 H      -13.4230    -3.1810     2.1540 H     1 <1>   0.0800 
 49 H      -11.9090    -3.5880     2.9450 H     1 <1>   0.0800 
 50 H      -12.0910     0.1410     2.8110 H     1 <1>   0.0800 
 51 H      -13.1190    -1.1020     3.4770 H     1 <1>   0.0800 
 52 H      -13.4900    -0.4040     1.9090 H     1 <1>   0.0800 
@<TRIPOS>BOND
  1   1   2  2   
  2   2   3  am  
  3   2   4  1   
  4   3   5  1   
  5   3   6  1   
  6   4   7  2   
  7   4  28  1   
  8   5   8  2   
  9   5  29  1   
 10   6  30  1   
 11   6  31  1   
 12   6  32  1   
 13   7   8  1   
 14   7  33  1   
 15   8   9  1   
 16   9  10  2   
 17   9  11  am  
 18  11  12  1   
 19  11  13  1   
 20  12  14  1   
 21  12  34  1   
 22  12  35  1   
 23  13  15  1   
 24  13  36  1   
 25  13  37  1   
 26  14  16  1   
 27  14  17  1   
 28  14  18  1   
 29  15  17  1   
 30  15  38  1   
 31  15  39  1   
 32  16  19  ar  
 33  16  20  ar  
 34  17  40  1   
 35  17  41  1   
 36  18  21  1   
 37  18  42  1   
 38  18  43  1   
 39  19  22  ar  
 40  20  21  1   
 41  20  23  ar  
 42  21  44  1   
 43  21  45  1   
 44  22  24  ar  
 45  22  25  1   
 46  23  24  ar  
 47  23  46  1   
 48  25  26  1   
 49  25  27  1   
 50  26  47  1   
 51  26  48  1   
 52  26  49  1   
 53  27  50  1   
 54  27  51  1   
 55  27  52  1   
@<TRIPOS>SUBSTRUCTURE
  1 ****  12 GROUP 4 **** **** 0

# MOE 2024.06 (io_trps.svl 2023.06)
