@<TRIPOS>MOLECULE
NONAME
57 58 1 0 0 
SMALL
USER_CHARGES


@<TRIPOS>ATOM
  1 O        1.2470    -1.3860    -0.6410 O.co2 1 <1>  -0.9000 
  2 C        1.6030    -0.7670     0.3710 C.2   1 <1>   0.9060 
  3 O        1.3610    -1.1810     1.5070 O.co2 1 <1>  -0.9000 
  4 C        2.4650     0.4990     0.2020 C.3   1 <1>  -0.1060 
  5 C        3.0510     0.5100    -1.2360 C.3   1 <1>   0.2000 
  6 C        3.6440     0.4510     1.2190 C.3   1 <1>  -0.1600 
  7 C        1.6020     1.7890     0.3800 C.3   1 <1>  -0.1600 
  8 O        3.6800    -0.7050    -1.4890 O.3   1 <1>  -0.6800 
  9 C        4.1120     1.6030    -1.4060 C.3   1 <1>   0.3430 
 10 C        4.7360     1.4840     0.9510 C.3   1 <1>   0.3430 
 11 C        0.8950     1.9460     1.7370 C.3   1 <1>  -0.1600 
 12 N        5.2230     1.3270    -0.4480 N.4   1 <1>  -0.9590 
 13 C        0.0580     3.2290     1.7730 C.3   1 <1>  -0.2400 
 14 C        6.4610     2.0930    -0.7490 C.3   1 <1>   0.4860 
 15 C        6.1990     3.5890    -0.6690 C.ar  1 <1>  -0.1430 
 16 C        6.2680     4.2440     0.5510 C.ar  1 <1>  -0.1500 
 17 C        5.8900     4.3190    -1.8080 C.ar  1 <1>  -0.1500 
 18 C        6.0060     5.6010     0.6510 C.ar  1 <1>  -0.1430 
 19 C        5.6340     5.6760    -1.7210 C.ar  1 <1>  -0.1500 
 20 C        5.6840     6.3270    -0.4910 C.ar  1 <1>   0.0830 
 21 C        6.0800     6.2570     2.0220 C.3   1 <1>   0.2630 
 22 O        5.4320     7.6540    -0.3380 O.3   1 <1>  -0.3630 
 23 O        5.0870     5.6970     2.8080 O.3   1 <1>  -0.6800 
 24 C        5.1570     8.5360    -1.4040 C.3   1 <1>   0.2000 
 25 C        5.5180     9.9400    -0.9250 C.3   1 <1>  -0.2400 
 26 C        3.6700     8.4410    -1.7530 C.3   1 <1>  -0.2400 
 27 H        2.2630     0.6260    -1.9620 H     1 <1>   0.0800 
 28 H        4.0890    -0.5290     1.1880 H     1 <1>   0.0800 
 29 H        3.2760     0.5680     2.2210 H     1 <1>   0.0800 
 30 H        2.1990     2.6680     0.2200 H     1 <1>   0.0800 
 31 H        0.8370     1.7780    -0.3800 H     1 <1>   0.0800 
 32 H        2.9610    -1.3920    -1.3630 H     1 <1>   0.4000 
 33 H        3.6880     2.5750    -1.2190 H     1 <1>   0.0800 
 34 H        4.4730     1.5750    -2.4190 H     1 <1>   0.0800 
 35 H        5.5450     1.3320     1.6470 H     1 <1>   0.0800 
 36 H        4.3420     2.4770     1.0960 H     1 <1>   0.0800 
 37 H        0.2450     1.1040     1.9110 H     1 <1>   0.0800 
 38 H        1.6090     1.9790     2.5400 H     1 <1>   0.0800 
 39 H        5.3820     0.3130    -0.5860 H     1 <1>   0.4500 
 40 H       -0.6940     3.2060     1.0040 H     1 <1>   0.0800 
 41 H        0.6810     4.0940     1.6300 H     1 <1>   0.0800 
 42 H       -0.4340     3.3140     2.7260 H     1 <1>   0.0800 
 43 H        7.2340     1.8260    -0.0470 H     1 <1>   0.0800 
 44 H        6.8090     1.8440    -1.7380 H     1 <1>   0.0800 
 45 H        6.5230     3.7060     1.4480 H     1 <1>   0.1500 
 46 H        5.8470     3.8420    -2.7720 H     1 <1>   0.1500 
 47 H        5.3980     6.2090    -2.6230 H     1 <1>   0.1500 
 48 H        5.9250     7.3210     1.9870 H     1 <1>   0.0800 
 49 H        7.0290     6.0580     2.4890 H     1 <1>   0.0800 
 50 H        4.2200     5.9150     2.4150 H     1 <1>   0.4000 
 51 H        5.7820     8.2810    -2.2430 H     1 <1>   0.0800 
 52 H        4.9310    10.2060    -0.0650 H     1 <1>   0.0800 
 53 H        5.3300    10.6550    -1.7050 H     1 <1>   0.0800 
 54 H        6.5620     9.9820    -0.6710 H     1 <1>   0.0800 
 55 H        3.0710     8.6980    -0.8990 H     1 <1>   0.0800 
 56 H        3.4160     7.4490    -2.0760 H     1 <1>   0.0800 
 57 H        3.4390     9.1240    -2.5500 H     1 <1>   0.0800 
@<TRIPOS>BOND
  1   1   2  ar  
  2   2   3  ar  
  3   2   4  1   
  4   4   5  1   
  5   4   6  1   
  6   4   7  1   
  7   5   8  1   
  8   5   9  1   
  9   5  27  1   
 10   6  10  1   
 11   6  28  1   
 12   6  29  1   
 13   7  11  1   
 14   7  30  1   
 15   7  31  1   
 16   8  32  1   
 17   9  12  1   
 18   9  33  1   
 19   9  34  1   
 20  10  12  1   
 21  10  35  1   
 22  10  36  1   
 23  11  13  1   
 24  11  37  1   
 25  11  38  1   
 26  12  14  1   
 27  12  39  1   
 28  13  40  1   
 29  13  41  1   
 30  13  42  1   
 31  14  15  1   
 32  14  43  1   
 33  14  44  1   
 34  15  16  ar  
 35  15  17  ar  
 36  16  18  ar  
 37  16  45  1   
 38  17  19  ar  
 39  17  46  1   
 40  18  20  ar  
 41  18  21  1   
 42  19  20  ar  
 43  19  47  1   
 44  20  22  1   
 45  21  23  1   
 46  21  48  1   
 47  21  49  1   
 48  22  24  1   
 49  23  50  1   
 50  24  25  1   
 51  24  26  1   
 52  24  51  1   
 53  25  52  1   
 54  25  53  1   
 55  25  54  1   
 56  26  55  1   
 57  26  56  1   
 58  26  57  1   
@<TRIPOS>SUBSTRUCTURE
  1 ****  15 GROUP 4 **** **** 0

# MOE 2024.06 (io_trps.svl 2023.06)
