@<TRIPOS>MOLECULE
NONAME
43 44 1 0 0 
SMALL
USER_CHARGES


@<TRIPOS>ATOM
  1 S        0.1630     0.7800    -1.0030 S.o2  1 <1>   1.3330 
  2 O        0.0670     1.6940    -2.1190 O.2   1 <1>  -0.6500 
  3 O        0.0940    -0.6410    -1.2570 O.2   1 <1>  -0.6500 
  4 N        1.6430     1.0650    -0.2230 N.am  1 <1>  -0.8490 
  5 C       -1.1210     1.1920     0.1930 C.3   1 <1>  -0.0550 
  6 C        1.9890     0.0370     0.7660 C.3   1 <1>   0.1160 
  7 C        2.7410     1.1850    -1.1880 C.3   1 <1>   0.1160 
  8 C       -1.2310     2.6360     0.7430 C.3   1 <1>  -0.0800 
  9 C       -1.2780     3.7340    -0.3310 C.3   1 <1>   0.2000 
 10 C       -0.0930     3.0410     1.6920 C.3   1 <1>   0.1400 
 11 O       -2.1530     4.7110     0.1170 O.3   1 <1>  -0.6800 
 12 C        0.1250     4.3400    -0.3530 C.3   1 <1>   0.1400 
 13 N        0.6200     4.1570     1.0320 N.am  1 <1>  -0.6600 
 14 C        1.4730     5.0010     1.7000 C.2   1 <1>   0.5440 
 15 O        1.6510     4.8260     2.8900 O.2   1 <1>  -0.5700 
 16 C        2.1330     6.0950     1.0230 C.ar  1 <1>   0.0860 
 17 C        3.1520     5.9070     0.0810 C.ar  1 <1>   0.1670 
 18 C        1.7450     7.4000     1.2930 C.ar  1 <1>  -0.1500 
 19 N        3.7460     6.8810    -0.5910 N.ar  1 <1>  -0.6200 
 20 C        3.6790     4.5210    -0.2570 C.3   1 <1>  -0.0970 
 21 C        2.3640     8.4200     0.6080 C.ar  1 <1>  -0.1500 
 22 C        3.3440     8.1100    -0.3160 C.ar  1 <1>   0.1600 
 23 H       -2.0620     0.9650    -0.2710 H     1 <1>   0.0800 
 24 H       -1.0330     0.5250     1.0280 H     1 <1>   0.0800 
 25 H        2.8940     0.3120     1.2810 H     1 <1>   0.0800 
 26 H        2.1360    -0.9170     0.2850 H     1 <1>   0.0800 
 27 H        1.2040    -0.0620     1.4940 H     1 <1>   0.0800 
 28 H        3.6670     1.3870    -0.6780 H     1 <1>   0.0800 
 29 H        2.5470     1.9950    -1.8710 H     1 <1>   0.0800 
 30 H        2.8410     0.2740    -1.7570 H     1 <1>   0.0800 
 31 H       -2.1490     2.6560     1.3060 H     1 <1>   0.0800 
 32 H       -1.6160     3.4010    -1.2980 H     1 <1>   0.0800 
 33 H        0.5920     2.2350     1.8840 H     1 <1>   0.0800 
 34 H       -0.4920     3.3830     2.6330 H     1 <1>   0.0800 
 35 H       -1.7820     5.1160     0.9270 H     1 <1>   0.4000 
 36 H        0.1050     5.3750    -0.6480 H     1 <1>   0.0800 
 37 H        0.7620     3.7940    -1.0250 H     1 <1>   0.0800 
 38 H        0.9790     7.5980     2.0240 H     1 <1>   0.1500 
 39 H        3.3760     3.7810     0.4590 H     1 <1>   0.0800 
 40 H        4.7530     4.5430    -0.2790 H     1 <1>   0.0800 
 41 H        3.3230     4.2360    -1.2290 H     1 <1>   0.0800 
 42 H        2.0920     9.4450     0.7840 H     1 <1>   0.1500 
 43 H        3.8240     8.9110    -0.8540 H     1 <1>   0.1500 
@<TRIPOS>BOND
  1   1   2  2   
  2   1   3  2   
  3   1   4  am  
  4   1   5  1   
  5   4   6  1   
  6   4   7  1   
  7   5   8  1   
  8   5  23  1   
  9   5  24  1   
 10   6  25  1   
 11   6  26  1   
 12   6  27  1   
 13   7  28  1   
 14   7  29  1   
 15   7  30  1   
 16   8   9  1   
 17   8  10  1   
 18   8  31  1   
 19   9  11  1   
 20   9  12  1   
 21   9  32  1   
 22  10  13  1   
 23  10  33  1   
 24  10  34  1   
 25  11  35  1   
 26  12  13  1   
 27  12  36  1   
 28  12  37  1   
 29  13  14  am  
 30  14  15  2   
 31  14  16  1   
 32  16  17  ar  
 33  16  18  ar  
 34  17  19  ar  
 35  17  20  1   
 36  18  21  ar  
 37  18  38  1   
 38  19  22  ar  
 39  20  39  1   
 40  20  40  1   
 41  20  41  1   
 42  21  22  ar  
 43  21  42  1   
 44  22  43  1   
@<TRIPOS>SUBSTRUCTURE
  1 ****  13 GROUP 4 **** **** 0

# MOE 2024.06 (io_trps.svl 2023.06)
