@<TRIPOS>MOLECULE
NONAME
54 58 1 0 0 
SMALL
USER_CHARGES


@<TRIPOS>ATOM
  1 O        0.8020    -2.6240     2.0500 O.2   1 <1>  -0.5700 
  2 C       -0.0570    -2.6970     1.1880 C.2   1 <1>   0.5440 
  3 N        0.0550    -1.8450     0.1020 N.am  1 <1>  -0.6600 
  4 C       -1.1420    -3.6620     1.3500 C.ar  1 <1>   0.3960 
  5 C        0.6820    -0.5000     0.2300 C.3   1 <1>   0.1400 
  6 C       -0.6980    -1.9890    -1.1780 C.3   1 <1>   0.1400 
  7 N       -2.3960    -3.3390     0.9980 N.ar  1 <1>  -0.6200 
  8 C       -0.8370    -4.9110     1.8940 C.ar  1 <1>   0.1600 
  9 C       -0.3890     0.5860     0.0240 C.3   1 <1>   0.1200 
 10 C       -1.7100    -0.8410    -1.3150 C.3   1 <1>   0.1200 
 11 C       -3.2870    -4.2920     1.2130 C.ar  1 <1>   0.4100 
 12 N       -1.7030    -5.8940     2.0990 N.ar  1 <1>  -0.6200 
 13 O       -1.0720     0.4020    -1.1880 O.3   1 <1>  -0.5600 
 14 N       -4.6030    -3.9830     0.8830 N.pl3 1 <1>  -0.8380 
 15 C       -2.9220    -5.5430     1.7410 C.ar  1 <1>   0.1600 
 16 C       -4.9470    -3.0190    -0.2160 C.3   1 <1>   0.2090 
 17 C       -5.7770    -4.5160     1.6290 C.3   1 <1>   0.2090 
 18 C       -5.7830    -1.8310     0.3030 C.3   1 <1>   0.1430 
 19 C       -6.6350    -3.3600     2.1580 C.3   1 <1>  -0.1600 
 20 C       -6.1750    -0.9690    -0.8820 C.ar  1 <1>   0.1670 
 21 C       -7.0260    -2.3640     1.0490 C.3   1 <1>  -0.1600 
 22 C       -4.9550    -0.8560     1.1930 C.3   1 <1>  -0.1600 
 23 N       -6.9110    -1.3670    -1.8940 N.ar  1 <1>  -0.6200 
 24 C       -5.6550     0.2890    -0.7960 C.ar  1 <1>  -0.1430 
 25 C       -4.8510     0.4950     0.4600 C.3   1 <1>  -0.0170 
 26 C       -7.0970    -0.4440    -2.8240 C.ar  1 <1>   0.7200 
 27 C       -5.9170     1.1630    -1.8230 C.ar  1 <1>   0.1600 
 28 N       -6.6500     0.8030    -2.8530 N.ar  1 <1>  -0.6200 
 29 N       -7.8530    -0.8090    -3.8600 N.pl3 1 <1>  -0.9000 
 30 H        1.4550    -0.3920    -0.5100 H     1 <1>   0.0800 
 31 H        1.1310    -0.3810     1.2010 H     1 <1>   0.0800 
 32 H       -1.2060    -2.9360    -1.2260 H     1 <1>   0.0800 
 33 H       -0.0070    -1.9490    -2.0010 H     1 <1>   0.0800 
 34 H        0.1860    -5.1010     2.1720 H     1 <1>   0.1500 
 35 H        0.0700     1.5580    -0.0010 H     1 <1>   0.0800 
 36 H       -1.1040     0.5610     0.8280 H     1 <1>   0.0800 
 37 H       -2.4630    -0.9240    -0.5540 H     1 <1>   0.0800 
 38 H       -2.1850    -0.8720    -2.2800 H     1 <1>   0.0800 
 39 H       -3.6920    -6.2810     1.8570 H     1 <1>   0.1500 
 40 H       -5.5200    -3.5460    -0.9600 H     1 <1>   0.0800 
 41 H       -4.0610    -2.6540    -0.7020 H     1 <1>   0.0800 
 42 H       -5.4580    -5.1200     2.4600 H     1 <1>   0.0800 
 43 H       -6.3630    -5.1300     0.9660 H     1 <1>   0.0800 
 44 H       -6.0870    -2.8550     2.9330 H     1 <1>   0.0800 
 45 H       -7.5270    -3.7620     2.6050 H     1 <1>   0.0800 
 46 H       -7.6650    -2.8670     0.3430 H     1 <1>   0.0800 
 47 H       -7.5860    -1.5450     1.4640 H     1 <1>   0.0800 
 48 H       -3.9730    -1.2460     1.3880 H     1 <1>   0.0800 
 49 H       -5.4360    -0.7010     2.1410 H     1 <1>   0.0800 
 50 H       -3.8300     0.7360     0.2220 H     1 <1>   0.0800 
 51 H       -5.2780     1.2870     1.0520 H     1 <1>   0.0800 
 52 H       -5.5240     2.1650    -1.7990 H     1 <1>   0.1500 
 53 H       -8.2380    -0.0390    -4.3990 H     1 <1>   0.4000 
 54 H       -8.4640    -1.6020    -3.6910 H     1 <1>   0.4000 
@<TRIPOS>BOND
  1   1   2  2   
  2   2   3  am  
  3   2   4  1   
  4   3   5  1   
  5   3   6  1   
  6   4   7  ar  
  7   4   8  ar  
  8   5   9  1   
  9   5  30  1   
 10   5  31  1   
 11   6  10  1   
 12   6  32  1   
 13   6  33  1   
 14   7  11  ar  
 15   8  12  ar  
 16   8  34  1   
 17   9  13  1   
 18   9  35  1   
 19   9  36  1   
 20  10  13  1   
 21  10  37  1   
 22  10  38  1   
 23  11  14  1   
 24  11  15  ar  
 25  12  15  ar  
 26  14  16  1   
 27  14  17  1   
 28  15  39  1   
 29  16  18  1   
 30  16  40  1   
 31  16  41  1   
 32  17  19  1   
 33  17  42  1   
 34  17  43  1   
 35  18  20  1   
 36  18  21  1   
 37  18  22  1   
 38  19  21  1   
 39  19  44  1   
 40  19  45  1   
 41  20  23  ar  
 42  20  24  ar  
 43  21  46  1   
 44  21  47  1   
 45  22  25  1   
 46  22  48  1   
 47  22  49  1   
 48  23  26  ar  
 49  24  25  1   
 50  24  27  ar  
 51  25  50  1   
 52  25  51  1   
 53  26  28  ar  
 54  26  29  1   
 55  27  28  ar  
 56  27  52  1   
 57  29  53  1   
 58  29  54  1   
@<TRIPOS>SUBSTRUCTURE
  1 ****  16 GROUP 4 **** **** 0

# MOE 2024.06 (io_trps.svl 2023.06)
