@<TRIPOS>MOLECULE
NONAME
50 53 1 0 0 
SMALL
USER_CHARGES


@<TRIPOS>ATOM
  1 O       -0.6970    -0.2490     0.0770 O.3   1 <1>  -0.2800 
  2 C       -0.5890     0.8290    -0.6290 C.2   1 <1>   0.2980 
  3 C       -0.7980    -1.1900    -0.8060 C.2   1 <1>   0.2980 
  4 N       -0.6130     0.5840    -1.8870 N.2   1 <1>  -0.3380 
  5 C       -0.4560     2.1760     0.0790 C.3   1 <1>   0.1000 
  6 N       -0.7490    -0.7380    -2.0020 N.2   1 <1>  -0.3380 
  7 C       -0.9570    -2.6450    -0.3790 C.3   1 <1>   0.2900 
  8 C       -0.6310     3.3620    -0.8830 C.3   1 <1>  -0.2400 
  9 C        0.8970     2.2810     0.7960 C.3   1 <1>  -0.2400 
 10 N       -2.2350    -2.9070     0.3250 N.3   1 <1>  -0.8100 
 11 C       -3.4100    -2.5630    -0.4880 C.3   1 <1>   0.1100 
 12 C       -2.3910    -4.3210     0.7040 C.3   1 <1>   0.1100 
 13 C       -4.5430    -3.3570     0.1480 C.3   1 <1>   0.2000 
 14 C       -3.8750    -4.6840     0.5000 C.3   1 <1>  -0.0800 
 15 O       -4.8790    -2.7270     1.3300 O.3   1 <1>  -0.6800 
 16 C       -4.0710    -5.7140    -0.6290 C.3   1 <1>  -0.0170 
 17 C       -3.3940    -7.0390    -0.3170 C.ar  1 <1>   0.1670 
 18 N       -2.2630    -7.2880    -0.9030 N.ar  1 <1>  -0.6200 
 19 C       -4.0140    -7.9190     0.5840 C.ar  1 <1>  -0.1500 
 20 C       -1.6530    -8.4690    -0.6230 C.ar  1 <1>   0.3100 
 21 C       -3.4230    -9.1080     0.8850 C.ar  1 <1>  -0.1500 
 22 C       -2.1970    -9.4150     0.2720 C.ar  1 <1>   0.0000 
 23 C       -0.4290    -8.7640    -1.2450 C.ar  1 <1>  -0.1500 
 24 C       -1.4960   -10.6140     0.5110 C.ar  1 <1>  -0.1500 
 25 C        0.2370    -9.9350    -0.9990 C.ar  1 <1>  -0.1500 
 26 C       -0.3040   -10.8700    -0.1100 C.ar  1 <1>  -0.1500 
 27 H       -1.2380     2.2280     0.8170 H     1 <1>   0.0800 
 28 H       -0.1390    -2.8980     0.2710 H     1 <1>   0.0800 
 29 H       -0.8940    -3.2670    -1.2560 H     1 <1>   0.0800 
 30 H        0.1380     3.3510    -1.6350 H     1 <1>   0.0800 
 31 H       -0.5790     4.2930    -0.3470 H     1 <1>   0.0800 
 32 H       -1.5870     3.3010    -1.3720 H     1 <1>   0.0800 
 33 H        1.7010     2.2140     0.0840 H     1 <1>   0.0800 
 34 H        1.0020     1.4800     1.5060 H     1 <1>   0.0800 
 35 H        0.9740     3.2160     1.3210 H     1 <1>   0.0800 
 36 H       -3.6060    -1.5040    -0.4770 H     1 <1>   0.0800 
 37 H       -3.2680    -2.8880    -1.5050 H     1 <1>   0.0800 
 38 H       -1.7530    -4.9490     0.1040 H     1 <1>   0.0800 
 39 H       -2.1130    -4.4440     1.7370 H     1 <1>   0.0800 
 40 H       -5.4230    -3.4420    -0.4670 H     1 <1>   0.0800 
 41 H       -4.2910    -5.0890     1.4060 H     1 <1>   0.0800 
 42 H       -4.0320    -2.4620     1.7480 H     1 <1>   0.4000 
 43 H       -3.6760    -5.3280    -1.5530 H     1 <1>   0.0800 
 44 H       -5.1220    -5.8900    -0.7770 H     1 <1>   0.0800 
 45 H       -4.9530    -7.6410     1.0280 H     1 <1>   0.1500 
 46 H       -3.8670    -9.8080     1.5700 H     1 <1>   0.1500 
 47 H       -0.0310    -8.0340    -1.9250 H     1 <1>   0.1500 
 48 H       -1.9180   -11.3290     1.1950 H     1 <1>   0.1500 
 49 H        1.1750   -10.1500    -1.4820 H     1 <1>   0.1500 
 50 H        0.2300   -11.7870     0.0740 H     1 <1>   0.1500 
@<TRIPOS>BOND
  1   1   2  1   
  2   1   3  1   
  3   2   4  2   
  4   2   5  1   
  5   3   6  2   
  6   3   7  1   
  7   4   6  1   
  8   5   8  1   
  9   5   9  1   
 10   5  27  1   
 11   7  10  1   
 12   7  28  1   
 13   7  29  1   
 14   8  30  1   
 15   8  31  1   
 16   8  32  1   
 17   9  33  1   
 18   9  34  1   
 19   9  35  1   
 20  10  11  1   
 21  10  12  1   
 22  11  13  1   
 23  11  36  1   
 24  11  37  1   
 25  12  14  1   
 26  12  38  1   
 27  12  39  1   
 28  13  14  1   
 29  13  15  1   
 30  13  40  1   
 31  14  16  1   
 32  14  41  1   
 33  15  42  1   
 34  16  17  1   
 35  16  43  1   
 36  16  44  1   
 37  17  18  ar  
 38  17  19  ar  
 39  18  20  ar  
 40  19  21  ar  
 41  19  45  1   
 42  20  22  ar  
 43  20  23  ar  
 44  21  22  ar  
 45  21  46  1   
 46  22  24  ar  
 47  23  25  ar  
 48  23  47  1   
 49  24  26  ar  
 50  24  48  1   
 51  25  26  ar  
 52  25  49  1   
 53  26  50  1   
@<TRIPOS>SUBSTRUCTURE
  1 ****  12 GROUP 4 **** **** 0

# MOE 2024.06 (io_trps.svl 2023.06)
