@<TRIPOS>MOLECULE
NONAME
41 43 1 0 0 
SMALL
USER_CHARGES


@<TRIPOS>ATOM
  1 O       -1.0370     0.0770    -2.0700 O.2   1 <1>  -0.5700 
  2 C       -1.5100    -0.5870    -1.1750 C.2   1 <1>   0.5690 
  3 N       -2.2360    -0.0270    -0.1570 N.am  1 <1>  -0.6600 
  4 C       -1.2220    -2.0790    -1.1720 C.3   1 <1>  -0.0190 
  5 C       -2.8140    -0.8720     0.9330 C.3   1 <1>   0.2200 
  6 C       -2.6470     1.4020    -0.1730 C.3   1 <1>   0.0600 
  7 C       -0.3700    -2.4580     0.0490 C.3   1 <1>   0.1200 
  8 C       -2.4750    -2.9640    -1.3430 C.3   1 <1>   0.1100 
  9 C       -1.6970    -1.5210     1.7780 C.3   1 <1>   0.1200 
 10 C       -3.8510    -1.9080     0.4240 C.3   1 <1>   0.1100 
 11 O       -1.1430    -2.6640     1.1910 O.3   1 <1>  -0.5600 
 12 N       -3.7410    -2.2870    -1.0070 N.3   1 <1>  -0.8100 
 13 C       -4.9340    -3.0510    -1.4500 C.3   1 <1>   0.2530 
 14 C       -5.1560    -4.3810    -0.7200 C.ar  1 <1>   0.1670 
 15 N       -5.9040    -4.3550     0.3780 N.ar  1 <1>  -0.6200 
 16 C       -4.5900    -5.5380    -1.2350 C.ar  1 <1>  -0.1500 
 17 C       -6.0860    -5.5130     0.9890 C.ar  1 <1>   0.1670 
 18 C       -4.7860    -6.7410    -0.5930 C.ar  1 <1>  -0.1500 
 19 C       -5.5550    -6.7150     0.5500 C.ar  1 <1>  -0.1500 
 20 C       -6.9340    -5.4680     2.2420 C.3   1 <1>  -0.0970 
 21 H       -0.5970    -2.2650    -2.0250 H     1 <1>   0.0800 
 22 H       -3.3390    -0.2190     1.6070 H     1 <1>   0.0800 
 23 H       -2.3390     1.8810     0.7390 H     1 <1>   0.0800 
 24 H       -3.7170     1.4670    -0.2700 H     1 <1>   0.0800 
 25 H       -2.1960     1.9190    -1.0030 H     1 <1>   0.0800 
 26 H        0.3710    -1.7040     0.2550 H     1 <1>   0.0800 
 27 H        0.1370    -3.3860    -0.1480 H     1 <1>   0.0800 
 28 H       -2.3740    -3.8600    -0.7530 H     1 <1>   0.0800 
 29 H       -2.5220    -3.2570    -2.3770 H     1 <1>   0.0800 
 30 H       -2.1150    -1.8390     2.7160 H     1 <1>   0.0800 
 31 H       -0.9130    -0.8130     1.9820 H     1 <1>   0.0800 
 32 H       -4.8270    -1.4830     0.5810 H     1 <1>   0.0800 
 33 H       -3.7980    -2.7920     1.0380 H     1 <1>   0.0800 
 34 H       -5.8070    -2.4390    -1.3100 H     1 <1>   0.0800 
 35 H       -4.8520    -3.2390    -2.5050 H     1 <1>   0.0800 
 36 H       -3.9990    -5.4980    -2.1310 H     1 <1>   0.1500 
 37 H       -4.3590    -7.6550    -0.9640 H     1 <1>   0.1500 
 38 H       -5.7400    -7.6240     1.0930 H     1 <1>   0.1500 
 39 H       -7.0280    -6.4430     2.6830 H     1 <1>   0.0800 
 40 H       -7.9140    -5.1000     1.9980 H     1 <1>   0.0800 
 41 H       -6.4830    -4.8040     2.9560 H     1 <1>   0.0800 
@<TRIPOS>BOND
  1   1   2  2   
  2   2   3  am  
  3   2   4  1   
  4   3   5  1   
  5   3   6  1   
  6   4   7  1   
  7   4   8  1   
  8   4  21  1   
  9   5   9  1   
 10   5  10  1   
 11   5  22  1   
 12   6  23  1   
 13   6  24  1   
 14   6  25  1   
 15   7  11  1   
 16   7  26  1   
 17   7  27  1   
 18   8  12  1   
 19   8  28  1   
 20   8  29  1   
 21   9  11  1   
 22   9  30  1   
 23   9  31  1   
 24  10  12  1   
 25  10  32  1   
 26  10  33  1   
 27  12  13  1   
 28  13  14  1   
 29  13  34  1   
 30  13  35  1   
 31  14  15  ar  
 32  14  16  ar  
 33  15  17  ar  
 34  16  18  ar  
 35  16  36  1   
 36  17  19  ar  
 37  17  20  1   
 38  18  19  ar  
 39  18  37  1   
 40  19  38  1   
 41  20  39  1   
 42  20  40  1   
 43  20  41  1   
@<TRIPOS>SUBSTRUCTURE
  1 ****  12 GROUP 4 **** **** 0

# MOE 2024.06 (io_trps.svl 2023.06)
