@<TRIPOS>MOLECULE
NONAME
42 44 1 0 0 
SMALL
USER_CHARGES


@<TRIPOS>ATOM
  1 O        0.4590    -1.0100     1.6050 O.3   1 <1>  -0.5600 
  2 C        0.3060    -1.6330     0.3650 C.3   1 <1>   0.2000 
  3 C       -0.7300    -0.7230     2.2700 C.3   1 <1>   0.0400 
  4 C        1.6030    -1.5720    -0.4600 C.3   1 <1>   0.0000 
  5 C       -0.0170    -3.1220     0.5320 C.3   1 <1>  -0.1600 
  6 C        2.8500    -1.7740     0.4360 C.3   1 <1>   0.2090 
  7 C        1.7360    -0.2300    -1.2150 C.3   1 <1>  -0.1600 
  8 C        1.4260    -2.7650    -1.4170 C.3   1 <1>  -0.1600 
  9 C        0.7220    -3.8510    -0.5980 C.3   1 <1>  -0.1600 
 10 N        4.1000    -1.7060    -0.3780 N.pl3 1 <1>  -0.8380 
 11 C        3.0710    -0.1340    -1.9760 C.3   1 <1>  -0.1600 
 12 C        5.2130    -2.4040     0.0680 C.ar  1 <1>   0.4100 
 13 C        4.2760    -0.4010    -1.0660 C.3   1 <1>   0.2090 
 14 N        6.3000    -1.6960     0.3520 N.ar  1 <1>  -0.6200 
 15 C        5.1730    -3.8010     0.2160 C.ar  1 <1>   0.1600 
 16 C        7.3010    -2.4400     0.7860 C.ar  1 <1>   0.1670 
 17 N        6.1660    -4.5550     0.6510 N.ar  1 <1>  -0.6200 
 18 C        7.2340    -3.8230     0.9320 C.ar  1 <1>   0.1600 
 19 C        8.5710    -1.6900     1.1320 C.3   1 <1>  -0.0970 
 20 H       -0.4830    -1.1440    -0.1820 H     1 <1>   0.0800 
 21 H       -0.4840    -0.2380     3.1980 H     1 <1>   0.0800 
 22 H       -1.2600    -1.6370     2.4700 H     1 <1>   0.0800 
 23 H       -1.3260    -0.0630     1.6630 H     1 <1>   0.0800 
 24 H        0.3410    -3.4780     1.4830 H     1 <1>   0.0800 
 25 H       -1.0770    -3.2850     0.4610 H     1 <1>   0.0800 
 26 H        2.7890    -2.7150     0.9520 H     1 <1>   0.0800 
 27 H        2.8900    -0.9980     1.1820 H     1 <1>   0.0800 
 28 H        0.9180    -0.1030    -1.9020 H     1 <1>   0.0800 
 29 H        1.6890     0.5730    -0.4990 H     1 <1>   0.0800 
 30 H        0.7870    -2.4790    -2.2340 H     1 <1>   0.0800 
 31 H        2.3600    -3.1130    -1.8240 H     1 <1>   0.0800 
 32 H        1.4540    -4.5200    -0.1780 H     1 <1>   0.0800 
 33 H        0.0460    -4.4200    -1.2130 H     1 <1>   0.0800 
 34 H        3.1700     0.8450    -2.4090 H     1 <1>   0.0800 
 35 H        3.0870    -0.8490    -2.7800 H     1 <1>   0.0800 
 36 H        4.3650     0.3780    -0.3270 H     1 <1>   0.0800 
 37 H        5.1790    -0.4170    -1.6530 H     1 <1>   0.0800 
 38 H        4.2580    -4.2920    -0.0530 H     1 <1>   0.1500 
 39 H        8.0960    -4.3510     1.2950 H     1 <1>   0.1500 
 40 H        9.3380    -2.3590     1.4760 H     1 <1>   0.0800 
 41 H        8.3620    -0.9720     1.9040 H     1 <1>   0.0800 
 42 H        8.9260    -1.1690     0.2620 H     1 <1>   0.0800 
@<TRIPOS>BOND
  1   1   2  1   
  2   1   3  1   
  3   2   4  1   
  4   2   5  1   
  5   2  20  1   
  6   3  21  1   
  7   3  22  1   
  8   3  23  1   
  9   4   6  1   
 10   4   7  1   
 11   4   8  1   
 12   5   9  1   
 13   5  24  1   
 14   5  25  1   
 15   6  10  1   
 16   6  26  1   
 17   6  27  1   
 18   7  11  1   
 19   7  28  1   
 20   7  29  1   
 21   8   9  1   
 22   8  30  1   
 23   8  31  1   
 24   9  32  1   
 25   9  33  1   
 26  10  12  1   
 27  10  13  1   
 28  11  13  1   
 29  11  34  1   
 30  11  35  1   
 31  12  14  ar  
 32  12  15  ar  
 33  13  36  1   
 34  13  37  1   
 35  14  16  ar  
 36  15  17  ar  
 37  15  38  1   
 38  16  18  ar  
 39  16  19  1   
 40  17  18  ar  
 41  18  39  1   
 42  19  40  1   
 43  19  41  1   
 44  19  42  1   
@<TRIPOS>SUBSTRUCTURE
  1 ****   6 GROUP 4 **** **** 0

# MOE 2024.06 (io_trps.svl 2023.06)
