@<TRIPOS>MOLECULE
NONAME
32 33 1 0 0 
SMALL
USER_CHARGES


@<TRIPOS>ATOM
  1 S        0.1550     0.0390     0.5980 S.3   1 <1>  -0.0800 
  2 C        0.3580     1.7750     0.6190 C.2   1 <1>  -0.1100 
  3 C       -1.3400     0.1860    -0.3000 C.2   1 <1>  -0.1100 
  4 C       -0.6520     2.4160    -0.0240 C.2   1 <1>  -0.0860 
  5 C       -1.6190     1.4790    -0.5420 C.2   1 <1>  -0.1500 
  6 C       -0.8040     3.8460    -0.2030 C.2   1 <1>   0.7160 
  7 O       -1.8460     4.3100    -0.6230 O.2   1 <1>  -0.5700 
  8 N        0.2520     4.6680     0.0980 N.am  1 <1>  -0.4940 
  9 C        0.4050     6.0750     0.0320 C.2   1 <1>  -0.0880 
 10 N       -0.5310     7.0320     0.2970 N.pl3 1 <1>   0.3140 
 11 C        1.5430     6.7390    -0.2850 C.2   1 <1>  -0.1810 
 12 N       -0.0170     8.2730     0.1640 N.2   1 <1>  -0.7070 
 13 C       -1.9130     6.8700     0.7700 C.3   1 <1>   0.0160 
 14 C        1.2160     8.0900    -0.1870 C.2   1 <1>   0.1080 
 15 C        2.8980     6.1730    -0.6730 C.3   1 <1>  -0.0590 
 16 C        2.1540     9.2550    -0.4460 C.3   1 <1>   0.0210 
 17 C        2.9110     9.6500     0.8260 C.3   1 <1>  -0.2400 
 18 H        1.2300     2.1470     1.1280 H     1 <1>   0.1500 
 19 H       -1.8580    -0.7220    -0.5530 H     1 <1>   0.1500 
 20 H       -2.4850     1.8340    -1.0760 H     1 <1>   0.1500 
 21 H        1.1180     4.1660     0.2730 H     1 <1>   0.3700 
 22 H       -1.9720     6.0200     1.4210 H     1 <1>   0.0800 
 23 H       -2.5560     6.7280    -0.0780 H     1 <1>   0.0800 
 24 H       -2.2080     7.7540     1.3020 H     1 <1>   0.0800 
 25 H        2.8720     5.1000    -0.7030 H     1 <1>   0.0800 
 26 H        3.6410     6.4820     0.0390 H     1 <1>   0.0800 
 27 H        3.1770     6.5320    -1.6470 H     1 <1>   0.0800 
 28 H        1.5730    10.0930    -0.7900 H     1 <1>   0.0800 
 29 H        2.8490     8.9960    -1.2230 H     1 <1>   0.0800 
 30 H        2.2090     9.9230     1.5950 H     1 <1>   0.0800 
 31 H        3.5560    10.4870     0.6300 H     1 <1>   0.0800 
 32 H        3.5040     8.8250     1.1790 H     1 <1>   0.0800 
@<TRIPOS>BOND
  1   1   2  1   
  2   1   3  1   
  3   2   4  2   
  4   2  18  1   
  5   3   5  2   
  6   3  19  1   
  7   4   5  1   
  8   4   6  1   
  9   5  20  1   
 10   6   7  2   
 11   6   8  am  
 12   8   9  1   
 13   8  21  1   
 14   9  10  1   
 15   9  11  2   
 16  10  12  1   
 17  10  13  1   
 18  11  14  1   
 19  11  15  1   
 20  12  14  2   
 21  13  22  1   
 22  13  23  1   
 23  13  24  1   
 24  14  16  1   
 25  15  25  1   
 26  15  26  1   
 27  15  27  1   
 28  16  17  1   
 29  16  28  1   
 30  16  29  1   
 31  17  30  1   
 32  17  31  1   
 33  17  32  1   
@<TRIPOS>SUBSTRUCTURE
  1 ****   8 GROUP 4 **** **** 0

# MOE 2024.06 (io_trps.svl 2023.06)
