@<TRIPOS>MOLECULE
NONAME
54 57 1 0 0 
SMALL
USER_CHARGES


@<TRIPOS>ATOM
  1 O       -0.0510    -1.1240     1.1030 O.3   1 <1>  -0.5600 
  2 C        0.6120    -2.2860     0.7020 C.3   1 <1>   0.2000 
  3 C       -1.1100    -1.3230     1.9860 C.3   1 <1>   0.0400 
  4 C        1.9360    -1.9690    -0.0150 C.3   1 <1>   0.0000 
  5 C       -0.2120    -3.0960    -0.3020 C.3   1 <1>  -0.1600 
  6 C        3.0330    -1.6480     1.0190 C.3   1 <1>   0.2090 
  7 C        1.8120    -0.7850    -1.0140 C.3   1 <1>  -0.1600 
  8 C        2.1890    -3.2920    -0.7610 C.3   1 <1>  -0.1600 
  9 C        0.8100    -3.7830    -1.2180 C.3   1 <1>  -0.1600 
 10 N        4.3360    -1.3210     0.3500 N.pl3 1 <1>  -0.8380 
 11 C        3.1680    -0.3880    -1.6240 C.3   1 <1>  -0.1600 
 12 C        5.4520    -2.0940     0.4880 C.ar  1 <1>   0.4100 
 13 C        4.2320    -0.1360    -0.5510 C.3   1 <1>   0.2090 
 14 N        5.2650    -3.3830     0.7750 N.ar  1 <1>  -0.6200 
 15 C        6.7300    -1.5680     0.3420 C.ar  1 <1>  -0.1500 
 16 C        6.3230    -4.1320     0.8830 C.ar  1 <1>   0.7710 
 17 C        7.8300    -2.3820     0.4610 C.ar  1 <1>   0.4610 
 18 N        7.5770    -3.6720     0.7310 N.ar  1 <1>  -0.1790 
 19 N        6.1180    -5.4230     1.1640 N.pl3 1 <1>  -0.9000 
 20 N        9.1310    -1.9740     0.3370 N.pl3 1 <1>  -0.8380 
 21 C        9.5230    -0.5410     0.2060 C.3   1 <1>   0.2090 
 22 C       10.3420    -2.8380     0.2300 C.3   1 <1>   0.2090 
 23 C       11.0440    -0.5350     0.2670 C.3   1 <1>  -0.1600 
 24 C       11.4510    -1.9100    -0.2450 C.3   1 <1>  -0.1600 
 25 H        0.8160    -2.8880     1.5720 H     1 <1>   0.0800 
 26 H       -1.5160    -0.3610     2.2410 H     1 <1>   0.0800 
 27 H       -0.7470    -1.8100     2.8750 H     1 <1>   0.0800 
 28 H       -1.8680    -1.9190     1.5090 H     1 <1>   0.0800 
 29 H       -0.8260    -3.8200     0.2030 H     1 <1>   0.0800 
 30 H       -0.8320    -2.4370    -0.8850 H     1 <1>   0.0800 
 31 H        3.1490    -2.4720     1.7000 H     1 <1>   0.0800 
 32 H        2.7210    -0.7970     1.6000 H     1 <1>   0.0800 
 33 H        1.1170    -1.0230    -1.8000 H     1 <1>   0.0800 
 34 H        1.4220     0.0740    -0.4960 H     1 <1>   0.0800 
 35 H        2.8750    -3.1920    -1.5820 H     1 <1>   0.0800 
 36 H        2.5990    -4.0120    -0.0740 H     1 <1>   0.0800 
 37 H        0.7440    -4.8550    -1.1500 H     1 <1>   0.0800 
 38 H        0.6350    -3.4890    -2.2390 H     1 <1>   0.0800 
 39 H        3.0420     0.5050    -2.2090 H     1 <1>   0.0800 
 40 H        3.5180    -1.1570    -2.2880 H     1 <1>   0.0800 
 41 H        3.9600     0.7270     0.0330 H     1 <1>   0.0800 
 42 H        5.1680     0.0660    -1.0390 H     1 <1>   0.0800 
 43 H        6.8490    -0.5240     0.1480 H     1 <1>   0.1500 
 44 H        8.3500    -4.3010     0.8570 H     1 <1>   0.4570 
 45 H        6.8040    -6.1690     1.2820 H     1 <1>   0.4000 
 46 H        5.1450    -5.7260     1.2650 H     1 <1>   0.4000 
 47 H        9.1930    -0.1640    -0.7480 H     1 <1>   0.0800 
 48 H        9.1020     0.0560     0.9990 H     1 <1>   0.0800 
 49 H       10.5930    -3.2290     1.2030 H     1 <1>   0.0800 
 50 H       10.1980    -3.6440    -0.4700 H     1 <1>   0.0800 
 51 H       11.4650     0.2630    -0.3190 H     1 <1>   0.0800 
 52 H       11.3540    -0.4160     1.2910 H     1 <1>   0.0800 
 53 H       12.4160    -2.2140     0.1230 H     1 <1>   0.0800 
 54 H       11.4730    -1.9080    -1.3210 H     1 <1>   0.0800 
@<TRIPOS>BOND
  1   1   2  1   
  2   1   3  1   
  3   2   4  1   
  4   2   5  1   
  5   2  25  1   
  6   3  26  1   
  7   3  27  1   
  8   3  28  1   
  9   4   6  1   
 10   4   7  1   
 11   4   8  1   
 12   5   9  1   
 13   5  29  1   
 14   5  30  1   
 15   6  10  1   
 16   6  31  1   
 17   6  32  1   
 18   7  11  1   
 19   7  33  1   
 20   7  34  1   
 21   8   9  1   
 22   8  35  1   
 23   8  36  1   
 24   9  37  1   
 25   9  38  1   
 26  10  12  1   
 27  10  13  1   
 28  11  13  1   
 29  11  39  1   
 30  11  40  1   
 31  12  14  ar  
 32  12  15  ar  
 33  13  41  1   
 34  13  42  1   
 35  14  16  ar  
 36  15  17  ar  
 37  15  43  1   
 38  16  18  ar  
 39  16  19  1   
 40  17  18  ar  
 41  17  20  1   
 42  18  44  1   
 43  19  45  1   
 44  19  46  1   
 45  20  21  1   
 46  20  22  1   
 47  21  23  1   
 48  21  47  1   
 49  21  48  1   
 50  22  24  1   
 51  22  49  1   
 52  22  50  1   
 53  23  24  1   
 54  23  51  1   
 55  23  52  1   
 56  24  53  1   
 57  24  54  1   
@<TRIPOS>SUBSTRUCTURE
  1 ****  12 GROUP 4 **** **** 0

# MOE 2024.06 (io_trps.svl 2023.06)
