@<TRIPOS>MOLECULE
NONAME
37 38 1 0 0 
SMALL
USER_CHARGES


@<TRIPOS>ATOM
  1 O        0.9620     0.1240     1.4070 O.3   1 <1>  -0.6800 
  2 C        1.3880    -0.3650     0.1780 C.3   1 <1>   0.2000 
  3 C        2.2020    -1.6370     0.4330 C.3   1 <1>  -0.0800 
  4 C        2.4210     0.6150    -0.3750 C.3   1 <1>   0.3430 
  5 C        3.6470    -1.1410     0.6370 C.3   1 <1>   0.3430 
  6 C        2.0900    -2.6260    -0.7470 C.3   1 <1>  -0.0170 
  7 N        3.6300     0.3390     0.4460 N.4   1 <1>  -0.9590 
  8 C        2.8510    -3.9200    -0.4920 C.ar  1 <1>   0.1670 
  9 C        4.9120     0.8900    -0.0660 C.3   1 <1>   0.3430 
 10 N        4.1720    -3.8430    -0.5420 N.ar  1 <1>  -0.6200 
 11 C        2.1580    -5.1010    -0.2270 C.ar  1 <1>   0.1600 
 12 C        4.8850     2.4160    -0.0270 C.3   1 <1>  -0.1600 
 13 C        4.7460    -5.0180    -0.3240 C.ar  1 <1>   0.1600 
 14 N        2.7320    -6.2690     0.0030 N.ar  1 <1>  -0.6200 
 15 C        6.2500     2.9820    -0.4140 C.3   1 <1>   0.1200 
 16 C        4.0490    -6.1910    -0.0590 C.ar  1 <1>   0.1600 
 17 O        6.2090     4.3480    -0.2370 O.3   1 <1>  -0.6800 
 18 H        0.1910    -0.3790     1.7480 H     1 <1>   0.4000 
 19 H        0.5340    -0.4910    -0.4680 H     1 <1>   0.0800 
 20 H        1.8600    -2.1390     1.3220 H     1 <1>   0.0800 
 21 H        2.0850     1.6340    -0.2740 H     1 <1>   0.0800 
 22 H        2.6190     0.3940    -1.4110 H     1 <1>   0.0800 
 23 H        4.2980    -1.5910    -0.0940 H     1 <1>   0.0800 
 24 H        4.0040    -1.3950     1.6210 H     1 <1>   0.0800 
 25 H        2.4720    -2.1800    -1.6500 H     1 <1>   0.0800 
 26 H        1.0540    -2.8590    -0.9190 H     1 <1>   0.0800 
 27 H        3.4180     0.7460     1.3720 H     1 <1>   0.4500 
 28 H        5.7230     0.5390     0.5530 H     1 <1>   0.0800 
 29 H        5.0850     0.5480    -1.0740 H     1 <1>   0.0800 
 30 H        1.0830    -5.0860    -0.2040 H     1 <1>   0.1500 
 31 H        4.6540     2.7410     0.9730 H     1 <1>   0.0800 
 32 H        4.1460     2.7930    -0.7110 H     1 <1>   0.0800 
 33 H        5.8210    -5.0600    -0.3560 H     1 <1>   0.1500 
 34 H        6.5020     2.7760    -1.4420 H     1 <1>   0.0800 
 35 H        7.0260     2.5980     0.2290 H     1 <1>   0.0800 
 36 H        4.6040    -7.0980     0.1070 H     1 <1>   0.1500 
 37 H        5.6800     4.7900    -0.9300 H     1 <1>   0.4000 
@<TRIPOS>BOND
  1   1   2  1   
  2   1  18  1   
  3   2   3  1   
  4   2   4  1   
  5   2  19  1   
  6   3   5  1   
  7   3   6  1   
  8   3  20  1   
  9   4   7  1   
 10   4  21  1   
 11   4  22  1   
 12   5   7  1   
 13   5  23  1   
 14   5  24  1   
 15   6   8  1   
 16   6  25  1   
 17   6  26  1   
 18   7   9  1   
 19   7  27  1   
 20   8  10  ar  
 21   8  11  ar  
 22   9  12  1   
 23   9  28  1   
 24   9  29  1   
 25  10  13  ar  
 26  11  14  ar  
 27  11  30  1   
 28  12  15  1   
 29  12  31  1   
 30  12  32  1   
 31  13  16  ar  
 32  13  33  1   
 33  14  16  ar  
 34  15  17  1   
 35  15  34  1   
 36  15  35  1   
 37  16  36  1   
 38  17  37  1   
@<TRIPOS>SUBSTRUCTURE
  1 ****   5 GROUP 4 **** **** 0

# MOE 2024.06 (io_trps.svl 2023.06)
