@<TRIPOS>MOLECULE
NONAME
47 49 1 0 0 
SMALL
USER_CHARGES


@<TRIPOS>ATOM
  1 O        3.6900    -1.6380    -2.1460 O.2   1 <1>  -0.5700 
  2 C        2.9310    -1.5130    -1.1990 C.2   1 <1>   0.5440 
  3 N        2.9960    -0.2950    -0.5740 N.am  1 <1>  -0.6600 
  4 C        2.1420    -2.6390    -0.7120 C.ar  1 <1>   0.0860 
  5 C        3.6670    -0.2480     0.7680 C.3   1 <1>   0.2200 
  6 C        2.9040     0.9530    -1.3910 C.3   1 <1>   0.1400 
  7 C        1.0260    -2.5190     0.1360 C.ar  1 <1>   0.0830 
  8 C        2.5070    -3.9310    -1.1020 C.ar  1 <1>  -0.1500 
  9 C        3.2490     0.9680     1.6080 C.3   1 <1>   0.1200 
 10 C        5.2070    -0.3040     0.5940 C.3   1 <1>   0.3430 
 11 C        4.0030     1.9930    -1.1000 C.3   1 <1>  -0.0800 
 12 O        0.6190    -1.2810     0.5180 O.3   1 <1>  -0.3630 
 13 C        0.3470    -3.6570     0.5720 C.ar  1 <1>  -0.1500 
 14 C        1.8270    -5.0510    -0.6690 C.ar  1 <1>  -0.1500 
 15 O        4.0600     2.0700     1.3190 O.3   1 <1>  -0.5600 
 16 N        5.6420     0.0360    -0.8090 N.4   1 <1>  -0.9590 
 17 C        3.7160     2.7890     0.1830 C.3   1 <1>   0.1200 
 18 C        5.4580     1.4780    -1.1640 C.3   1 <1>   0.3430 
 19 C       -0.6250    -1.0400     1.1420 C.3   1 <1>   0.0400 
 20 C        0.7420    -4.9200     0.1770 C.ar  1 <1>  -0.1430 
 21 C        7.0200    -0.4440    -1.1000 C.3   1 <1>   0.2630 
 22 C        0.0000    -6.1580     0.6500 C.3   1 <1>  -0.0970 
 23 H        3.3600    -1.1180     1.3210 H     1 <1>   0.0800 
 24 H        2.9420     0.6930    -2.4370 H     1 <1>   0.0800 
 25 H        1.9370     1.3950    -1.2200 H     1 <1>   0.0800 
 26 H        3.3450    -4.0660    -1.7640 H     1 <1>   0.1500 
 27 H        3.4000     0.7450     2.6490 H     1 <1>   0.0800 
 28 H        2.2110     1.2150     1.4640 H     1 <1>   0.0800 
 29 H        5.5240    -1.3070     0.8250 H     1 <1>   0.0800 
 30 H        5.6780     0.3560     1.3030 H     1 <1>   0.0800 
 31 H        3.9180     2.7220    -1.8850 H     1 <1>   0.0800 
 32 H       -0.5000    -3.5770     1.2260 H     1 <1>   0.1500 
 33 H        2.1420    -6.0280    -0.9940 H     1 <1>   0.1500 
 34 H        4.9710    -0.4940    -1.4140 H     1 <1>   0.4500 
 35 H        2.6790     3.0760     0.2510 H     1 <1>   0.0800 
 36 H        4.3090     3.6880     0.1950 H     1 <1>   0.0800 
 37 H        6.0720     2.0880    -0.5210 H     1 <1>   0.0800 
 38 H        5.8090     1.6180    -2.1740 H     1 <1>   0.0800 
 39 H       -0.7560     0.0230     1.2290 H     1 <1>   0.0800 
 40 H       -0.6200    -1.4870     2.1200 H     1 <1>   0.0800 
 41 H       -1.4090    -1.4550     0.5330 H     1 <1>   0.0800 
 42 H        7.7350     0.0700    -0.4790 H     1 <1>   0.0800 
 43 H        7.2640    -0.2640    -2.1350 H     1 <1>   0.0800 
 44 H        7.0920    -1.5030    -0.9130 H     1 <1>   0.0800 
 45 H        0.7000    -6.9130     0.9610 H     1 <1>   0.0800 
 46 H       -0.6000    -6.5510    -0.1510 H     1 <1>   0.0800 
 47 H       -0.6420    -5.9290     1.4810 H     1 <1>   0.0800 
@<TRIPOS>BOND
  1   1   2  2   
  2   2   3  am  
  3   2   4  1   
  4   3   5  1   
  5   3   6  1   
  6   4   7  ar  
  7   4   8  ar  
  8   5   9  1   
  9   5  10  1   
 10   5  23  1   
 11   6  11  1   
 12   6  24  1   
 13   6  25  1   
 14   7  12  1   
 15   7  13  ar  
 16   8  14  ar  
 17   8  26  1   
 18   9  15  1   
 19   9  27  1   
 20   9  28  1   
 21  10  16  1   
 22  10  29  1   
 23  10  30  1   
 24  11  17  1   
 25  11  18  1   
 26  11  31  1   
 27  12  19  1   
 28  13  20  ar  
 29  13  32  1   
 30  14  20  ar  
 31  14  33  1   
 32  15  17  1   
 33  16  18  1   
 34  16  21  1   
 35  16  34  1   
 36  17  35  1   
 37  17  36  1   
 38  18  37  1   
 39  18  38  1   
 40  19  39  1   
 41  19  40  1   
 42  19  41  1   
 43  20  22  1   
 44  21  42  1   
 45  21  43  1   
 46  21  44  1   
 47  22  45  1   
 48  22  46  1   
 49  22  47  1   
@<TRIPOS>SUBSTRUCTURE
  1 ****   3 GROUP 4 **** **** 0

# MOE 2024.06 (io_trps.svl 2023.06)
