@<TRIPOS>MOLECULE
NONAME
54 56 1 0 0 
SMALL
USER_CHARGES


@<TRIPOS>ATOM
  1 O       -1.0050     0.1040    -1.3360 O.2   1 <1>  -0.5700 
  2 C       -1.2810     0.6270    -0.2740 C.2   1 <1>   0.7150 
  3 N       -1.7370    -0.1630     0.7320 N.am  1 <1>  -0.7300 
  4 C       -1.1620     2.0380    -0.0490 C.2   1 <1>  -0.2370 
  5 C       -1.8690    -1.6370     0.6920 C.3   1 <1>   0.2200 
  6 N       -0.5260     2.9260    -0.8640 N.pl3 1 <1>   0.3140 
  7 C       -1.6340     2.7860     0.9890 C.2   1 <1>  -0.1500 
  8 C       -3.3290    -2.0590     0.5940 C.3   1 <1>  -0.0800 
  9 C       -1.5100    -2.1970     2.0610 C.3   1 <1>   0.1200 
 10 N       -0.5820     4.1790    -0.3810 N.2   1 <1>  -0.7070 
 11 C        0.1960     2.6730    -2.1340 C.3   1 <1>   0.0960 
 12 C       -1.2500     4.0860     0.7260 C.2   1 <1>   0.1080 
 13 C       -3.7950    -2.0400     2.0550 C.3   1 <1>   0.1200 
 14 C       -4.2080    -1.2320    -0.3620 C.3   1 <1>  -0.0160 
 15 O       -2.6420    -1.9810     2.8460 O.3   1 <1>  -0.5600 
 16 C        1.6010     2.1130    -1.8770 C.3   1 <1>  -0.2400 
 17 C       -1.5510     5.2840     1.6080 C.3   1 <1>   0.0210 
 18 C       -5.6100    -1.8150    -0.4480 C.ar  1 <1>  -0.1430 
 19 C       -3.0440     5.6700     1.5970 C.3   1 <1>  -0.0800 
 20 C       -6.6660    -1.3000     0.2770 C.ar  1 <1>  -0.1500 
 21 C       -5.8970    -2.8970    -1.2560 C.ar  1 <1>  -0.1500 
 22 C       -3.5070     6.0990     0.1970 C.3   1 <1>  -0.2400 
 23 C       -3.3110     6.8030     2.5970 C.3   1 <1>  -0.2400 
 24 C       -7.9200    -1.8790     0.1660 C.ar  1 <1>   0.1600 
 25 C       -7.1860    -3.4000    -1.2950 C.ar  1 <1>   0.1600 
 26 N       -8.2050    -2.9190    -0.6010 N.ar  1 <1>  -0.6200 
 27 H       -1.9660     0.2580     1.6320 H     1 <1>   0.3700 
 28 H       -1.2600    -2.0560    -0.0920 H     1 <1>   0.0800 
 29 H       -2.1950     2.4660     1.8480 H     1 <1>   0.1500 
 30 H       -3.3510    -3.0830     0.2650 H     1 <1>   0.0800 
 31 H       -0.6600    -1.7080     2.5040 H     1 <1>   0.0800 
 32 H       -1.3400    -3.2580     2.0100 H     1 <1>   0.0800 
 33 H       -0.3790     1.9980    -2.7400 H     1 <1>   0.0800 
 34 H        0.2740     3.6070    -2.6620 H     1 <1>   0.0800 
 35 H       -4.3480    -2.9280     2.3080 H     1 <1>   0.0800 
 36 H       -4.3850    -1.1680     2.2750 H     1 <1>   0.0800 
 37 H       -3.7640    -1.2280    -1.3430 H     1 <1>   0.0800 
 38 H       -4.2670    -0.2100    -0.0320 H     1 <1>   0.0800 
 39 H        1.5420     1.1650    -1.3730 H     1 <1>   0.0800 
 40 H        2.1690     2.8030    -1.2780 H     1 <1>   0.0800 
 41 H        2.1110     1.9700    -2.8120 H     1 <1>   0.0800 
 42 H       -1.2470     5.0470     2.6110 H     1 <1>   0.0800 
 43 H       -0.9580     6.1170     1.2750 H     1 <1>   0.0800 
 44 H       -3.6200     4.8120     1.8970 H     1 <1>   0.0800 
 45 H       -6.5290    -0.4550     0.9250 H     1 <1>   0.1500 
 46 H       -5.1300    -3.3520    -1.8560 H     1 <1>   0.1500 
 47 H       -2.9380     6.9450    -0.1470 H     1 <1>   0.0800 
 48 H       -4.5480     6.3660     0.2100 H     1 <1>   0.0800 
 49 H       -3.3740     5.2960    -0.5060 H     1 <1>   0.0800 
 50 H       -2.7540     7.6830     2.3290 H     1 <1>   0.0800 
 51 H       -3.0250     6.5030     3.5900 H     1 <1>   0.0800 
 52 H       -4.3580     7.0510     2.6090 H     1 <1>   0.0800 
 53 H       -8.7320    -1.4640     0.7380 H     1 <1>   0.1500 
 54 H       -7.3910    -4.2440    -1.9320 H     1 <1>   0.1500 
@<TRIPOS>BOND
  1   1   2  2   
  2   2   3  am  
  3   2   4  1   
  4   3   5  1   
  5   3  27  1   
  6   4   6  1   
  7   4   7  2   
  8   5   8  1   
  9   5   9  1   
 10   5  28  1   
 11   6  10  1   
 12   6  11  1   
 13   7  12  1   
 14   7  29  1   
 15   8  13  1   
 16   8  14  1   
 17   8  30  1   
 18   9  15  1   
 19   9  31  1   
 20   9  32  1   
 21  10  12  2   
 22  11  16  1   
 23  11  33  1   
 24  11  34  1   
 25  12  17  1   
 26  13  15  1   
 27  13  35  1   
 28  13  36  1   
 29  14  18  1   
 30  14  37  1   
 31  14  38  1   
 32  16  39  1   
 33  16  40  1   
 34  16  41  1   
 35  17  19  1   
 36  17  42  1   
 37  17  43  1   
 38  18  20  ar  
 39  18  21  ar  
 40  19  22  1   
 41  19  23  1   
 42  19  44  1   
 43  20  24  ar  
 44  20  45  1   
 45  21  25  ar  
 46  21  46  1   
 47  22  47  1   
 48  22  48  1   
 49  22  49  1   
 50  23  50  1   
 51  23  51  1   
 52  23  52  1   
 53  24  26  ar  
 54  24  53  1   
 55  25  26  ar  
 56  25  54  1   
@<TRIPOS>SUBSTRUCTURE
  1 ****   3 GROUP 4 **** **** 0

# MOE 2024.06 (io_trps.svl 2023.06)
