@<TRIPOS>MOLECULE
NONAME
53 55 1 0 0 
SMALL
USER_CHARGES


@<TRIPOS>ATOM
  1 S       -0.1020    -0.5310     0.5160 S.o2  1 <1>   1.4470 
  2 O        0.2780    -1.6800     1.3050 O.2   1 <1>  -0.6500 
  3 O       -1.2800     0.2290     0.8660 O.2   1 <1>  -0.6500 
  4 N       -0.4460    -1.0400    -1.0480 N.am  1 <1>  -0.9140 
  5 C        1.3250     0.5610     0.2830 C.ar  1 <1>  -0.0090 
  6 C       -0.9800    -2.3900    -1.2710 C.3   1 <1>   0.2760 
  7 C        1.1760     1.9410     0.2050 C.ar  1 <1>  -0.1500 
  8 C        2.6040     0.0410     0.1500 C.ar  1 <1>  -0.1500 
  9 C       -2.1430    -2.8160    -0.3640 C.3   1 <1>  -0.0800 
 10 C        0.0480    -3.5170    -1.1280 C.3   1 <1>   0.1200 
 11 C        2.2510     2.7960     0.0050 C.ar  1 <1>  -0.1430 
 12 C        3.6940     0.8670    -0.0490 C.ar  1 <1>  -0.1500 
 13 C       -1.6310    -4.1240     0.2470 C.3   1 <1>   0.1200 
 14 C       -3.4380    -3.0210    -1.1700 C.3   1 <1>  -0.0170 
 15 O       -0.6790    -4.6000    -0.6450 O.3   1 <1>  -0.5600 
 16 C        3.5300     2.2480    -0.1250 C.ar  1 <1>   0.0830 
 17 C        1.9580     4.3020    -0.0600 C.3   1 <1>   0.0630 
 18 C       -4.5960    -3.4400    -0.2770 C.ar  1 <1>  -0.1430 
 19 O        4.5840     3.0810    -0.3210 O.3   1 <1>  -0.3630 
 20 C        2.3080     4.9000    -1.4280 C.3   1 <1>  -0.2400 
 21 C        2.6360     5.0720     1.0790 C.3   1 <1>  -0.2400 
 22 C       -5.1820    -2.5650     0.6150 C.ar  1 <1>  -0.1500 
 23 C       -5.1210    -4.7170    -0.3110 C.ar  1 <1>  -0.1500 
 24 C        5.9100     2.6150    -0.4390 C.3   1 <1>   0.0400 
 25 C       -6.2330    -2.9950     1.4080 C.ar  1 <1>   0.1600 
 26 C       -6.1750    -5.0460     0.5250 C.ar  1 <1>   0.1600 
 27 N       -6.7440    -4.2160     1.3840 N.ar  1 <1>  -0.6200 
 28 H       -1.1630    -0.3800    -1.3390 H     1 <1>   0.4200 
 29 H       -1.3090    -2.4270    -2.2960 H     1 <1>   0.0800 
 30 H        0.1850     2.3500     0.3080 H     1 <1>   0.1500 
 31 H        2.7480    -1.0250     0.2060 H     1 <1>   0.1500 
 32 H       -2.3410    -2.1210     0.4290 H     1 <1>   0.0800 
 33 H        0.8180    -3.2890    -0.4150 H     1 <1>   0.0800 
 34 H        0.4840    -3.7870    -2.0730 H     1 <1>   0.0800 
 35 H        4.6610     0.4130    -0.1440 H     1 <1>   0.1500 
 36 H       -2.3950    -4.8690     0.3820 H     1 <1>   0.0800 
 37 H       -1.1380    -3.9400     1.1880 H     1 <1>   0.0800 
 38 H       -3.2790    -3.7660    -1.9310 H     1 <1>   0.0800 
 39 H       -3.7040    -2.1020    -1.6630 H     1 <1>   0.0800 
 40 H        0.8990     4.4430     0.0690 H     1 <1>   0.0800 
 41 H        3.3690     4.8860    -1.5970 H     1 <1>   0.0800 
 42 H        1.9700     5.9190    -1.4850 H     1 <1>   0.0800 
 43 H        1.8300     4.3350    -2.2080 H     1 <1>   0.0800 
 44 H        3.7050     5.0600     0.9710 H     1 <1>   0.0800 
 45 H        2.3830     4.6270     2.0230 H     1 <1>   0.0800 
 46 H        2.3080     6.0960     1.0820 H     1 <1>   0.0800 
 47 H       -4.8320    -1.5520     0.7030 H     1 <1>   0.1500 
 48 H       -4.7210    -5.4600    -0.9770 H     1 <1>   0.1500 
 49 H        6.5500     3.4670    -0.5790 H     1 <1>   0.0800 
 50 H        5.9780     1.9650    -1.2920 H     1 <1>   0.0800 
 51 H        6.1810     2.1000     0.4650 H     1 <1>   0.0800 
 52 H       -6.6760    -2.2980     2.0980 H     1 <1>   0.1500 
 53 H       -6.5710    -6.0460     0.4850 H     1 <1>   0.1500 
@<TRIPOS>BOND
  1   1   2  2   
  2   1   3  2   
  3   1   4  am  
  4   1   5  1   
  5   4   6  1   
  6   4  28  1   
  7   5   7  ar  
  8   5   8  ar  
  9   6   9  1   
 10   6  10  1   
 11   6  29  1   
 12   7  11  ar  
 13   7  30  1   
 14   8  12  ar  
 15   8  31  1   
 16   9  13  1   
 17   9  14  1   
 18   9  32  1   
 19  10  15  1   
 20  10  33  1   
 21  10  34  1   
 22  11  16  ar  
 23  11  17  1   
 24  12  16  ar  
 25  12  35  1   
 26  13  15  1   
 27  13  36  1   
 28  13  37  1   
 29  14  18  1   
 30  14  38  1   
 31  14  39  1   
 32  16  19  1   
 33  17  20  1   
 34  17  21  1   
 35  17  40  1   
 36  18  22  ar  
 37  18  23  ar  
 38  19  24  1   
 39  20  41  1   
 40  20  42  1   
 41  20  43  1   
 42  21  44  1   
 43  21  45  1   
 44  21  46  1   
 45  22  25  ar  
 46  22  47  1   
 47  23  26  ar  
 48  23  48  1   
 49  24  49  1   
 50  24  50  1   
 51  24  51  1   
 52  25  27  ar  
 53  25  52  1   
 54  26  27  ar  
 55  26  53  1   
@<TRIPOS>SUBSTRUCTURE
  1 ****   1 GROUP 4 **** **** 0

# MOE 2024.06 (io_trps.svl 2023.06)
