@<TRIPOS>MOLECULE
NONAME
53 55 1 0 0 
SMALL
USER_CHARGES


@<TRIPOS>ATOM
  1 CL      -0.7040     1.3470     0.5370 Cl    1 <1>  -0.1230 
  2 C        0.5620     2.5440     0.3330 C.2   1 <1>   0.1230 
  3 C        0.4090     3.8010    -0.2300 C.2   1 <1>   0.1390 
  4 C        1.8560     2.4370     0.6840 C.2   1 <1>  -0.3020 
  5 N        1.5390     4.4510    -0.2370 N.2   1 <1>  -0.7070 
  6 N        2.4300     3.6050     0.3290 N.pl3 1 <1>   0.3140 
  7 C        3.8440     3.9790     0.5120 C.3   1 <1>   0.0960 
  8 C        4.1260     5.2640    -0.2800 C.3   1 <1>   0.3430 
  9 N        5.5190     5.8130    -0.0930 N.4   1 <1>  -0.9590 
 10 C        5.5880     7.1710    -0.7220 C.3   1 <1>   0.3430 
 11 C        6.5480     4.8900    -0.6820 C.3   1 <1>   0.2630 
 12 C        6.3200     8.1980     0.1710 C.3   1 <1>  -0.0800 
 13 C        6.1930     9.6010    -0.4550 C.3   1 <1>  -0.1600 
 14 C        7.8130     7.8800     0.3990 C.3   1 <1>  -0.1600 
 15 C        6.9260    10.6770     0.3520 C.3   1 <1>   0.3430 
 16 C        8.5330     8.9820     1.1900 C.3   1 <1>   0.3430 
 17 N        8.3590    10.2940     0.5110 N.4   1 <1>  -0.9590 
 18 C        9.1270    11.3700     1.2050 C.3   1 <1>   0.4860 
 19 C        9.1210    12.6030     0.3240 C.ar  1 <1>  -0.1430 
 20 C        8.3170    13.6880     0.6460 C.ar  1 <1>  -0.1500 
 21 C        9.9120    12.6530    -0.8160 C.ar  1 <1>  -0.1500 
 22 C        8.2930    14.8040    -0.1710 C.ar  1 <1>  -0.1500 
 23 C        9.8860    13.7710    -1.6320 C.ar  1 <1>  -0.1500 
 24 C        9.0750    14.8440    -1.3110 C.ar  1 <1>  -0.1500 
 25 H       -0.5220     4.1880    -0.6110 H     1 <1>   0.1500 
 26 H        2.3690     1.6170     1.1500 H     1 <1>   0.1500 
 27 H        4.4520     3.1680     0.1590 H     1 <1>   0.0800 
 28 H        4.0100     4.1370     1.5610 H     1 <1>   0.0800 
 29 H        3.4110     6.0080     0.0370 H     1 <1>   0.0800 
 30 H        3.9480     5.0710    -1.3270 H     1 <1>   0.0800 
 31 H        5.6820     5.9160     0.9190 H     1 <1>   0.4500 
 32 H        4.5850     7.5330    -0.8900 H     1 <1>   0.0800 
 33 H        6.0710     7.1080    -1.6840 H     1 <1>   0.0800 
 34 H        6.3580     4.7390    -1.7330 H     1 <1>   0.0800 
 35 H        6.5240     3.9320    -0.1890 H     1 <1>   0.0800 
 36 H        7.5360     5.3040    -0.5700 H     1 <1>   0.0800 
 37 H        5.8190     8.2260     1.1250 H     1 <1>   0.0800 
 38 H        5.1530     9.8790    -0.5140 H     1 <1>   0.0800 
 39 H        6.5790     9.6030    -1.4600 H     1 <1>   0.0800 
 40 H        8.3150     7.7490    -0.5440 H     1 <1>   0.0800 
 41 H        7.9150     6.9620     0.9510 H     1 <1>   0.0800 
 42 H        6.4650    10.7850     1.3210 H     1 <1>   0.0800 
 43 H        6.8500    11.6230    -0.1640 H     1 <1>   0.0800 
 44 H        9.5830     8.7440     1.2670 H     1 <1>   0.0800 
 45 H        8.1270     9.0350     2.1880 H     1 <1>   0.0800 
 46 H        8.7630    10.2470    -0.4330 H     1 <1>   0.4500 
 47 H       10.1470    11.0580     1.3660 H     1 <1>   0.0800 
 48 H        8.6830    11.5960     2.1610 H     1 <1>   0.0800 
 49 H        7.7050    13.6840     1.5320 H     1 <1>   0.1500 
 50 H       10.5610    11.8370    -1.0840 H     1 <1>   0.1500 
 51 H        7.6700    15.6470     0.0780 H     1 <1>   0.1500 
 52 H       10.5000    13.8130    -2.5160 H     1 <1>   0.1500 
 53 H        9.0560    15.7140    -1.9460 H     1 <1>   0.1500 
@<TRIPOS>BOND
  1   1   2  1   
  2   2   3  1   
  3   2   4  2   
  4   3   5  2   
  5   3  25  1   
  6   4   6  1   
  7   4  26  1   
  8   5   6  1   
  9   6   7  1   
 10   7   8  1   
 11   7  27  1   
 12   7  28  1   
 13   8   9  1   
 14   8  29  1   
 15   8  30  1   
 16   9  10  1   
 17   9  11  1   
 18   9  31  1   
 19  10  12  1   
 20  10  32  1   
 21  10  33  1   
 22  11  34  1   
 23  11  35  1   
 24  11  36  1   
 25  12  13  1   
 26  12  14  1   
 27  12  37  1   
 28  13  15  1   
 29  13  38  1   
 30  13  39  1   
 31  14  16  1   
 32  14  40  1   
 33  14  41  1   
 34  15  17  1   
 35  15  42  1   
 36  15  43  1   
 37  16  17  1   
 38  16  44  1   
 39  16  45  1   
 40  17  18  1   
 41  17  46  1   
 42  18  19  1   
 43  18  47  1   
 44  18  48  1   
 45  19  20  ar  
 46  19  21  ar  
 47  20  22  ar  
 48  20  49  1   
 49  21  23  ar  
 50  21  50  1   
 51  22  24  ar  
 52  22  51  1   
 53  23  24  ar  
 54  23  52  1   
 55  24  53  1   
@<TRIPOS>SUBSTRUCTURE
  1 ****  12 GROUP 4 **** **** 0

# MOE 2024.06 (io_trps.svl 2023.06)
