@<TRIPOS>MOLECULE
NONAME
56 60 1 0 0 
SMALL
USER_CHARGES


@<TRIPOS>ATOM
  1 O       -2.9420     2.9100     1.2140 O.2   1 <1>  -0.5700 
  2 C       -2.5760     1.8400     0.7530 C.2   1 <1>   0.5440 
  3 N       -1.5390     1.1890     1.3790 N.am  1 <1>  -0.6600 
  4 C       -3.2310     1.2660    -0.3960 C.ar  1 <1>   0.0860 
  5 C       -0.8870    -0.0360     0.8700 C.3   1 <1>   0.1400 
  6 C       -0.8240     1.7240     2.5600 C.3   1 <1>   0.1400 
  7 C       -2.7300     1.4030    -1.7110 C.ar  1 <1>   0.4100 
  8 C       -4.3740     0.5020    -0.2130 C.ar  1 <1>  -0.1500 
  9 C        0.4700    -0.0580     1.5620 C.3   1 <1>  -0.1600 
 10 C        0.2400     0.6790     2.8790 C.3   1 <1>  -0.1600 
 11 N       -3.2530     0.7720    -2.7600 N.ar  1 <1>  -0.6200 
 12 N       -1.6490     2.2060    -2.0250 N.pl3 1 <1>  -0.8380 
 13 C       -4.9310    -0.1140    -1.3090 C.ar  1 <1>  -0.1500 
 14 C       -4.3310     0.0460    -2.5440 C.ar  1 <1>   0.1600 
 15 C       -1.5660     3.6230    -1.5740 C.3   1 <1>   0.2090 
 16 C       -0.4700     1.6650    -2.7650 C.3   1 <1>   0.2090 
 17 C       -0.2400     3.7840    -0.8290 C.3   1 <1>   0.1000 
 18 C        0.5840     2.7560    -3.0430 C.3   1 <1>  -0.1600 
 19 C       -0.2450     5.0410     0.0300 C.2   1 <1>   0.0060 
 20 C        0.9340     3.6460    -1.8240 C.3   1 <1>  -0.1600 
 21 N        0.5510     6.0490    -0.0810 N.2   1 <1>  -0.5650 
 22 N       -1.1490     5.1680     1.0370 N.pl3 1 <1>   0.0330 
 23 C        0.1590     6.9050     0.9090 C.ar  1 <1>   0.2270 
 24 C       -0.9020     6.3670     1.6140 C.ar  1 <1>  -0.1520 
 25 C        0.6660     8.1610     1.2600 C.ar  1 <1>  -0.1440 
 26 C       -1.4910     7.0480     2.6800 C.ar  1 <1>  -0.1500 
 27 C        0.0870     8.8360     2.3150 C.ar  1 <1>  -0.1500 
 28 C        1.8320     8.7430     0.4800 C.3   1 <1>  -0.0970 
 29 C       -0.9880     8.2820     3.0220 C.ar  1 <1>  -0.1500 
 30 H       -0.7820    -0.0120    -0.2010 H     1 <1>   0.0800 
 31 H       -1.4710    -0.8920     1.1600 H     1 <1>   0.0800 
 32 H       -1.5030     1.8670     3.3830 H     1 <1>   0.0800 
 33 H       -0.3640     2.6630     2.3030 H     1 <1>   0.0800 
 34 H       -4.8020     0.3930     0.7690 H     1 <1>   0.1500 
 35 H        1.1780     0.4840     0.9590 H     1 <1>   0.0800 
 36 H        0.8290    -1.0610     1.7090 H     1 <1>   0.0800 
 37 H       -0.1500    -0.0010     3.6160 H     1 <1>   0.0800 
 38 H        1.1390     1.1310     3.2600 H     1 <1>   0.0800 
 39 H       -5.8170    -0.7160    -1.2130 H     1 <1>   0.1500 
 40 H       -4.7640    -0.4480    -3.3970 H     1 <1>   0.1500 
 41 H       -2.4070     3.8720    -0.9560 H     1 <1>   0.0800 
 42 H       -1.5930     4.2810    -2.4260 H     1 <1>   0.0800 
 43 H       -0.8000     1.2350    -3.6960 H     1 <1>   0.0800 
 44 H       -0.0240     0.8830    -2.1770 H     1 <1>   0.0800 
 45 H       -0.1600     2.9620    -0.1420 H     1 <1>   0.0800 
 46 H        0.1930     3.3840    -3.8260 H     1 <1>   0.0800 
 47 H        1.4780     2.3010    -3.4290 H     1 <1>   0.0800 
 48 H        1.7790     3.2390    -1.2980 H     1 <1>   0.0800 
 49 H        1.2200     4.6170    -2.1890 H     1 <1>   0.0800 
 50 H       -1.8810     4.4880     1.2950 H     1 <1>   0.2700 
 51 H       -2.3170     6.6090     3.2120 H     1 <1>   0.1500 
 52 H        0.4550     9.8030     2.6090 H     1 <1>   0.1500 
 53 H        2.6780     8.0830     0.5490 H     1 <1>   0.0800 
 54 H        2.1100     9.7080     0.8600 H     1 <1>   0.0800 
 55 H        1.5590     8.8410    -0.5560 H     1 <1>   0.0800 
 56 H       -1.4180     8.8350     3.8390 H     1 <1>   0.1500 
@<TRIPOS>BOND
  1   1   2  2   
  2   2   3  am  
  3   2   4  1   
  4   3   5  1   
  5   3   6  1   
  6   4   7  ar  
  7   4   8  ar  
  8   5   9  1   
  9   5  30  1   
 10   5  31  1   
 11   6  10  1   
 12   6  32  1   
 13   6  33  1   
 14   7  11  ar  
 15   7  12  1   
 16   8  13  ar  
 17   8  34  1   
 18   9  10  1   
 19   9  35  1   
 20   9  36  1   
 21  10  37  1   
 22  10  38  1   
 23  11  14  ar  
 24  12  15  1   
 25  12  16  1   
 26  13  14  ar  
 27  13  39  1   
 28  14  40  1   
 29  15  17  1   
 30  15  41  1   
 31  15  42  1   
 32  16  18  1   
 33  16  43  1   
 34  16  44  1   
 35  17  19  1   
 36  17  20  1   
 37  17  45  1   
 38  18  20  1   
 39  18  46  1   
 40  18  47  1   
 41  19  21  2   
 42  19  22  1   
 43  20  48  1   
 44  20  49  1   
 45  21  23  1   
 46  22  24  1   
 47  22  50  1   
 48  23  24  ar  
 49  23  25  ar  
 50  24  26  ar  
 51  25  27  ar  
 52  25  28  1   
 53  26  29  ar  
 54  26  51  1   
 55  27  29  ar  
 56  27  52  1   
 57  28  53  1   
 58  28  54  1   
 59  28  55  1   
 60  29  56  1   
@<TRIPOS>SUBSTRUCTURE
  1 ****  17 GROUP 4 **** **** 0

# MOE 2024.06 (io_trps.svl 2023.06)
