@<TRIPOS>MOLECULE
NONAME
46 49 1 0 0 
SMALL
USER_CHARGES


@<TRIPOS>ATOM
  1 O       -0.4710     0.4240     0.7250 O.2   1 <1>  -0.5700 
  2 C       -1.4930     1.0120     0.4360 C.2   1 <1>   0.7030 
  3 N       -2.6310     0.2740     0.1840 N.am  1 <1>  -0.6600 
  4 C       -1.4600     2.4650     0.3750 C.2   1 <1>   0.2770 
  5 C       -3.7040     0.6460    -0.7810 C.3   1 <1>   0.1400 
  6 C       -2.6940    -1.1930     0.4490 C.3   1 <1>   0.1400 
  7 N       -2.5120     3.3600     0.5220 N.pl3 1 <1>  -0.7000 
  8 C       -0.3540     3.2260     0.1930 C.2   1 <1>   0.2000 
  9 C       -4.7060    -0.5030    -0.7070 C.3   1 <1>   0.2000 
 10 C       -3.8290    -1.7290    -0.4350 C.3   1 <1>  -0.0800 
 11 C       -2.0380     4.6100     0.4250 C.cat 1 <1>   0.7910 
 12 N       -0.7030     4.5590     0.2110 N.pl3 1 <1>  -0.6290 
 13 O       -5.5410    -0.2680     0.3750 O.3   1 <1>  -0.6800 
 14 C       -4.5700    -2.9410     0.1630 C.3   1 <1>   0.0200 
 15 C       -2.7060     5.8420     0.5170 C.2   1 <1>  -0.1410 
 16 C        0.0300     5.7210     0.0790 C.2   1 <1>   0.2410 
 17 C       -3.6820    -4.1640     0.3150 C.2   1 <1>  -0.0400 
 18 C       -1.9950     7.0040     0.3870 C.2   1 <1>  -0.1500 
 19 C       -0.6050     6.9280     0.1640 C.2   1 <1>  -0.1500 
 20 C        1.5240     5.6020    -0.1570 C.3   1 <1>  -0.1020 
 21 O       -4.1320    -5.1800     1.0020 O.3   1 <1>  -0.0190 
 22 C       -2.4510    -4.4810    -0.1210 C.2   1 <1>  -0.1500 
 23 N       -3.2710    -6.1540     1.0530 N.2   1 <1>  -0.4100 
 24 C       -2.2480    -5.7620     0.3850 C.2   1 <1>   0.1080 
 25 C       -0.9980    -6.5880     0.1820 C.3   1 <1>  -0.0590 
 26 H       -4.1780     1.5800    -0.5400 H     1 <1>   0.0800 
 27 H       -3.2860     0.6960    -1.7720 H     1 <1>   0.0800 
 28 H       -1.7580    -1.6720     0.2120 H     1 <1>   0.0800 
 29 H       -2.9120    -1.3530     1.4920 H     1 <1>   0.0800 
 30 H       -3.4790     3.1150     0.7440 H     1 <1>   0.4500 
 31 H        0.6600     2.8810     0.0580 H     1 <1>   0.1500 
 32 H       -5.3110    -0.5930    -1.5940 H     1 <1>   0.0800 
 33 H       -3.3970    -2.0300    -1.3730 H     1 <1>   0.0800 
 34 H       -5.0210    -0.2620     1.2020 H     1 <1>   0.4000 
 35 H       -5.4020    -3.2020    -0.4670 H     1 <1>   0.0800 
 36 H       -4.9640    -2.6920     1.1330 H     1 <1>   0.0800 
 37 H       -3.7650     5.8480     0.6900 H     1 <1>   0.1500 
 38 H       -2.4680     7.9720     0.4510 H     1 <1>   0.1500 
 39 H       -0.0560     7.8500     0.0640 H     1 <1>   0.1500 
 40 H        1.7130     5.0600    -1.0650 H     1 <1>   0.0800 
 41 H        1.9880     5.0880     0.6650 H     1 <1>   0.0800 
 42 H        1.9720     6.5750    -0.2430 H     1 <1>   0.0800 
 43 H       -1.7530    -3.9260    -0.7180 H     1 <1>   0.1500 
 44 H       -0.7860    -6.6810    -0.8670 H     1 <1>   0.0800 
 45 H       -1.1360    -7.5700     0.5960 H     1 <1>   0.0800 
 46 H       -0.1660    -6.1180     0.6730 H     1 <1>   0.0800 
@<TRIPOS>BOND
  1   1   2  2   
  2   2   3  am  
  3   2   4  1   
  4   3   5  1   
  5   3   6  1   
  6   4   7  1   
  7   4   8  2   
  8   5   9  1   
  9   5  26  1   
 10   5  27  1   
 11   6  10  1   
 12   6  28  1   
 13   6  29  1   
 14   7  11  ar  
 15   7  30  1   
 16   8  12  1   
 17   8  31  1   
 18   9  10  1   
 19   9  13  1   
 20   9  32  1   
 21  10  14  1   
 22  10  33  1   
 23  11  12  ar  
 24  11  15  1   
 25  12  16  1   
 26  13  34  1   
 27  14  17  1   
 28  14  35  1   
 29  14  36  1   
 30  15  18  2   
 31  15  37  1   
 32  16  19  2   
 33  16  20  1   
 34  17  21  1   
 35  17  22  2   
 36  18  19  1   
 37  18  38  1   
 38  19  39  1   
 39  20  40  1   
 40  20  41  1   
 41  20  42  1   
 42  21  23  1   
 43  22  24  1   
 44  22  43  1   
 45  23  24  2   
 46  24  25  1   
 47  25  44  1   
 48  25  45  1   
 49  25  46  1   
@<TRIPOS>SUBSTRUCTURE
  1 ****   3 GROUP 4 **** **** 0

# MOE 2024.06 (io_trps.svl 2023.06)
