@<TRIPOS>MOLECULE
NONAME
39 40 1 0 0 
SMALL
USER_CHARGES


@<TRIPOS>ATOM
  1 O        0.0640    -0.1170    -1.2510 O.2   1 <1>  -0.5700 
  2 C        0.9760    -0.5930    -0.6020 C.2   1 <1>   0.5440 
  3 N        1.8230     0.2630     0.0680 N.am  1 <1>  -0.6600 
  4 C        1.1310    -2.0290    -0.5450 C.ar  1 <1>   0.0860 
  5 C        1.8350     1.7290    -0.2540 C.3   1 <1>   0.3200 
  6 C        2.6610    -0.1390     1.2360 C.3   1 <1>   0.0600 
  7 C        2.3750    -2.6290    -0.7230 C.ar  1 <1>   0.1600 
  8 C        0.0520    -2.8740    -0.3190 C.ar  1 <1>  -0.1500 
  9 C        3.2480     2.2620    -0.4360 C.2   1 <1>   0.2980 
 10 N        2.6270    -3.9250    -0.6640 N.ar  1 <1>  -0.6200 
 11 C        0.2880    -4.2290    -0.2630 C.ar  1 <1>  -0.1500 
 12 O        3.9420     1.8530    -1.4690 O.3   1 <1>  -0.0190 
 13 N        3.8470     3.0800     0.3360 N.2   1 <1>  -0.5650 
 14 C        1.5850    -4.7110    -0.4350 C.ar  1 <1>   0.3930 
 15 N        5.0800     2.4640    -1.3430 N.2   1 <1>  -0.4100 
 16 C        5.0140     3.1780    -0.2890 C.2   1 <1>   0.3350 
 17 O        1.8820    -6.0220    -0.3840 O.3   1 <1>  -0.3630 
 18 C        6.1210     4.0820     0.2580 C.3   1 <1>   0.1010 
 19 C        0.9150    -7.0310    -0.1980 C.3   1 <1>   0.0400 
 20 C        5.9210     5.5270    -0.2190 C.3   1 <1>  -0.2400 
 21 C        7.5260     3.5910    -0.1270 C.3   1 <1>  -0.2400 
 22 H        1.3580     2.2640     0.5470 H     1 <1>   0.0800 
 23 H        1.2840     1.9250    -1.1570 H     1 <1>   0.0800 
 24 H        2.3460    -1.0920     1.6270 H     1 <1>   0.0800 
 25 H        2.5720     0.5930     2.0210 H     1 <1>   0.0800 
 26 H        3.6940    -0.2050     0.9400 H     1 <1>   0.0800 
 27 H        3.2150    -1.9880    -0.9280 H     1 <1>   0.1500 
 28 H       -0.9360    -2.4660    -0.1950 H     1 <1>   0.1500 
 29 H       -0.5330    -4.8960    -0.0880 H     1 <1>   0.1500 
 30 H        6.0480     4.0660     1.3310 H     1 <1>   0.0800 
 31 H        1.4190    -7.9810    -0.2140 H     1 <1>   0.0800 
 32 H        0.2010    -6.9830    -1.0000 H     1 <1>   0.0800 
 33 H        0.4380    -6.8880     0.7560 H     1 <1>   0.0800 
 34 H        5.9780     5.5770    -1.2920 H     1 <1>   0.0800 
 35 H        6.6730     6.1700     0.2010 H     1 <1>   0.0800 
 36 H        4.9540     5.8840     0.0890 H     1 <1>   0.0800 
 37 H        7.6520     3.6130    -1.1960 H     1 <1>   0.0800 
 38 H        7.6660     2.5800     0.2120 H     1 <1>   0.0800 
 39 H        8.2780     4.2120     0.3230 H     1 <1>   0.0800 
@<TRIPOS>BOND
  1   1   2  2   
  2   2   3  am  
  3   2   4  1   
  4   3   5  1   
  5   3   6  1   
  6   4   7  ar  
  7   4   8  ar  
  8   5   9  1   
  9   5  22  1   
 10   5  23  1   
 11   6  24  1   
 12   6  25  1   
 13   6  26  1   
 14   7  10  ar  
 15   7  27  1   
 16   8  11  ar  
 17   8  28  1   
 18   9  12  1   
 19   9  13  2   
 20  10  14  ar  
 21  11  14  ar  
 22  11  29  1   
 23  12  15  1   
 24  13  16  1   
 25  14  17  1   
 26  15  16  2   
 27  16  18  1   
 28  17  19  1   
 29  18  20  1   
 30  18  21  1   
 31  18  30  1   
 32  19  31  1   
 33  19  32  1   
 34  19  33  1   
 35  20  34  1   
 36  20  35  1   
 37  20  36  1   
 38  21  37  1   
 39  21  38  1   
 40  21  39  1   
@<TRIPOS>SUBSTRUCTURE
  1 ****   3 GROUP 4 **** **** 0

# MOE 2024.06 (io_trps.svl 2023.06)
