@<TRIPOS>MOLECULE
NONAME
48 50 1 0 0 
SMALL
USER_CHARGES


@<TRIPOS>ATOM
  1 O        1.4440    -1.5730     2.0640 O.2   1 <1>  -0.5700 
  2 C        2.2860    -1.6940     1.2060 C.2   1 <1>   0.5690 
  3 N        3.3190    -0.8040     1.0910 N.am  1 <1>  -0.6600 
  4 C        2.1830    -2.8760     0.2460 C.3   1 <1>  -0.0990 
  5 C        3.2840     0.4810     1.8700 C.3   1 <1>   0.3210 
  6 C        4.5120    -0.9840     0.2130 C.3   1 <1>   0.0600 
  7 C        0.7780    -3.5050     0.1790 C.3   1 <1>  -0.1600 
  8 C        3.6100     1.7070     1.0160 C.2   1 <1>   0.3350 
  9 C        0.7120    -4.6540    -0.8380 C.3   1 <1>   0.0200 
 10 N        4.6900     2.3800     1.1000 N.2   1 <1>  -0.4100 
 11 N        2.7720     2.1710     0.0950 N.2   1 <1>  -0.5650 
 12 C       -0.6680    -5.2820    -0.8840 C.2   1 <1>   0.2980 
 13 O        4.6140     3.3370     0.2260 O.3   1 <1>  -0.0190 
 14 C        3.4470     3.1570    -0.3390 C.2   1 <1>   0.2980 
 15 O       -1.6680    -4.5770    -1.3460 O.3   1 <1>  -0.0190 
 16 N       -0.9550    -6.4590    -0.5130 N.2   1 <1>  -0.5650 
 17 C        3.0090     4.1080    -1.4290 C.3   1 <1>  -0.0600 
 18 N       -2.6830    -5.3780    -1.2580 N.2   1 <1>  -0.4100 
 19 C       -2.2680    -6.4910    -0.7640 C.2   1 <1>   0.4620 
 20 C       -3.0920    -7.6590    -0.4990 C.ar  1 <1>   0.0540 
 21 C       -2.5570    -8.8300     0.0390 C.ar  1 <1>  -0.1500 
 22 C       -4.4620    -7.6570    -0.7750 C.ar  1 <1>  -0.1500 
 23 C       -3.3360    -9.9450     0.2930 C.ar  1 <1>   0.0820 
 24 C       -5.2540    -8.7630    -0.5270 C.ar  1 <1>  -0.1500 
 25 O       -2.7050   -11.0250     0.8180 O.3   1 <1>  -0.3630 
 26 C       -4.6970    -9.9100     0.0070 C.ar  1 <1>  -0.1500 
 27 C       -3.4050   -12.2130     1.1140 C.3   1 <1>   0.0400 
 28 H        2.8920    -3.6200     0.5590 H     1 <1>   0.0800 
 29 H        2.4520    -2.5380    -0.7370 H     1 <1>   0.0800 
 30 H        3.9960     0.4160     2.6720 H     1 <1>   0.0800 
 31 H        2.3120     0.6320     2.3050 H     1 <1>   0.0800 
 32 H        4.6760    -2.0240    -0.0070 H     1 <1>   0.0800 
 33 H        5.3900    -0.6030     0.7060 H     1 <1>   0.0800 
 34 H        4.3680    -0.4450    -0.7080 H     1 <1>   0.0800 
 35 H        0.0620    -2.7460    -0.0890 H     1 <1>   0.0800 
 36 H        0.5070    -3.8800     1.1520 H     1 <1>   0.0800 
 37 H        1.4250    -5.4140    -0.5710 H     1 <1>   0.0800 
 38 H        0.9570    -4.2930    -1.8200 H     1 <1>   0.0800 
 39 H        2.0360     3.8300    -1.7880 H     1 <1>   0.0800 
 40 H        3.7080     4.0710    -2.2440 H     1 <1>   0.0800 
 41 H        2.9680     5.1080    -1.0410 H     1 <1>   0.0800 
 42 H       -1.5080    -8.8800     0.2690 H     1 <1>   0.1500 
 43 H       -4.9130    -6.7720    -1.1910 H     1 <1>   0.1500 
 44 H       -6.3070    -8.7300    -0.7510 H     1 <1>   0.1500 
 45 H       -5.3310   -10.7560     0.1910 H     1 <1>   0.1500 
 46 H       -2.7040   -12.9210     1.5150 H     1 <1>   0.0800 
 47 H       -3.8360   -12.5990     0.2070 H     1 <1>   0.0800 
 48 H       -4.1650   -11.9970     1.8430 H     1 <1>   0.0800 
@<TRIPOS>BOND
  1   1   2  2   
  2   2   3  am  
  3   2   4  1   
  4   3   5  1   
  5   3   6  1   
  6   4   7  1   
  7   4  28  1   
  8   4  29  1   
  9   5   8  1   
 10   5  30  1   
 11   5  31  1   
 12   6  32  1   
 13   6  33  1   
 14   6  34  1   
 15   7   9  1   
 16   7  35  1   
 17   7  36  1   
 18   8  10  2   
 19   8  11  1   
 20   9  12  1   
 21   9  37  1   
 22   9  38  1   
 23  10  13  1   
 24  11  14  2   
 25  12  15  1   
 26  12  16  2   
 27  13  14  1   
 28  14  17  1   
 29  15  18  1   
 30  16  19  1   
 31  17  39  1   
 32  17  40  1   
 33  17  41  1   
 34  18  19  2   
 35  19  20  1   
 36  20  21  ar  
 37  20  22  ar  
 38  21  23  ar  
 39  21  42  1   
 40  22  24  ar  
 41  22  43  1   
 42  23  25  1   
 43  23  26  ar  
 44  24  26  ar  
 45  24  44  1   
 46  25  27  1   
 47  26  45  1   
 48  27  46  1   
 49  27  47  1   
 50  27  48  1   
@<TRIPOS>SUBSTRUCTURE
  1 ****   7 GROUP 4 **** **** 0

# MOE 2024.06 (io_trps.svl 2023.06)
