@<TRIPOS>MOLECULE
NONAME
45 47 1 0 0 
SMALL
USER_CHARGES


@<TRIPOS>ATOM
  1 S        0.0830    -0.7720    -1.5090 S.3   1 <1>  -0.0800 
  2 C        0.8620    -1.5630    -0.1480 C.2   1 <1>  -0.1400 
  3 C        0.9020     0.7360    -1.1560 C.2   1 <1>  -0.1100 
  4 C        1.6790    -0.7000     0.4870 C.2   1 <1>  -0.1500 
  5 C        0.5380    -3.0190     0.1080 C.3   1 <1>   0.5230 
  6 C        1.7040     0.6180    -0.0790 C.2   1 <1>   0.0190 
  7 N       -0.7260    -3.0870     0.8970 N.4   1 <1>  -0.9590 
  8 C        2.5140     1.6530     0.4880 C.1   1 <1>  -0.0190 
  9 C       -1.9440    -2.8440     0.0520 C.3   1 <1>   0.3430 
 10 C       -0.8810    -4.4370     1.5160 C.3   1 <1>   0.3430 
 11 C        3.1880     2.5130     0.9590 C.1   1 <1>  -0.2000 
 12 C       -2.8760    -4.0450     0.2720 C.3   1 <1>   0.2000 
 13 C       -1.9350    -5.1730     0.6840 C.3   1 <1>  -0.0800 
 14 C        4.0320     3.5890     1.5420 C.3   1 <1>   0.3200 
 15 O       -3.7520    -3.7800     1.3170 O.3   1 <1>  -0.6800 
 16 C       -1.3460    -5.8710    -0.5630 C.3   1 <1>   0.0210 
 17 O        5.2340     3.5750     0.8710 O.3   1 <1>  -0.6800 
 18 C       -0.0470    -6.5940    -0.2710 C.2   1 <1>   0.1080 
 19 N        1.1000    -5.9830    -0.2300 N.2   1 <1>  -0.7070 
 20 C        0.0700    -7.9570    -0.0300 C.2   1 <1>  -0.1500 
 21 N        1.9940    -6.9670     0.0210 N.pl3 1 <1>   0.3000 
 22 C        1.3890    -8.1640     0.1550 C.2   1 <1>  -0.3320 
 23 C        2.1230    -9.4620     0.4460 C.3   1 <1>  -0.0600 
 24 H        0.7030     1.5770    -1.7970 H     1 <1>   0.1500 
 25 H        2.2890    -0.9180     1.3480 H     1 <1>   0.1500 
 26 H        1.3410    -3.4620     0.6730 H     1 <1>   0.0800 
 27 H        0.4480    -3.5600    -0.8200 H     1 <1>   0.0800 
 28 H       -0.6550    -2.3620     1.6220 H     1 <1>   0.4500 
 29 H       -2.4390    -1.9220     0.3100 H     1 <1>   0.0800 
 30 H       -1.6630    -2.8090    -0.9870 H     1 <1>   0.0800 
 31 H        0.0530    -4.9720     1.5680 H     1 <1>   0.0800 
 32 H       -1.2540    -4.3230     2.5210 H     1 <1>   0.0800 
 33 H       -3.4660    -4.2720    -0.6010 H     1 <1>   0.0800 
 34 H       -2.4350    -5.9140     1.2830 H     1 <1>   0.0800 
 35 H        4.2210     3.4070     2.5860 H     1 <1>   0.0800 
 36 H        3.5820     4.5590     1.4140 H     1 <1>   0.0800 
 37 H       -3.3050    -3.5920     2.1640 H     1 <1>   0.4000 
 38 H       -1.1490    -5.1620    -1.3470 H     1 <1>   0.0800 
 39 H       -2.0620    -6.5760    -0.9490 H     1 <1>   0.0800 
 40 H        5.4780     2.6490     0.6820 H     1 <1>   0.4000 
 41 H       -0.7310    -8.6760    -0.0080 H     1 <1>   0.1500 
 42 H        3.0080    -6.8020     0.0840 H     1 <1>   0.2700 
 43 H        1.4250   -10.2780     0.5020 H     1 <1>   0.0800 
 44 H        2.6450    -9.3950     1.3850 H     1 <1>   0.0800 
 45 H        2.8320    -9.6740    -0.3350 H     1 <1>   0.0800 
@<TRIPOS>BOND
  1   1   2  1   
  2   1   3  1   
  3   2   4  2   
  4   2   5  1   
  5   3   6  2   
  6   3  24  1   
  7   4   6  1   
  8   4  25  1   
  9   5   7  1   
 10   5  26  1   
 11   5  27  1   
 12   6   8  1   
 13   7   9  1   
 14   7  10  1   
 15   7  28  1   
 16   8  11  3   
 17   9  12  1   
 18   9  29  1   
 19   9  30  1   
 20  10  13  1   
 21  10  31  1   
 22  10  32  1   
 23  11  14  1   
 24  12  13  1   
 25  12  15  1   
 26  12  33  1   
 27  13  16  1   
 28  13  34  1   
 29  14  17  1   
 30  14  35  1   
 31  14  36  1   
 32  15  37  1   
 33  16  18  1   
 34  16  38  1   
 35  16  39  1   
 36  17  40  1   
 37  18  19  2   
 38  18  20  1   
 39  19  21  1   
 40  20  22  2   
 41  20  41  1   
 42  21  22  1   
 43  21  42  1   
 44  22  23  1   
 45  23  43  1   
 46  23  44  1   
 47  23  45  1   
@<TRIPOS>SUBSTRUCTURE
  1 ****   5 GROUP 4 **** **** 0

# MOE 2024.06 (io_trps.svl 2023.06)
