@<TRIPOS>MOLECULE
NONAME
58 61 1 0 0 
SMALL
USER_CHARGES


@<TRIPOS>ATOM
  1 O        0.3480    -1.6840    -1.3990 O.2   1 <1>  -0.5700 
  2 C        1.1220    -2.4020    -0.8160 C.2   1 <1>   0.5690 
  3 N        0.7350    -3.3540     0.0880 N.am  1 <1>  -0.6600 
  4 C        2.6050    -2.2510    -1.0820 C.3   1 <1>  -0.0990 
  5 C        1.7400    -4.1760     0.8040 C.3   1 <1>   0.1400 
  6 C       -0.6920    -3.5710     0.4530 C.3   1 <1>   0.0600 
  7 C        3.2660    -3.6320    -1.2460 C.3   1 <1>  -0.0800 
  8 C        2.8340    -4.6580    -0.1720 C.3   1 <1>  -0.0800 
  9 C        4.7990    -3.5690    -1.2120 C.3   1 <1>  -0.1600 
 10 C        4.1210    -5.1010     0.5390 C.3   1 <1>  -0.1600 
 11 C        5.2240    -4.8360    -0.4810 C.3   1 <1>   0.4230 
 12 N        6.6030    -4.8060     0.0860 N.4   1 <1>  -0.9590 
 13 C        6.9240    -3.9330     1.2630 C.3   1 <1>   0.4860 
 14 C        7.0830    -6.1940     0.3420 C.3   1 <1>   0.2630 
 15 C        7.0170    -2.4490     0.9070 C.ar  1 <1>  -0.1440 
 16 C        8.0130    -1.9780     0.0360 C.ar  1 <1>  -0.0230 
 17 C        6.1120    -1.5420     1.4620 C.ar  1 <1>  -0.1440 
 18 N        9.0450    -2.7990    -0.5040 N.pl3 1 <1>   0.5930 
 19 C        8.0300    -0.6320    -0.3120 C.ar  1 <1>  -0.1500 
 20 C        6.1630    -0.2070     1.0970 C.ar  1 <1>  -0.1500 
 21 C        5.0360    -1.9240     2.4740 C.3   1 <1>  -0.0970 
 22 N        8.8250    -3.8550    -1.3350 N.2   1 <1>  -0.7070 
 23 C       10.3750    -2.6380    -0.3130 C.2   1 <1>  -0.3020 
 24 C        7.1090     0.2540     0.2040 C.ar  1 <1>  -0.1440 
 25 C       10.0050    -4.2960    -1.6550 C.2   1 <1>   0.1390 
 26 C       11.0180    -3.5760    -1.0370 C.2   1 <1>  -0.1500 
 27 C        7.1350     1.7210    -0.1870 C.3   1 <1>  -0.0970 
 28 H        2.7490    -1.6640    -1.9710 H     1 <1>   0.0800 
 29 H        3.0310    -1.7140    -0.2550 H     1 <1>   0.0800 
 30 H        2.1670    -3.5690     1.5830 H     1 <1>   0.0800 
 31 H        1.2620    -5.0250     1.2620 H     1 <1>   0.0800 
 32 H       -0.9750    -4.5850     0.2310 H     1 <1>   0.0800 
 33 H       -1.3310    -2.9080    -0.1040 H     1 <1>   0.0800 
 34 H       -0.8330    -3.3820     1.5030 H     1 <1>   0.0800 
 35 H        2.9590    -4.0220    -2.2040 H     1 <1>   0.0800 
 36 H        2.4330    -5.5130    -0.6930 H     1 <1>   0.0800 
 37 H        5.0970    -2.6860    -0.6890 H     1 <1>   0.0800 
 38 H        5.2060    -3.5380    -2.2070 H     1 <1>   0.0800 
 39 H        4.0720    -6.1410     0.8080 H     1 <1>   0.0800 
 40 H        4.2660    -4.5090     1.4200 H     1 <1>   0.0800 
 41 H        5.1770    -5.6300    -1.2100 H     1 <1>   0.0800 
 42 H        7.2110    -4.4360    -0.6760 H     1 <1>   0.4500 
 43 H        6.1970    -4.0920     2.0370 H     1 <1>   0.0800 
 44 H        7.8810    -4.2260     1.6620 H     1 <1>   0.0800 
 45 H        6.5230    -6.6450     1.1440 H     1 <1>   0.0800 
 46 H        8.1280    -6.1820     0.6080 H     1 <1>   0.0800 
 47 H        6.9680    -6.7960    -0.5440 H     1 <1>   0.0800 
 48 H        8.7790    -0.2710    -0.9980 H     1 <1>   0.1500 
 49 H        5.4570     0.4950     1.5100 H     1 <1>   0.1500 
 50 H        4.7400    -1.0620     3.0460 H     1 <1>   0.0800 
 51 H        5.3890    -2.6560     3.1760 H     1 <1>   0.0800 
 52 H        4.1650    -2.2910     1.9660 H     1 <1>   0.0800 
 53 H       10.7750    -1.8640     0.3160 H     1 <1>   0.1500 
 54 H       10.1790    -5.1240    -2.3240 H     1 <1>   0.1500 
 55 H       12.0760    -3.7500    -1.1390 H     1 <1>   0.1500 
 56 H        6.1350     2.0810    -0.3490 H     1 <1>   0.0800 
 57 H        7.6960     1.8670    -1.0930 H     1 <1>   0.0800 
 58 H        7.5890     2.3000     0.5970 H     1 <1>   0.0800 
@<TRIPOS>BOND
  1   1   2  2   
  2   2   3  am  
  3   2   4  1   
  4   3   5  1   
  5   3   6  1   
  6   4   7  1   
  7   4  28  1   
  8   4  29  1   
  9   5   8  1   
 10   5  30  1   
 11   5  31  1   
 12   6  32  1   
 13   6  33  1   
 14   6  34  1   
 15   7   8  1   
 16   7   9  1   
 17   7  35  1   
 18   8  10  1   
 19   8  36  1   
 20   9  11  1   
 21   9  37  1   
 22   9  38  1   
 23  10  11  1   
 24  10  39  1   
 25  10  40  1   
 26  11  12  1   
 27  11  41  1   
 28  12  13  1   
 29  12  14  1   
 30  12  42  1   
 31  13  15  1   
 32  13  43  1   
 33  13  44  1   
 34  14  45  1   
 35  14  46  1   
 36  14  47  1   
 37  15  16  ar  
 38  15  17  ar  
 39  16  18  1   
 40  16  19  ar  
 41  17  20  ar  
 42  17  21  1   
 43  18  22  1   
 44  18  23  1   
 45  19  24  ar  
 46  19  48  1   
 47  20  24  ar  
 48  20  49  1   
 49  21  50  1   
 50  21  51  1   
 51  21  52  1   
 52  22  25  2   
 53  23  26  2   
 54  23  53  1   
 55  24  27  1   
 56  25  26  1   
 57  25  54  1   
 58  26  55  1   
 59  27  56  1   
 60  27  57  1   
 61  27  58  1   
@<TRIPOS>SUBSTRUCTURE
  1 ****   9 GROUP 4 **** **** 0

# MOE 2024.06 (io_trps.svl 2023.06)
