@<TRIPOS>MOLECULE
NONAME
41 43 1 0 0 
SMALL
USER_CHARGES


@<TRIPOS>ATOM
  1 CL      -0.3960    -0.4870     1.5080 Cl    1 <1>  -0.1770 
  2 C       -1.1730    -1.9190     0.8850 C.ar  1 <1>   0.1770 
  3 C       -2.5520    -1.9960     0.8730 C.ar  1 <1>  -0.1500 
  4 C       -0.3990    -2.9590     0.4100 C.ar  1 <1>  -0.1500 
  5 C       -3.1620    -3.1340     0.3760 C.ar  1 <1>  -0.1500 
  6 C       -1.0210    -4.0930    -0.0830 C.ar  1 <1>  -0.1500 
  7 C       -2.4140    -4.2100    -0.1090 C.ar  1 <1>   0.0530 
  8 C       -3.0470    -5.3990    -0.6240 C.2   1 <1>   0.0870 
  9 O       -2.4100    -6.1980    -1.4520 O.3   1 <1>  -0.0190 
 10 C       -4.2720    -5.9470    -0.4300 C.2   1 <1>  -0.2330 
 11 N       -3.1340    -7.2240    -1.8280 N.2   1 <1>  -0.4100 
 12 C       -4.2630    -7.0780    -1.2350 C.2   1 <1>   0.3720 
 13 C       -5.3780    -5.6030     0.3880 C.2   1 <1>   1.0330 
 14 N       -5.3480    -7.9410    -1.3970 N.pl3 1 <1>  -0.8210 
 15 O       -6.2240    -4.7760     0.0110 O.co2 1 <1>  -0.9000 
 16 O       -5.6450    -6.2670     1.4060 O.co2 1 <1>  -0.9000 
 17 C       -6.5820    -7.4570    -2.0800 C.3   1 <1>   0.2090 
 18 C       -5.2280    -9.3630    -1.0320 C.3   1 <1>   0.2090 
 19 C       -7.7380    -7.1350    -1.1050 C.3   1 <1>   0.3430 
 20 C       -5.9620    -9.6170     0.2880 C.3   1 <1>  -0.1600 
 21 N       -7.6030    -7.7640     0.2490 N.4   1 <1>  -0.9590 
 22 C       -7.4460    -9.2340     0.2830 C.3   1 <1>   0.3430 
 23 C       -8.5790    -7.2020     1.2140 C.3   1 <1>   0.2630 
 24 H       -3.1400    -1.1770     1.2460 H     1 <1>   0.1500 
 25 H        0.6720    -2.8800     0.4270 H     1 <1>   0.1500 
 26 H       -4.2380    -3.1830     0.3620 H     1 <1>   0.1500 
 27 H       -0.4200    -4.9060    -0.4510 H     1 <1>   0.1500 
 28 H       -6.9080    -8.2000    -2.7850 H     1 <1>   0.0800 
 29 H       -6.3510    -6.5670    -2.6400 H     1 <1>   0.0800 
 30 H       -4.1860    -9.6150    -0.9180 H     1 <1>   0.0800 
 31 H       -5.6340    -9.9740    -1.8200 H     1 <1>   0.0800 
 32 H       -8.6710    -7.4220    -1.5560 H     1 <1>   0.0800 
 33 H       -7.7630    -6.0640    -0.9800 H     1 <1>   0.0800 
 34 H       -5.4570    -9.0920     1.0800 H     1 <1>   0.0800 
 35 H       -5.8860   -10.6650     0.5070 H     1 <1>   0.0800 
 36 H       -6.6870    -7.3740     0.6020 H     1 <1>   0.4500 
 37 H       -7.8930    -9.6130     1.1880 H     1 <1>   0.0800 
 38 H       -7.9490    -9.6830    -0.5570 H     1 <1>   0.0800 
 39 H       -9.5840    -7.4770     0.9450 H     1 <1>   0.0800 
 40 H       -8.4910    -6.1260     1.2230 H     1 <1>   0.0800 
 41 H       -8.3610    -7.5600     2.2070 H     1 <1>   0.0800 
@<TRIPOS>BOND
  1   1   2  1   
  2   2   3  ar  
  3   2   4  ar  
  4   3   5  ar  
  5   3  24  1   
  6   4   6  ar  
  7   4  25  1   
  8   5   7  ar  
  9   5  26  1   
 10   6   7  ar  
 11   6  27  1   
 12   7   8  1   
 13   8   9  1   
 14   8  10  2   
 15   9  11  1   
 16  10  12  1   
 17  10  13  1   
 18  11  12  2   
 19  12  14  1   
 20  13  15  ar  
 21  13  16  ar  
 22  14  17  1   
 23  14  18  1   
 24  17  19  1   
 25  17  28  1   
 26  17  29  1   
 27  18  20  1   
 28  18  30  1   
 29  18  31  1   
 30  19  21  1   
 31  19  32  1   
 32  19  33  1   
 33  20  22  1   
 34  20  34  1   
 35  20  35  1   
 36  21  22  1   
 37  21  23  1   
 38  21  36  1   
 39  22  37  1   
 40  22  38  1   
 41  23  39  1   
 42  23  40  1   
 43  23  41  1   
@<TRIPOS>SUBSTRUCTURE
  1 ****  10 GROUP 4 **** **** 0

# MOE 2024.06 (io_trps.svl 2023.06)
