@<TRIPOS>MOLECULE
NONAME
50 52 1 0 0 
SMALL
USER_CHARGES


@<TRIPOS>ATOM
  1 S        0.0200     0.0100     0.0390 S.o2  1 <1>   1.4470 
  2 O        0.4270    -0.7110     1.2200 O.2   1 <1>  -0.6500 
  3 O       -1.1970    -0.3380    -0.6530 O.2   1 <1>  -0.6500 
  4 N        1.1830    -0.4080    -1.0590 N.am  1 <1>  -0.9780 
  5 C        0.2030     1.8060     0.2410 C.ar  1 <1>  -0.0090 
  6 C        1.1340     2.3380     1.1250 C.ar  1 <1>  -0.1500 
  7 C       -0.5710     2.6970    -0.4930 C.ar  1 <1>  -0.1500 
  8 C        1.2820     3.7060     1.2800 C.ar  1 <1>  -0.1500 
  9 C       -0.4300     4.0660    -0.3430 C.ar  1 <1>  -0.1500 
 10 C        0.4990     4.5810     0.5460 C.ar  1 <1>  -0.1440 
 11 C        0.6490     6.0850     0.7140 C.3   1 <1>  -0.0170 
 12 C        1.4970     6.6610    -0.4210 C.3   1 <1>   0.2090 
 13 N        1.7070     8.1190    -0.2090 N.pl3 1 <1>  -0.8690 
 14 C        2.7920     8.9000    -0.2200 C.ar  1 <1>   0.7710 
 15 N        2.5880    10.1710     0.0510 N.ar  1 <1>  -0.6200 
 16 N        4.0060     8.3940    -0.4980 N.ar  1 <1>  -0.1790 
 17 C        3.6330    10.9800     0.0670 C.ar  1 <1>   0.4100 
 18 C        5.1010     9.1920    -0.5170 C.ar  1 <1>   0.2110 
 19 N        3.4180    12.2840     0.3830 N.pl3 1 <1>  -0.8380 
 20 C        4.9250    10.5050    -0.2360 C.ar  1 <1>  -0.1500 
 21 C        4.4160    13.1740     1.0650 C.3   1 <1>   0.2090 
 22 C        2.1020    12.9620     0.1580 C.3   1 <1>   0.2090 
 23 C        4.6540    14.4450     0.2320 C.3   1 <1>   0.2000 
 24 C        2.3150    14.2270    -0.6850 C.3   1 <1>  -0.1600 
 25 O        5.4960    15.3010     0.9190 O.3   1 <1>  -0.6800 
 26 C        3.3430    15.1850    -0.0580 C.3   1 <1>  -0.1600 
 27 H        0.6440    -0.8000    -1.8270 H     1 <1>   0.4200 
 28 H        1.6490    -1.1940    -0.6120 H     1 <1>   0.4200 
 29 H        1.7480     1.6690     1.7060 H     1 <1>   0.1500 
 30 H       -1.2990     2.3130    -1.1880 H     1 <1>   0.1500 
 31 H        2.0070     4.0770     1.9840 H     1 <1>   0.1500 
 32 H       -1.0560     4.7240    -0.9230 H     1 <1>   0.1500 
 33 H        1.1140     6.2970     1.6610 H     1 <1>   0.0800 
 34 H       -0.3260     6.5400     0.7090 H     1 <1>   0.0800 
 35 H        0.9870     6.5060    -1.3580 H     1 <1>   0.0800 
 36 H        2.4370     6.1380    -0.4580 H     1 <1>   0.0800 
 37 H        0.8430     8.6410    -0.0120 H     1 <1>   0.4000 
 38 H        4.0460     7.4030    -0.7030 H     1 <1>   0.4570 
 39 H        6.0630     8.7680    -0.7570 H     1 <1>   0.1500 
 40 H        5.7490    11.1930    -0.2550 H     1 <1>   0.1500 
 41 H        5.3490    12.6670     1.2250 H     1 <1>   0.0800 
 42 H        4.0200    13.4510     2.0260 H     1 <1>   0.0800 
 43 H        1.6690    13.2200     1.1100 H     1 <1>   0.0800 
 44 H        1.4150    12.3120    -0.3550 H     1 <1>   0.0800 
 45 H        5.1450    14.1790    -0.6880 H     1 <1>   0.0800 
 46 H        1.3740    14.7360    -0.7990 H     1 <1>   0.0800 
 47 H        2.6450    13.9340    -1.6660 H     1 <1>   0.0800 
 48 H        5.0140    15.7530     1.6380 H     1 <1>   0.4000 
 49 H        3.5310    16.0020    -0.7330 H     1 <1>   0.0800 
 50 H        2.9360    15.5770     0.8580 H     1 <1>   0.0800 
@<TRIPOS>BOND
  1   1   2  2   
  2   1   3  2   
  3   1   4  am  
  4   1   5  1   
  5   4  27  1   
  6   4  28  1   
  7   5   6  ar  
  8   5   7  ar  
  9   6   8  ar  
 10   6  29  1   
 11   7   9  ar  
 12   7  30  1   
 13   8  10  ar  
 14   8  31  1   
 15   9  10  ar  
 16   9  32  1   
 17  10  11  1   
 18  11  12  1   
 19  11  33  1   
 20  11  34  1   
 21  12  13  1   
 22  12  35  1   
 23  12  36  1   
 24  13  14  1   
 25  13  37  1   
 26  14  15  ar  
 27  14  16  ar  
 28  15  17  ar  
 29  16  18  ar  
 30  16  38  1   
 31  17  19  1   
 32  17  20  ar  
 33  18  20  ar  
 34  18  39  1   
 35  19  21  1   
 36  19  22  1   
 37  20  40  1   
 38  21  23  1   
 39  21  41  1   
 40  21  42  1   
 41  22  24  1   
 42  22  43  1   
 43  22  44  1   
 44  23  25  1   
 45  23  26  1   
 46  23  45  1   
 47  24  26  1   
 48  24  46  1   
 49  24  47  1   
 50  25  48  1   
 51  26  49  1   
 52  26  50  1   
@<TRIPOS>SUBSTRUCTURE
  1 ****  13 GROUP 4 **** **** 0

# MOE 2024.06 (io_trps.svl 2023.06)
