@<TRIPOS>MOLECULE
NONAME
57 60 1 0 0 
SMALL
USER_CHARGES


@<TRIPOS>ATOM
  1 O       -1.0500    -0.3020    -0.8880 O.2   1 <1>  -0.5700 
  2 C       -0.7340     0.8330    -1.1610 C.2   1 <1>   0.5690 
  3 N       -1.5940     1.8830    -0.9460 N.am  1 <1>  -0.6600 
  4 C        0.6660     1.0470    -1.7250 C.3   1 <1>   0.0440 
  5 C       -1.2940     3.3260    -1.1910 C.3   1 <1>   0.1400 
  6 C       -2.8470     1.7070    -0.1580 C.3   1 <1>   0.1400 
  7 C        1.5940     1.8410    -0.8030 C.ar  1 <1>  -0.1440 
  8 C       -1.2920     4.1050     0.1410 C.3   1 <1>   0.2000 
  9 C       -2.7610     2.5400     1.1320 C.3   1 <1>   0.1200 
 10 C        2.5990     2.6270    -1.3480 C.ar  1 <1>  -0.1500 
 11 C        1.4590     1.7840     0.5780 C.ar  1 <1>  -0.1500 
 12 O       -2.4870     3.8840     0.8410 O.3   1 <1>  -0.5600 
 13 C       -1.1650     5.6150    -0.0760 C.3   1 <1>  -0.1600 
 14 C        3.4570     3.3480    -0.5320 C.ar  1 <1>   0.0830 
 15 C        2.2940     2.5240     1.3980 C.ar  1 <1>  -0.1500 
 16 C       -0.9770     6.3440     1.2560 C.3   1 <1>   0.1400 
 17 O        4.4390     4.0650    -1.1310 O.3   1 <1>  -0.3630 
 18 C        3.2880     3.3110     0.8470 C.ar  1 <1>  -0.1500 
 19 N       -0.9690     7.8090     1.0390 N.am  1 <1>  -0.7300 
 20 C        5.7410     4.0920    -0.5700 C.3   1 <1>   0.1200 
 21 C        0.0700     8.6450     0.8090 C.2   1 <1>   0.5690 
 22 C        6.1700     5.5380    -0.3080 C.3   1 <1>   0.0960 
 23 O       -0.1040     9.8350     0.8250 O.2   1 <1>  -0.5700 
 24 C        1.4550     8.1150     0.5100 C.3   1 <1>  -0.0990 
 25 N        5.2410     6.1990     0.6190 N.pl3 1 <1>   0.3140 
 26 C        2.2920     7.9350     1.7820 C.3   1 <1>   0.0210 
 27 N        5.3880     6.1680     1.9470 N.2   1 <1>  -0.4180 
 28 C        4.1190     6.8470     0.3130 C.2   1 <1>  -0.3020 
 29 C        3.5890     7.2000     1.4930 C.2   1 <1>   0.0460 
 30 N        4.3870     6.7790     2.4800 N.2   1 <1>  -0.2270 
 31 H        0.5760     1.5370    -2.6750 H     1 <1>   0.0800 
 32 H        1.1110     0.0850    -1.9020 H     1 <1>   0.0800 
 33 H       -2.0490     3.7350    -1.8400 H     1 <1>   0.0800 
 34 H       -0.3440     3.4500    -1.6770 H     1 <1>   0.0800 
 35 H       -3.0000     0.6720     0.0950 H     1 <1>   0.0800 
 36 H       -3.6880     2.0330    -0.7430 H     1 <1>   0.0800 
 37 H       -0.4750     3.7590     0.7510 H     1 <1>   0.0800 
 38 H       -1.9860     2.1600     1.7740 H     1 <1>   0.0800 
 39 H       -3.6980     2.5030     1.6590 H     1 <1>   0.0800 
 40 H        2.7370     2.6820    -2.4120 H     1 <1>   0.1500 
 41 H        0.7030     1.1640     1.0300 H     1 <1>   0.1500 
 42 H       -2.0490     5.9750    -0.5720 H     1 <1>   0.0800 
 43 H       -0.3180     5.8050    -0.7080 H     1 <1>   0.0800 
 44 H        2.1730     2.4850     2.4670 H     1 <1>   0.1500 
 45 H       -0.0550     6.0330     1.7180 H     1 <1>   0.0800 
 46 H       -1.7840     6.0980     1.9260 H     1 <1>   0.0800 
 47 H        3.9170     3.8890     1.5000 H     1 <1>   0.1500 
 48 H       -1.8710     8.2740     1.1730 H     1 <1>   0.3700 
 49 H        6.4040     3.6370    -1.2840 H     1 <1>   0.0800 
 50 H        5.7740     3.5120     0.3350 H     1 <1>   0.0800 
 51 H        6.1980     6.0870    -1.2300 H     1 <1>   0.0800 
 52 H        7.1510     5.5520     0.1300 H     1 <1>   0.0800 
 53 H        1.9510     8.8100    -0.1440 H     1 <1>   0.0800 
 54 H        1.3730     7.1810    -0.0080 H     1 <1>   0.0800 
 55 H        1.7360     7.3680     2.5060 H     1 <1>   0.0800 
 56 H        2.5140     8.8950     2.2130 H     1 <1>   0.0800 
 57 H        3.7790     6.9940    -0.6950 H     1 <1>   0.1500 
@<TRIPOS>BOND
  1   1   2  2   
  2   2   3  am  
  3   2   4  1   
  4   3   5  1   
  5   3   6  1   
  6   4   7  1   
  7   4  31  1   
  8   4  32  1   
  9   5   8  1   
 10   5  33  1   
 11   5  34  1   
 12   6   9  1   
 13   6  35  1   
 14   6  36  1   
 15   7  10  ar  
 16   7  11  ar  
 17   8  12  1   
 18   8  13  1   
 19   8  37  1   
 20   9  12  1   
 21   9  38  1   
 22   9  39  1   
 23  10  14  ar  
 24  10  40  1   
 25  11  15  ar  
 26  11  41  1   
 27  13  16  1   
 28  13  42  1   
 29  13  43  1   
 30  14  17  1   
 31  14  18  ar  
 32  15  18  ar  
 33  15  44  1   
 34  16  19  1   
 35  16  45  1   
 36  16  46  1   
 37  17  20  1   
 38  18  47  1   
 39  19  21  am  
 40  19  48  1   
 41  20  22  1   
 42  20  49  1   
 43  20  50  1   
 44  21  23  2   
 45  21  24  1   
 46  22  25  1   
 47  22  51  1   
 48  22  52  1   
 49  24  26  1   
 50  24  53  1   
 51  24  54  1   
 52  25  27  1   
 53  25  28  1   
 54  26  29  1   
 55  26  55  1   
 56  26  56  1   
 57  27  30  2   
 58  28  29  2   
 59  28  57  1   
 60  29  30  1   
@<TRIPOS>SUBSTRUCTURE
  1 ****  18 GROUP 4 **** **** 0

# MOE 2024.06 (io_trps.svl 2023.06)
