@<TRIPOS>MOLECULE
NONAME
31 32 1 0 0 
SMALL
USER_CHARGES


@<TRIPOS>ATOM
  1 S       -1.5070    -0.2350    -0.1610 S.3   1 <1>  -0.0800 
  2 C       -0.9660    -1.4370     0.9630 C.2   1 <1>   0.4420 
  3 C       -0.3410     0.8400     0.5390 C.2   1 <1>   0.1980 
  4 N       -0.0250    -1.0050     1.7230 N.2   1 <1>  -0.3380 
  5 N       -1.5960    -2.6590     0.9010 N.am  1 <1>  -0.4940 
  6 N        0.3250     0.2940     1.4760 N.2   1 <1>  -0.3380 
  7 C       -0.2200     2.2580    -0.0070 C.3   1 <1>   0.3800 
  8 C       -1.3610    -3.8100     1.6010 C.2   1 <1>   0.5690 
  9 O       -1.4960     2.8210    -0.1370 O.3   1 <1>  -0.5600 
 10 C        0.4570     2.2790    -1.3800 C.3   1 <1>  -0.2400 
 11 O       -0.4750    -3.9300     2.4070 O.2   1 <1>  -0.5700 
 12 C       -2.2680    -5.0070     1.3600 C.3   1 <1>   0.0810 
 13 C       -1.5620     4.2030     0.0240 C.3   1 <1>   0.0400 
 14 C       -3.3470    -4.7570     0.3140 C.2   1 <1>  -0.1400 
 15 S       -2.8490    -4.7030    -1.3720 S.3   1 <1>  -0.0800 
 16 C       -4.6730    -4.5540     0.4200 C.2   1 <1>  -0.1500 
 17 C       -4.4950    -4.3900    -1.8930 C.2   1 <1>  -0.1100 
 18 C       -5.3260    -4.3430    -0.8360 C.2   1 <1>  -0.1500 
 19 H       -2.3500    -2.7230     0.2190 H     1 <1>   0.3700 
 20 H        0.3490     2.8390     0.6990 H     1 <1>   0.0800 
 21 H       -0.1440     1.7510    -2.0980 H     1 <1>   0.0800 
 22 H        1.4150     1.7950    -1.3140 H     1 <1>   0.0800 
 23 H        0.6100     3.2880    -1.7130 H     1 <1>   0.0800 
 24 H       -2.7330    -5.2590     2.2950 H     1 <1>   0.0800 
 25 H       -1.6630    -5.8430     1.0610 H     1 <1>   0.0800 
 26 H       -2.5880     4.5040    -0.1020 H     1 <1>   0.0800 
 27 H       -0.9530     4.6850    -0.7190 H     1 <1>   0.0800 
 28 H       -1.2310     4.4630     1.0150 H     1 <1>   0.0800 
 29 H       -5.2370    -4.5400     1.3370 H     1 <1>   0.1500 
 30 H       -4.6670    -4.2760    -2.9490 H     1 <1>   0.1500 
 31 H       -6.3870    -4.1680    -0.8850 H     1 <1>   0.1500 
@<TRIPOS>BOND
  1   1   2  1   
  2   1   3  1   
  3   2   4  2   
  4   2   5  1   
  5   3   6  2   
  6   3   7  1   
  7   4   6  1   
  8   5   8  am  
  9   5  19  1   
 10   7   9  1   
 11   7  10  1   
 12   7  20  1   
 13   8  11  2   
 14   8  12  1   
 15   9  13  1   
 16  10  21  1   
 17  10  22  1   
 18  10  23  1   
 19  12  14  1   
 20  12  24  1   
 21  12  25  1   
 22  13  26  1   
 23  13  27  1   
 24  13  28  1   
 25  14  15  1   
 26  14  16  2   
 27  15  17  1   
 28  16  18  1   
 29  16  29  1   
 30  17  18  2   
 31  17  30  1   
 32  18  31  1   
@<TRIPOS>SUBSTRUCTURE
  1 ****   2 GROUP 4 **** **** 0

# MOE 2024.06 (io_trps.svl 2023.06)
