@<TRIPOS>MOLECULE
NONAME
51 54 1 0 0 
SMALL
USER_CHARGES


@<TRIPOS>ATOM
  1 O       -0.1320    -0.0710    -1.6290 O.2   1 <1>  -0.5700 
  2 C       -1.0730     0.6110    -1.3020 C.2   1 <1>   0.5690 
  3 N       -2.2560     0.0490    -0.9030 N.am  1 <1>  -0.6600 
  4 C       -0.8940     2.1210    -1.3580 C.3   1 <1>  -0.0990 
  5 C       -3.4900     0.7540    -0.4760 C.3   1 <1>   0.1400 
  6 C       -2.4330    -1.4190    -0.7920 C.3   1 <1>   0.1400 
  7 C       -0.0070     2.6430    -0.2150 C.3   1 <1>  -0.0800 
  8 C       -4.4640    -0.3510    -0.0620 C.3   1 <1>   0.2000 
  9 C       -3.6130    -1.5990     0.1640 C.3   1 <1>  -0.0800 
 10 C       -0.6010     2.4590     1.1780 C.3   1 <1>  -0.1600 
 11 C        0.2540     4.1470    -0.2940 C.3   1 <1>  -0.1600 
 12 O       -5.1360    -0.0210     1.1050 O.3   1 <1>  -0.6800 
 13 C       -4.3990    -2.9020    -0.0540 C.3   1 <1>  -0.0170 
 14 C        0.1860     3.4310     2.0550 C.3   1 <1>  -0.1600 
 15 C        0.6330     4.5680     1.1290 C.3   1 <1>  -0.1600 
 16 C       -3.5200    -4.1210     0.1630 C.ar  1 <1>   0.1670 
 17 N       -2.8740    -4.5810    -0.8640 N.ar  1 <1>  -0.6200 
 18 C       -3.4390    -4.6810     1.4480 C.ar  1 <1>  -0.1500 
 19 C       -2.0720    -5.6600    -0.6760 C.ar  1 <1>   0.3100 
 20 C       -2.6450    -5.7660     1.6650 C.ar  1 <1>  -0.1500 
 21 C       -1.9250    -6.2910     0.5790 C.ar  1 <1>   0.0000 
 22 C       -1.3540    -6.1720    -1.7690 C.ar  1 <1>  -0.1500 
 23 C       -1.0700    -7.4060     0.6890 C.ar  1 <1>  -0.1500 
 24 C       -0.5280    -7.2570    -1.6410 C.ar  1 <1>  -0.1500 
 25 C       -0.3850    -7.8800    -0.3970 C.ar  1 <1>  -0.1500 
 26 H       -0.4210     2.3530    -2.2940 H     1 <1>   0.0800 
 27 H       -1.8430     2.6210    -1.3490 H     1 <1>   0.0800 
 28 H       -3.2690     1.4000     0.3530 H     1 <1>   0.0800 
 29 H       -3.8930     1.3220    -1.2960 H     1 <1>   0.0800 
 30 H       -2.6600    -1.8200    -1.7660 H     1 <1>   0.0800 
 31 H       -1.5420    -1.8940    -0.4160 H     1 <1>   0.0800 
 32 H        0.9430     2.1330    -0.2490 H     1 <1>   0.0800 
 33 H       -5.1910    -0.5060    -0.8410 H     1 <1>   0.0800 
 34 H       -3.2110    -1.5870     1.1620 H     1 <1>   0.0800 
 35 H       -1.6350     2.7530     1.1770 H     1 <1>   0.0800 
 36 H       -0.5150     1.4430     1.5230 H     1 <1>   0.0800 
 37 H        1.0320     4.3790    -1.0010 H     1 <1>   0.0800 
 38 H       -0.6470     4.6600    -0.5830 H     1 <1>   0.0800 
 39 H       -4.5030     0.0900     1.8400 H     1 <1>   0.4000 
 40 H       -4.7930    -2.9290    -1.0550 H     1 <1>   0.0800 
 41 H       -5.2340    -2.9360     0.6230 H     1 <1>   0.0800 
 42 H       -0.4110     3.7940     2.8740 H     1 <1>   0.0800 
 43 H        1.0540     2.9320     2.4510 H     1 <1>   0.0800 
 44 H        1.6990     4.7020     1.2060 H     1 <1>   0.0800 
 45 H        0.1480     5.4930     1.3880 H     1 <1>   0.0800 
 46 H       -4.0060    -4.2440     2.2490 H     1 <1>   0.1500 
 47 H       -2.5580    -6.2230     2.6340 H     1 <1>   0.1500 
 48 H       -1.4760    -5.6780    -2.7150 H     1 <1>   0.1500 
 49 H       -0.9640    -7.8800     1.6490 H     1 <1>   0.1500 
 50 H        0.0170    -7.6380    -2.4870 H     1 <1>   0.1500 
 51 H        0.2680    -8.7320    -0.3100 H     1 <1>   0.1500 
@<TRIPOS>BOND
  1   1   2  2   
  2   2   3  am  
  3   2   4  1   
  4   3   5  1   
  5   3   6  1   
  6   4   7  1   
  7   4  26  1   
  8   4  27  1   
  9   5   8  1   
 10   5  28  1   
 11   5  29  1   
 12   6   9  1   
 13   6  30  1   
 14   6  31  1   
 15   7  10  1   
 16   7  11  1   
 17   7  32  1   
 18   8   9  1   
 19   8  12  1   
 20   8  33  1   
 21   9  13  1   
 22   9  34  1   
 23  10  14  1   
 24  10  35  1   
 25  10  36  1   
 26  11  15  1   
 27  11  37  1   
 28  11  38  1   
 29  12  39  1   
 30  13  16  1   
 31  13  40  1   
 32  13  41  1   
 33  14  15  1   
 34  14  42  1   
 35  14  43  1   
 36  15  44  1   
 37  15  45  1   
 38  16  17  ar  
 39  16  18  ar  
 40  17  19  ar  
 41  18  20  ar  
 42  18  46  1   
 43  19  21  ar  
 44  19  22  ar  
 45  20  21  ar  
 46  20  47  1   
 47  21  23  ar  
 48  22  24  ar  
 49  22  48  1   
 50  23  25  ar  
 51  23  49  1   
 52  24  25  ar  
 53  24  50  1   
 54  25  51  1   
@<TRIPOS>SUBSTRUCTURE
  1 ****   6 GROUP 4 **** **** 0

# MOE 2024.06 (io_trps.svl 2023.06)
