@<TRIPOS>MOLECULE
NONAME
46 49 1 0 0 
SMALL
USER_CHARGES


@<TRIPOS>ATOM
  1 CL      -0.6910    -0.1460    -1.4180 Cl    1 <1>  -0.1770 
  2 C       -2.0050    -0.2040    -0.2630 C.ar  1 <1>   0.1770 
  3 C       -2.5490    -1.4280     0.1540 C.ar  1 <1>  -0.1520 
  4 C       -2.4880     0.9840     0.2300 C.ar  1 <1>  -0.1500 
  5 N       -2.2770    -2.7430    -0.1640 N.pl3 1 <1>   0.0480 
  6 C       -3.5820    -1.4140     1.0860 C.ar  1 <1>   0.0000 
  7 C       -3.5320     0.9850     1.1630 C.ar  1 <1>  -0.1500 
  8 C       -3.1240    -3.5560     0.5650 C.2   1 <1>  -0.2370 
  9 C       -1.2810    -3.1960    -1.1620 C.3   1 <1>   0.0160 
 10 C       -4.0750    -0.2030     1.5900 C.ar  1 <1>  -0.1500 
 11 C       -3.9190    -2.7520     1.3310 C.2   1 <1>  -0.1500 
 12 C       -3.1170    -4.9960     0.5000 C.2   1 <1>   0.7150 
 13 O       -2.0670    -5.6080     0.5560 O.2   1 <1>  -0.5700 
 14 N       -4.2880    -5.7000     0.3590 N.am  1 <1>  -0.6600 
 15 C       -5.5860    -5.1060    -0.0410 C.3   1 <1>   0.1400 
 16 C       -4.3200    -7.1760     0.2210 C.3   1 <1>   0.1400 
 17 C       -6.4000    -6.2760    -0.5920 C.3   1 <1>   0.2000 
 18 C       -5.7980    -7.5290     0.0390 C.3   1 <1>  -0.0800 
 19 O       -7.7410    -6.1700    -0.2540 O.3   1 <1>  -0.6800 
 20 C       -6.0450    -8.7930    -0.8030 C.3   1 <1>  -0.0170 
 21 C       -5.4720   -10.0340    -0.1390 C.ar  1 <1>   0.1670 
 22 N       -4.1820   -10.2600    -0.3290 N.ar  1 <1>  -0.6200 
 23 C       -6.2990   -10.8520     0.6160 C.ar  1 <1>  -0.1500 
 24 C       -3.6950   -11.3420     0.2570 C.ar  1 <1>   0.1600 
 25 C       -5.7800   -11.9770     1.2210 C.ar  1 <1>  -0.1500 
 26 C       -4.4370   -12.2190     1.0300 C.ar  1 <1>  -0.1500 
 27 H       -2.0640     1.9160    -0.0980 H     1 <1>   0.1500 
 28 H       -3.9000     1.9230     1.5410 H     1 <1>   0.1500 
 29 H       -1.3960    -4.2430    -1.3690 H     1 <1>   0.0800 
 30 H       -0.2930    -3.0180    -0.7790 H     1 <1>   0.0800 
 31 H       -1.4190    -2.6520    -2.0770 H     1 <1>   0.0800 
 32 H       -4.8750    -0.2240     2.3080 H     1 <1>   0.1500 
 33 H       -4.6780    -3.0610     2.0270 H     1 <1>   0.1500 
 34 H       -6.0630    -4.6840     0.8270 H     1 <1>   0.0800 
 35 H       -5.4430    -4.3490    -0.7930 H     1 <1>   0.0800 
 36 H       -3.7450    -7.4620    -0.6440 H     1 <1>   0.0800 
 37 H       -3.9020    -7.6530     1.0920 H     1 <1>   0.0800 
 38 H       -6.3200    -6.3000    -1.6660 H     1 <1>   0.0800 
 39 H       -6.2120    -7.6710     1.0220 H     1 <1>   0.0800 
 40 H       -7.8480    -6.1760     0.7160 H     1 <1>   0.4000 
 41 H       -5.5990    -8.6810    -1.7760 H     1 <1>   0.0800 
 42 H       -7.1030    -8.9210    -0.9460 H     1 <1>   0.0800 
 43 H       -7.3410   -10.6140     0.7320 H     1 <1>   0.1500 
 44 H       -2.6470   -11.5400     0.1140 H     1 <1>   0.1500 
 45 H       -6.3920   -12.6340     1.8140 H     1 <1>   0.1500 
 46 H       -3.9660   -13.0780     1.4730 H     1 <1>   0.1500 
@<TRIPOS>BOND
  1   1   2  1   
  2   2   3  ar  
  3   2   4  ar  
  4   3   5  1   
  5   3   6  ar  
  6   4   7  ar  
  7   4  27  1   
  8   5   8  1   
  9   5   9  1   
 10   6  10  ar  
 11   6  11  1   
 12   7  10  ar  
 13   7  28  1   
 14   8  11  2   
 15   8  12  1   
 16   9  29  1   
 17   9  30  1   
 18   9  31  1   
 19  10  32  1   
 20  11  33  1   
 21  12  13  2   
 22  12  14  am  
 23  14  15  1   
 24  14  16  1   
 25  15  17  1   
 26  15  34  1   
 27  15  35  1   
 28  16  18  1   
 29  16  36  1   
 30  16  37  1   
 31  17  18  1   
 32  17  19  1   
 33  17  38  1   
 34  18  20  1   
 35  18  39  1   
 36  19  40  1   
 37  20  21  1   
 38  20  41  1   
 39  20  42  1   
 40  21  22  ar  
 41  21  23  ar  
 42  22  24  ar  
 43  23  25  ar  
 44  23  43  1   
 45  24  26  ar  
 46  24  44  1   
 47  25  26  ar  
 48  25  45  1   
 49  26  46  1   
@<TRIPOS>SUBSTRUCTURE
  1 ****  14 GROUP 4 **** **** 0

# MOE 2024.06 (io_trps.svl 2023.06)
