@<TRIPOS>MOLECULE
NONAME
44 45 1 0 0 
SMALL
USER_CHARGES


@<TRIPOS>ATOM
  1 CL      -2.0090     0.1070    -2.1030 Cl    1 <1>  -0.1770 
  2 C       -2.7060    -1.0540    -0.9970 C.ar  1 <1>   0.1770 
  3 C       -3.2490    -0.6300     0.2060 C.ar  1 <1>  -0.1440 
  4 C       -2.6980    -2.3860    -1.3580 C.ar  1 <1>  -0.1500 
  5 C       -3.7920    -1.5850     1.0500 C.ar  1 <1>  -0.1500 
  6 C       -3.2540     0.8410     0.5970 C.3   1 <1>  -0.0960 
  7 C       -3.2360    -3.3610    -0.5180 C.ar  1 <1>   0.0860 
  8 C       -3.7860    -2.9220     0.6910 C.ar  1 <1>  -0.1500 
  9 C       -3.2190    -4.7630    -0.9040 C.2   1 <1>   0.5440 
 10 O       -3.0350    -5.0910    -2.0590 O.2   1 <1>  -0.5700 
 11 N       -3.4180    -5.7540     0.0130 N.am  1 <1>  -0.7300 
 12 C       -3.3310    -7.2100    -0.2590 C.3   1 <1>   0.2200 
 13 C       -4.7180    -7.8200    -0.3910 C.3   1 <1>  -0.0800 
 14 C       -2.8420    -7.9100     1.0000 C.3   1 <1>   0.1200 
 15 C       -5.1270    -8.0470     1.0710 C.3   1 <1>   0.1200 
 16 C       -5.7130    -6.9960    -1.2370 C.3   1 <1>  -0.0550 
 17 O       -3.9580    -7.9550     1.8360 O.3   1 <1>  -0.5600 
 18 S       -7.2740    -7.8240    -1.5510 S.o2  1 <1>   1.3330 
 19 O       -6.9880    -9.1890    -1.9330 O.2   1 <1>  -0.6500 
 20 O       -8.0900    -6.9950    -2.4090 O.2   1 <1>  -0.6500 
 21 N       -8.0250    -7.8580    -0.0260 N.am  1 <1>  -0.8490 
 22 C       -8.9580    -8.9820     0.1040 C.3   1 <1>   0.1160 
 23 C       -8.7110    -6.6060     0.3100 C.3   1 <1>   0.1160 
 24 H       -2.2690    -2.6720    -2.3020 H     1 <1>   0.1500 
 25 H       -4.2240    -1.2900     1.9910 H     1 <1>   0.1500 
 26 H       -3.7090     0.9850     1.5600 H     1 <1>   0.0800 
 27 H       -3.8030     1.4120    -0.1290 H     1 <1>   0.0800 
 28 H       -2.2450     1.2130     0.6380 H     1 <1>   0.0800 
 29 H       -4.2230    -3.6330     1.3690 H     1 <1>   0.1500 
 30 H       -3.5600    -5.5360     1.0010 H     1 <1>   0.3700 
 31 H       -2.7020    -7.4060    -1.1120 H     1 <1>   0.0800 
 32 H       -4.6070    -8.7880    -0.8490 H     1 <1>   0.0800 
 33 H       -2.0400    -7.3850     1.4880 H     1 <1>   0.0800 
 34 H       -2.5450    -8.9220     0.7870 H     1 <1>   0.0800 
 35 H       -5.5680    -9.0180     1.2170 H     1 <1>   0.0800 
 36 H       -5.8020    -7.2860     1.4210 H     1 <1>   0.0800 
 37 H       -5.2480    -6.7890    -2.1820 H     1 <1>   0.0800 
 38 H       -5.9010    -6.0530    -0.7640 H     1 <1>   0.0800 
 39 H       -9.4100    -8.9820     1.0810 H     1 <1>   0.0800 
 40 H       -8.4340    -9.9140    -0.0240 H     1 <1>   0.0800 
 41 H       -9.7300    -8.9150    -0.6460 H     1 <1>   0.0800 
 42 H       -9.0880    -6.6500     1.3180 H     1 <1>   0.0800 
 43 H       -9.5340    -6.4330    -0.3640 H     1 <1>   0.0800 
 44 H       -8.0290    -5.7760     0.2390 H     1 <1>   0.0800 
@<TRIPOS>BOND
  1   1   2  1   
  2   2   3  ar  
  3   2   4  ar  
  4   3   5  ar  
  5   3   6  1   
  6   4   7  ar  
  7   4  24  1   
  8   5   8  ar  
  9   5  25  1   
 10   6  26  1   
 11   6  27  1   
 12   6  28  1   
 13   7   8  ar  
 14   7   9  1   
 15   8  29  1   
 16   9  10  2   
 17   9  11  am  
 18  11  12  1   
 19  11  30  1   
 20  12  13  1   
 21  12  14  1   
 22  12  31  1   
 23  13  15  1   
 24  13  16  1   
 25  13  32  1   
 26  14  17  1   
 27  14  33  1   
 28  14  34  1   
 29  15  17  1   
 30  15  35  1   
 31  15  36  1   
 32  16  18  1   
 33  16  37  1   
 34  16  38  1   
 35  18  19  2   
 36  18  20  2   
 37  18  21  am  
 38  21  22  1   
 39  21  23  1   
 40  22  39  1   
 41  22  40  1   
 42  22  41  1   
 43  23  42  1   
 44  23  43  1   
 45  23  44  1   
@<TRIPOS>SUBSTRUCTURE
  1 ****  11 GROUP 4 **** **** 0

# MOE 2024.06 (io_trps.svl 2023.06)
