@<TRIPOS>MOLECULE
NONAME
54 55 1 0 0 
SMALL
USER_CHARGES


@<TRIPOS>ATOM
  1 O       -2.3520     2.0840    -1.2450 O.co2 1 <1>  -0.9000 
  2 C       -1.3190     2.7430    -1.3720 C.2   1 <1>   0.9060 
  3 O       -1.0750     3.3840    -2.4070 O.co2 1 <1>  -0.9000 
  4 C       -0.3870     2.8840    -0.1640 C.3   1 <1>  -0.1060 
  5 C       -1.1690     3.5440     0.9910 C.3   1 <1>   0.2000 
  6 C        0.7570     3.8310    -0.5410 C.3   1 <1>   0.3430 
  7 C        0.1890     1.4900     0.2150 C.3   1 <1>  -0.1600 
  8 O       -2.2590     2.7720     1.3230 O.3   1 <1>  -0.6800 
  9 C       -1.6830     4.9390     0.6250 C.3   1 <1>  -0.1600 
 10 N        0.2190     5.1600    -0.9420 N.4   1 <1>  -0.9590 
 11 C        1.1620     1.4720     1.4080 C.3   1 <1>  -0.1600 
 12 C       -0.5450     5.8350     0.1410 C.3   1 <1>   0.3430 
 13 C        1.2520     6.0170    -1.5820 C.3   1 <1>   0.3430 
 14 C        1.6930     0.0570     1.6480 C.3   1 <1>  -0.2400 
 15 C        0.6200     7.0160    -2.5580 C.3   1 <1>   0.1200 
 16 O        1.5380     8.0550    -2.8120 O.3   1 <1>  -0.3630 
 17 C        1.6620     8.9890    -1.8370 C.ar  1 <1>   0.0830 
 18 C        2.7210     8.9400    -0.9300 C.ar  1 <1>   0.0830 
 19 C        0.7260    10.0060    -1.7610 C.ar  1 <1>  -0.1500 
 20 O        3.6320     7.9330    -1.0300 O.3   1 <1>  -0.3630 
 21 C        2.8110     9.9080     0.0640 C.ar  1 <1>  -0.1500 
 22 C        0.8280    10.9670    -0.7700 C.ar  1 <1>  -0.1500 
 23 C        4.9970     8.2380    -0.8320 C.3   1 <1>   0.0400 
 24 C        1.8660    10.9200     0.1470 C.ar  1 <1>  -0.1430 
 25 C        1.9740    11.9790     1.2300 C.3   1 <1>  -0.0970 
 26 H       -0.5550     3.6180     1.8720 H     1 <1>   0.0800 
 27 H        1.2940     3.3980    -1.3700 H     1 <1>   0.0800 
 28 H        1.4340     3.9440     0.2890 H     1 <1>   0.0800 
 29 H       -0.6340     0.8290     0.4360 H     1 <1>   0.0800 
 30 H        0.6850     1.0790    -0.6490 H     1 <1>   0.0800 
 31 H       -2.6080     2.3720     0.4720 H     1 <1>   0.4000 
 32 H       -2.4320     4.8730    -0.1450 H     1 <1>   0.0800 
 33 H       -2.1380     5.3860     1.4910 H     1 <1>   0.0800 
 34 H       -0.4560     4.8620    -1.6970 H     1 <1>   0.4500 
 35 H        1.9990     2.1250     1.2330 H     1 <1>   0.0800 
 36 H        0.6550     1.7980     2.3000 H     1 <1>   0.0800 
 37 H        0.1160     6.0520     0.9640 H     1 <1>   0.0800 
 38 H       -0.9540     6.7650    -0.2180 H     1 <1>   0.0800 
 39 H        1.7900     6.5480    -0.8160 H     1 <1>   0.0800 
 40 H        1.9480     5.4040    -2.1300 H     1 <1>   0.0800 
 41 H        2.2260    -0.3000     0.7840 H     1 <1>   0.0800 
 42 H        0.8790    -0.6170     1.8540 H     1 <1>   0.0800 
 43 H        2.3620     0.0500     2.4900 H     1 <1>   0.0800 
 44 H       -0.2790     7.4510    -2.1600 H     1 <1>   0.0800 
 45 H        0.4030     6.5330    -3.4940 H     1 <1>   0.0800 
 46 H       -0.0730    10.0510    -2.4780 H     1 <1>   0.1500 
 47 H        3.6120     9.8790     0.7780 H     1 <1>   0.1500 
 48 H        0.0980    11.7570    -0.7190 H     1 <1>   0.1500 
 49 H        5.5820     7.4140    -1.1990 H     1 <1>   0.0800 
 50 H        5.1810     8.3760     0.2180 H     1 <1>   0.0800 
 51 H        5.2390     9.1310    -1.3830 H     1 <1>   0.0800 
 52 H        0.9990    12.3390     1.5050 H     1 <1>   0.0800 
 53 H        2.5590    12.8070     0.8710 H     1 <1>   0.0800 
 54 H        2.4460    11.5770     2.1090 H     1 <1>   0.0800 
@<TRIPOS>BOND
  1   1   2  ar  
  2   2   3  ar  
  3   2   4  1   
  4   4   5  1   
  5   4   6  1   
  6   4   7  1   
  7   5   8  1   
  8   5   9  1   
  9   5  26  1   
 10   6  10  1   
 11   6  27  1   
 12   6  28  1   
 13   7  11  1   
 14   7  29  1   
 15   7  30  1   
 16   8  31  1   
 17   9  12  1   
 18   9  32  1   
 19   9  33  1   
 20  10  12  1   
 21  10  13  1   
 22  10  34  1   
 23  11  14  1   
 24  11  35  1   
 25  11  36  1   
 26  12  37  1   
 27  12  38  1   
 28  13  15  1   
 29  13  39  1   
 30  13  40  1   
 31  14  41  1   
 32  14  42  1   
 33  14  43  1   
 34  15  16  1   
 35  15  44  1   
 36  15  45  1   
 37  16  17  1   
 38  17  18  ar  
 39  17  19  ar  
 40  18  20  1   
 41  18  21  ar  
 42  19  22  ar  
 43  19  46  1   
 44  20  23  1   
 45  21  24  ar  
 46  21  47  1   
 47  22  24  ar  
 48  22  48  1   
 49  23  49  1   
 50  23  50  1   
 51  23  51  1   
 52  24  25  1   
 53  25  52  1   
 54  25  53  1   
 55  25  54  1   
@<TRIPOS>SUBSTRUCTURE
  1 ****  10 GROUP 4 **** **** 0

# MOE 2024.06 (io_trps.svl 2023.06)
