@<TRIPOS>MOLECULE
NONAME
46 48 1 0 0 
SMALL
USER_CHARGES


@<TRIPOS>ATOM
  1 F       -1.9080    -1.1570     0.4690 F     1 <1>  -0.1900 
  2 C       -1.4230    -2.3030     0.0680 C.ar  1 <1>   0.1900 
  3 C       -0.2990    -2.8220     0.6930 C.ar  1 <1>  -0.1440 
  4 C       -2.0650    -2.9490    -0.9710 C.ar  1 <1>  -0.1500 
  5 C        0.1840    -4.0400     0.2400 C.ar  1 <1>  -0.1500 
  6 C        0.3870    -2.0860     1.8340 C.3   1 <1>  -0.0960 
  7 C       -1.5750    -4.1690    -1.4110 C.ar  1 <1>  -0.1430 
  8 C       -0.4480    -4.7040    -0.8010 C.ar  1 <1>  -0.1500 
  9 C       -2.2640    -4.9190    -2.5480 C.3   1 <1>   0.0450 
 10 C       -2.5650    -6.3760    -2.2180 C.2   1 <1>   0.5690 
 11 O       -2.0310    -7.2270    -2.8900 O.2   1 <1>  -0.5700 
 12 N       -3.4250    -6.7060    -1.2050 N.am  1 <1>  -0.6600 
 13 C       -4.0900    -5.7670    -0.2670 C.3   1 <1>   0.1400 
 14 C       -3.7120    -8.1120    -0.8300 C.3   1 <1>   0.1400 
 15 C       -5.0040    -6.6480     0.5820 C.3   1 <1>   0.2000 
 16 C       -4.3660    -8.0340     0.5500 C.3   1 <1>  -0.0800 
 17 O       -5.0920    -6.1870     1.8850 O.3   1 <1>  -0.6800 
 18 C       -5.3650    -9.1680     0.8250 C.3   1 <1>   0.0210 
 19 C       -4.7090   -10.5250     0.6580 C.2   1 <1>   0.1080 
 20 N       -3.7050   -10.9140     1.3810 N.2   1 <1>  -0.7070 
 21 C       -5.0880   -11.4830    -0.2750 C.2   1 <1>  -0.1500 
 22 N       -3.4140   -12.1460     0.9230 N.pl3 1 <1>   0.3000 
 23 C       -4.2370   -12.5130    -0.0820 C.2   1 <1>  -0.3320 
 24 C       -4.1580   -13.8430    -0.8070 C.3   1 <1>  -0.0600 
 25 H       -2.9310    -2.4950    -1.4170 H     1 <1>   0.1500 
 26 H        1.0560    -4.4810     0.6920 H     1 <1>   0.1500 
 27 H        1.2340    -2.6390     2.1970 H     1 <1>   0.0800 
 28 H       -0.3040    -1.9430     2.6450 H     1 <1>   0.0800 
 29 H        0.7260    -1.1230     1.4950 H     1 <1>   0.0800 
 30 H       -0.0540    -5.6500    -1.1360 H     1 <1>   0.1500 
 31 H       -1.6270    -4.8890    -3.4130 H     1 <1>   0.0800 
 32 H       -3.1860    -4.4380    -2.8120 H     1 <1>   0.0800 
 33 H       -3.3440    -5.2930     0.3480 H     1 <1>   0.0800 
 34 H       -4.6590    -5.0290    -0.8040 H     1 <1>   0.0800 
 35 H       -4.3850    -8.5360    -1.5550 H     1 <1>   0.0800 
 36 H       -2.8070    -8.6980    -0.8020 H     1 <1>   0.0800 
 37 H       -5.9930    -6.6590     0.1580 H     1 <1>   0.0800 
 38 H       -3.5720    -8.0840     1.2760 H     1 <1>   0.0800 
 39 H       -4.2290    -6.2790     2.3350 H     1 <1>   0.4000 
 40 H       -6.2030    -9.0940     0.1560 H     1 <1>   0.0800 
 41 H       -5.7330    -9.0850     1.8320 H     1 <1>   0.0800 
 42 H       -5.8890   -11.3960    -0.9870 H     1 <1>   0.1500 
 43 H       -2.6490   -12.7080     1.3150 H     1 <1>   0.2700 
 44 H       -4.9190   -13.8970    -1.5650 H     1 <1>   0.0800 
 45 H       -4.3060   -14.6540    -0.1150 H     1 <1>   0.0800 
 46 H       -3.1980   -13.9540    -1.2780 H     1 <1>   0.0800 
@<TRIPOS>BOND
  1   1   2  1   
  2   2   3  ar  
  3   2   4  ar  
  4   3   5  ar  
  5   3   6  1   
  6   4   7  ar  
  7   4  25  1   
  8   5   8  ar  
  9   5  26  1   
 10   6  27  1   
 11   6  28  1   
 12   6  29  1   
 13   7   8  ar  
 14   7   9  1   
 15   8  30  1   
 16   9  10  1   
 17   9  31  1   
 18   9  32  1   
 19  10  11  2   
 20  10  12  am  
 21  12  13  1   
 22  12  14  1   
 23  13  15  1   
 24  13  33  1   
 25  13  34  1   
 26  14  16  1   
 27  14  35  1   
 28  14  36  1   
 29  15  16  1   
 30  15  17  1   
 31  15  37  1   
 32  16  18  1   
 33  16  38  1   
 34  17  39  1   
 35  18  19  1   
 36  18  40  1   
 37  18  41  1   
 38  19  20  2   
 39  19  21  1   
 40  20  22  1   
 41  21  23  2   
 42  21  42  1   
 43  22  23  1   
 44  22  43  1   
 45  23  24  1   
 46  24  44  1   
 47  24  45  1   
 48  24  46  1   
@<TRIPOS>SUBSTRUCTURE
  1 ****  12 GROUP 4 **** **** 0

# MOE 2024.06 (io_trps.svl 2023.06)
