@<TRIPOS>MOLECULE
NONAME
46 49 1 0 0 
SMALL
USER_CHARGES


@<TRIPOS>ATOM
  1 S        1.3330     2.4270    -0.1090 S.3   1 <1>  -0.0800 
  2 C        1.4240     0.6850    -0.2600 C.2   1 <1>  -0.1400 
  3 C        3.0770     2.5270     0.0630 C.2   1 <1>  -0.1100 
  4 C        2.6900     0.2490    -0.1720 C.2   1 <1>  -0.1810 
  5 C        0.1650    -0.1300    -0.4580 C.3   1 <1>   0.0200 
  6 C        3.6510     1.3050     0.0030 C.2   1 <1>  -0.1810 
  7 C        3.0180    -1.2350    -0.2630 C.3   1 <1>   0.0210 
  8 C        0.5510    -1.5600    -0.8800 C.3   1 <1>  -0.1600 
  9 C        5.1390     1.0110     0.1130 C.3   1 <1>   0.3900 
 10 C        1.7520    -2.0950    -0.0720 C.3   1 <1>  -0.1600 
 11 N        5.9210     2.2160    -0.2310 N.pl3 1 <1>  -0.8690 
 12 C        6.4810     2.9900     0.7470 C.ar  1 <1>   0.4100 
 13 N        6.1450     4.2590     0.6650 N.ar  1 <1>  -0.6200 
 14 C        7.3400     2.4860     1.7350 C.ar  1 <1>   0.1600 
 15 C        6.6850     5.0300     1.6270 C.ar  1 <1>   0.3960 
 16 N        7.8810     3.2050     2.6950 N.ar  1 <1>  -0.6200 
 17 C        6.4160     6.4710     1.6960 C.2   1 <1>   0.5440 
 18 C        7.5210     4.4800     2.6060 C.ar  1 <1>   0.1600 
 19 O        6.4980     7.0300     2.7790 O.2   1 <1>  -0.5700 
 20 N        6.0980     7.2660     0.6070 N.am  1 <1>  -0.6600 
 21 C        6.0330     6.8330    -0.8090 C.3   1 <1>   0.1400 
 22 C        5.9340     8.7340     0.7120 C.3   1 <1>   0.1400 
 23 C        5.7040     8.0950    -1.6010 C.3   1 <1>  -0.1600 
 24 C        6.1450     9.2490    -0.7060 C.3   1 <1>  -0.1600 
 25 H        3.4950     3.5090     0.1980 H     1 <1>   0.1500 
 26 H       -0.4530     0.3210    -1.2130 H     1 <1>   0.0800 
 27 H       -0.3830    -0.1510     0.4670 H     1 <1>   0.0800 
 28 H        3.7380    -1.5020     0.4890 H     1 <1>   0.0800 
 29 H        3.4460    -1.4340    -1.2310 H     1 <1>   0.0800 
 30 H        0.8120    -1.5540    -1.9240 H     1 <1>   0.0800 
 31 H       -0.2970    -2.2100    -0.7550 H     1 <1>   0.0800 
 32 H        5.4030     0.2290    -0.5780 H     1 <1>   0.0800 
 33 H        5.3650     0.6770     1.1110 H     1 <1>   0.0800 
 34 H        1.4900    -2.0980     0.9720 H     1 <1>   0.0800 
 35 H        1.9630    -3.1090    -0.3610 H     1 <1>   0.0800 
 36 H        5.3780     2.7940    -0.8780 H     1 <1>   0.4000 
 37 H        7.5770     1.4390     1.7060 H     1 <1>   0.1500 
 38 H        7.9180     5.1400     3.3580 H     1 <1>   0.1500 
 39 H        5.2690     6.0870    -0.9480 H     1 <1>   0.0800 
 40 H        6.9890     6.4370    -1.1040 H     1 <1>   0.0800 
 41 H        6.6470     9.1590     1.3990 H     1 <1>   0.0800 
 42 H        4.9340     8.9490     1.0500 H     1 <1>   0.0800 
 43 H        4.6400     8.1400    -1.7540 H     1 <1>   0.0800 
 44 H        6.1950     8.1060    -2.5570 H     1 <1>   0.0800 
 45 H        7.1930     9.4460    -0.8520 H     1 <1>   0.0800 
 46 H        5.5880    10.1500    -0.8900 H     1 <1>   0.0800 
@<TRIPOS>BOND
  1   1   2  1   
  2   1   3  1   
  3   2   4  2   
  4   2   5  1   
  5   3   6  2   
  6   3  25  1   
  7   4   6  1   
  8   4   7  1   
  9   5   8  1   
 10   5  26  1   
 11   5  27  1   
 12   6   9  1   
 13   7  10  1   
 14   7  28  1   
 15   7  29  1   
 16   8  10  1   
 17   8  30  1   
 18   8  31  1   
 19   9  11  1   
 20   9  32  1   
 21   9  33  1   
 22  10  34  1   
 23  10  35  1   
 24  11  12  1   
 25  11  36  1   
 26  12  13  ar  
 27  12  14  ar  
 28  13  15  ar  
 29  14  16  ar  
 30  14  37  1   
 31  15  17  1   
 32  15  18  ar  
 33  16  18  ar  
 34  17  19  2   
 35  17  20  am  
 36  18  38  1   
 37  20  21  1   
 38  20  22  1   
 39  21  23  1   
 40  21  39  1   
 41  21  40  1   
 42  22  24  1   
 43  22  41  1   
 44  22  42  1   
 45  23  24  1   
 46  23  43  1   
 47  23  44  1   
 48  24  45  1   
 49  24  46  1   
@<TRIPOS>SUBSTRUCTURE
  1 ****  13 GROUP 4 **** **** 0

# MOE 2024.06 (io_trps.svl 2023.06)
