@<TRIPOS>MOLECULE
NONAME
49 50 1 0 0 
SMALL
USER_CHARGES


@<TRIPOS>ATOM
  1 CL      -1.1910     2.3480    -3.0290 Cl    1 <1>  -0.1770 
  2 C       -2.1610     1.2050    -2.1380 C.ar  1 <1>   0.1770 
  3 C       -3.5300     1.1950    -2.3280 C.ar  1 <1>  -0.1500 
  4 C       -1.5500     0.3340    -1.2570 C.ar  1 <1>  -0.1500 
  5 C       -4.3120     0.2960    -1.6160 C.ar  1 <1>  -0.1440 
  6 C       -2.3280    -0.5690    -0.5530 C.ar  1 <1>  -0.1500 
  7 C       -3.7020    -0.5880    -0.7330 C.ar  1 <1>  -0.1500 
  8 C       -5.8160     0.2710    -1.7840 C.3   1 <1>   0.4870 
  9 N       -6.4010     0.9660    -0.6060 N.4   1 <1>  -0.9590 
 10 C       -7.7750     0.4740    -0.3070 C.3   1 <1>   0.4810 
 11 C       -6.2910     2.4450    -0.7260 C.3   1 <1>   0.3430 
 12 C       -7.6530    -0.9740     0.1600 C.2   1 <1>  -0.0380 
 13 C       -6.4660     3.1050     0.6430 C.3   1 <1>  -0.1600 
 14 N       -7.0570    -1.1660     1.3940 N.pl3 1 <1>  -0.6000 
 15 C       -8.0660    -2.0540    -0.5710 C.2   1 <1>  -0.1240 
 16 C       -6.2230     4.6160     0.5480 C.3   1 <1>  -0.1600 
 17 C       -6.8500    -2.4270     1.9000 C.2   1 <1>  -0.0500 
 18 C       -7.8560    -3.3800    -0.0700 C.2   1 <1>   0.5410 
 19 C       -8.7540    -1.9580    -1.9380 C.3   1 <1>  -0.1020 
 20 C       -6.3880     5.2840     1.9160 C.3   1 <1>  -0.2400 
 21 C       -7.2290    -3.5270     1.2020 C.2   1 <1>  -0.1240 
 22 O       -8.1880    -4.3620    -0.7300 O.2   1 <1>  -0.5700 
 23 C       -7.0040    -4.9290     1.7570 C.3   1 <1>  -0.1020 
 24 H       -3.9550     1.8890    -3.0320 H     1 <1>   0.1500 
 25 H       -0.4820     0.3630    -1.1290 H     1 <1>   0.1500 
 26 H       -1.8600    -1.2580     0.1310 H     1 <1>   0.1500 
 27 H       -4.2860    -1.3080    -0.1790 H     1 <1>   0.1500 
 28 H       -6.1400    -0.7560    -1.8180 H     1 <1>   0.0800 
 29 H       -6.1080     0.7570    -2.7010 H     1 <1>   0.0800 
 30 H       -5.8070     0.6640     0.1760 H     1 <1>   0.4500 
 31 H       -8.4010     0.5590    -1.1770 H     1 <1>   0.0800 
 32 H       -8.2210     1.0550     0.4830 H     1 <1>   0.0800 
 33 H       -7.0290     2.8240    -1.4160 H     1 <1>   0.0800 
 34 H       -5.3140     2.7050    -1.1030 H     1 <1>   0.0800 
 35 H       -5.7580     2.6870     1.3380 H     1 <1>   0.0800 
 36 H       -7.4610     2.9430     1.0150 H     1 <1>   0.0800 
 37 H       -6.8370    -0.3780     2.0210 H     1 <1>   0.4000 
 38 H       -6.9190     5.0620    -0.1430 H     1 <1>   0.0800 
 39 H       -5.2260     4.8090     0.1870 H     1 <1>   0.0800 
 40 H       -6.3840    -2.5060     2.8710 H     1 <1>   0.1500 
 41 H       -9.7150    -2.4400    -1.8850 H     1 <1>   0.0800 
 42 H       -8.1690    -2.4810    -2.6750 H     1 <1>   0.0800 
 43 H       -8.9090    -0.9550    -2.2810 H     1 <1>   0.0800 
 44 H       -7.3840     5.1380     2.2960 H     1 <1>   0.0800 
 45 H       -6.2120     6.3420     1.8310 H     1 <1>   0.0800 
 46 H       -5.6840     4.8820     2.6250 H     1 <1>   0.0800 
 47 H       -6.3830    -5.4950     1.0840 H     1 <1>   0.0800 
 48 H       -7.9460    -5.4380     1.8570 H     1 <1>   0.0800 
 49 H       -6.5270    -4.8970     2.7200 H     1 <1>   0.0800 
@<TRIPOS>BOND
  1   1   2  1   
  2   2   3  ar  
  3   2   4  ar  
  4   3   5  ar  
  5   3  24  1   
  6   4   6  ar  
  7   4  25  1   
  8   5   7  ar  
  9   5   8  1   
 10   6   7  ar  
 11   6  26  1   
 12   7  27  1   
 13   8   9  1   
 14   8  28  1   
 15   8  29  1   
 16   9  10  1   
 17   9  11  1   
 18   9  30  1   
 19  10  12  1   
 20  10  31  1   
 21  10  32  1   
 22  11  13  1   
 23  11  33  1   
 24  11  34  1   
 25  12  14  1   
 26  12  15  2   
 27  13  16  1   
 28  13  35  1   
 29  13  36  1   
 30  14  17  1   
 31  14  37  1   
 32  15  18  1   
 33  15  19  1   
 34  16  20  1   
 35  16  38  1   
 36  16  39  1   
 37  17  21  2   
 38  17  40  1   
 39  18  21  1   
 40  18  22  2   
 41  19  41  1   
 42  19  42  1   
 43  19  43  1   
 44  20  44  1   
 45  20  45  1   
 46  20  46  1   
 47  21  23  1   
 48  23  47  1   
 49  23  48  1   
 50  23  49  1   
@<TRIPOS>SUBSTRUCTURE
  1 ****   9 GROUP 4 **** **** 0

# MOE 2024.06 (io_trps.svl 2023.06)
