@<TRIPOS>MOLECULE
NONAME
47 49 1 0 0 
SMALL
USER_CHARGES


@<TRIPOS>ATOM
  1 O        3.0190     0.6680    -1.9010 O.2   1 <1>  -0.5700 
  2 C        3.3120    -0.2850    -1.2260 C.2   1 <1>   0.5690 
  3 N        3.0510    -0.3150     0.0960 N.am  1 <1>  -0.7300 
  4 C        4.0130    -1.4810    -1.8330 C.3   1 <1>  -0.0990 
  5 C        3.4180    -1.4540     0.9590 C.3   1 <1>   0.1400 
  6 C        3.4850    -2.8160    -1.2590 C.3   1 <1>  -0.0800 
  7 C        3.0880    -2.7730     0.2360 C.3   1 <1>  -0.0800 
  8 C        4.4780    -3.9720    -1.4360 C.3   1 <1>  -0.1600 
  9 C        3.7340    -3.9870     0.9200 C.3   1 <1>  -0.1600 
 10 C        4.3880    -4.8280    -0.1750 C.3   1 <1>   0.2200 
 11 N        5.7050    -5.4260     0.2150 N.am  1 <1>  -0.6600 
 12 C        6.8870    -4.7510     0.5050 C.2   1 <1>   0.5440 
 13 C        5.7300    -6.9120     0.0620 C.3   1 <1>   0.0600 
 14 O        7.9380    -5.3580     0.4170 O.2   1 <1>  -0.5700 
 15 C        6.9500    -3.3670     0.9370 C.ar  1 <1>   0.0860 
 16 C        7.1350    -2.3220     0.0370 C.ar  1 <1>  -0.1500 
 17 C        6.8530    -3.0380     2.2900 C.ar  1 <1>  -0.1500 
 18 C        7.1300    -1.0010     0.4470 C.ar  1 <1>   0.0820 
 19 C        6.8850    -1.7230     2.7190 C.ar  1 <1>  -0.1500 
 20 O        7.2200    -0.0600    -0.5200 O.3   1 <1>  -0.3630 
 21 C        7.0150    -0.6980     1.7990 C.ar  1 <1>  -0.1500 
 22 C        6.6560     1.2160    -0.3220 C.3   1 <1>   0.1200 
 23 C        6.5510     1.9010    -1.6800 C.3   1 <1>  -0.2400 
 24 H        2.5860     0.4950     0.5090 H     1 <1>   0.3700 
 25 H        3.8900    -1.4650    -2.9000 H     1 <1>   0.0800 
 26 H        5.0580    -1.3660    -1.6230 H     1 <1>   0.0800 
 27 H        4.4710    -1.4010     1.1650 H     1 <1>   0.0800 
 28 H        2.8810    -1.3980     1.8900 H     1 <1>   0.0800 
 29 H        2.5900    -3.0660    -1.8050 H     1 <1>   0.0800 
 30 H        2.0190    -2.8960     0.2890 H     1 <1>   0.0800 
 31 H        5.4730    -3.6070    -1.5760 H     1 <1>   0.0800 
 32 H        4.2210    -4.5580    -2.3010 H     1 <1>   0.0800 
 33 H        2.9830    -4.5710     1.4200 H     1 <1>   0.0800 
 34 H        4.4450    -3.6780     1.6570 H     1 <1>   0.0800 
 35 H        3.6980    -5.6250    -0.3980 H     1 <1>   0.0800 
 36 H        4.8670    -7.3460     0.5350 H     1 <1>   0.0800 
 37 H        6.6080    -7.3330     0.5200 H     1 <1>   0.0800 
 38 H        5.7310    -7.1670    -0.9840 H     1 <1>   0.0800 
 39 H        7.2830    -2.5370    -1.0040 H     1 <1>   0.1500 
 40 H        6.7530    -3.8350     3.0070 H     1 <1>   0.1500 
 41 H        6.8100    -1.4970     3.7690 H     1 <1>   0.1500 
 42 H        7.0360     0.3200     2.1410 H     1 <1>   0.1500 
 43 H        5.6780     1.0980     0.1130 H     1 <1>   0.0800 
 44 H        7.2960     1.7730     0.3410 H     1 <1>   0.0800 
 45 H        5.9100     1.3340    -2.3310 H     1 <1>   0.0800 
 46 H        7.5250     1.9970    -2.1260 H     1 <1>   0.0800 
 47 H        6.1280     2.8820    -1.5610 H     1 <1>   0.0800 
@<TRIPOS>BOND
  1   1   2  2   
  2   2   3  am  
  3   2   4  1   
  4   3   5  1   
  5   3  24  1   
  6   4   6  1   
  7   4  25  1   
  8   4  26  1   
  9   5   7  1   
 10   5  27  1   
 11   5  28  1   
 12   6   7  1   
 13   6   8  1   
 14   6  29  1   
 15   7   9  1   
 16   7  30  1   
 17   8  10  1   
 18   8  31  1   
 19   8  32  1   
 20   9  10  1   
 21   9  33  1   
 22   9  34  1   
 23  10  11  1   
 24  10  35  1   
 25  11  12  am  
 26  11  13  1   
 27  12  14  2   
 28  12  15  1   
 29  13  36  1   
 30  13  37  1   
 31  13  38  1   
 32  15  16  ar  
 33  15  17  ar  
 34  16  18  ar  
 35  16  39  1   
 36  17  19  ar  
 37  17  40  1   
 38  18  20  1   
 39  18  21  ar  
 40  19  21  ar  
 41  19  41  1   
 42  20  22  1   
 43  21  42  1   
 44  22  23  1   
 45  22  43  1   
 46  22  44  1   
 47  23  45  1   
 48  23  46  1   
 49  23  47  1   
@<TRIPOS>SUBSTRUCTURE
  1 ****  16 GROUP 4 **** **** 0

# MOE 2024.06 (io_trps.svl 2023.06)
