@<TRIPOS>MOLECULE
NONAME
54 56 1 0 0 
SMALL
USER_CHARGES


@<TRIPOS>ATOM
  1 CL      -0.5040    -0.3430    -2.3500 Cl    1 <1>  -0.1770 
  2 C       -1.6830    -0.6410    -1.0920 C.ar  1 <1>   0.1770 
  3 C       -2.2090     0.4170    -0.3660 C.ar  1 <1>   0.0820 
  4 C       -2.0590    -1.9490    -0.8440 C.ar  1 <1>  -0.1500 
  5 O       -1.7760     1.6750    -0.6360 O.3   1 <1>  -0.3630 
  6 C       -3.1600     0.1390     0.6200 C.ar  1 <1>   0.0830 
  7 C       -2.9880    -2.2250     0.1510 C.ar  1 <1>  -0.1440 
  8 C       -1.1210     2.3740     0.4180 C.3   1 <1>   0.1810 
  9 O       -3.7560     1.1040     1.3590 O.3   1 <1>  -0.3630 
 10 C       -3.5250    -1.1720     0.8820 C.ar  1 <1>  -0.1500 
 11 C       -3.4130    -3.6520     0.4410 C.3   1 <1>   0.4870 
 12 C       -0.2380     3.4880    -0.1300 C.2   1 <1>   0.5690 
 13 C       -4.6240     1.9890     0.6810 C.3   1 <1>   0.0400 
 14 N       -4.1580    -4.1600    -0.7460 N.4   1 <1>  -0.9590 
 15 O        0.0560     4.4140     0.5820 O.2   1 <1>  -0.5700 
 16 N        0.2250     3.4380    -1.3960 N.am  1 <1>  -0.8000 
 17 C       -5.6270    -4.2570    -0.5100 C.3   1 <1>   0.4230 
 18 C       -3.5700    -5.4550    -1.2140 C.3   1 <1>   0.2630 
 19 C       -6.3730    -4.7000    -1.7680 C.3   1 <1>  -0.1600 
 20 C       -6.2530    -2.9050    -0.1750 C.3   1 <1>  -0.1600 
 21 C       -7.8040    -4.1780    -1.5940 C.3   1 <1>  -0.0800 
 22 C       -7.7260    -3.0280    -0.5790 C.3   1 <1>  -0.0800 
 23 C       -8.7760    -5.2120    -1.0060 C.3   1 <1>  -0.1600 
 24 C       -8.6580    -3.4110     0.5820 C.3   1 <1>  -0.1600 
 25 C       -9.6220    -4.4190    -0.0230 C.3   1 <1>   0.2000 
 26 O      -10.1270    -5.2470     0.9530 O.3   1 <1>  -0.6800 
 27 H       -1.6050    -2.7290    -1.4310 H     1 <1>   0.1500 
 28 H       -1.8640     2.7940     1.0690 H     1 <1>   0.0800 
 29 H       -0.5120     1.6810     0.9680 H     1 <1>   0.0800 
 30 H       -4.2380    -1.3450     1.6690 H     1 <1>   0.1500 
 31 H       -4.0330    -3.6870     1.3230 H     1 <1>   0.0800 
 32 H       -2.5340    -4.2500     0.6200 H     1 <1>   0.0800 
 33 H       -5.0520     2.6600     1.4050 H     1 <1>   0.0800 
 34 H       -5.4010     1.4190     0.2040 H     1 <1>   0.0800 
 35 H       -4.0700     2.5500    -0.0500 H     1 <1>   0.0800 
 36 H       -4.0260    -3.4490    -1.4790 H     1 <1>   0.4500 
 37 H        0.8090     4.1910    -1.7610 H     1 <1>   0.3700 
 38 H       -0.0360     2.6900    -2.0410 H     1 <1>   0.3700 
 39 H       -5.8410    -4.9530     0.2870 H     1 <1>   0.0800 
 40 H       -3.7170    -6.2240    -0.4730 H     1 <1>   0.0800 
 41 H       -2.5120    -5.3450    -1.3930 H     1 <1>   0.0800 
 42 H       -4.0370    -5.7700    -2.1340 H     1 <1>   0.0800 
 43 H       -5.9470    -4.2260    -2.6340 H     1 <1>   0.0800 
 44 H       -6.3560    -5.7680    -1.9000 H     1 <1>   0.0800 
 45 H       -6.1520    -2.6540     0.8660 H     1 <1>   0.0800 
 46 H       -5.8060    -2.1320    -0.7760 H     1 <1>   0.0800 
 47 H       -8.1940    -3.8150    -2.5330 H     1 <1>   0.0800 
 48 H       -8.0760    -2.1130    -1.0300 H     1 <1>   0.0800 
 49 H       -8.2400    -5.9840    -0.4830 H     1 <1>   0.0800 
 50 H       -9.3890    -5.6550    -1.7720 H     1 <1>   0.0800 
 51 H       -9.1860    -2.5530     0.9600 H     1 <1>   0.0800 
 52 H       -8.1040    -3.8730     1.3790 H     1 <1>   0.0800 
 53 H      -10.4400    -3.9250    -0.5230 H     1 <1>   0.0800 
 54 H       -9.4120    -5.7120     1.4230 H     1 <1>   0.4000 
@<TRIPOS>BOND
  1   1   2  1   
  2   2   3  ar  
  3   2   4  ar  
  4   3   5  1   
  5   3   6  ar  
  6   4   7  ar  
  7   4  27  1   
  8   5   8  1   
  9   6   9  1   
 10   6  10  ar  
 11   7  10  ar  
 12   7  11  1   
 13   8  12  1   
 14   8  28  1   
 15   8  29  1   
 16   9  13  1   
 17  10  30  1   
 18  11  14  1   
 19  11  31  1   
 20  11  32  1   
 21  12  15  2   
 22  12  16  am  
 23  13  33  1   
 24  13  34  1   
 25  13  35  1   
 26  14  17  1   
 27  14  18  1   
 28  14  36  1   
 29  16  37  1   
 30  16  38  1   
 31  17  19  1   
 32  17  20  1   
 33  17  39  1   
 34  18  40  1   
 35  18  41  1   
 36  18  42  1   
 37  19  21  1   
 38  19  43  1   
 39  19  44  1   
 40  20  22  1   
 41  20  45  1   
 42  20  46  1   
 43  21  22  1   
 44  21  23  1   
 45  21  47  1   
 46  22  24  1   
 47  22  48  1   
 48  23  25  1   
 49  23  49  1   
 50  23  50  1   
 51  24  25  1   
 52  24  51  1   
 53  24  52  1   
 54  25  26  1   
 55  25  53  1   
 56  26  54  1   
@<TRIPOS>SUBSTRUCTURE
  1 ****  10 GROUP 4 **** **** 0

# MOE 2024.06 (io_trps.svl 2023.06)
