@<TRIPOS>MOLECULE
NONAME
45 47 1 0 0 
SMALL
USER_CHARGES


@<TRIPOS>ATOM
  1 O       -0.7830     0.3400    -1.2020 O.co2 1 <1>  -0.9000 
  2 C       -1.3530     0.4200    -0.1070 C.2   1 <1>   0.9060 
  3 O       -0.8460     0.9870     0.8670 O.co2 1 <1>  -0.9000 
  4 C       -2.7490    -0.1560     0.0290 C.3   1 <1>  -0.1220 
  5 C       -2.7930    -1.6730     0.2160 C.ar  1 <1>  -0.1440 
  6 C       -3.4650    -2.2360     1.2880 C.ar  1 <1>  -0.1500 
  7 C       -2.1550    -2.5000    -0.6920 C.ar  1 <1>  -0.1500 
  8 C       -3.5070    -3.6110     1.4450 C.ar  1 <1>  -0.1500 
  9 C       -2.1900    -3.8730    -0.5400 C.ar  1 <1>  -0.1500 
 10 C       -2.8760    -4.4370     0.5260 C.ar  1 <1>  -0.1440 
 11 C       -2.9400    -5.9400     0.6770 C.3   1 <1>   0.4870 
 12 N       -3.8490    -6.4700    -0.3760 N.4   1 <1>  -0.9590 
 13 C       -5.2400    -5.9200    -0.2610 C.3   1 <1>   0.3430 
 14 C       -3.9350    -7.9610    -0.3830 C.3   1 <1>   0.3430 
 15 C       -6.1800    -7.1220    -0.3820 C.3   1 <1>   0.2000 
 16 C       -5.3520    -8.3200     0.0650 C.3   1 <1>  -0.0800 
 17 O       -7.3040    -6.9890     0.4180 O.3   1 <1>  -0.6800 
 18 C       -5.8670    -9.6520    -0.5130 C.3   1 <1>  -0.0170 
 19 C       -5.0500   -10.8440    -0.0320 C.ar  1 <1>   0.1670 
 20 N       -3.7750   -10.8700    -0.3910 N.ar  1 <1>  -0.6200 
 21 C       -5.6530   -11.8370     0.7400 C.ar  1 <1>   0.1600 
 22 C       -3.1560   -11.9540     0.0550 C.ar  1 <1>   0.1600 
 23 N       -5.0290   -12.9070     1.2000 N.ar  1 <1>  -0.6200 
 24 C       -3.7630   -12.9380     0.8260 C.ar  1 <1>   0.1600 
 25 H       -3.2180     0.3370     0.8580 H     1 <1>   0.0800 
 26 H       -3.2890     0.1060    -0.8590 H     1 <1>   0.0800 
 27 H       -3.9500    -1.5960     2.0040 H     1 <1>   0.1500 
 28 H       -1.6170    -2.0570    -1.5170 H     1 <1>   0.1500 
 29 H       -4.0310    -4.0140     2.2930 H     1 <1>   0.1500 
 30 H       -1.6680    -4.4770    -1.2610 H     1 <1>   0.1500 
 31 H       -3.3080    -6.1970     1.6570 H     1 <1>   0.0800 
 32 H       -1.9510    -6.3530     0.5610 H     1 <1>   0.0800 
 33 H       -3.4580    -6.1440    -1.2710 H     1 <1>   0.4500 
 34 H       -5.3760    -5.4540     0.7000 H     1 <1>   0.0800 
 35 H       -5.4360    -5.1970    -1.0370 H     1 <1>   0.0800 
 36 H       -3.7780    -8.3290    -1.3850 H     1 <1>   0.0800 
 37 H       -3.2000    -8.4150     0.2630 H     1 <1>   0.0800 
 38 H       -6.5070    -7.2230    -1.4040 H     1 <1>   0.0800 
 39 H       -5.3450    -8.3790     1.1400 H     1 <1>   0.0800 
 40 H       -7.1080    -7.0620     1.3730 H     1 <1>   0.4000 
 41 H       -5.8320    -9.6280    -1.5890 H     1 <1>   0.0800 
 42 H       -6.8980    -9.7840    -0.2300 H     1 <1>   0.0800 
 43 H       -6.6960   -11.7480     0.9910 H     1 <1>   0.1500 
 44 H       -2.1170   -12.0740    -0.1990 H     1 <1>   0.1500 
 45 H       -3.1770   -13.7830     1.1450 H     1 <1>   0.1500 
@<TRIPOS>BOND
  1   1   2  ar  
  2   2   3  ar  
  3   2   4  1   
  4   4   5  1   
  5   4  25  1   
  6   4  26  1   
  7   5   6  ar  
  8   5   7  ar  
  9   6   8  ar  
 10   6  27  1   
 11   7   9  ar  
 12   7  28  1   
 13   8  10  ar  
 14   8  29  1   
 15   9  10  ar  
 16   9  30  1   
 17  10  11  1   
 18  11  12  1   
 19  11  31  1   
 20  11  32  1   
 21  12  13  1   
 22  12  14  1   
 23  12  33  1   
 24  13  15  1   
 25  13  34  1   
 26  13  35  1   
 27  14  16  1   
 28  14  36  1   
 29  14  37  1   
 30  15  16  1   
 31  15  17  1   
 32  15  38  1   
 33  16  18  1   
 34  16  39  1   
 35  17  40  1   
 36  18  19  1   
 37  18  41  1   
 38  18  42  1   
 39  19  20  ar  
 40  19  21  ar  
 41  20  22  ar  
 42  21  23  ar  
 43  21  43  1   
 44  22  24  ar  
 45  22  44  1   
 46  23  24  ar  
 47  24  45  1   
@<TRIPOS>SUBSTRUCTURE
  1 ****  12 GROUP 4 **** **** 0

# MOE 2024.06 (io_trps.svl 2023.06)
