@<TRIPOS>MOLECULE
NONAME
55 56 1 0 0 
SMALL
USER_CHARGES


@<TRIPOS>ATOM
  1 O       -0.9430     0.5970    -1.7240 O.2   1 <1>  -0.5700 
  2 C       -1.7620     1.1250    -0.9970 C.2   1 <1>   0.5440 
  3 N       -2.7580     0.3440    -0.4420 N.am  1 <1>  -0.6600 
  4 C       -1.6590     2.5470    -0.7300 C.ar  1 <1>   0.0860 
  5 C       -3.0520    -1.0210    -0.9820 C.3   1 <1>   0.1400 
  6 C       -3.4900     0.7120     0.8010 C.3   1 <1>   0.1400 
  7 C       -2.7440     3.4040    -0.9120 C.ar  1 <1>  -0.1500 
  8 C       -0.4640     3.1100    -0.2870 C.ar  1 <1>  -0.1500 
  9 C       -4.5690    -1.2270    -1.1440 C.3   1 <1>   0.2000 
 10 C       -4.9980     0.5320     0.5870 C.3   1 <1>  -0.1600 
 11 C       -2.6440     4.7560    -0.6390 C.ar  1 <1>  -0.1500 
 12 C       -0.3630     4.4630    -0.0160 C.ar  1 <1>  -0.1500 
 13 O       -4.8080    -2.5290    -1.5770 O.3   1 <1>  -0.6800 
 14 C       -5.3810    -0.9060     0.1450 C.3   1 <1>   0.0000 
 15 C       -1.4540     5.3040    -0.1830 C.ar  1 <1>   0.0730 
 16 C       -5.0160    -1.9320     1.2570 C.3   1 <1>   0.1200 
 17 C       -6.9150    -0.9980    -0.1100 C.3   1 <1>  -0.1600 
 18 C       -1.3620     6.7020     0.1030 C.1   1 <1>  -0.0730 
 19 O       -5.6470    -1.6400     2.4590 O.3   1 <1>  -0.6800 
 20 C       -7.4830    -0.1510    -1.2650 C.3   1 <1>  -0.1600 
 21 C       -1.3180     7.8690     0.3380 C.1   1 <1>  -0.2000 
 22 C       -9.0020    -0.3180    -1.3620 C.3   1 <1>  -0.2400 
 23 C       -1.2910     9.3290     0.6270 C.3   1 <1>   0.4800 
 24 O       -2.5880     9.7680     0.6380 O.3   1 <1>  -0.6800 
 25 C       -0.5620    10.0940    -0.4710 C.3   1 <1>  -0.2400 
 26 C       -0.7060     9.6070     2.0060 C.3   1 <1>  -0.2400 
 27 H       -2.5890    -1.1420    -1.9460 H     1 <1>   0.0800 
 28 H       -2.6360    -1.7530    -0.3140 H     1 <1>   0.0800 
 29 H       -3.1450     0.0870     1.6070 H     1 <1>   0.0800 
 30 H       -3.2860     1.7310     1.0800 H     1 <1>   0.0800 
 31 H       -3.6730     3.0000    -1.2740 H     1 <1>   0.1500 
 32 H        0.3930     2.4710    -0.1600 H     1 <1>   0.1500 
 33 H       -4.8860    -0.5790    -1.9410 H     1 <1>   0.0800 
 34 H       -5.5190     0.8010     1.4870 H     1 <1>   0.0800 
 35 H       -5.2950     1.2390    -0.1650 H     1 <1>   0.0800 
 36 H       -3.4950     5.4010    -0.7830 H     1 <1>   0.1500 
 37 H        0.5700     4.8750     0.3280 H     1 <1>   0.1500 
 38 H       -4.5260    -3.1810    -0.9090 H     1 <1>   0.4000 
 39 H       -3.9580    -1.9580     1.4470 H     1 <1>   0.0800 
 40 H       -5.3310    -2.9210     0.9730 H     1 <1>   0.0800 
 41 H       -7.1660    -2.0270    -0.3050 H     1 <1>   0.0800 
 42 H       -7.4340    -0.7230     0.7920 H     1 <1>   0.0800 
 43 H       -5.4470    -0.7300     2.7470 H     1 <1>   0.4000 
 44 H       -7.2650     0.8910    -1.1180 H     1 <1>   0.0800 
 45 H       -7.0500    -0.4600    -2.2000 H     1 <1>   0.0800 
 46 H       -9.4770     0.0040    -0.4520 H     1 <1>   0.0800 
 47 H       -9.2550    -1.3490    -1.5400 H     1 <1>   0.0800 
 48 H       -9.3860     0.2720    -2.1760 H     1 <1>   0.0800 
 49 H       -2.5970    10.7210     0.8270 H     1 <1>   0.4000 
 50 H        0.4580     9.7620    -0.5270 H     1 <1>   0.0800 
 51 H       -0.5660    11.1490    -0.2700 H     1 <1>   0.0800 
 52 H       -1.0290     9.9080    -1.4220 H     1 <1>   0.0800 
 53 H        0.3090     9.2560     2.0450 H     1 <1>   0.0800 
 54 H       -1.2710     9.0850     2.7580 H     1 <1>   0.0800 
 55 H       -0.7100    10.6600     2.2190 H     1 <1>   0.0800 
@<TRIPOS>BOND
  1   1   2  2   
  2   2   3  am  
  3   2   4  1   
  4   3   5  1   
  5   3   6  1   
  6   4   7  ar  
  7   4   8  ar  
  8   5   9  1   
  9   5  27  1   
 10   5  28  1   
 11   6  10  1   
 12   6  29  1   
 13   6  30  1   
 14   7  11  ar  
 15   7  31  1   
 16   8  12  ar  
 17   8  32  1   
 18   9  13  1   
 19   9  14  1   
 20   9  33  1   
 21  10  14  1   
 22  10  34  1   
 23  10  35  1   
 24  11  15  ar  
 25  11  36  1   
 26  12  15  ar  
 27  12  37  1   
 28  13  38  1   
 29  14  16  1   
 30  14  17  1   
 31  15  18  1   
 32  16  19  1   
 33  16  39  1   
 34  16  40  1   
 35  17  20  1   
 36  17  41  1   
 37  17  42  1   
 38  18  21  3   
 39  19  43  1   
 40  20  22  1   
 41  20  44  1   
 42  20  45  1   
 43  21  23  1   
 44  22  46  1   
 45  22  47  1   
 46  22  48  1   
 47  23  24  1   
 48  23  25  1   
 49  23  26  1   
 50  24  49  1   
 51  25  50  1   
 52  25  51  1   
 53  25  52  1   
 54  26  53  1   
 55  26  54  1   
 56  26  55  1   
@<TRIPOS>SUBSTRUCTURE
  1 ****   7 GROUP 4 **** **** 0

# MOE 2024.06 (io_trps.svl 2023.06)
