@<TRIPOS>MOLECULE
NONAME
49 51 1 0 0 
SMALL
USER_CHARGES


@<TRIPOS>ATOM
  1 O       -4.0880    -0.9100    -2.6740 O.co2 1 <1>  -0.9000 
  2 C       -4.5390    -0.6990    -1.5410 C.2   1 <1>   0.9060 
  3 O       -5.7010    -0.3470    -1.3270 O.co2 1 <1>  -0.9000 
  4 C       -3.6260    -0.9610    -0.3360 C.3   1 <1>   0.2370 
  5 N       -3.2620    -2.4160    -0.0980 N.4   1 <1>  -0.9590 
  6 C       -2.6740    -2.7130     1.2440 C.3   1 <1>   0.4230 
  7 C       -2.5710    -2.9880    -1.2940 C.3   1 <1>   0.3430 
  8 C       -1.1360    -2.5170     1.3260 C.3   1 <1>   0.1200 
  9 C       -3.1170    -4.1240     1.7270 C.3   1 <1>   0.2090 
 10 C       -1.9430    -4.3700    -1.0340 C.3   1 <1>  -0.0800 
 11 O       -0.4020    -2.9990     0.2310 O.3   1 <1>  -0.5600 
 12 N       -3.7540    -4.9800     0.6630 N.pl3 1 <1>  -0.8380 
 13 C       -0.6550    -4.3030    -0.1890 C.3   1 <1>   0.1200 
 14 C       -2.9440    -5.4200    -0.5140 C.3   1 <1>   0.2090 
 15 C       -5.1290    -4.9760     0.5290 C.ar  1 <1>   0.4100 
 16 N       -5.7190    -3.7980     0.5640 N.ar  1 <1>  -0.6200 
 17 C       -5.8440    -6.1290     0.3270 C.ar  1 <1>  -0.1500 
 18 C       -7.0220    -3.8120     0.3460 C.ar  1 <1>   0.4700 
 19 C       -7.2020    -6.0310     0.1440 C.ar  1 <1>   0.4100 
 20 N       -7.8040    -4.8540     0.1460 N.ar  1 <1>  -0.6200 
 21 N       -7.9740    -7.1600    -0.0420 N.pl3 1 <1>  -0.8380 
 22 C       -9.1640    -7.0870    -0.9300 C.3   1 <1>   0.2090 
 23 C       -8.0740    -8.1290     1.0840 C.3   1 <1>   0.1290 
 24 C       -9.2360    -8.3440    -1.7920 C.3   1 <1>  -0.2400 
 25 H       -4.1440    -0.5750     0.5230 H     1 <1>   0.0800 
 26 H       -2.7320    -0.3850    -0.4830 H     1 <1>   0.0800 
 27 H       -4.1680    -2.9350    -0.0680 H     1 <1>   0.4500 
 28 H       -3.1040    -2.0240     1.9510 H     1 <1>   0.0800 
 29 H       -3.2820    -3.0610    -2.1020 H     1 <1>   0.0800 
 30 H       -1.7970    -2.3090    -1.6130 H     1 <1>   0.0800 
 31 H       -0.7470    -2.9780     2.2160 H     1 <1>   0.0800 
 32 H       -0.9280    -1.4640     1.3920 H     1 <1>   0.0800 
 33 H       -3.8330    -3.9850     2.5190 H     1 <1>   0.0800 
 34 H       -2.2890    -4.6540     2.1620 H     1 <1>   0.0800 
 35 H       -1.6280    -4.7300    -1.9970 H     1 <1>   0.0800 
 36 H        0.1850    -4.5990    -0.7960 H     1 <1>   0.0800 
 37 H       -0.6830    -4.9540     0.6680 H     1 <1>   0.0800 
 38 H       -2.4200    -6.3250    -0.2560 H     1 <1>   0.0800 
 39 H       -3.6180    -5.6650    -1.3190 H     1 <1>   0.0800 
 40 H       -5.3630    -7.0830     0.3070 H     1 <1>   0.1500 
 41 H       -7.5080    -2.8490     0.3300 H     1 <1>   0.1500 
 42 H      -10.0560    -6.9810    -0.3370 H     1 <1>   0.0800 
 43 H       -9.0860    -6.2270    -1.5750 H     1 <1>   0.0800 
 44 H       -7.8770    -9.1240     0.7260 H     1 <1>   0.0800 
 45 H       -9.0610    -8.0940     1.5120 H     1 <1>   0.0800 
 46 H       -7.3600    -7.8890     1.8520 H     1 <1>   0.0800 
 47 H       -9.3910    -9.2150    -1.1840 H     1 <1>   0.0800 
 48 H       -8.3260    -8.4520    -2.3540 H     1 <1>   0.0800 
 49 H      -10.0560    -8.2600    -2.4810 H     1 <1>   0.0800 
@<TRIPOS>BOND
  1   1   2  ar  
  2   2   3  ar  
  3   2   4  1   
  4   4   5  1   
  5   4  25  1   
  6   4  26  1   
  7   5   6  1   
  8   5   7  1   
  9   5  27  1   
 10   6   8  1   
 11   6   9  1   
 12   6  28  1   
 13   7  10  1   
 14   7  29  1   
 15   7  30  1   
 16   8  11  1   
 17   8  31  1   
 18   8  32  1   
 19   9  12  1   
 20   9  33  1   
 21   9  34  1   
 22  10  13  1   
 23  10  14  1   
 24  10  35  1   
 25  11  13  1   
 26  12  14  1   
 27  12  15  1   
 28  13  36  1   
 29  13  37  1   
 30  14  38  1   
 31  14  39  1   
 32  15  16  ar  
 33  15  17  ar  
 34  16  18  ar  
 35  17  19  ar  
 36  17  40  1   
 37  18  20  ar  
 38  18  41  1   
 39  19  20  ar  
 40  19  21  1   
 41  21  22  1   
 42  21  23  1   
 43  22  24  1   
 44  22  42  1   
 45  22  43  1   
 46  23  44  1   
 47  23  45  1   
 48  23  46  1   
 49  24  47  1   
 50  24  48  1   
 51  24  49  1   
@<TRIPOS>SUBSTRUCTURE
  1 ****  15 GROUP 4 **** **** 0

# MOE 2024.06 (io_trps.svl 2023.06)
