@<TRIPOS>MOLECULE
NONAME
48 50 1 0 0 
SMALL
USER_CHARGES


@<TRIPOS>ATOM
  1 O       -1.4750     0.1720    -1.4940 O.2   1 <1>  -0.5700 
  2 C       -1.7990     1.0350    -0.6990 C.2   1 <1>   0.5440 
  3 N       -3.0260     0.9290    -0.0720 N.am  1 <1>  -0.6600 
  4 C       -0.8970     2.1340    -0.4500 C.ar  1 <1>   0.0860 
  5 C       -3.7630    -0.3730    -0.1020 C.3   1 <1>   0.1400 
  6 C       -3.7280     2.1010     0.5380 C.3   1 <1>   0.1400 
  7 C       -0.5810     2.5290     0.8490 C.ar  1 <1>   0.1600 
  8 C       -0.2990     2.8440    -1.4860 C.ar  1 <1>  -0.1500 
  9 C       -4.5950    -0.5090    -1.3840 C.3   1 <1>   0.1400 
 10 C       -5.2000     2.2460     0.1250 C.3   1 <1>  -0.1600 
 11 N        0.2080     3.5340     1.1880 N.ar  1 <1>  -0.6200 
 12 C        0.5300     3.8890    -1.1550 C.ar  1 <1>  -0.1500 
 13 N       -5.8050     0.3670    -1.3470 N.am  1 <1>  -0.6600 
 14 C       -5.5180     1.8270    -1.3150 C.3   1 <1>   0.1400 
 15 C        0.7480     4.1990     0.1830 C.ar  1 <1>   0.4100 
 16 C       -7.0950    -0.0940    -1.1950 C.2   1 <1>   0.5690 
 17 N        1.5540     5.2170     0.5540 N.pl3 1 <1>  -0.9000 
 18 O       -8.0360     0.6670    -1.1590 O.2   1 <1>  -0.5700 
 19 C       -7.4110    -1.5830    -1.0770 C.3   1 <1>   0.1810 
 20 O       -6.7550    -2.1630     0.0430 O.3   1 <1>  -0.3630 
 21 C       -6.8450    -3.4910     0.2980 C.ar  1 <1>   0.0820 
 22 C       -6.0920    -3.9740     1.3570 C.ar  1 <1>  -0.1500 
 23 C       -7.6370    -4.3710    -0.4370 C.ar  1 <1>  -0.1500 
 24 C       -6.1210    -5.3180     1.6830 C.ar  1 <1>  -0.1500 
 25 C       -7.6640    -5.7160    -0.1090 C.ar  1 <1>  -0.1500 
 26 C       -6.9070    -6.1900     0.9490 C.ar  1 <1>  -0.1500 
 27 H       -4.3970    -0.4700     0.7620 H     1 <1>   0.0800 
 28 H       -3.0470    -1.1760    -0.0720 H     1 <1>   0.0800 
 29 H       -3.2220     3.0050     0.2460 H     1 <1>   0.0800 
 30 H       -3.6680     2.0280     1.6110 H     1 <1>   0.0800 
 31 H       -1.0160     1.9680     1.6570 H     1 <1>   0.1500 
 32 H       -0.4900     2.5710    -2.5090 H     1 <1>   0.1500 
 33 H       -4.8760    -1.5390    -1.5010 H     1 <1>   0.0800 
 34 H       -3.9870    -0.2510    -2.2340 H     1 <1>   0.0800 
 35 H       -5.4650     3.2820     0.2390 H     1 <1>   0.0800 
 36 H       -5.8280     1.6970     0.8050 H     1 <1>   0.0800 
 37 H        1.0120     4.4740    -1.9150 H     1 <1>   0.1500 
 38 H       -4.7010     2.0610    -1.9750 H     1 <1>   0.0800 
 39 H       -6.3830     2.3680    -1.6600 H     1 <1>   0.0800 
 40 H        2.3420     5.4810    -0.0370 H     1 <1>   0.4000 
 41 H        1.7450     5.2600     1.5570 H     1 <1>   0.4000 
 42 H       -7.0890    -2.0900    -1.9670 H     1 <1>   0.0800 
 43 H       -8.4700    -1.7110    -0.9450 H     1 <1>   0.0800 
 44 H       -5.4870    -3.2910     1.9250 H     1 <1>   0.1500 
 45 H       -8.2380    -4.0340    -1.2590 H     1 <1>   0.1500 
 46 H       -5.5340    -5.6850     2.5070 H     1 <1>   0.1500 
 47 H       -8.2750    -6.3960    -0.6750 H     1 <1>   0.1500 
 48 H       -6.9300    -7.2360     1.2020 H     1 <1>   0.1500 
@<TRIPOS>BOND
  1   1   2  2   
  2   2   3  am  
  3   2   4  1   
  4   3   5  1   
  5   3   6  1   
  6   4   7  ar  
  7   4   8  ar  
  8   5   9  1   
  9   5  27  1   
 10   5  28  1   
 11   6  10  1   
 12   6  29  1   
 13   6  30  1   
 14   7  11  ar  
 15   7  31  1   
 16   8  12  ar  
 17   8  32  1   
 18   9  13  1   
 19   9  33  1   
 20   9  34  1   
 21  10  14  1   
 22  10  35  1   
 23  10  36  1   
 24  11  15  ar  
 25  12  15  ar  
 26  12  37  1   
 27  13  14  1   
 28  13  16  am  
 29  14  38  1   
 30  14  39  1   
 31  15  17  1   
 32  16  18  2   
 33  16  19  1   
 34  17  40  1   
 35  17  41  1   
 36  19  20  1   
 37  19  42  1   
 38  19  43  1   
 39  20  21  1   
 40  21  22  ar  
 41  21  23  ar  
 42  22  24  ar  
 43  22  44  1   
 44  23  25  ar  
 45  23  45  1   
 46  24  26  ar  
 47  24  46  1   
 48  25  26  ar  
 49  25  47  1   
 50  26  48  1   
@<TRIPOS>SUBSTRUCTURE
  1 ****   5 GROUP 4 **** **** 0

# MOE 2024.06 (io_trps.svl 2023.06)
