@<TRIPOS>MOLECULE
NONAME
48 49 1 0 0 
SMALL
USER_CHARGES


@<TRIPOS>ATOM
  1 F       -0.3400     0.5030     0.1700 F     1 <1>  -0.1900 
  2 C       -1.6240     0.7520     0.1870 C.ar  1 <1>   0.1900 
  3 C       -2.2180     1.6510    -0.7060 C.ar  1 <1>   0.0830 
  4 C       -2.3680     0.0800     1.1380 C.ar  1 <1>  -0.1500 
  5 O       -1.5950     2.3710    -1.6830 O.3   1 <1>  -0.3630 
  6 C       -3.5850     1.8480    -0.6040 C.ar  1 <1>  -0.1500 
  7 C       -3.7310     0.3000     1.2110 C.ar  1 <1>  -0.1500 
  8 C       -0.2170     2.2590    -1.9610 C.3   1 <1>   0.0400 
  9 C       -4.3700     1.1850     0.3410 C.ar  1 <1>   0.0530 
 10 C       -5.7890     1.4300     0.4140 C.2   1 <1>   0.0870 
 11 O       -6.2340     2.6520     0.2660 O.3   1 <1>  -0.0190 
 12 C       -6.8740     0.6350     0.6270 C.2   1 <1>  -0.0860 
 13 N       -7.5310     2.7410     0.3730 N.2   1 <1>  -0.4100 
 14 C       -7.9430     1.5420     0.5900 C.2   1 <1>   0.3720 
 15 C       -6.9730    -0.7810     0.8260 C.2   1 <1>   0.7160 
 16 N       -9.3010     1.2150     0.7450 N.pl3 1 <1>  -0.8210 
 17 O       -6.0480    -1.5280     0.5650 O.2   1 <1>  -0.5700 
 18 N       -8.1240    -1.3330     1.2950 N.am  1 <1>  -0.7300 
 19 C       -9.9480     0.7520    -0.5140 C.3   1 <1>   0.1290 
 20 C      -10.1210     2.2470     1.4400 C.3   1 <1>   0.1290 
 21 C       -8.4560    -2.7780     1.2980 C.3   1 <1>   0.1400 
 22 C       -9.1500    -3.1930    -0.0090 C.3   1 <1>   0.2000 
 23 O      -10.3170    -2.4620    -0.1900 O.3   1 <1>  -0.6800 
 24 C       -9.5190    -4.6830    -0.0260 C.3   1 <1>   0.1200 
 25 O      -10.4080    -4.9290    -1.0790 O.3   1 <1>  -0.5600 
 26 C      -10.8020    -6.2590    -1.1860 C.3   1 <1>   0.0400 
 27 H       -1.8850    -0.6070     1.8090 H     1 <1>   0.1500 
 28 H       -4.0540     2.5380    -1.2830 H     1 <1>   0.1500 
 29 H       -4.3090    -0.2220     1.9530 H     1 <1>   0.1500 
 30 H        0.0110     2.9080    -2.7870 H     1 <1>   0.0800 
 31 H        0.0060     1.2400    -2.2250 H     1 <1>   0.0800 
 32 H        0.3420     2.5650    -1.0940 H     1 <1>   0.0800 
 33 H       -8.9360    -0.6940     1.2890 H     1 <1>   0.3700 
 34 H       -9.3180     0.0380    -1.0170 H     1 <1>   0.0800 
 35 H      -10.1180     1.5870    -1.1720 H     1 <1>   0.0800 
 36 H      -10.8880     0.2770    -0.2910 H     1 <1>   0.0800 
 37 H       -9.6070     2.5850     2.3240 H     1 <1>   0.0800 
 38 H      -11.0690     1.8280     1.7290 H     1 <1>   0.0800 
 39 H      -10.2850     3.0900     0.7910 H     1 <1>   0.0800 
 40 H       -9.0990    -2.9910     2.1340 H     1 <1>   0.0800 
 41 H       -7.5520    -3.3500     1.4190 H     1 <1>   0.0800 
 42 H       -8.4980    -2.9870    -0.8410 H     1 <1>   0.0800 
 43 H      -10.8740    -2.9970    -0.8010 H     1 <1>   0.4000 
 44 H       -9.9990    -4.9560     0.8980 H     1 <1>   0.0800 
 45 H       -8.6360    -5.2820    -0.1640 H     1 <1>   0.0800 
 46 H      -11.4790    -6.3420    -2.0190 H     1 <1>   0.0800 
 47 H      -11.3030    -6.5560    -0.2810 H     1 <1>   0.0800 
 48 H       -9.9360    -6.8740    -1.3610 H     1 <1>   0.0800 
@<TRIPOS>BOND
  1   1   2  1   
  2   2   3  ar  
  3   2   4  ar  
  4   3   5  1   
  5   3   6  ar  
  6   4   7  ar  
  7   4  27  1   
  8   5   8  1   
  9   6   9  ar  
 10   6  28  1   
 11   7   9  ar  
 12   7  29  1   
 13   8  30  1   
 14   8  31  1   
 15   8  32  1   
 16   9  10  1   
 17  10  11  1   
 18  10  12  2   
 19  11  13  1   
 20  12  14  1   
 21  12  15  1   
 22  13  14  2   
 23  14  16  1   
 24  15  17  2   
 25  15  18  am  
 26  16  19  1   
 27  16  20  1   
 28  18  21  1   
 29  18  33  1   
 30  19  34  1   
 31  19  35  1   
 32  19  36  1   
 33  20  37  1   
 34  20  38  1   
 35  20  39  1   
 36  21  22  1   
 37  21  40  1   
 38  21  41  1   
 39  22  23  1   
 40  22  24  1   
 41  22  42  1   
 42  23  43  1   
 43  24  25  1   
 44  24  44  1   
 45  24  45  1   
 46  25  26  1   
 47  26  46  1   
 48  26  47  1   
 49  26  48  1   
@<TRIPOS>SUBSTRUCTURE
  1 ****  12 GROUP 4 **** **** 0

# MOE 2024.06 (io_trps.svl 2023.06)
