@<TRIPOS>MOLECULE
NONAME
35 36 1 0 0 
SMALL
USER_CHARGES


@<TRIPOS>ATOM
  1 O       -0.4560     2.2580    -3.4520 O.2   1 <1>  -0.5700 
  2 C       -0.1970     2.7520    -2.3670 C.2   1 <1>   0.7670 
  3 N       -1.1750     2.7910    -1.4070 N.2   1 <1>  -0.6610 
  4 C        1.0960     3.2770    -2.1050 C.2   1 <1>  -0.1360 
  5 C       -0.8790     3.3190    -0.2780 C.2   1 <1>   0.4390 
  6 C        1.3710     3.8210    -0.8980 C.2   1 <1>  -0.0380 
  7 N        0.3480     3.8340     0.0130 N.pl3 1 <1>  -0.5500 
  8 C       -1.9200     3.3950     0.8110 C.3   1 <1>  -0.1790 
  9 C        2.7090     4.4160    -0.4800 C.3   1 <1>   0.3470 
 10 N        2.4670     5.7230     0.1650 N.pl3 1 <1>  -0.8690 
 11 C        3.5630     6.4780     0.5490 C.ar  1 <1>   0.4100 
 12 N        4.5570     5.8240     1.1190 N.ar  1 <1>  -0.6200 
 13 C        3.5730     7.8910     0.3100 C.ar  1 <1>   0.4100 
 14 C        5.5560     6.6330     1.4540 C.ar  1 <1>   0.1600 
 15 N        4.5830     8.6720     0.6480 N.ar  1 <1>  -0.6200 
 16 N        2.4770     8.5170    -0.3020 N.pl3 1 <1>  -0.8380 
 17 C        5.5690     7.9980     1.2280 C.ar  1 <1>   0.1600 
 18 C        2.7860     9.5430    -1.3370 C.3   1 <1>   0.1290 
 19 C        1.4130     8.9510     0.6380 C.3   1 <1>   0.1290 
 20 H        1.8100     3.2120    -2.9020 H     1 <1>   0.1500 
 21 H        0.5170     4.2870     0.9190 H     1 <1>   0.4000 
 22 H       -1.5800     2.8620     1.6790 H     1 <1>   0.0800 
 23 H       -2.8400     2.9530     0.4730 H     1 <1>   0.0800 
 24 H       -2.1050     4.4210     1.0680 H     1 <1>   0.0800 
 25 H        3.3540     4.5420    -1.3330 H     1 <1>   0.0800 
 26 H        3.1900     3.7560     0.2210 H     1 <1>   0.0800 
 27 H        1.8540     6.3200    -0.4060 H     1 <1>   0.4000 
 28 H        6.4060     6.1790     1.9330 H     1 <1>   0.1500 
 29 H        6.4270     8.5680     1.5370 H     1 <1>   0.1500 
 30 H        3.6060     9.2080    -1.9490 H     1 <1>   0.0800 
 31 H        3.0640    10.4700    -0.8660 H     1 <1>   0.0800 
 32 H        1.9270     9.7030    -1.9640 H     1 <1>   0.0800 
 33 H        1.2410     8.1880     1.3780 H     1 <1>   0.0800 
 34 H        0.4970     9.1280     0.1020 H     1 <1>   0.0800 
 35 H        1.7140     9.8560     1.1390 H     1 <1>   0.0800 
@<TRIPOS>BOND
  1   1   2  2   
  2   2   3  1   
  3   2   4  1   
  4   3   5  2   
  5   4   6  2   
  6   4  20  1   
  7   5   7  1   
  8   5   8  1   
  9   6   7  1   
 10   6   9  1   
 11   7  21  1   
 12   8  22  1   
 13   8  23  1   
 14   8  24  1   
 15   9  10  1   
 16   9  25  1   
 17   9  26  1   
 18  10  11  1   
 19  10  27  1   
 20  11  12  ar  
 21  11  13  ar  
 22  12  14  ar  
 23  13  15  ar  
 24  13  16  1   
 25  14  17  ar  
 26  14  28  1   
 27  15  17  ar  
 28  16  18  1   
 29  16  19  1   
 30  17  29  1   
 31  18  30  1   
 32  18  31  1   
 33  18  32  1   
 34  19  33  1   
 35  19  34  1   
 36  19  35  1   
@<TRIPOS>SUBSTRUCTURE
  1 ****  10 GROUP 4 **** **** 0

# MOE 2024.06 (io_trps.svl 2023.06)
