@<TRIPOS>MOLECULE
NONAME
42 44 1 0 0 
SMALL
USER_CHARGES


@<TRIPOS>ATOM
  1 F       -2.2280    -0.2060    -1.6150 F     1 <1>  -0.1900 
  2 C       -2.4590     0.6380    -0.6430 C.ar  1 <1>   0.1900 
  3 C       -2.3740     1.9970    -0.8980 C.ar  1 <1>   0.1900 
  4 C       -2.7840     0.1580     0.6230 C.ar  1 <1>   0.0860 
  5 F       -2.0790     2.4240    -2.0980 F     1 <1>  -0.1900 
  6 C       -2.5970     2.9290     0.0970 C.ar  1 <1>  -0.1500 
  7 C       -2.8900    -1.2520     0.9200 C.2   1 <1>   0.5440 
  8 C       -2.9980     1.1130     1.6210 C.ar  1 <1>  -0.1500 
  9 C       -2.9110     2.4740     1.3680 C.ar  1 <1>  -0.1500 
 10 O       -2.1390    -1.7450     1.7400 O.2   1 <1>  -0.5700 
 11 N       -3.8430    -2.0500     0.3340 N.am  1 <1>  -0.6600 
 12 C       -4.9280    -1.6050    -0.5770 C.3   1 <1>   0.1400 
 13 C       -4.0440    -3.4660     0.7110 C.3   1 <1>   0.1400 
 14 C       -5.9210    -2.7740    -0.6370 C.3   1 <1>   0.2000 
 15 C       -5.0660    -3.9990    -0.2960 C.3   1 <1>  -0.0800 
 16 O       -6.9010    -2.6170     0.3500 O.3   1 <1>  -0.5600 
 17 C       -5.8610    -5.2130     0.2170 C.3   1 <1>   0.0200 
 18 C       -8.0000    -1.8450    -0.0200 C.3   1 <1>   0.0400 
 19 C       -5.0110    -6.4630     0.3720 C.2   1 <1>  -0.0400 
 20 O       -5.5630    -7.5400     0.8660 O.3   1 <1>  -0.0190 
 21 C       -3.7290    -6.7530     0.0980 C.2   1 <1>  -0.1500 
 22 N       -4.7220    -8.5310     0.9390 N.2   1 <1>  -0.4100 
 23 C       -3.6070    -8.0850     0.4840 C.2   1 <1>   0.1080 
 24 C       -2.3390    -8.9020     0.3860 C.3   1 <1>  -0.0590 
 25 H       -2.5250     3.9810    -0.1190 H     1 <1>   0.1500 
 26 H       -3.2350     0.7690     2.6150 H     1 <1>   0.1500 
 27 H       -3.0840     3.1810     2.1630 H     1 <1>   0.1500 
 28 H       -5.3920    -0.7040    -0.2190 H     1 <1>   0.0800 
 29 H       -4.5120    -1.4390    -1.5550 H     1 <1>   0.0800 
 30 H       -3.1130    -4.0050     0.6740 H     1 <1>   0.0800 
 31 H       -4.4400    -3.5030     1.7120 H     1 <1>   0.0800 
 32 H       -6.3950    -2.8700    -1.5990 H     1 <1>   0.0800 
 33 H       -4.5330    -4.2830    -1.1860 H     1 <1>   0.0800 
 34 H       -6.6590    -5.4300    -0.4690 H     1 <1>   0.0800 
 35 H       -6.3060    -4.9810     1.1700 H     1 <1>   0.0800 
 36 H       -8.6670    -1.7900     0.8230 H     1 <1>   0.0800 
 37 H       -8.5040    -2.3160    -0.8460 H     1 <1>   0.0800 
 38 H       -7.6750    -0.8550    -0.2870 H     1 <1>   0.0800 
 39 H       -2.9490    -6.1440    -0.3180 H     1 <1>   0.1500 
 40 H       -1.5650    -8.4450     0.9740 H     1 <1>   0.0800 
 41 H       -2.0210    -8.9610    -0.6390 H     1 <1>   0.0800 
 42 H       -2.5150    -9.8970     0.7540 H     1 <1>   0.0800 
@<TRIPOS>BOND
  1   1   2  1   
  2   2   3  ar  
  3   2   4  ar  
  4   3   5  1   
  5   3   6  ar  
  6   4   7  1   
  7   4   8  ar  
  8   6   9  ar  
  9   6  25  1   
 10   7  10  2   
 11   7  11  am  
 12   8   9  ar  
 13   8  26  1   
 14   9  27  1   
 15  11  12  1   
 16  11  13  1   
 17  12  14  1   
 18  12  28  1   
 19  12  29  1   
 20  13  15  1   
 21  13  30  1   
 22  13  31  1   
 23  14  15  1   
 24  14  16  1   
 25  14  32  1   
 26  15  17  1   
 27  15  33  1   
 28  16  18  1   
 29  17  19  1   
 30  17  34  1   
 31  17  35  1   
 32  18  36  1   
 33  18  37  1   
 34  18  38  1   
 35  19  20  1   
 36  19  21  2   
 37  20  22  1   
 38  21  23  1   
 39  21  39  1   
 40  22  23  2   
 41  23  24  1   
 42  24  40  1   
 43  24  41  1   
 44  24  42  1   
@<TRIPOS>SUBSTRUCTURE
  1 ****  11 GROUP 4 **** **** 0

# MOE 2024.06 (io_trps.svl 2023.06)
