@<TRIPOS>MOLECULE
NONAME
21 22 1 0 0 
SMALL
USER_CHARGES


@<TRIPOS>ATOM
  1 F        0.1870     0.4700    -0.5320 F     1 <1>  -0.1900 
  2 C        0.1100     1.7650    -0.3860 C.ar  1 <1>   0.1900 
  3 C       -1.1020     2.3870    -0.6120 C.ar  1 <1>  -0.1500 
  4 C        1.2470     2.4610    -0.0100 C.ar  1 <1>  -0.1500 
  5 C       -1.1400     3.7580    -0.4460 C.ar  1 <1>   0.1900 
  6 C        1.1760     3.8380     0.1460 C.ar  1 <1>  -0.0320 
  7 F       -2.2700     4.3790    -0.6500 F     1 <1>  -0.1900 
  8 C       -0.0280     4.4930    -0.0710 C.ar  1 <1>  -0.1500 
  9 C        2.3960     4.6370     0.5590 C.3   1 <1>  -0.0680 
 10 C        2.8580     5.7390    -0.3480 C.3   1 <1>  -0.2470 
 11 C        3.7070     4.5130    -0.1570 C.3   1 <1>  -0.2000 
 12 C        3.1620     7.0900     0.2690 C.2   1 <1>   0.9470 
 13 O        2.2090     7.7910     0.6230 O.co2 1 <1>  -0.9000 
 14 O        4.3390     7.4410     0.4010 O.co2 1 <1>  -0.9000 
 15 H       -1.9730     1.8330    -0.9030 H     1 <1>   0.1500 
 16 H        2.1710     1.9400     0.1570 H     1 <1>   0.1500 
 17 H       -0.0910     5.5620     0.0500 H     1 <1>   0.1500 
 18 H        2.4200     4.8460     1.6150 H     1 <1>   0.1000 
 19 H        2.3660     5.8580    -1.2930 H     1 <1>   0.1000 
 20 H        3.8030     3.8330    -0.9840 H     1 <1>   0.1000 
 21 H        4.6260     4.6400     0.3900 H     1 <1>   0.1000 
@<TRIPOS>BOND
  1   1   2  1   
  2   2   3  ar  
  3   2   4  ar  
  4   3   5  ar  
  5   3  15  1   
  6   4   6  ar  
  7   4  16  1   
  8   5   7  1   
  9   5   8  ar  
 10   6   8  ar  
 11   6   9  1   
 12   8  17  1   
 13   9  10  1   
 14   9  11  1   
 15   9  18  1   
 16  10  11  1   
 17  10  12  1   
 18  10  19  1   
 19  11  20  1   
 20  11  21  1   
 21  12  13  ar  
 22  12  14  ar  
@<TRIPOS>SUBSTRUCTURE
  1 ****   6 GROUP 4 **** **** 0

# MOE 2024.06 (io_trps.svl 2023.06)
