@<TRIPOS>MOLECULE
NONAME
53 56 1 0 0 
SMALL
USER_CHARGES


@<TRIPOS>ATOM
  1 O        2.1360    -2.1220     2.3070 O.2   1 <1>  -0.5700 
  2 C        2.3460    -1.9510     1.1390 C.2   1 <1>   0.5690 
  3 N        2.2010    -2.9540     0.2390 N.am  1 <1>  -0.4900 
  4 C        2.8070    -0.5920     0.6460 C.3   1 <1>  -0.0990 
  5 C        2.5320    -2.8950    -1.0740 C.2   1 <1>   0.5690 
  6 C        3.7400    -0.7000    -0.5860 C.3   1 <1>   0.0000 
  7 O        2.4430    -3.8610    -1.7790 O.2   1 <1>  -0.5700 
  8 C        3.0310    -1.5780    -1.6460 C.3   1 <1>  -0.0990 
  9 C        4.0130     0.6990    -1.1780 C.3   1 <1>  -0.1600 
 10 C        5.1000    -1.3370    -0.2060 C.3   1 <1>  -0.1600 
 11 C        4.8520     1.5860    -0.2560 C.3   1 <1>   0.3430 
 12 C        5.9420    -0.4530     0.7140 C.3   1 <1>   0.3430 
 13 N        6.1130     0.8850     0.0940 N.4   1 <1>  -0.9590 
 14 C        7.1120     1.7010     0.8990 C.3   1 <1>   0.4610 
 15 C        7.1100     3.1400     0.3840 C.ar  1 <1>  -0.1440 
 16 C        8.5110     1.0460     0.8340 C.2   1 <1>   0.9060 
 17 C        6.5800     4.1520     1.1420 C.ar  1 <1>  -0.1500 
 18 C        7.6340     3.4380    -0.8840 C.ar  1 <1>  -0.1500 
 19 O        9.2100     0.9840     1.8470 O.co2 1 <1>  -0.9000 
 20 O        8.7850     0.4490    -0.2220 O.co2 1 <1>  -0.9000 
 21 C        6.5280     5.4790     0.6740 C.ar  1 <1>   0.0000 
 22 C        7.5960     4.7160    -1.3640 C.ar  1 <1>  -0.1500 
 23 C        7.0390     5.7670    -0.6090 C.ar  1 <1>   0.0000 
 24 C        5.9830     6.5330     1.4350 C.ar  1 <1>  -0.1500 
 25 C        6.9790     7.0910    -1.0810 C.ar  1 <1>  -0.1500 
 26 C        5.9360     7.8120     0.9530 C.ar  1 <1>  -0.1500 
 27 C        6.4420     8.1000    -0.3290 C.ar  1 <1>   0.0820 
 28 O        6.4280     9.3430    -0.8690 O.3   1 <1>  -0.3630 
 29 C        5.9270    10.4560    -0.1620 C.3   1 <1>   0.0400 
 30 H        1.8730    -3.8510     0.5910 H     1 <1>   0.3700 
 31 H        3.2850    -0.0780     1.4600 H     1 <1>   0.0800 
 32 H        1.9240    -0.0330     0.3890 H     1 <1>   0.0800 
 33 H        2.1790    -1.0590    -2.0450 H     1 <1>   0.0800 
 34 H        3.6940    -1.7880    -2.4670 H     1 <1>   0.0800 
 35 H        3.0840     1.2020    -1.3860 H     1 <1>   0.0800 
 36 H        4.5340     0.6040    -2.1160 H     1 <1>   0.0800 
 37 H        5.6770    -1.5280    -1.0950 H     1 <1>   0.0800 
 38 H        4.9610    -2.2870     0.2790 H     1 <1>   0.0800 
 39 H        4.3010     1.8110     0.6430 H     1 <1>   0.0800 
 40 H        5.0710     2.5150    -0.7580 H     1 <1>   0.0800 
 41 H        6.9090    -0.9140     0.8620 H     1 <1>   0.0800 
 42 H        5.4640    -0.3560     1.6750 H     1 <1>   0.0800 
 43 H        6.6790     0.7100    -0.7580 H     1 <1>   0.4500 
 44 H        6.8210     1.7060     1.9340 H     1 <1>   0.0800 
 45 H        6.1890     3.9560     2.1250 H     1 <1>   0.1500 
 46 H        8.0780     2.6520    -1.4770 H     1 <1>   0.1500 
 47 H        8.0020     4.9440    -2.3340 H     1 <1>   0.1500 
 48 H        5.6010     6.3130     2.4160 H     1 <1>   0.1500 
 49 H        7.3680     7.3120    -2.0580 H     1 <1>   0.1500 
 50 H        5.5140     8.5910     1.5590 H     1 <1>   0.1500 
 51 H        6.0340    11.3240    -0.7870 H     1 <1>   0.0800 
 52 H        6.4990    10.5830     0.7400 H     1 <1>   0.0800 
 53 H        4.8870    10.2910     0.0590 H     1 <1>   0.0800 
@<TRIPOS>BOND
  1   1   2  2   
  2   2   3  am  
  3   2   4  1   
  4   3   5  am  
  5   3  30  1   
  6   4   6  1   
  7   4  31  1   
  8   4  32  1   
  9   5   7  2   
 10   5   8  1   
 11   6   8  1   
 12   6   9  1   
 13   6  10  1   
 14   8  33  1   
 15   8  34  1   
 16   9  11  1   
 17   9  35  1   
 18   9  36  1   
 19  10  12  1   
 20  10  37  1   
 21  10  38  1   
 22  11  13  1   
 23  11  39  1   
 24  11  40  1   
 25  12  13  1   
 26  12  41  1   
 27  12  42  1   
 28  13  14  1   
 29  13  43  1   
 30  14  15  1   
 31  14  16  1   
 32  14  44  1   
 33  15  17  ar  
 34  15  18  ar  
 35  16  19  ar  
 36  16  20  ar  
 37  17  21  ar  
 38  17  45  1   
 39  18  22  ar  
 40  18  46  1   
 41  21  23  ar  
 42  21  24  ar  
 43  22  23  ar  
 44  22  47  1   
 45  23  25  ar  
 46  24  26  ar  
 47  24  48  1   
 48  25  27  ar  
 49  25  49  1   
 50  26  27  ar  
 51  26  50  1   
 52  27  28  1   
 53  28  29  1   
 54  29  51  1   
 55  29  52  1   
 56  29  53  1   
@<TRIPOS>SUBSTRUCTURE
  1 ****  11 GROUP 4 **** **** 0

# MOE 2024.06 (io_trps.svl 2023.06)
