@<TRIPOS>MOLECULE
NONAME
48 50 1 0 0 
SMALL
USER_CHARGES


@<TRIPOS>ATOM
  1 S       -0.8890    -0.9240     1.0580 S.3   1 <1>  -0.0800 
  2 C       -2.5030    -1.1100     0.3630 C.2   1 <1>  -0.0450 
  3 C       -0.4580    -2.5790     0.6870 C.2   1 <1>  -0.1100 
  4 C       -3.4060     0.0150     0.3850 C.2   1 <1>   0.7150 
  5 C       -2.6260    -2.3780    -0.1100 C.2   1 <1>  -0.1500 
  6 C       -1.4790    -3.2050     0.0750 C.2   1 <1>  -0.1500 
  7 O       -2.9800     1.1500     0.2640 O.2   1 <1>  -0.5700 
  8 N       -4.7680    -0.1820     0.5640 N.am  1 <1>  -0.4770 
  9 C       -5.7480     0.5890    -0.0850 C.ar  1 <1>   0.1170 
 10 C       -5.2320    -1.2700     1.4650 C.3   1 <1>   0.0600 
 11 C       -6.6270     0.0290    -1.0290 C.ar  1 <1>   0.0860 
 12 C       -5.8540     1.9450     0.2170 C.ar  1 <1>  -0.1500 
 13 C       -6.5920    -1.3760    -1.3710 C.2   1 <1>   0.5440 
 14 C       -7.5640     0.8620    -1.6440 C.ar  1 <1>  -0.1500 
 15 C       -6.7960     2.7470    -0.3950 C.ar  1 <1>  -0.1500 
 16 O       -5.6050    -1.8460    -1.9070 O.2   1 <1>  -0.5700 
 17 N       -7.6560    -2.2160    -1.0950 N.am  1 <1>  -0.6600 
 18 C       -7.6550     2.2040    -1.3330 C.ar  1 <1>  -0.1500 
 19 C       -7.7190    -3.6130    -1.6310 C.3   1 <1>   0.1400 
 20 C       -8.8050    -1.8440    -0.2240 C.3   1 <1>   0.1400 
 21 C       -7.8410    -4.6220    -0.4800 C.3   1 <1>   0.2000 
 22 C       -8.9100    -2.8300     0.9450 C.3   1 <1>  -0.1600 
 23 O       -8.0180    -5.8950    -1.0030 O.3   1 <1>  -0.6800 
 24 C       -9.0150    -4.2950     0.4650 C.3   1 <1>  -0.0800 
 25 C       -9.0510    -5.2910     1.6370 C.3   1 <1>   0.1200 
 26 O      -10.1250    -5.0070     2.4650 O.3   1 <1>  -0.6800 
 27 H        0.5260    -2.9110     0.9660 H     1 <1>   0.1500 
 28 H       -3.5030    -2.7590    -0.6060 H     1 <1>   0.1500 
 29 H       -1.4720    -4.2270    -0.2620 H     1 <1>   0.1500 
 30 H       -6.1860    -1.0100     1.8890 H     1 <1>   0.0800 
 31 H       -4.5270    -1.4140     2.2650 H     1 <1>   0.0800 
 32 H       -5.3300    -2.1880     0.9120 H     1 <1>   0.0800 
 33 H       -5.1790     2.3730     0.9370 H     1 <1>   0.1500 
 34 H       -8.2270     0.4420    -2.3800 H     1 <1>   0.1500 
 35 H       -6.8550     3.7940    -0.1490 H     1 <1>   0.1500 
 36 H       -8.3840     2.8290    -1.8190 H     1 <1>   0.1500 
 37 H       -8.5740    -3.6910    -2.2770 H     1 <1>   0.0800 
 38 H       -6.8380    -3.8410    -2.2050 H     1 <1>   0.0800 
 39 H       -8.6880    -0.8480     0.1670 H     1 <1>   0.0800 
 40 H       -9.7100    -1.8690    -0.8070 H     1 <1>   0.0800 
 41 H       -6.9140    -4.6310     0.0680 H     1 <1>   0.0800 
 42 H       -8.0490    -2.7130     1.5790 H     1 <1>   0.0800 
 43 H       -9.7800    -2.5720     1.5210 H     1 <1>   0.0800 
 44 H       -8.8760    -5.9660    -1.4630 H     1 <1>   0.4000 
 45 H       -9.9300    -4.3990    -0.0930 H     1 <1>   0.0800 
 46 H       -8.1480    -5.2430     2.2210 H     1 <1>   0.0800 
 47 H       -9.1790    -6.2990     1.2770 H     1 <1>   0.0800 
 48 H       -9.9860    -4.1660     2.9400 H     1 <1>   0.4000 
@<TRIPOS>BOND
  1   1   2  1   
  2   1   3  1   
  3   2   4  1   
  4   2   5  2   
  5   3   6  2   
  6   3  27  1   
  7   4   7  2   
  8   4   8  am  
  9   5   6  1   
 10   5  28  1   
 11   6  29  1   
 12   8   9  1   
 13   8  10  1   
 14   9  11  ar  
 15   9  12  ar  
 16  10  30  1   
 17  10  31  1   
 18  10  32  1   
 19  11  13  1   
 20  11  14  ar  
 21  12  15  ar  
 22  12  33  1   
 23  13  16  2   
 24  13  17  am  
 25  14  18  ar  
 26  14  34  1   
 27  15  18  ar  
 28  15  35  1   
 29  17  19  1   
 30  17  20  1   
 31  18  36  1   
 32  19  21  1   
 33  19  37  1   
 34  19  38  1   
 35  20  22  1   
 36  20  39  1   
 37  20  40  1   
 38  21  23  1   
 39  21  24  1   
 40  21  41  1   
 41  22  24  1   
 42  22  42  1   
 43  22  43  1   
 44  23  44  1   
 45  24  25  1   
 46  24  45  1   
 47  25  26  1   
 48  25  46  1   
 49  25  47  1   
 50  26  48  1   
@<TRIPOS>SUBSTRUCTURE
  1 ****  13 GROUP 4 **** **** 0

# MOE 2024.06 (io_trps.svl 2023.06)
