@<TRIPOS>MOLECULE
NONAME
42 44 1 0 0 
SMALL
USER_CHARGES


@<TRIPOS>ATOM
  1 CL      -1.0370     1.1320    -1.4030 Cl    1 <1>  -0.1770 
  2 C        0.0540     2.4970    -1.3220 C.ar  1 <1>   0.1770 
  3 C        0.8880     2.6950    -0.2240 C.ar  1 <1>  -0.1440 
  4 C        0.0500     3.3600    -2.3990 C.ar  1 <1>  -0.1500 
  5 C        1.7680     3.7840    -0.2230 C.ar  1 <1>  -0.0090 
  6 C        0.8430     1.7330     0.9650 C.3   1 <1>  -0.0970 
  7 C        0.8950     4.4500    -2.3930 C.ar  1 <1>  -0.1500 
  8 S        2.9230     4.1070     1.1540 S.o2  1 <1>   1.4470 
  9 C        1.7360     4.6530    -1.3150 C.ar  1 <1>  -0.1500 
 10 O        3.6320     2.9030     1.5340 O.2   1 <1>  -0.6500 
 11 O        2.2380     4.8600     2.1810 O.2   1 <1>  -0.6500 
 12 N        4.1010     5.1270     0.4820 N.am  1 <1>  -0.8490 
 13 C        4.6660     6.0690     1.4680 C.3   1 <1>   0.1960 
 14 C        5.0950     4.4020    -0.3210 C.3   1 <1>   0.1960 
 15 C        5.7060     7.0700     0.9120 C.3   1 <1>   0.2200 
 16 C        5.8500     5.2760    -1.3450 C.3   1 <1>  -0.0190 
 17 N        5.3050     7.5460    -0.4530 N.am  1 <1>  -0.6600 
 18 C        7.1460     6.4920     0.9840 C.3   1 <1>   0.1200 
 19 C        5.2810     6.6770    -1.5130 C.2   1 <1>   0.5690 
 20 C        7.3670     5.3140    -1.0860 C.3   1 <1>   0.1200 
 21 C        4.8340     8.9510    -0.5630 C.3   1 <1>   0.0600 
 22 O        7.7700     6.3640    -0.2590 O.3   1 <1>  -0.5600 
 23 O        4.8140     6.9730    -2.5890 O.2   1 <1>  -0.5700 
 24 H       -0.6090     3.1780    -3.2290 H     1 <1>   0.1500 
 25 H        0.9030     2.2680     1.8960 H     1 <1>   0.0800 
 26 H        1.6650     1.0420     0.9090 H     1 <1>   0.0800 
 27 H       -0.0700     1.1680     0.9950 H     1 <1>   0.0800 
 28 H        0.9030     5.1390    -3.2210 H     1 <1>   0.1500 
 29 H        2.3800     5.5180    -1.3360 H     1 <1>   0.1500 
 30 H        3.8580     6.6590     1.8670 H     1 <1>   0.0800 
 31 H        5.0870     5.5210     2.2950 H     1 <1>   0.0800 
 32 H        5.7840     3.8960     0.3340 H     1 <1>   0.0800 
 33 H        4.5830     3.6360    -0.8810 H     1 <1>   0.0800 
 34 H        5.6950     7.9140     1.5800 H     1 <1>   0.0800 
 35 H        5.7350     4.7780    -2.2900 H     1 <1>   0.0800 
 36 H        7.1710     5.5380     1.4810 H     1 <1>   0.0800 
 37 H        7.7530     7.1680     1.5600 H     1 <1>   0.0800 
 38 H        7.8750     5.4660    -2.0240 H     1 <1>   0.0800 
 39 H        7.7210     4.3900    -0.6630 H     1 <1>   0.0800 
 40 H        5.6090     9.6210    -0.2350 H     1 <1>   0.0800 
 41 H        3.9560     9.0900     0.0430 H     1 <1>   0.0800 
 42 H        4.5880     9.1890    -1.5840 H     1 <1>   0.0800 
@<TRIPOS>BOND
  1   1   2  1   
  2   2   3  ar  
  3   2   4  ar  
  4   3   5  ar  
  5   3   6  1   
  6   4   7  ar  
  7   4  24  1   
  8   5   8  1   
  9   5   9  ar  
 10   6  25  1   
 11   6  26  1   
 12   6  27  1   
 13   7   9  ar  
 14   7  28  1   
 15   8  10  2   
 16   8  11  2   
 17   8  12  am  
 18   9  29  1   
 19  12  13  1   
 20  12  14  1   
 21  13  15  1   
 22  13  30  1   
 23  13  31  1   
 24  14  16  1   
 25  14  32  1   
 26  14  33  1   
 27  15  17  1   
 28  15  18  1   
 29  15  34  1   
 30  16  19  1   
 31  16  20  1   
 32  16  35  1   
 33  17  19  am  
 34  17  21  1   
 35  18  22  1   
 36  18  36  1   
 37  18  37  1   
 38  19  23  2   
 39  20  22  1   
 40  20  38  1   
 41  20  39  1   
 42  21  40  1   
 43  21  41  1   
 44  21  42  1   
@<TRIPOS>SUBSTRUCTURE
  1 ****  12 GROUP 4 **** **** 0

# MOE 2024.06 (io_trps.svl 2023.06)
