@<TRIPOS>MOLECULE
NONAME
48 51 1 0 0 
SMALL
USER_CHARGES


@<TRIPOS>ATOM
  1 S       -0.1600    -0.0490     0.0740 S.3   1 <1>  -0.1120 
  2 C       -1.0850     1.4960     0.1450 C.2   1 <1>   0.2420 
  3 C       -1.2750    -1.3830     0.5460 C.2   1 <1>   0.1960 
  4 N       -2.3510     1.6020     0.3510 N.2   1 <1>  -0.3380 
  5 N       -0.4820     2.6720    -0.0320 N.pl3 1 <1>   0.0480 
  6 O       -0.8440    -2.6070     0.3180 O.3   1 <1>  -0.2800 
  7 C       -2.4980    -1.3850     1.1150 C.2   1 <1>  -0.1500 
  8 N       -2.6220     2.9110     0.3180 N.2   1 <1>  -0.3380 
  9 C       -1.5070     3.5210     0.0900 C.2   1 <1>   0.0360 
 10 C        0.9390     2.9660    -0.2950 C.3   1 <1>   0.0160 
 11 C       -1.7900    -3.4330     0.7260 C.2   1 <1>  -0.0400 
 12 C       -2.8390    -2.7390     1.2320 C.2   1 <1>  -0.1500 
 13 C       -1.5310    -4.9200     0.5530 C.3   1 <1>   0.5230 
 14 N       -2.8110    -5.6800     0.5290 N.4   1 <1>  -0.9590 
 15 C       -3.7200    -5.3260    -0.5970 C.3   1 <1>   0.3430 
 16 C       -2.6580    -7.1630     0.4890 C.3   1 <1>   0.3430 
 17 C       -4.7090    -6.4910    -0.6320 C.3   1 <1>   0.2000 
 18 C       -3.7960    -7.6990    -0.3970 C.3   1 <1>  -0.0800 
 19 O       -5.5710    -6.3410     0.4510 O.3   1 <1>  -0.6800 
 20 C       -4.4740    -8.9600     0.1760 C.3   1 <1>   0.0200 
 21 C       -3.4820   -10.1020     0.2830 C.2   1 <1>  -0.0400 
 22 O       -2.4670   -10.0090     1.1000 O.3   1 <1>  -0.0190 
 23 C       -3.4040   -11.2910    -0.3340 C.2   1 <1>  -0.1500 
 24 N       -1.7060   -11.0590     1.0520 N.2   1 <1>  -0.4100 
 25 C       -2.2490   -11.8550     0.2020 C.2   1 <1>   0.1080 
 26 C       -1.6990   -13.2180    -0.1600 C.3   1 <1>  -0.0590 
 27 H       -3.1100    -0.5580     1.4290 H     1 <1>   0.1500 
 28 H       -1.4010     4.5880     0.0060 H     1 <1>   0.1500 
 29 H        1.0800     4.0290    -0.3780 H     1 <1>   0.0800 
 30 H        1.2370     2.4920    -1.2120 H     1 <1>   0.0800 
 31 H        1.5370     2.5880     0.5150 H     1 <1>   0.0800 
 32 H       -3.7660    -3.0870     1.6540 H     1 <1>   0.1500 
 33 H       -0.9040    -5.2630     1.3600 H     1 <1>   0.0800 
 34 H       -1.0020    -5.0740    -0.3730 H     1 <1>   0.0800 
 35 H       -3.3420    -5.4580     1.3830 H     1 <1>   0.4500 
 36 H       -4.2240    -4.3870    -0.4360 H     1 <1>   0.0800 
 37 H       -3.1690    -5.2870    -1.5220 H     1 <1>   0.0800 
 38 H       -1.7050    -7.4480     0.0710 H     1 <1>   0.0800 
 39 H       -2.7330    -7.5670     1.4860 H     1 <1>   0.0800 
 40 H       -5.2800    -6.5330    -1.5440 H     1 <1>   0.0800 
 41 H       -3.3560    -7.9670    -1.3420 H     1 <1>   0.0800 
 42 H       -6.3840    -6.8790     0.3410 H     1 <1>   0.4000 
 43 H       -5.2820    -9.2620    -0.4680 H     1 <1>   0.0800 
 44 H       -4.8810    -8.7690     1.1540 H     1 <1>   0.0800 
 45 H       -4.0490   -11.7400    -1.0670 H     1 <1>   0.1500 
 46 H       -2.4260   -13.9760     0.0650 H     1 <1>   0.0800 
 47 H       -0.8050   -13.4160     0.4040 H     1 <1>   0.0800 
 48 H       -1.4630   -13.2520    -1.2080 H     1 <1>   0.0800 
@<TRIPOS>BOND
  1   1   2  1   
  2   1   3  1   
  3   2   4  2   
  4   2   5  1   
  5   3   6  1   
  6   3   7  2   
  7   4   8  1   
  8   5   9  1   
  9   5  10  1   
 10   6  11  1   
 11   7  12  1   
 12   7  27  1   
 13   8   9  2   
 14   9  28  1   
 15  10  29  1   
 16  10  30  1   
 17  10  31  1   
 18  11  12  2   
 19  11  13  1   
 20  12  32  1   
 21  13  14  1   
 22  13  33  1   
 23  13  34  1   
 24  14  15  1   
 25  14  16  1   
 26  14  35  1   
 27  15  17  1   
 28  15  36  1   
 29  15  37  1   
 30  16  18  1   
 31  16  38  1   
 32  16  39  1   
 33  17  18  1   
 34  17  19  1   
 35  17  40  1   
 36  18  20  1   
 37  18  41  1   
 38  19  42  1   
 39  20  21  1   
 40  20  43  1   
 41  20  44  1   
 42  21  22  1   
 43  21  23  2   
 44  22  24  1   
 45  23  25  1   
 46  23  45  1   
 47  24  25  2   
 48  25  26  1   
 49  26  46  1   
 50  26  47  1   
 51  26  48  1   
@<TRIPOS>SUBSTRUCTURE
  1 ****  13 GROUP 4 **** **** 0

# MOE 2024.06 (io_trps.svl 2023.06)
