@<TRIPOS>MOLECULE
NONAME
44 47 1 0 0 
SMALL
USER_CHARGES


@<TRIPOS>ATOM
  1 O       -1.4750     0.3130    -2.2370 O.2   1 <1>  -0.5700 
  2 C       -2.0480     0.8930    -1.3330 C.2   1 <1>   0.4690 
  3 C       -2.8130     0.2060    -0.3300 C.ar  1 <1>   0.0860 
  4 C       -1.9740     2.3040    -1.2310 C.2   1 <1>  -0.1360 
  5 C       -3.4180     0.9670     0.6750 C.ar  1 <1>   0.0830 
  6 C       -2.9870    -1.1800    -0.3010 C.ar  1 <1>  -0.1500 
  7 C       -2.5750     2.9960    -0.2260 C.2   1 <1>   0.0910 
  8 O       -3.2810     2.3100     0.6960 O.3   1 <1>  -0.1590 
  9 C       -4.1710     0.3600     1.6710 C.ar  1 <1>  -0.1500 
 10 C       -3.7350    -1.7820     0.6920 C.ar  1 <1>  -0.1500 
 11 C       -2.5330     4.4330    -0.0410 C.2   1 <1>   0.6160 
 12 C       -4.3290    -1.0110     1.6810 C.ar  1 <1>  -0.1500 
 13 O       -3.3780     4.9980     0.6270 O.2   1 <1>  -0.5700 
 14 N       -1.5170     5.1640    -0.6140 N.am  1 <1>  -0.4940 
 15 C       -1.3670     6.5700    -0.6840 C.2   1 <1>  -0.0880 
 16 N       -0.2190     7.2480    -0.4020 N.pl3 1 <1>   0.3140 
 17 C       -2.2820     7.5040    -1.0410 C.2   1 <1>  -0.1810 
 18 N       -0.3770     8.5820    -0.5930 N.2   1 <1>  -0.7070 
 19 C        1.0560     6.6570     0.1000 C.3   1 <1>   0.1760 
 20 C       -1.6110     8.7180    -0.9630 C.2   1 <1>   0.1390 
 21 C       -3.7330     7.3270    -1.4470 C.3   1 <1>  -0.0590 
 22 C        1.5680     7.3080     1.3860 C.3   1 <1>  -0.1600 
 23 C        2.2190     6.8130    -0.8830 C.3   1 <1>  -0.1600 
 24 C        3.0480     6.9320     1.4320 C.3   1 <1>  -0.1600 
 25 C        3.4930     6.7890    -0.0290 C.3   1 <1>  -0.1600 
 26 H       -1.4160     2.7870    -2.0110 H     1 <1>   0.1500 
 27 H       -2.5270    -1.7800    -1.0680 H     1 <1>   0.1500 
 28 H       -4.6280     0.9670     2.4330 H     1 <1>   0.1500 
 29 H       -3.8600    -2.8520     0.7010 H     1 <1>   0.1500 
 30 H       -4.9120    -1.4850     2.4520 H     1 <1>   0.1500 
 31 H       -0.7580     4.6200    -1.0180 H     1 <1>   0.3700 
 32 H        0.9040     5.6130     0.2950 H     1 <1>   0.0800 
 33 H       -2.0560     9.6740    -1.1840 H     1 <1>   0.1500 
 34 H       -3.9010     6.3310    -1.8140 H     1 <1>   0.0800 
 35 H       -3.9930     8.0280    -2.2190 H     1 <1>   0.0800 
 36 H       -4.3680     7.4900    -0.5940 H     1 <1>   0.0800 
 37 H        1.0340     6.9600     2.2530 H     1 <1>   0.0800 
 38 H        1.4810     8.3790     1.3150 H     1 <1>   0.0800 
 39 H        2.1490     7.7690    -1.3760 H     1 <1>   0.0800 
 40 H        2.2200     6.0310    -1.6210 H     1 <1>   0.0800 
 41 H        3.1630     5.9870     1.9360 H     1 <1>   0.0800 
 42 H        3.6260     7.6750     1.9550 H     1 <1>   0.0800 
 43 H        4.1370     7.6050    -0.3080 H     1 <1>   0.0800 
 44 H        4.0290     5.8650    -0.1640 H     1 <1>   0.0800 
@<TRIPOS>BOND
  1   1   2  2   
  2   2   3  1   
  3   2   4  1   
  4   3   5  ar  
  5   3   6  ar  
  6   4   7  2   
  7   4  26  1   
  8   5   8  1   
  9   5   9  ar  
 10   6  10  ar  
 11   6  27  1   
 12   7   8  1   
 13   7  11  1   
 14   9  12  ar  
 15   9  28  1   
 16  10  12  ar  
 17  10  29  1   
 18  11  13  2   
 19  11  14  am  
 20  12  30  1   
 21  14  15  1   
 22  14  31  1   
 23  15  16  1   
 24  15  17  2   
 25  16  18  1   
 26  16  19  1   
 27  17  20  1   
 28  17  21  1   
 29  18  20  2   
 30  19  22  1   
 31  19  23  1   
 32  19  32  1   
 33  20  33  1   
 34  21  34  1   
 35  21  35  1   
 36  21  36  1   
 37  22  24  1   
 38  22  37  1   
 39  22  38  1   
 40  23  25  1   
 41  23  39  1   
 42  23  40  1   
 43  24  25  1   
 44  24  41  1   
 45  24  42  1   
 46  25  43  1   
 47  25  44  1   
@<TRIPOS>SUBSTRUCTURE
  1 ****  11 GROUP 4 **** **** 0

# MOE 2024.06 (io_trps.svl 2023.06)
