@<TRIPOS>MOLECULE
NONAME
60 62 1 0 0 
SMALL
USER_CHARGES


@<TRIPOS>ATOM
  1 O        1.7270     1.2320    -0.0350 O.3   1 <1>  -0.5600 
  2 C        0.7310     1.6500     0.8490 C.3   1 <1>   0.1200 
  3 C        1.8360     2.0130    -1.1910 C.3   1 <1>   0.1200 
  4 C        1.0120     3.0840     1.3350 C.3   1 <1>   0.2090 
  5 C        2.1720     3.4720    -0.8320 C.3   1 <1>   0.2090 
  6 N        1.2010     4.0260     0.1750 N.pl3 1 <1>  -0.8380 
  7 C        0.7940     5.3230     0.1240 C.ar  1 <1>   0.7710 
  8 N        1.5410     6.2140    -0.4910 N.ar  1 <1>  -0.6200 
  9 N       -0.3790     5.6430     0.7050 N.ar  1 <1>  -0.1790 
 10 C        1.1060     7.4720    -0.5180 C.ar  1 <1>   0.4100 
 11 C       -0.8510     6.8990     0.7140 C.ar  1 <1>   0.4610 
 12 N        1.8900     8.3810    -1.1640 N.pl3 1 <1>  -0.8380 
 13 C       -0.0850     7.8450     0.0860 C.ar  1 <1>  -0.1500 
 14 N       -2.0330     7.1690     1.3190 N.pl3 1 <1>  -0.9000 
 15 C        2.1700     9.7560    -0.6040 C.3   1 <1>   0.2090 
 16 C        2.7610     8.0020    -2.3390 C.3   1 <1>   0.2090 
 17 C        3.6390    10.2140    -0.8520 C.3   1 <1>   0.4230 
 18 C        4.2790     8.1620    -2.0500 C.3   1 <1>   0.3430 
 19 N        4.5830     9.0490    -0.8700 N.4   1 <1>  -0.9590 
 20 C        4.1210    11.2960     0.1300 C.3   1 <1>  -0.1600 
 21 C        4.5620     8.2450     0.3890 C.3   1 <1>   0.3430 
 22 C        5.3980    12.0240    -0.3180 C.3   1 <1>   0.1200 
 23 C        5.9800     7.8390     0.8260 C.3   1 <1>  -0.0800 
 24 O        6.4040    11.1060    -0.5790 O.3   1 <1>  -0.6800 
 25 C        6.7380     7.0020    -0.2180 C.3   1 <1>  -0.2400 
 26 C        5.8980     7.0510     2.1400 C.3   1 <1>  -0.2400 
 27 H        0.7300     0.9670     1.6810 H     1 <1>   0.0800 
 28 H       -0.2200     1.5870     0.3500 H     1 <1>   0.0800 
 29 H        0.9090     1.9550    -1.7350 H     1 <1>   0.0800 
 30 H        2.6170     1.5900    -1.7980 H     1 <1>   0.0800 
 31 H        1.9150     3.0660     1.9240 H     1 <1>   0.0800 
 32 H        0.2130     3.4020     1.9780 H     1 <1>   0.0800 
 33 H        2.1590     4.0600    -1.7350 H     1 <1>   0.0800 
 34 H        3.1690     3.5100    -0.4270 H     1 <1>   0.0800 
 35 H       -0.9280     4.8790     1.0660 H     1 <1>   0.4570 
 36 H       -0.4120     8.8660     0.0430 H     1 <1>   0.1500 
 37 H       -2.4400     8.1150     1.3190 H     1 <1>   0.4000 
 38 H       -2.6430     6.5020     1.8070 H     1 <1>   0.4000 
 39 H        1.9780     9.7530     0.4550 H     1 <1>   0.0800 
 40 H        1.5010    10.4690    -1.0550 H     1 <1>   0.0800 
 41 H        2.5020     8.6370    -3.1700 H     1 <1>   0.0800 
 42 H        2.5640     6.9920    -2.6550 H     1 <1>   0.0800 
 43 H        3.6570    10.6620    -1.8320 H     1 <1>   0.0800 
 44 H        4.7520     8.5600    -2.9330 H     1 <1>   0.0800 
 45 H        4.7010     7.1860    -1.8800 H     1 <1>   0.0800 
 46 H        5.5300     9.4740    -0.9400 H     1 <1>   0.4500 
 47 H        4.2630    10.8940     1.1170 H     1 <1>   0.0800 
 48 H        3.3510    12.0420     0.2140 H     1 <1>   0.0800 
 49 H        3.9540     7.3650     0.2510 H     1 <1>   0.0800 
 50 H        4.1210     8.8210     1.1830 H     1 <1>   0.0800 
 51 H        5.7410    12.6890     0.4580 H     1 <1>   0.0800 
 52 H        5.2250    12.5950    -1.2160 H     1 <1>   0.0800 
 53 H        6.5430     8.7370     1.0220 H     1 <1>   0.0800 
 54 H        7.2620    11.5720    -0.7010 H     1 <1>   0.4000 
 55 H        6.1900     6.1100    -0.4680 H     1 <1>   0.0800 
 56 H        7.6970     6.7060     0.1730 H     1 <1>   0.0800 
 57 H        6.9200     7.5690    -1.1130 H     1 <1>   0.0800 
 58 H        5.3520     6.1330     2.0060 H     1 <1>   0.0800 
 59 H        5.4130     7.6330     2.9040 H     1 <1>   0.0800 
 60 H        6.8870     6.8070     2.4910 H     1 <1>   0.0800 
@<TRIPOS>BOND
  1   1   2  1   
  2   1   3  1   
  3   2   4  1   
  4   2  27  1   
  5   2  28  1   
  6   3   5  1   
  7   3  29  1   
  8   3  30  1   
  9   4   6  1   
 10   4  31  1   
 11   4  32  1   
 12   5   6  1   
 13   5  33  1   
 14   5  34  1   
 15   6   7  1   
 16   7   8  ar  
 17   7   9  ar  
 18   8  10  ar  
 19   9  11  ar  
 20   9  35  1   
 21  10  12  1   
 22  10  13  ar  
 23  11  13  ar  
 24  11  14  1   
 25  12  15  1   
 26  12  16  1   
 27  13  36  1   
 28  14  37  1   
 29  14  38  1   
 30  15  17  1   
 31  15  39  1   
 32  15  40  1   
 33  16  18  1   
 34  16  41  1   
 35  16  42  1   
 36  17  19  1   
 37  17  20  1   
 38  17  43  1   
 39  18  19  1   
 40  18  44  1   
 41  18  45  1   
 42  19  21  1   
 43  19  46  1   
 44  20  22  1   
 45  20  47  1   
 46  20  48  1   
 47  21  23  1   
 48  21  49  1   
 49  21  50  1   
 50  22  24  1   
 51  22  51  1   
 52  22  52  1   
 53  23  25  1   
 54  23  26  1   
 55  23  53  1   
 56  24  54  1   
 57  25  55  1   
 58  25  56  1   
 59  25  57  1   
 60  26  58  1   
 61  26  59  1   
 62  26  60  1   
@<TRIPOS>SUBSTRUCTURE
  1 ****   8 GROUP 4 **** **** 0

# MOE 2024.06 (io_trps.svl 2023.06)
