@<TRIPOS>MOLECULE
NONAME
50 52 1 0 0 
SMALL
USER_CHARGES


@<TRIPOS>ATOM
  1 O       -1.3490     0.5550     1.7600 O.2   1 <1>  -0.5700 
  2 C       -1.6350     1.6320     1.2650 C.2   1 <1>   0.5440 
  3 N       -2.9700     1.9620     1.1230 N.am  1 <1>  -0.6600 
  4 C       -0.5830     2.5240     0.8470 C.ar  1 <1>   0.0860 
  5 C       -4.0300     1.1220     1.7550 C.3   1 <1>   0.1400 
  6 C       -3.4440     3.0000     0.1750 C.3   1 <1>   0.1400 
  7 C        0.3070     2.1570    -0.1770 C.ar  1 <1>   0.4100 
  8 C       -0.4280     3.7730     1.4320 C.ar  1 <1>  -0.1500 
  9 C       -4.4830    -0.0110     0.8240 C.3   1 <1>   0.1400 
 10 C       -4.1220     2.3650    -1.0390 C.3   1 <1>  -0.1600 
 11 N        1.2710     2.9550    -0.6370 N.ar  1 <1>  -0.6200 
 12 N        0.2120     0.9160    -0.7670 N.pl3 1 <1>  -0.8690 
 13 C        0.5760     4.5890     0.9640 C.ar  1 <1>  -0.1500 
 14 N       -5.4800     0.3840    -0.2280 N.am  1 <1>  -0.6600 
 15 C       -5.5090     1.7940    -0.7260 C.3   1 <1>   0.1400 
 16 C        1.3850     4.1350    -0.0620 C.ar  1 <1>   0.1600 
 17 C        1.2150     0.3640    -1.7100 C.3   1 <1>   0.1290 
 18 C       -6.4370    -0.5230    -0.6730 C.2   1 <1>   0.7160 
 19 O       -7.4280    -0.0610    -1.2230 O.2   1 <1>  -0.5700 
 20 C       -6.3440    -1.9770    -0.5110 C.2   1 <1>   0.2030 
 21 N       -5.2900    -2.6980    -0.1620 N.2   1 <1>  -0.7070 
 22 C       -7.4340    -2.8300    -0.7320 C.2   1 <1>  -0.1500 
 23 N       -5.6950    -3.9720    -0.1620 N.pl3 1 <1>   0.3140 
 24 C       -6.9950    -4.0820    -0.5030 C.2   1 <1>  -0.3320 
 25 C       -4.7750    -5.0640     0.1780 C.3   1 <1>   0.0160 
 26 C       -7.7660    -5.3870    -0.5990 C.3   1 <1>  -0.0600 
 27 H       -4.8700     1.7260     2.0460 H     1 <1>   0.0800 
 28 H       -3.6280     0.6800     2.6500 H     1 <1>   0.0800 
 29 H       -2.6180     3.5940    -0.1740 H     1 <1>   0.0800 
 30 H       -4.1270     3.6600     0.6820 H     1 <1>   0.0800 
 31 H       -1.0810     4.0850     2.2290 H     1 <1>   0.1500 
 32 H       -4.9310    -0.7630     1.4490 H     1 <1>   0.0800 
 33 H       -3.6220    -0.4560     0.3550 H     1 <1>   0.0800 
 34 H       -3.4910     1.6170    -1.4870 H     1 <1>   0.0800 
 35 H       -4.2560     3.1440    -1.7670 H     1 <1>   0.0800 
 36 H       -0.2910     0.2140    -0.2050 H     1 <1>   0.4000 
 37 H        0.7360     5.5650     1.3860 H     1 <1>   0.1500 
 38 H       -6.0800     1.8310    -1.6380 H     1 <1>   0.0800 
 39 H       -6.0190     2.4140    -0.0080 H     1 <1>   0.0800 
 40 H        2.1680     4.7790    -0.4270 H     1 <1>   0.1500 
 41 H        1.4410     1.0890    -2.4730 H     1 <1>   0.0800 
 42 H        0.8260    -0.5240    -2.1780 H     1 <1>   0.0800 
 43 H        2.1190     0.1220    -1.1780 H     1 <1>   0.0800 
 44 H       -8.4150    -2.5030    -1.0300 H     1 <1>   0.1500 
 45 H       -3.8060    -4.6540     0.3940 H     1 <1>   0.0800 
 46 H       -4.7030    -5.7350    -0.6570 H     1 <1>   0.0800 
 47 H       -5.1470    -5.5840     1.0400 H     1 <1>   0.0800 
 48 H       -8.7840    -5.1940    -0.8900 H     1 <1>   0.0800 
 49 H       -7.7730    -5.8880     0.3530 H     1 <1>   0.0800 
 50 H       -7.3180    -6.0320    -1.3340 H     1 <1>   0.0800 
@<TRIPOS>BOND
  1   1   2  2   
  2   2   3  am  
  3   2   4  1   
  4   3   5  1   
  5   3   6  1   
  6   4   7  ar  
  7   4   8  ar  
  8   5   9  1   
  9   5  27  1   
 10   5  28  1   
 11   6  10  1   
 12   6  29  1   
 13   6  30  1   
 14   7  11  ar  
 15   7  12  1   
 16   8  13  ar  
 17   8  31  1   
 18   9  14  1   
 19   9  32  1   
 20   9  33  1   
 21  10  15  1   
 22  10  34  1   
 23  10  35  1   
 24  11  16  ar  
 25  12  17  1   
 26  12  36  1   
 27  13  16  ar  
 28  13  37  1   
 29  14  15  1   
 30  14  18  am  
 31  15  38  1   
 32  15  39  1   
 33  16  40  1   
 34  17  41  1   
 35  17  42  1   
 36  17  43  1   
 37  18  19  2   
 38  18  20  1   
 39  20  21  2   
 40  20  22  1   
 41  21  23  1   
 42  22  24  2   
 43  22  44  1   
 44  23  24  1   
 45  23  25  1   
 46  24  26  1   
 47  25  45  1   
 48  25  46  1   
 49  25  47  1   
 50  26  48  1   
 51  26  49  1   
 52  26  50  1   
@<TRIPOS>SUBSTRUCTURE
  1 ****   9 GROUP 4 **** **** 0

# MOE 2024.06 (io_trps.svl 2023.06)
