@<TRIPOS>MOLECULE
NONAME
50 53 1 0 0 
SMALL
USER_CHARGES


@<TRIPOS>ATOM
  1 O       -0.8970     0.9570    -1.6860 O.2   1 <1>  -0.5700 
  2 C       -0.5520     1.8740    -0.9770 C.2   1 <1>   0.5690 
  3 N       -1.3950     2.8940    -0.6160 N.am  1 <1>  -0.5090 
  4 C        0.9070     1.8890    -0.5090 C.3   1 <1>   0.1810 
  5 C       -0.8930     4.0800     0.1470 C.3   1 <1>   0.3640 
  6 C       -2.8500     2.8710    -0.9100 C.3   1 <1>   0.0490 
  7 O        1.1670     2.8260     0.5090 O.3   1 <1>  -0.5600 
  8 C       -1.3760     5.3840    -0.4880 C.ar  1 <1>  -0.1440 
  9 C        0.6490     4.1120     0.2420 C.3   1 <1>   0.2610 
 10 C       -3.8170     2.9720     0.2300 C.3   1 <1>  -0.2000 
 11 C       -3.6650     1.6820    -0.5090 C.3   1 <1>  -0.2000 
 12 C       -1.9220     6.3770     0.3150 C.ar  1 <1>   0.1600 
 13 C       -1.2660     5.6190    -1.8470 C.ar  1 <1>  -0.1500 
 14 C        1.1030     5.1410     1.2880 C.2   1 <1>   0.5690 
 15 N       -2.3550     7.5520    -0.1170 N.ar  1 <1>  -0.6200 
 16 C       -1.7100     6.8380    -2.3120 C.ar  1 <1>  -0.1500 
 17 O        0.3910     5.3500     2.2470 O.2   1 <1>  -0.5700 
 18 N        2.2590     5.8550     1.1010 N.am  1 <1>  -0.6600 
 19 C       -2.2370     7.7540    -1.4190 C.ar  1 <1>   0.1600 
 20 C        2.4120     7.1920     1.7380 C.3   1 <1>   0.3200 
 21 C        3.3230     5.4960     0.1220 C.3   1 <1>   0.0600 
 22 C        2.1030     8.2730     0.7160 C.2   1 <1>  -0.0400 
 23 O        3.0480     8.6690    -0.1180 O.3   1 <1>  -0.2800 
 24 C        0.9560     8.9450     0.4810 C.2   1 <1>  -0.1500 
 25 C        2.5310     9.5980    -0.8950 C.2   1 <1>  -0.0400 
 26 C        1.2380     9.8170    -0.5770 C.2   1 <1>  -0.1500 
 27 C        3.4100    10.2330    -1.9490 C.3   1 <1>  -0.0600 
 28 H        1.5460     2.1110    -1.3450 H     1 <1>   0.0800 
 29 H        1.1650     0.9170    -0.1290 H     1 <1>   0.0800 
 30 H       -1.2930     4.0050     1.1430 H     1 <1>   0.0800 
 31 H       -3.0940     3.3610    -1.8380 H     1 <1>   0.1000 
 32 H        1.0350     4.4230    -0.7100 H     1 <1>   0.0800 
 33 H       -3.4590     3.0120     1.2430 H     1 <1>   0.1000 
 34 H       -4.7230     3.5350     0.0880 H     1 <1>   0.1000 
 35 H       -4.4580     1.3630    -1.1600 H     1 <1>   0.1000 
 36 H       -3.1660     0.8560    -0.0320 H     1 <1>   0.1000 
 37 H       -2.0030     6.2030     1.3760 H     1 <1>   0.1500 
 38 H       -0.8570     4.8860    -2.5210 H     1 <1>   0.1500 
 39 H       -1.6510     7.0790    -3.3580 H     1 <1>   0.1500 
 40 H       -2.5810     8.7020    -1.7950 H     1 <1>   0.1500 
 41 H        1.7370     7.2930     2.5690 H     1 <1>   0.0800 
 42 H        3.4140     7.3130     2.1090 H     1 <1>   0.0800 
 43 H        4.2870     5.7730     0.5130 H     1 <1>   0.0800 
 44 H        3.1600     6.0230    -0.8030 H     1 <1>   0.0800 
 45 H        3.3260     4.4360    -0.0630 H     1 <1>   0.0800 
 46 H        0.0030     8.8510     0.9740 H     1 <1>   0.1500 
 47 H        0.5380    10.5050    -1.0170 H     1 <1>   0.1500 
 48 H        2.8560    10.9700    -2.5000 H     1 <1>   0.0800 
 49 H        3.7650     9.4790    -2.6280 H     1 <1>   0.0800 
 50 H        4.2540    10.7060    -1.4800 H     1 <1>   0.0800 
@<TRIPOS>BOND
  1   1   2  2   
  2   2   3  am  
  3   2   4  1   
  4   3   5  1   
  5   3   6  1   
  6   4   7  1   
  7   4  28  1   
  8   4  29  1   
  9   5   8  1   
 10   5   9  1   
 11   5  30  1   
 12   6  10  1   
 13   6  11  1   
 14   6  31  1   
 15   7   9  1   
 16   8  12  ar  
 17   8  13  ar  
 18   9  14  1   
 19   9  32  1   
 20  10  11  1   
 21  10  33  1   
 22  10  34  1   
 23  11  35  1   
 24  11  36  1   
 25  12  15  ar  
 26  12  37  1   
 27  13  16  ar  
 28  13  38  1   
 29  14  17  2   
 30  14  18  am  
 31  15  19  ar  
 32  16  19  ar  
 33  16  39  1   
 34  18  20  1   
 35  18  21  1   
 36  19  40  1   
 37  20  22  1   
 38  20  41  1   
 39  20  42  1   
 40  21  43  1   
 41  21  44  1   
 42  21  45  1   
 43  22  23  1   
 44  22  24  2   
 45  23  25  1   
 46  24  26  1   
 47  24  46  1   
 48  25  26  2   
 49  25  27  1   
 50  26  47  1   
 51  27  48  1   
 52  27  49  1   
 53  27  50  1   
@<TRIPOS>SUBSTRUCTURE
  1 ****   8 GROUP 4 **** **** 0

# MOE 2024.06 (io_trps.svl 2023.06)
