@<TRIPOS>MOLECULE
NONAME
50 52 1 0 0 
SMALL
USER_CHARGES


@<TRIPOS>ATOM
  1 O       -3.4160     2.8700     1.5390 O.2   1 <1>  -0.5700 
  2 C       -3.0000     2.1080     0.6930 C.2   1 <1>   0.5440 
  3 N       -3.7930     1.0550     0.2730 N.am  1 <1>  -0.6600 
  4 C       -1.6760     2.3010     0.1530 C.ar  1 <1>   0.0860 
  5 C       -3.3670     0.0430    -0.7370 C.3   1 <1>   0.1400 
  6 C       -5.1630     0.8400     0.8270 C.3   1 <1>   0.1400 
  7 C       -0.5490     1.7640     0.7610 C.ar  1 <1>   0.1660 
  8 C       -1.4610     2.9790    -1.0390 C.ar  1 <1>   0.1660 
  9 C       -3.4700    -1.3860    -0.1490 C.3   1 <1>   0.4230 
 10 C       -5.2390    -0.5640     1.4370 C.3   1 <1>  -0.1600 
 11 N        0.6420     1.8250     0.2090 N.ar  1 <1>  -0.6200 
 12 C       -0.6020     1.0530     2.1040 C.3   1 <1>  -0.0960 
 13 N       -0.2760     3.0530    -1.6010 N.ar  1 <1>  -0.6200 
 14 C       -2.5870     3.6740    -1.7880 C.3   1 <1>  -0.0970 
 15 N       -2.9320    -2.4710    -1.0770 N.4   1 <1>  -0.9590 
 16 C       -4.8810    -1.6960     0.4330 C.3   1 <1>   0.0000 
 17 C        0.7120     2.4760    -0.9400 C.ar  1 <1>   0.4700 
 18 C       -3.3840    -3.8580    -0.7230 C.3   1 <1>   0.3430 
 19 C       -3.1450    -2.2360    -2.5450 C.3   1 <1>   0.2630 
 20 C       -4.8290    -3.0460     1.2090 C.3   1 <1>  -0.1600 
 21 C       -5.9350    -1.7630    -0.7090 C.3   1 <1>   0.1200 
 22 C       -3.6790    -3.9730     0.7710 C.3   1 <1>  -0.1600 
 23 O       -7.2270    -1.8250    -0.2140 O.3   1 <1>  -0.6800 
 24 H       -4.0010     0.1490    -1.5990 H     1 <1>   0.0800 
 25 H       -2.3520     0.2210    -1.0420 H     1 <1>   0.0800 
 26 H       -5.3900     1.5690     1.5880 H     1 <1>   0.0800 
 27 H       -5.8930     0.9550     0.0440 H     1 <1>   0.0800 
 28 H       -2.8170    -1.3770     0.7080 H     1 <1>   0.0800 
 29 H       -4.5650    -0.5830     2.2760 H     1 <1>   0.0800 
 30 H       -6.2280    -0.7100     1.8360 H     1 <1>   0.0800 
 31 H       -1.4880     1.3010     2.6600 H     1 <1>   0.0800 
 32 H        0.2460     1.3460     2.6960 H     1 <1>   0.0800 
 33 H       -0.5620    -0.0100     1.9580 H     1 <1>   0.0800 
 34 H       -3.3740     3.9810    -1.1230 H     1 <1>   0.0800 
 35 H       -2.9900     3.0180    -2.5360 H     1 <1>   0.0800 
 36 H       -2.2080     4.5550    -2.2750 H     1 <1>   0.0800 
 37 H       -1.9120    -2.4670    -0.9250 H     1 <1>   0.4500 
 38 H        1.6900     2.5440    -1.3900 H     1 <1>   0.1500 
 39 H       -4.2820    -4.1000    -1.2670 H     1 <1>   0.0800 
 40 H       -2.6260    -4.5730    -1.0010 H     1 <1>   0.0800 
 41 H       -4.1970    -2.1930    -2.7730 H     1 <1>   0.0800 
 42 H       -2.7040    -3.0360    -3.1180 H     1 <1>   0.0800 
 43 H       -2.6850    -1.3110    -2.8530 H     1 <1>   0.0800 
 44 H       -4.7160    -2.8720     2.2660 H     1 <1>   0.0800 
 45 H       -5.7620    -3.5710     1.0950 H     1 <1>   0.0800 
 46 H       -5.7900    -2.6280    -1.3320 H     1 <1>   0.0800 
 47 H       -5.8930    -0.8880    -1.3320 H     1 <1>   0.0800 
 48 H       -3.9410    -4.9910     1.0030 H     1 <1>   0.0800 
 49 H       -2.7850    -3.7450     1.3270 H     1 <1>   0.0800 
 50 H       -7.3880    -2.6320     0.3150 H     1 <1>   0.4000 
@<TRIPOS>BOND
  1   1   2  2   
  2   2   3  am  
  3   2   4  1   
  4   3   5  1   
  5   3   6  1   
  6   4   7  ar  
  7   4   8  ar  
  8   5   9  1   
  9   5  24  1   
 10   5  25  1   
 11   6  10  1   
 12   6  26  1   
 13   6  27  1   
 14   7  11  ar  
 15   7  12  1   
 16   8  13  ar  
 17   8  14  1   
 18   9  15  1   
 19   9  16  1   
 20   9  28  1   
 21  10  16  1   
 22  10  29  1   
 23  10  30  1   
 24  11  17  ar  
 25  12  31  1   
 26  12  32  1   
 27  12  33  1   
 28  13  17  ar  
 29  14  34  1   
 30  14  35  1   
 31  14  36  1   
 32  15  18  1   
 33  15  19  1   
 34  15  37  1   
 35  16  20  1   
 36  16  21  1   
 37  17  38  1   
 38  18  22  1   
 39  18  39  1   
 40  18  40  1   
 41  19  41  1   
 42  19  42  1   
 43  19  43  1   
 44  20  22  1   
 45  20  44  1   
 46  20  45  1   
 47  21  23  1   
 48  21  46  1   
 49  21  47  1   
 50  22  48  1   
 51  22  49  1   
 52  23  50  1   
@<TRIPOS>SUBSTRUCTURE
  1 ****   5 GROUP 4 **** **** 0

# MOE 2024.06 (io_trps.svl 2023.06)
