@<TRIPOS>MOLECULE
NONAME
53 56 1 0 0 
SMALL
USER_CHARGES


@<TRIPOS>ATOM
  1 O       -0.0960    -0.0480     1.1870 O.3   1 <1>  -0.3630 
  2 C        0.2090     0.8090     0.2180 C.ar  1 <1>   0.3920 
  3 C        1.0940    -0.6090     1.7270 C.3   1 <1>   0.2000 
  4 N       -0.6980     1.2860    -0.5900 N.ar  1 <1>  -0.6200 
  5 C        1.5410     1.0770     0.1450 C.ar  1 <1>  -0.1440 
  6 C        2.2390     0.3020     1.2290 C.3   1 <1>  -0.0160 
  7 C        1.2030    -2.0570     1.1950 C.3   1 <1>   0.3430 
  8 C       -0.1980     2.1070    -1.5000 C.ar  1 <1>   0.4760 
  9 C        1.9510     1.9370    -0.8400 C.ar  1 <1>   0.1660 
 10 N       -0.1440    -2.6770     0.9580 N.4   1 <1>  -0.9590 
 11 N        1.0720     2.4560    -1.6740 N.ar  1 <1>  -0.6200 
 12 C       -1.1830     2.7210    -2.4650 C.3   1 <1>  -0.0970 
 13 C        3.3990     2.3380    -1.0340 C.3   1 <1>  -0.0970 
 14 C       -0.8590    -3.0080     2.2220 C.3   1 <1>   0.3430 
 15 C       -0.0760    -3.8330     0.0220 C.3   1 <1>   0.3430 
 16 C       -2.2860    -3.4510     1.8990 C.3   1 <1>  -0.1600 
 17 C       -1.4900    -4.3020    -0.3280 C.3   1 <1>  -0.1600 
 18 C       -2.3190    -4.6410     0.9250 C.3   1 <1>  -0.0800 
 19 C       -3.7800    -4.9840     0.5750 C.3   1 <1>  -0.1600 
 20 C       -3.9290    -6.2770    -0.2460 C.3   1 <1>   0.0960 
 21 N       -5.3460    -6.5250    -0.5640 N.pl3 1 <1>   0.3140 
 22 N       -5.9230    -5.9990    -1.6590 N.2   1 <1>  -0.7070 
 23 C       -6.2240    -7.2590     0.1480 C.2   1 <1>  -0.3020 
 24 C       -7.1530    -6.4130    -1.6180 C.2   1 <1>   0.1390 
 25 C       -7.4030    -7.2080    -0.5060 C.2   1 <1>  -0.1500 
 26 H        1.0190    -0.5940     2.8000 H     1 <1>   0.0800 
 27 H        3.0830    -0.2520     0.8570 H     1 <1>   0.0800 
 28 H        2.5600     0.9670     2.0120 H     1 <1>   0.0800 
 29 H        1.7840    -2.6570     1.8760 H     1 <1>   0.0800 
 30 H        1.7370    -2.0220     0.2590 H     1 <1>   0.0800 
 31 H       -0.7090    -1.9370     0.5000 H     1 <1>   0.4500 
 32 H       -2.1920     2.5330    -2.1480 H     1 <1>   0.0800 
 33 H       -1.0360     2.2990    -3.4410 H     1 <1>   0.0800 
 34 H       -1.0250     3.7820    -2.5130 H     1 <1>   0.0800 
 35 H        4.0330     1.8950    -0.2910 H     1 <1>   0.0800 
 36 H        3.4840     3.4080    -0.9680 H     1 <1>   0.0800 
 37 H        3.7300     2.0290    -2.0080 H     1 <1>   0.0800 
 38 H       -0.8950    -2.1420     2.8640 H     1 <1>   0.0800 
 39 H       -0.3430    -3.8000     2.7410 H     1 <1>   0.0800 
 40 H        0.4680    -4.6430     0.4810 H     1 <1>   0.0800 
 41 H        0.4370    -3.5470    -0.8820 H     1 <1>   0.0800 
 42 H       -2.8260    -2.6160     1.4850 H     1 <1>   0.0800 
 43 H       -2.7760    -3.7240     2.8180 H     1 <1>   0.0800 
 44 H       -1.4060    -5.1680    -0.9590 H     1 <1>   0.0800 
 45 H       -1.9820    -3.5340    -0.9010 H     1 <1>   0.0800 
 46 H       -1.8760    -5.4920     1.4170 H     1 <1>   0.0800 
 47 H       -4.2200    -4.1710     0.0210 H     1 <1>   0.0800 
 48 H       -4.3430    -5.1030     1.4860 H     1 <1>   0.0800 
 49 H       -3.5490    -7.1200     0.3010 H     1 <1>   0.0800 
 50 H       -3.4000    -6.2000    -1.1770 H     1 <1>   0.0800 
 51 H       -5.9690    -7.7670     1.0600 H     1 <1>   0.1500 
 52 H       -7.8880    -6.1620    -2.3650 H     1 <1>   0.1500 
 53 H       -8.3420    -7.6670    -0.2520 H     1 <1>   0.1500 
@<TRIPOS>BOND
  1   1   2  1   
  2   1   3  1   
  3   2   4  ar  
  4   2   5  ar  
  5   3   6  1   
  6   3   7  1   
  7   3  26  1   
  8   4   8  ar  
  9   5   6  1   
 10   5   9  ar  
 11   6  27  1   
 12   6  28  1   
 13   7  10  1   
 14   7  29  1   
 15   7  30  1   
 16   8  11  ar  
 17   8  12  1   
 18   9  11  ar  
 19   9  13  1   
 20  10  14  1   
 21  10  15  1   
 22  10  31  1   
 23  12  32  1   
 24  12  33  1   
 25  12  34  1   
 26  13  35  1   
 27  13  36  1   
 28  13  37  1   
 29  14  16  1   
 30  14  38  1   
 31  14  39  1   
 32  15  17  1   
 33  15  40  1   
 34  15  41  1   
 35  16  18  1   
 36  16  42  1   
 37  16  43  1   
 38  17  18  1   
 39  17  44  1   
 40  17  45  1   
 41  18  19  1   
 42  18  46  1   
 43  19  20  1   
 44  19  47  1   
 45  19  48  1   
 46  20  21  1   
 47  20  49  1   
 48  20  50  1   
 49  21  22  1   
 50  21  23  1   
 51  22  24  2   
 52  23  25  2   
 53  23  51  1   
 54  24  25  1   
 55  24  52  1   
 56  25  53  1   
@<TRIPOS>SUBSTRUCTURE
  1 ****  10 GROUP 4 **** **** 0

# MOE 2024.06 (io_trps.svl 2023.06)
