@<TRIPOS>MOLECULE
NONAME
53 55 1 0 0 
SMALL
USER_CHARGES


@<TRIPOS>ATOM
  1 S       -2.7380    -0.1080    -0.4780 S.3   1 <1>  -0.0800 
  2 C       -1.7070    -1.2510     0.3220 C.2   1 <1>   0.4420 
  3 C       -1.6780     1.1330     0.0920 C.2   1 <1>   0.1980 
  4 N       -0.7210    -0.6770     0.9120 N.2   1 <1>  -0.3380 
  5 N       -2.0640    -2.5770     0.2230 N.am  1 <1>  -0.4940 
  6 N       -0.7110     0.6820     0.7770 N.2   1 <1>  -0.3380 
  7 C       -1.9860     2.5710    -0.2590 C.3   1 <1>   0.0200 
  8 C       -1.4970    -3.6920     0.7820 C.2   1 <1>   0.5690 
  9 C       -0.8970     3.4700     0.3400 C.3   1 <1>   0.3430 
 10 O       -0.5460    -3.6230     1.5220 O.2   1 <1>  -0.5700 
 11 C       -2.1260    -5.0680     0.4330 C.3   1 <1>   0.2050 
 12 N       -1.0720     4.9200    -0.0060 N.4   1 <1>  -0.9590 
 13 C       -3.5100    -4.8400    -0.2200 C.ar  1 <1>  -0.1430 
 14 C       -2.2300    -5.9820     1.6730 C.3   1 <1>  -0.1600 
 15 C       -1.1790    -5.8870    -0.4660 C.3   1 <1>  -0.1600 
 16 C        0.1610     5.6770     0.3770 C.3   1 <1>   0.2630 
 17 C       -2.2700     5.5290     0.6590 C.3   1 <1>   0.2630 
 18 C       -4.6340    -4.6360     0.5740 C.ar  1 <1>  -0.1500 
 19 C       -3.6610    -4.7740    -1.6020 C.ar  1 <1>  -0.1500 
 20 C       -0.8900    -6.7120     1.8130 C.3   1 <1>  -0.1600 
 21 C       -0.1770    -6.5690     0.4670 C.3   1 <1>  -0.1600 
 22 C       -5.8730    -4.3850     0.0100 C.ar  1 <1>  -0.1500 
 23 C       -4.8970    -4.5230    -2.1680 C.ar  1 <1>  -0.1500 
 24 C       -6.0110    -4.3280    -1.3710 C.ar  1 <1>   0.0820 
 25 O       -7.1840    -4.0860    -2.0070 O.3   1 <1>  -0.3620 
 26 C       -8.3930    -3.9560    -1.2920 C.3   1 <1>   0.0400 
 27 H       -2.9020    -2.7680    -0.3270 H     1 <1>   0.3700 
 28 H       -2.9500     2.8210     0.1420 H     1 <1>   0.0800 
 29 H       -2.0010     2.6690    -1.3290 H     1 <1>   0.0800 
 30 H        0.0580     3.1270    -0.0280 H     1 <1>   0.0800 
 31 H       -0.8890     3.3460     1.4120 H     1 <1>   0.0800 
 32 H       -1.1830     5.0030    -1.0290 H     1 <1>   0.4500 
 33 H       -2.9990    -6.7180     1.5080 H     1 <1>   0.0800 
 34 H       -2.4650    -5.4260     2.5640 H     1 <1>   0.0800 
 35 H       -0.6800    -5.2750    -1.1970 H     1 <1>   0.0800 
 36 H       -1.7400    -6.6550    -0.9700 H     1 <1>   0.0800 
 37 H        0.3250     5.6160     1.4410 H     1 <1>   0.0800 
 38 H        0.0660     6.7150     0.1020 H     1 <1>   0.0800 
 39 H        1.0230     5.2680    -0.1260 H     1 <1>   0.0800 
 40 H       -2.1870     5.4440     1.7310 H     1 <1>   0.0800 
 41 H       -3.1730     5.0340     0.3420 H     1 <1>   0.0800 
 42 H       -2.3490     6.5740     0.4030 H     1 <1>   0.0800 
 43 H       -4.5600    -4.6630     1.6480 H     1 <1>   0.1500 
 44 H       -2.8230    -4.9130    -2.2640 H     1 <1>   0.1500 
 45 H       -1.0440    -7.7470     2.0660 H     1 <1>   0.0800 
 46 H       -0.2960    -6.2500     2.5850 H     1 <1>   0.0800 
 47 H        0.6890    -5.9390     0.5900 H     1 <1>   0.0800 
 48 H        0.1390    -7.5220     0.0790 H     1 <1>   0.0800 
 49 H       -6.7150    -4.2370     0.6600 H     1 <1>   0.1500 
 50 H       -5.0090    -4.4780    -3.2370 H     1 <1>   0.1500 
 51 H       -9.1860    -3.8050    -2.0020 H     1 <1>   0.0800 
 52 H       -8.3220    -3.1060    -0.6370 H     1 <1>   0.0800 
 53 H       -8.5680    -4.8590    -0.7350 H     1 <1>   0.0800 
@<TRIPOS>BOND
  1   1   2  1   
  2   1   3  1   
  3   2   4  2   
  4   2   5  1   
  5   3   6  2   
  6   3   7  1   
  7   4   6  1   
  8   5   8  am  
  9   5  27  1   
 10   7   9  1   
 11   7  28  1   
 12   7  29  1   
 13   8  10  2   
 14   8  11  1   
 15   9  12  1   
 16   9  30  1   
 17   9  31  1   
 18  11  13  1   
 19  11  14  1   
 20  11  15  1   
 21  12  16  1   
 22  12  17  1   
 23  12  32  1   
 24  13  18  ar  
 25  13  19  ar  
 26  14  20  1   
 27  14  33  1   
 28  14  34  1   
 29  15  21  1   
 30  15  35  1   
 31  15  36  1   
 32  16  37  1   
 33  16  38  1   
 34  16  39  1   
 35  17  40  1   
 36  17  41  1   
 37  17  42  1   
 38  18  22  ar  
 39  18  43  1   
 40  19  23  ar  
 41  19  44  1   
 42  20  21  1   
 43  20  45  1   
 44  20  46  1   
 45  21  47  1   
 46  21  48  1   
 47  22  24  ar  
 48  22  49  1   
 49  23  24  ar  
 50  23  50  1   
 51  24  25  1   
 52  25  26  1   
 53  26  51  1   
 54  26  52  1   
 55  26  53  1   
@<TRIPOS>SUBSTRUCTURE
  1 ****   5 GROUP 4 **** **** 0

# MOE 2024.06 (io_trps.svl 2023.06)
