@<TRIPOS>MOLECULE
NONAME
48 49 1 0 0 
SMALL
USER_CHARGES


@<TRIPOS>ATOM
  1 O        0.0430     2.2410     1.3550 O.2   1 <1>  -0.5700 
  2 C       -0.0040     1.1200     0.9140 C.2   1 <1>   0.5690 
  3 N        0.3410     0.8090    -0.3630 N.am  1 <1>  -0.7300 
  4 C       -0.4270     0.0000     1.8540 C.3   1 <1>   0.0450 
  5 C        0.9490     1.5860    -1.4640 C.3   1 <1>   0.4000 
  6 C       -0.6400    -1.3520     1.1650 C.ar  1 <1>  -0.1440 
  7 C        2.3420     1.0320    -1.7440 C.2   1 <1>   0.0060 
  8 C        0.9360     3.1030    -1.2620 C.3   1 <1>  -0.2400 
  9 C        0.4410    -2.1050     0.7080 C.ar  1 <1>   0.0830 
 10 C       -1.9290    -1.8300     0.9850 C.ar  1 <1>  -0.1500 
 11 N        2.6620     0.4610    -2.8540 N.2   1 <1>  -0.5650 
 12 N        3.3800     1.0390    -0.8880 N.pl3 1 <1>   0.3140 
 13 O        1.6880    -1.5920     0.8830 O.3   1 <1>  -0.3630 
 14 C        0.2140    -3.3250     0.0810 C.ar  1 <1>  -0.1500 
 15 C       -2.1510    -3.0440     0.3600 C.ar  1 <1>  -0.1500 
 16 C        3.9350     0.1240    -2.6320 C.2   1 <1>   0.3660 
 17 N        4.4100     0.4350    -1.4740 N.2   1 <1>  -0.7070 
 18 C        3.4970     1.5620     0.4930 C.3   1 <1>   0.0960 
 19 C        2.8120    -2.1670     0.2480 C.3   1 <1>   0.0400 
 20 C       -1.0740    -3.7980    -0.0950 C.ar  1 <1>   0.0830 
 21 C        4.3600     2.8320     0.5350 C.3   1 <1>  -0.1600 
 22 O       -1.2030    -4.9970    -0.7170 O.3   1 <1>  -0.3630 
 23 C        4.4080     3.4200     1.9490 C.3   1 <1>  -0.2400 
 24 C       -2.4690    -5.5830    -0.9280 C.3   1 <1>   0.0400 
 25 H        0.3410    -0.1950    -0.5740 H     1 <1>   0.3700 
 26 H       -1.3290     0.3060     2.3500 H     1 <1>   0.0800 
 27 H        0.3300    -0.1040     2.6090 H     1 <1>   0.0800 
 28 H        0.3560     1.3900    -2.3410 H     1 <1>   0.0800 
 29 H        1.5170     3.3950    -0.4090 H     1 <1>   0.0800 
 30 H       -0.0750     3.4440    -1.1310 H     1 <1>   0.0800 
 31 H        1.3470     3.5810    -2.1320 H     1 <1>   0.0800 
 32 H       -2.7730    -1.2580     1.3310 H     1 <1>   0.1500 
 33 H        1.0190    -3.9340    -0.2820 H     1 <1>   0.1500 
 34 H       -3.1610    -3.3840     0.2380 H     1 <1>   0.1500 
 35 H        4.5110    -0.3820    -3.3900 H     1 <1>   0.1500 
 36 H        3.9410     0.7980     1.1030 H     1 <1>   0.0800 
 37 H        2.5220     1.7730     0.8810 H     1 <1>   0.0800 
 38 H        3.6750    -1.5690     0.4790 H     1 <1>   0.0800 
 39 H        2.6500    -2.1690    -0.8160 H     1 <1>   0.0800 
 40 H        2.9550    -3.1650     0.6200 H     1 <1>   0.0800 
 41 H        3.9560     3.5670    -0.1380 H     1 <1>   0.0800 
 42 H        5.3600     2.5920     0.2150 H     1 <1>   0.0800 
 43 H        3.4180     3.6820     2.2820 H     1 <1>   0.0800 
 44 H        5.0170     4.3070     1.9580 H     1 <1>   0.0800 
 45 H        4.8310     2.7100     2.6400 H     1 <1>   0.0800 
 46 H       -2.3220    -6.5250    -1.4250 H     1 <1>   0.0800 
 47 H       -3.0570    -4.9300    -1.5480 H     1 <1>   0.0800 
 48 H       -2.9430    -5.7420     0.0240 H     1 <1>   0.0800 
@<TRIPOS>BOND
  1   1   2  2   
  2   2   3  am  
  3   2   4  1   
  4   3   5  1   
  5   3  25  1   
  6   4   6  1   
  7   4  26  1   
  8   4  27  1   
  9   5   7  1   
 10   5   8  1   
 11   5  28  1   
 12   6   9  ar  
 13   6  10  ar  
 14   7  11  2   
 15   7  12  1   
 16   8  29  1   
 17   8  30  1   
 18   8  31  1   
 19   9  13  1   
 20   9  14  ar  
 21  10  15  ar  
 22  10  32  1   
 23  11  16  1   
 24  12  17  1   
 25  12  18  1   
 26  13  19  1   
 27  14  20  ar  
 28  14  33  1   
 29  15  20  ar  
 30  15  34  1   
 31  16  17  2   
 32  16  35  1   
 33  18  21  1   
 34  18  36  1   
 35  18  37  1   
 36  19  38  1   
 37  19  39  1   
 38  19  40  1   
 39  20  22  1   
 40  21  23  1   
 41  21  41  1   
 42  21  42  1   
 43  22  24  1   
 44  23  43  1   
 45  23  44  1   
 46  23  45  1   
 47  24  46  1   
 48  24  47  1   
 49  24  48  1   
@<TRIPOS>SUBSTRUCTURE
  1 ****   3 GROUP 4 **** **** 0

# MOE 2024.06 (io_trps.svl 2023.06)
