@<TRIPOS>MOLECULE
NONAME
47 49 1 0 0 
SMALL
USER_CHARGES


@<TRIPOS>ATOM
  1 S       -0.4260    -0.1850    -1.4160 S.3   1 <1>  -0.0800 
  2 C        0.2440    -1.3850    -2.5050 C.2   1 <1>   0.4620 
  3 C       -1.5260    -1.3940    -0.8120 C.2   1 <1>  -0.1100 
  4 N       -0.2980    -2.5390    -2.4150 N.2   1 <1>  -0.5650 
  5 N        1.2510    -1.0270    -3.3380 N.pl3 1 <1>  -0.8840 
  6 C       -1.2990    -2.5490    -1.4600 C.2   1 <1>   0.0460 
  7 C       -2.0170    -3.8770    -1.2660 C.3   1 <1>   0.0210 
  8 C       -3.1020    -3.8330    -0.1760 C.3   1 <1>  -0.0990 
  9 C       -3.8090    -5.1640     0.0420 C.2   1 <1>   0.5690 
 10 O       -3.6020    -6.0590    -0.7440 O.2   1 <1>  -0.5700 
 11 N       -4.6640    -5.3380     1.1030 N.am  1 <1>  -0.6600 
 12 C       -5.2670    -6.6850     1.3400 C.3   1 <1>   0.1400 
 13 C       -5.0800    -4.2590     2.0490 C.3   1 <1>   0.1400 
 14 C       -6.5550    -6.8680     0.5240 C.3   1 <1>   0.1400 
 15 C       -6.5990    -4.1840     2.2700 C.3   1 <1>  -0.1600 
 16 N       -7.6870    -6.0520     1.0700 N.am  1 <1>  -0.6600 
 17 C       -7.4510    -4.5790     1.0590 C.3   1 <1>   0.1400 
 18 C       -8.8820    -6.5510     1.5440 C.2   1 <1>   0.5690 
 19 O       -9.7000    -5.8220     2.0580 O.2   1 <1>  -0.5700 
 20 C       -9.2440    -8.0330     1.4950 C.3   1 <1>   0.0810 
 21 C       -9.9010    -8.4450     0.1850 C.2   1 <1>  -0.1400 
 22 S       -8.8870    -8.6510    -1.2360 S.3   1 <1>  -0.0800 
 23 C      -11.1860    -8.7060    -0.1180 C.2   1 <1>  -0.1500 
 24 C      -10.2710    -9.0920    -2.2190 C.2   1 <1>  -0.1100 
 25 C      -11.3980    -9.0730    -1.4850 C.2   1 <1>  -0.1500 
 26 H       -2.2130    -1.0970    -0.0430 H     1 <1>   0.1500 
 27 H        1.6310    -1.7180    -3.9840 H     1 <1>   0.4000 
 28 H        1.6230    -0.0780    -3.3750 H     1 <1>   0.4000 
 29 H       -1.2860    -4.6260    -1.0130 H     1 <1>   0.0800 
 30 H       -2.4620    -4.1630    -2.2040 H     1 <1>   0.0800 
 31 H       -3.8400    -3.1030    -0.4490 H     1 <1>   0.0800 
 32 H       -2.6420    -3.5390     0.7500 H     1 <1>   0.0800 
 33 H       -5.4680    -6.8290     2.3870 H     1 <1>   0.0800 
 34 H       -4.5610    -7.4420     1.0400 H     1 <1>   0.0800 
 35 H       -4.7600    -3.3040     1.6760 H     1 <1>   0.0800 
 36 H       -4.5900    -4.4150     2.9960 H     1 <1>   0.0800 
 37 H       -6.8020    -7.9110     0.5260 H     1 <1>   0.0800 
 38 H       -6.3710    -6.5890    -0.4990 H     1 <1>   0.0800 
 39 H       -6.8380    -3.1690     2.5330 H     1 <1>   0.0800 
 40 H       -6.8790    -4.7880     3.1150 H     1 <1>   0.0800 
 41 H       -6.9740    -4.2870     0.1390 H     1 <1>   0.0800 
 42 H       -8.3950    -4.0630     1.1070 H     1 <1>   0.0800 
 43 H       -9.9450    -8.2160     2.2870 H     1 <1>   0.0800 
 44 H       -8.3900    -8.6470     1.6970 H     1 <1>   0.0800 
 45 H      -12.0130    -8.6510     0.5700 H     1 <1>   0.1500 
 46 H      -10.0910    -9.3200    -3.2540 H     1 <1>   0.1500 
 47 H      -12.3850    -9.3020    -1.8470 H     1 <1>   0.1500 
@<TRIPOS>BOND
  1   1   2  1   
  2   1   3  1   
  3   2   4  2   
  4   2   5  1   
  5   3   6  2   
  6   3  26  1   
  7   4   6  1   
  8   5  27  1   
  9   5  28  1   
 10   6   7  1   
 11   7   8  1   
 12   7  29  1   
 13   7  30  1   
 14   8   9  1   
 15   8  31  1   
 16   8  32  1   
 17   9  10  2   
 18   9  11  am  
 19  11  12  1   
 20  11  13  1   
 21  12  14  1   
 22  12  33  1   
 23  12  34  1   
 24  13  15  1   
 25  13  35  1   
 26  13  36  1   
 27  14  16  1   
 28  14  37  1   
 29  14  38  1   
 30  15  17  1   
 31  15  39  1   
 32  15  40  1   
 33  16  17  1   
 34  16  18  am  
 35  17  41  1   
 36  17  42  1   
 37  18  19  2   
 38  18  20  1   
 39  20  21  1   
 40  20  43  1   
 41  20  44  1   
 42  21  22  1   
 43  21  23  2   
 44  22  24  1   
 45  23  25  1   
 46  23  45  1   
 47  24  25  2   
 48  24  46  1   
 49  25  47  1   
@<TRIPOS>SUBSTRUCTURE
  1 ****  11 GROUP 4 **** **** 0

# MOE 2024.06 (io_trps.svl 2023.06)
