@<TRIPOS>MOLECULE
NONAME
47 49 1 0 0 
SMALL
USER_CHARGES


@<TRIPOS>ATOM
  1 O        0.7070     0.2660     1.3010 O.2   1 <1>  -0.5700 
  2 C        1.7650     0.1110     0.7450 C.2   1 <1>   0.5950 
  3 C        2.3350    -1.1860     0.4950 C.2   1 <1>  -0.0860 
  4 C        2.5130     1.3440     0.2880 C.3   1 <1>  -0.1790 
  5 C        3.4790    -1.5470    -0.1730 C.2   1 <1>  -0.3020 
  6 C        1.7740    -2.4020     0.9260 C.2   1 <1>  -0.1500 
  7 N        3.6360    -2.8890    -0.1740 N.pl3 1 <1>   0.0480 
  8 C        2.5710    -3.4150     0.5000 C.2   1 <1>  -0.3320 
  9 C        4.7920    -3.5990    -0.7580 C.3   1 <1>   0.0160 
 10 C        2.3540    -4.8910     0.7240 C.3   1 <1>   0.5230 
 11 N        1.6590    -5.3960    -0.4790 N.4   1 <1>  -0.9590 
 12 C        0.2350    -4.9230    -0.5380 C.3   1 <1>   0.3430 
 13 C        1.6300    -6.8840    -0.5310 C.3   1 <1>   0.3430 
 14 C       -0.6510    -6.1670    -0.3910 C.3   1 <1>   0.2000 
 15 C        0.2780    -7.2950     0.0460 C.3   1 <1>  -0.0800 
 16 O       -1.6490    -5.9820     0.5530 O.3   1 <1>  -0.6800 
 17 C       -0.1960    -8.6810    -0.4290 C.3   1 <1>  -0.0170 
 18 C        0.7490    -9.7880     0.0170 C.ar  1 <1>   0.1670 
 19 N        1.9670    -9.7670    -0.5070 N.ar  1 <1>  -0.6200 
 20 C        0.3090   -10.7440     0.9210 C.ar  1 <1>  -0.1500 
 21 C        2.7710   -10.7510    -0.1260 C.ar  1 <1>   0.1600 
 22 C        1.1610   -11.7530     1.3160 C.ar  1 <1>  -0.1500 
 23 C        2.4250   -11.7490     0.7680 C.ar  1 <1>  -0.1500 
 24 H        3.5000     1.3460     0.7090 H     1 <1>   0.0800 
 25 H        1.9940     2.2270     0.6120 H     1 <1>   0.0800 
 26 H        2.5780     1.3500    -0.7830 H     1 <1>   0.0800 
 27 H        4.1890    -0.8880    -0.6420 H     1 <1>   0.1500 
 28 H        0.8610    -2.4460     1.4990 H     1 <1>   0.1500 
 29 H        5.4940    -2.8820    -1.1460 H     1 <1>   0.0800 
 30 H        4.4640    -4.2360    -1.5570 H     1 <1>   0.0800 
 31 H        5.2770    -4.1830     0.0030 H     1 <1>   0.0800 
 32 H        1.7480    -5.0500     1.6020 H     1 <1>   0.0800 
 33 H        3.3010    -5.3870     0.8590 H     1 <1>   0.0800 
 34 H        2.1660    -5.0090    -1.2830 H     1 <1>   0.4500 
 35 H        0.0290    -4.2220     0.2550 H     1 <1>   0.0800 
 36 H        0.0390    -4.4480    -1.4850 H     1 <1>   0.0800 
 37 H        1.6880    -7.2150    -1.5560 H     1 <1>   0.0800 
 38 H        2.4440    -7.3300     0.0180 H     1 <1>   0.0800 
 39 H       -1.1240    -6.3820    -1.3350 H     1 <1>   0.0800 
 40 H        0.3720    -7.3050     1.1180 H     1 <1>   0.0800 
 41 H       -1.3120    -5.9660     1.4710 H     1 <1>   0.4000 
 42 H       -0.2640    -8.7060    -1.5020 H     1 <1>   0.0800 
 43 H       -1.1820    -8.8690    -0.0410 H     1 <1>   0.0800 
 44 H       -0.6910   -10.7110     1.3150 H     1 <1>   0.1500 
 45 H        3.7610   -10.7680    -0.5500 H     1 <1>   0.1500 
 46 H        0.8520   -12.5120     2.0150 H     1 <1>   0.1500 
 47 H        3.1350   -12.5130     1.0290 H     1 <1>   0.1500 
@<TRIPOS>BOND
  1   1   2  2   
  2   2   3  1   
  3   2   4  1   
  4   3   5  2   
  5   3   6  1   
  6   4  24  1   
  7   4  25  1   
  8   4  26  1   
  9   5   7  1   
 10   5  27  1   
 11   6   8  2   
 12   6  28  1   
 13   7   8  1   
 14   7   9  1   
 15   8  10  1   
 16   9  29  1   
 17   9  30  1   
 18   9  31  1   
 19  10  11  1   
 20  10  32  1   
 21  10  33  1   
 22  11  12  1   
 23  11  13  1   
 24  11  34  1   
 25  12  14  1   
 26  12  35  1   
 27  12  36  1   
 28  13  15  1   
 29  13  37  1   
 30  13  38  1   
 31  14  15  1   
 32  14  16  1   
 33  14  39  1   
 34  15  17  1   
 35  15  40  1   
 36  16  41  1   
 37  17  18  1   
 38  17  42  1   
 39  17  43  1   
 40  18  19  ar  
 41  18  20  ar  
 42  19  21  ar  
 43  20  22  ar  
 44  20  44  1   
 45  21  23  ar  
 46  21  45  1   
 47  22  23  ar  
 48  22  46  1   
 49  23  47  1   
@<TRIPOS>SUBSTRUCTURE
  1 ****  11 GROUP 4 **** **** 0

# MOE 2024.06 (io_trps.svl 2023.06)
