@<TRIPOS>MOLECULE
NONAME
55 57 1 0 0 
SMALL
USER_CHARGES


@<TRIPOS>ATOM
  1 CL       0.9050     0.8590    -1.8010 Cl    1 <1>  -0.1770 
  2 C        1.8840    -0.4530    -1.1870 C.ar  1 <1>   0.1770 
  3 C        2.9340    -0.2030    -0.3110 C.ar  1 <1>   0.0820 
  4 C        1.5750    -1.7360    -1.5970 C.ar  1 <1>  -0.1500 
  5 O        3.1760     1.0840     0.0520 O.3   1 <1>  -0.3630 
  6 C        3.6830    -1.2830     0.1500 C.ar  1 <1>  -0.1500 
  7 C        2.3170    -2.8100    -1.1250 C.ar  1 <1>  -0.1430 
  8 C        4.2750     1.4420     0.8570 C.3   1 <1>   0.1200 
  9 C        3.3750    -2.5720    -0.2560 C.ar  1 <1>  -0.1500 
 10 C        1.9700    -4.2240    -1.5490 C.3   1 <1>   0.4870 
 11 C        4.2670     2.9590     1.0140 C.3   1 <1>  -0.2400 
 12 N        1.2070    -4.8700    -0.4360 N.4   1 <1>  -0.9590 
 13 C        1.1330    -6.3710    -0.5940 C.3   1 <1>   0.3430 
 14 C       -0.1370    -4.2230    -0.2880 C.3   1 <1>   0.3430 
 15 C        0.2440    -7.0930     0.4760 C.3   1 <1>   0.4230 
 16 C       -0.8890    -4.8940     0.8600 C.3   1 <1>  -0.1600 
 17 N        0.1530    -8.6160     0.3310 N.4   1 <1>  -0.9590 
 18 C       -1.1440    -6.4050     0.6000 C.3   1 <1>   0.0000 
 19 C       -1.0300    -9.2330     1.0310 C.3   1 <1>   0.3430 
 20 C        0.2210    -9.1720    -1.0650 C.3   1 <1>   0.2630 
 21 C       -1.9120    -6.9780     1.8230 C.3   1 <1>  -0.1600 
 22 C       -1.9670    -6.6350    -0.7050 C.3   1 <1>   0.1200 
 23 C       -1.4590    -8.3920     2.2310 C.3   1 <1>  -0.1600 
 24 O       -2.8640    -5.6080    -0.9250 O.3   1 <1>  -0.6800 
 25 H        0.7570    -1.8650    -2.2840 H     1 <1>   0.1500 
 26 H        4.5080    -1.1340     0.8220 H     1 <1>   0.1500 
 27 H        4.1710     0.9620     1.8140 H     1 <1>   0.0800 
 28 H        5.1780     1.1170     0.3690 H     1 <1>   0.0800 
 29 H        3.9840    -3.3810     0.1140 H     1 <1>   0.1500 
 30 H        2.8820    -4.7630    -1.7440 H     1 <1>   0.0800 
 31 H        1.3810    -4.2060    -2.4530 H     1 <1>   0.0800 
 32 H        3.3540     3.2770     1.4860 H     1 <1>   0.0800 
 33 H        4.3540     3.4310     0.0510 H     1 <1>   0.0800 
 34 H        5.0950     3.2690     1.6240 H     1 <1>   0.0800 
 35 H        1.7360    -4.6220     0.4140 H     1 <1>   0.4500 
 36 H        0.7310    -6.5870    -1.5690 H     1 <1>   0.0800 
 37 H        2.1300    -6.7780    -0.5460 H     1 <1>   0.0800 
 38 H       -0.0230    -3.1710    -0.0730 H     1 <1>   0.0800 
 39 H       -0.7070    -4.3180    -1.2000 H     1 <1>   0.0800 
 40 H        0.7290    -6.9150     1.4220 H     1 <1>   0.0800 
 41 H       -0.3330    -4.7490     1.7700 H     1 <1>   0.0800 
 42 H       -1.8240    -4.3770     0.9960 H     1 <1>   0.0800 
 43 H        0.9690    -9.0010     0.8360 H     1 <1>   0.4500 
 44 H       -1.8630    -9.3060     0.3500 H     1 <1>   0.0800 
 45 H       -0.7850   -10.2330     1.3560 H     1 <1>   0.0800 
 46 H       -0.6140    -8.8280    -1.6540 H     1 <1>   0.0800 
 47 H        0.1880   -10.2510    -1.0360 H     1 <1>   0.0800 
 48 H        1.1370    -8.8830    -1.5520 H     1 <1>   0.0800 
 49 H       -1.7930    -6.3430     2.6870 H     1 <1>   0.0800 
 50 H       -2.9690    -6.9900     1.6120 H     1 <1>   0.0800 
 51 H       -2.5220    -7.5580    -0.6780 H     1 <1>   0.0800 
 52 H       -1.3330    -6.6560    -1.5720 H     1 <1>   0.0800 
 53 H       -2.2710    -8.8880     2.7360 H     1 <1>   0.0800 
 54 H       -0.6450    -8.3370     2.9330 H     1 <1>   0.0800 
 55 H       -3.7150    -5.7470    -0.4540 H     1 <1>   0.4000 
@<TRIPOS>BOND
  1   1   2  1   
  2   2   3  ar  
  3   2   4  ar  
  4   3   5  1   
  5   3   6  ar  
  6   4   7  ar  
  7   4  25  1   
  8   5   8  1   
  9   6   9  ar  
 10   6  26  1   
 11   7   9  ar  
 12   7  10  1   
 13   8  11  1   
 14   8  27  1   
 15   8  28  1   
 16   9  29  1   
 17  10  12  1   
 18  10  30  1   
 19  10  31  1   
 20  11  32  1   
 21  11  33  1   
 22  11  34  1   
 23  12  13  1   
 24  12  14  1   
 25  12  35  1   
 26  13  15  1   
 27  13  36  1   
 28  13  37  1   
 29  14  16  1   
 30  14  38  1   
 31  14  39  1   
 32  15  17  1   
 33  15  18  1   
 34  15  40  1   
 35  16  18  1   
 36  16  41  1   
 37  16  42  1   
 38  17  19  1   
 39  17  20  1   
 40  17  43  1   
 41  18  21  1   
 42  18  22  1   
 43  19  23  1   
 44  19  44  1   
 45  19  45  1   
 46  20  46  1   
 47  20  47  1   
 48  20  48  1   
 49  21  23  1   
 50  21  49  1   
 51  21  50  1   
 52  22  24  1   
 53  22  51  1   
 54  22  52  1   
 55  23  53  1   
 56  23  54  1   
 57  24  55  1   
@<TRIPOS>SUBSTRUCTURE
  1 ****  12 GROUP 4 **** **** 0

# MOE 2024.06 (io_trps.svl 2023.06)
