@<TRIPOS>MOLECULE
NONAME
55 58 1 0 0 
SMALL
USER_CHARGES


@<TRIPOS>ATOM
  1 CL       1.3830    -0.6530     1.0960 Cl    1 <1>  -0.1770 
  2 C        0.0350    -1.7590     1.0920 C.ar  1 <1>   0.1770 
  3 C       -1.1150    -1.4330     1.7850 C.ar  1 <1>  -0.1500 
  4 C        0.1320    -2.9480     0.3930 C.ar  1 <1>  -0.1500 
  5 C       -2.1820    -2.3140     1.7790 C.ar  1 <1>  -0.1500 
  6 C       -0.9400    -3.8220     0.3950 C.ar  1 <1>  -0.1500 
  7 C       -2.1130    -3.5250     1.0890 C.ar  1 <1>   0.0530 
  8 C       -3.2150    -4.4540     1.0810 C.2   1 <1>  -0.2050 
  9 N       -4.0270    -4.6940     2.1350 N.pl3 1 <1>   0.3000 
 10 C       -3.6750    -5.2640     0.0980 C.2   1 <1>  -0.1500 
 11 N       -4.9730    -5.6050     1.8720 N.2   1 <1>  -0.7070 
 12 C       -4.7660    -5.9690     0.6150 C.2   1 <1>   0.2030 
 13 C       -5.5320    -6.9390    -0.1710 C.2   1 <1>   0.7160 
 14 O       -5.3440    -7.0130    -1.3760 O.2   1 <1>  -0.5700 
 15 N       -6.4660    -7.7960     0.3960 N.am  1 <1>  -0.6600 
 16 C       -7.5740    -8.3890    -0.4130 C.3   1 <1>   0.2200 
 17 C       -6.1670    -8.4250     1.7190 C.3   1 <1>   0.0600 
 18 C       -8.2860    -7.3450    -1.2740 C.3   1 <1>  -0.1600 
 19 C       -8.7160    -8.9390     0.4460 C.3   1 <1>  -0.1600 
 20 C       -9.6780    -7.9180    -1.5660 C.3   1 <1>  -0.0800 
 21 C       -9.9580    -8.9400    -0.4540 C.3   1 <1>  -0.0800 
 22 C      -10.7910    -6.8670    -1.4870 C.3   1 <1>  -0.1600 
 23 C      -11.2290    -8.4620     0.2620 C.3   1 <1>  -0.1600 
 24 C      -11.2930    -6.9710    -0.0490 C.3   1 <1>   0.4230 
 25 N      -12.6450    -6.3770     0.1890 N.4   1 <1>  -0.9590 
 26 C      -13.7430    -6.9120    -0.6820 C.3   1 <1>   0.2630 
 27 C      -12.5830    -4.8870     0.0830 C.3   1 <1>   0.2630 
 28 H       -1.1680    -0.5000     2.3160 H     1 <1>   0.1500 
 29 H        1.0360    -3.1810    -0.1410 H     1 <1>   0.1500 
 30 H       -3.0810    -2.0510     2.3070 H     1 <1>   0.1500 
 31 H       -0.8700    -4.7490    -0.1450 H     1 <1>   0.1500 
 32 H       -3.9350    -4.2450     3.0530 H     1 <1>   0.2700 
 33 H       -3.3000    -5.3690    -0.9050 H     1 <1>   0.1500 
 34 H       -7.1820    -9.1710    -1.0440 H     1 <1>   0.0800 
 35 H       -6.3140    -9.4890     1.6690 H     1 <1>   0.0800 
 36 H       -6.8060    -8.0050     2.4750 H     1 <1>   0.0800 
 37 H       -5.1440    -8.2460     2.0010 H     1 <1>   0.0800 
 38 H       -8.3590    -6.4270    -0.7180 H     1 <1>   0.0800 
 39 H       -7.7530    -7.1620    -2.1910 H     1 <1>   0.0800 
 40 H       -8.4970    -9.9310     0.8010 H     1 <1>   0.0800 
 41 H       -8.8710    -8.2820     1.2840 H     1 <1>   0.0800 
 42 H       -9.6720    -8.4040    -2.5280 H     1 <1>   0.0800 
 43 H      -10.0980    -9.9220    -0.8770 H     1 <1>   0.0800 
 44 H      -11.5560    -7.1440    -2.1880 H     1 <1>   0.0800 
 45 H      -10.4280    -5.8820    -1.7230 H     1 <1>   0.0800 
 46 H      -11.1920    -8.6550     1.3200 H     1 <1>   0.0800 
 47 H      -12.0650    -8.9840    -0.1660 H     1 <1>   0.0800 
 48 H      -10.5720    -6.4780     0.5860 H     1 <1>   0.0800 
 49 H      -12.8850    -6.6080     1.1650 H     1 <1>   0.4500 
 50 H      -13.5520    -6.6780    -1.7160 H     1 <1>   0.0800 
 51 H      -14.6870    -6.4740    -0.4020 H     1 <1>   0.0800 
 52 H      -13.8220    -7.9820    -0.5790 H     1 <1>   0.0800 
 53 H      -12.3330    -4.5930    -0.9240 H     1 <1>   0.0800 
 54 H      -11.8320    -4.4940     0.7510 H     1 <1>   0.0800 
 55 H      -13.5340    -4.4520     0.3430 H     1 <1>   0.0800 
@<TRIPOS>BOND
  1   1   2  1   
  2   2   3  ar  
  3   2   4  ar  
  4   3   5  ar  
  5   3  28  1   
  6   4   6  ar  
  7   4  29  1   
  8   5   7  ar  
  9   5  30  1   
 10   6   7  ar  
 11   6  31  1   
 12   7   8  1   
 13   8   9  1   
 14   8  10  2   
 15   9  11  1   
 16   9  32  1   
 17  10  12  1   
 18  10  33  1   
 19  11  12  2   
 20  12  13  1   
 21  13  14  2   
 22  13  15  am  
 23  15  16  1   
 24  15  17  1   
 25  16  18  1   
 26  16  19  1   
 27  16  34  1   
 28  17  35  1   
 29  17  36  1   
 30  17  37  1   
 31  18  20  1   
 32  18  38  1   
 33  18  39  1   
 34  19  21  1   
 35  19  40  1   
 36  19  41  1   
 37  20  21  1   
 38  20  22  1   
 39  20  42  1   
 40  21  23  1   
 41  21  43  1   
 42  22  24  1   
 43  22  44  1   
 44  22  45  1   
 45  23  24  1   
 46  23  46  1   
 47  23  47  1   
 48  24  25  1   
 49  24  48  1   
 50  25  26  1   
 51  25  27  1   
 52  25  49  1   
 53  26  50  1   
 54  26  51  1   
 55  26  52  1   
 56  27  53  1   
 57  27  54  1   
 58  27  55  1   
@<TRIPOS>SUBSTRUCTURE
  1 ****  12 GROUP 4 **** **** 0

# MOE 2024.06 (io_trps.svl 2023.06)
