@<TRIPOS>MOLECULE
NONAME
45 47 1 0 0 
SMALL
USER_CHARGES


@<TRIPOS>ATOM
  1 F       -0.4330    -0.5960    -0.2440 F     1 <1>  -0.1900 
  2 C       -0.4110    -1.9040    -0.1450 C.ar  1 <1>   0.1900 
  3 C       -1.6210    -2.5830     0.0350 C.ar  1 <1>   0.1170 
  4 C        0.8180    -2.5350    -0.2300 C.ar  1 <1>  -0.1500 
  5 N       -2.8250    -1.8570     0.1070 N.am  1 <1>  -0.5470 
  6 C       -1.5560    -3.9720     0.1200 C.ar  1 <1>  -0.1500 
  7 C        0.8620    -3.9170    -0.1370 C.ar  1 <1>  -0.1500 
  8 C       -4.0710    -2.1780     0.5630 C.2   1 <1>   0.6900 
  9 C       -0.3280    -4.6020     0.0350 C.ar  1 <1>   0.1900 
 10 O       -4.2830    -3.2530     1.0930 O.2   1 <1>  -0.5700 
 11 N       -5.0740    -1.2510     0.4340 N.am  1 <1>  -0.6600 
 12 F       -0.2850    -5.9060     0.1170 F     1 <1>  -0.1900 
 13 C       -6.4100    -1.4780     1.0610 C.3   1 <1>   0.1400 
 14 C       -5.0090    -0.0940    -0.5110 C.3   1 <1>   0.1400 
 15 C       -7.4760    -1.7760    -0.0170 C.3   1 <1>   0.0000 
 16 C       -6.4050     0.3570    -0.9720 C.3   1 <1>  -0.1600 
 17 C       -8.8800    -1.6850     0.6090 C.3   1 <1>   0.2000 
 18 C       -7.3090    -0.8510    -1.2650 C.3   1 <1>  -0.1600 
 19 C       -7.4480    -3.2480    -0.4600 C.3   1 <1>  -0.1600 
 20 O       -9.3240    -0.3620     0.6890 O.3   1 <1>  -0.5600 
 21 C       -9.7860    -2.5400    -0.2840 C.3   1 <1>  -0.1600 
 22 C       -8.8560    -3.5360    -0.9920 C.3   1 <1>  -0.1600 
 23 C      -10.4420    -0.1650     1.4940 C.3   1 <1>   0.0400 
 24 H        1.7150    -1.9580    -0.3660 H     1 <1>   0.1500 
 25 H       -2.7320    -0.8660    -0.0940 H     1 <1>   0.3700 
 26 H       -2.4430    -4.5640     0.2480 H     1 <1>   0.1500 
 27 H        1.7930    -4.4540    -0.1960 H     1 <1>   0.1500 
 28 H       -6.3670    -2.2800     1.7780 H     1 <1>   0.0800 
 29 H       -6.6860    -0.5880     1.5980 H     1 <1>   0.0800 
 30 H       -4.5040     0.7290    -0.0360 H     1 <1>   0.0800 
 31 H       -4.4450    -0.3870    -1.3800 H     1 <1>   0.0800 
 32 H       -6.8590     0.9670    -0.2100 H     1 <1>   0.0800 
 33 H       -6.3100     0.9650    -1.8540 H     1 <1>   0.0800 
 34 H       -8.8510    -2.1040     1.6020 H     1 <1>   0.0800 
 35 H       -6.8580    -1.4000    -2.0720 H     1 <1>   0.0800 
 36 H       -8.2640    -0.5060    -1.6190 H     1 <1>   0.0800 
 37 H       -6.6810    -3.4530    -1.1880 H     1 <1>   0.0800 
 38 H       -7.2640    -3.8780     0.3940 H     1 <1>   0.0800 
 39 H      -10.5190    -3.0560     0.3090 H     1 <1>   0.0800 
 40 H      -10.2780    -1.9230    -1.0160 H     1 <1>   0.0800 
 41 H       -9.1400    -4.5560    -0.7970 H     1 <1>   0.0800 
 42 H       -8.8850    -3.3630    -2.0540 H     1 <1>   0.0800 
 43 H      -10.6710     0.8860     1.4940 H     1 <1>   0.0800 
 44 H      -10.2210    -0.4880     2.4960 H     1 <1>   0.0800 
 45 H      -11.2760    -0.7150     1.0920 H     1 <1>   0.0800 
@<TRIPOS>BOND
  1   1   2  1   
  2   2   3  ar  
  3   2   4  ar  
  4   3   5  1   
  5   3   6  ar  
  6   4   7  ar  
  7   4  24  1   
  8   5   8  am  
  9   5  25  1   
 10   6   9  ar  
 11   6  26  1   
 12   7   9  ar  
 13   7  27  1   
 14   8  10  2   
 15   8  11  am  
 16   9  12  1   
 17  11  13  1   
 18  11  14  1   
 19  13  15  1   
 20  13  28  1   
 21  13  29  1   
 22  14  16  1   
 23  14  30  1   
 24  14  31  1   
 25  15  17  1   
 26  15  18  1   
 27  15  19  1   
 28  16  18  1   
 29  16  32  1   
 30  16  33  1   
 31  17  20  1   
 32  17  21  1   
 33  17  34  1   
 34  18  35  1   
 35  18  36  1   
 36  19  22  1   
 37  19  37  1   
 38  19  38  1   
 39  20  23  1   
 40  21  22  1   
 41  21  39  1   
 42  21  40  1   
 43  22  41  1   
 44  22  42  1   
 45  23  43  1   
 46  23  44  1   
 47  23  45  1   
@<TRIPOS>SUBSTRUCTURE
  1 ****   8 GROUP 4 **** **** 0

# MOE 2024.06 (io_trps.svl 2023.06)
