@<TRIPOS>MOLECULE
NONAME
50 52 1 0 0 
SMALL
USER_CHARGES


@<TRIPOS>ATOM
  1 O        0.6150    -0.7190    -0.6460 O.2   1 <1>  -0.5700 
  2 C        1.8170    -0.7470    -0.5290 C.2   1 <1>   0.5690 
  3 N        2.4530    -1.6500     0.2800 N.am  1 <1>  -0.6600 
  4 C        2.6200     0.2720    -1.3160 C.3   1 <1>  -0.0990 
  5 C        3.9260    -1.7080     0.4340 C.3   1 <1>   0.1400 
  6 C        1.6910    -2.6350     1.0970 C.3   1 <1>   0.0600 
  7 C        3.3590     1.2830    -0.4180 C.3   1 <1>  -0.1600 
  8 C        4.4500    -0.4480     1.1340 C.3   1 <1>  -0.1600 
  9 C        4.6780     0.7990     0.2420 C.3   1 <1>   0.0000 
 10 C        5.7830     0.5060    -0.8040 C.3   1 <1>  -0.1600 
 11 C        5.2110     1.9170     1.1690 C.3   1 <1>  -0.1600 
 12 C        6.2690     1.7500    -1.5560 C.3   1 <1>   0.2090 
 13 C        5.6890     3.1720     0.4310 C.3   1 <1>   0.2090 
 14 N        6.6930     2.8020    -0.5970 N.pl3 1 <1>  -0.8380 
 15 C        8.0520     2.9990    -0.2870 C.ar  1 <1>   0.4100 
 16 N        8.7980     1.9050    -0.3520 N.ar  1 <1>  -0.6200 
 17 C        8.5900     4.2860     0.0930 C.ar  1 <1>   0.4100 
 18 C       10.0580     2.1170    -0.0070 C.ar  1 <1>   0.1600 
 19 N        9.8560     4.4560     0.4420 N.ar  1 <1>  -0.6200 
 20 N        7.8180     5.4650     0.0990 N.pl3 1 <1>  -0.8380 
 21 C       10.5660     3.3400     0.3780 C.ar  1 <1>   0.1600 
 22 C        8.2070     6.5930     0.9890 C.3   1 <1>   0.1290 
 23 C        7.2400     5.8910    -1.2020 C.3   1 <1>   0.1290 
 24 H        1.9260     0.8180    -1.9300 H     1 <1>   0.0800 
 25 H        3.2880    -0.2360    -1.9830 H     1 <1>   0.0800 
 26 H        4.3880    -1.8480    -0.5270 H     1 <1>   0.0800 
 27 H        4.1790    -2.5650     1.0350 H     1 <1>   0.0800 
 28 H        0.6300    -2.5120     0.9590 H     1 <1>   0.0800 
 29 H        1.9180    -2.4950     2.1390 H     1 <1>   0.0800 
 30 H        1.9600    -3.6350     0.8050 H     1 <1>   0.0800 
 31 H        2.6750     1.5960     0.3540 H     1 <1>   0.0800 
 32 H        3.5570     2.1520    -1.0170 H     1 <1>   0.0800 
 33 H        5.3920    -0.7100     1.5820 H     1 <1>   0.0800 
 34 H        3.7830    -0.2040     1.9430 H     1 <1>   0.0800 
 35 H        5.4590    -0.2150    -1.5280 H     1 <1>   0.0800 
 36 H        6.6390     0.0840    -0.3080 H     1 <1>   0.0800 
 37 H        6.0500     1.5490     1.7340 H     1 <1>   0.0800 
 38 H        4.4540     2.2020     1.8770 H     1 <1>   0.0800 
 39 H        5.4850     2.1410    -2.1790 H     1 <1>   0.0800 
 40 H        7.0920     1.4870    -2.1990 H     1 <1>   0.0800 
 41 H        6.1220     3.8510     1.1460 H     1 <1>   0.0800 
 42 H        4.8670     3.6770    -0.0420 H     1 <1>   0.0800 
 43 H       10.7150     1.2660    -0.0340 H     1 <1>   0.1500 
 44 H       11.6040     3.4120     0.6460 H     1 <1>   0.1500 
 45 H        8.5240     6.2100     1.9440 H     1 <1>   0.0800 
 46 H        7.3690     7.2500     1.1390 H     1 <1>   0.0800 
 47 H        9.0210     7.1420     0.5480 H     1 <1>   0.0800 
 48 H        7.2030     5.0630    -1.8890 H     1 <1>   0.0800 
 49 H        7.8440     6.6690    -1.6350 H     1 <1>   0.0800 
 50 H        6.2400     6.2580    -1.0500 H     1 <1>   0.0800 
@<TRIPOS>BOND
  1   1   2  2   
  2   2   3  am  
  3   2   4  1   
  4   3   5  1   
  5   3   6  1   
  6   4   7  1   
  7   4  24  1   
  8   4  25  1   
  9   5   8  1   
 10   5  26  1   
 11   5  27  1   
 12   6  28  1   
 13   6  29  1   
 14   6  30  1   
 15   7   9  1   
 16   7  31  1   
 17   7  32  1   
 18   8   9  1   
 19   8  33  1   
 20   8  34  1   
 21   9  10  1   
 22   9  11  1   
 23  10  12  1   
 24  10  35  1   
 25  10  36  1   
 26  11  13  1   
 27  11  37  1   
 28  11  38  1   
 29  12  14  1   
 30  12  39  1   
 31  12  40  1   
 32  13  14  1   
 33  13  41  1   
 34  13  42  1   
 35  14  15  1   
 36  15  16  ar  
 37  15  17  ar  
 38  16  18  ar  
 39  17  19  ar  
 40  17  20  1   
 41  18  21  ar  
 42  18  43  1   
 43  19  21  ar  
 44  20  22  1   
 45  20  23  1   
 46  21  44  1   
 47  22  45  1   
 48  22  46  1   
 49  22  47  1   
 50  23  48  1   
 51  23  49  1   
 52  23  50  1   
@<TRIPOS>SUBSTRUCTURE
  1 ****  11 GROUP 4 **** **** 0

# MOE 2024.06 (io_trps.svl 2023.06)
