@<TRIPOS>MOLECULE
NONAME
38 40 1 0 0 
SMALL
USER_CHARGES


@<TRIPOS>ATOM
  1 S       -2.2380    -0.1010    -2.1770 S.3   1 <1>  -0.0800 
  2 C       -2.4510    -1.3510    -0.9640 C.2   1 <1>  -0.1100 
  3 C       -2.6890     1.1450    -1.0290 C.2   1 <1>  -0.1100 
  4 C       -2.8450    -0.8210     0.2110 C.2   1 <1>  -0.1810 
  5 C       -2.9750     0.6060     0.1710 C.2   1 <1>  -0.1500 
  6 C       -3.1380    -1.5900     1.4960 C.3   1 <1>   0.0820 
  7 C       -3.3150    -3.0900     1.2910 C.2   1 <1>   0.5690 
  8 O       -2.4650    -3.8290     1.7290 O.2   1 <1>  -0.5700 
  9 N       -4.4170    -3.5800     0.6400 N.am  1 <1>  -0.6600 
 10 C       -5.5250    -2.7840     0.0530 C.3   1 <1>   0.1400 
 11 C       -4.6240    -5.0270     0.3970 C.3   1 <1>   0.1400 
 12 C       -6.4480    -3.8130    -0.6040 C.3   1 <1>   0.2000 
 13 C       -6.1040    -5.1570     0.0370 C.3   1 <1>  -0.0800 
 14 O       -7.7840    -3.5150    -0.3820 O.3   1 <1>  -0.6800 
 15 C       -6.4290    -6.3480    -0.8820 C.3   1 <1>  -0.0170 
 16 C       -6.1140    -7.6770    -0.2150 C.ar  1 <1>   0.1670 
 17 N       -4.8580    -8.0880    -0.2820 N.ar  1 <1>  -0.6200 
 18 C       -7.1240    -8.3910     0.4270 C.ar  1 <1>   0.1600 
 19 C       -4.6810    -9.2460     0.3320 C.ar  1 <1>   0.1600 
 20 N       -6.9490    -9.5490     1.0420 N.ar  1 <1>  -0.6200 
 21 C       -5.6920    -9.9530     0.9720 C.ar  1 <1>   0.1600 
 22 H       -2.2550    -2.3660    -1.2640 H     1 <1>   0.1500 
 23 H       -2.6910     2.1620    -1.3790 H     1 <1>   0.1500 
 24 H       -3.2740     1.1640     1.0410 H     1 <1>   0.1500 
 25 H       -4.0310    -1.2050     1.9490 H     1 <1>   0.0800 
 26 H       -2.3290    -1.4300     2.1860 H     1 <1>   0.0800 
 27 H       -6.0360    -2.2490     0.8330 H     1 <1>   0.0800 
 28 H       -5.1470    -2.0970    -0.6840 H     1 <1>   0.0800 
 29 H       -3.9980    -5.3380    -0.4220 H     1 <1>   0.0800 
 30 H       -4.3740    -5.6080     1.2700 H     1 <1>   0.0800 
 31 H       -6.2750    -3.8280    -1.6670 H     1 <1>   0.0800 
 32 H       -6.6450    -5.2610     0.9610 H     1 <1>   0.0800 
 33 H       -7.9760    -3.5000     0.5750 H     1 <1>   0.4000 
 34 H       -5.8660    -6.2730    -1.7950 H     1 <1>   0.0800 
 35 H       -7.4720    -6.3170    -1.1430 H     1 <1>   0.0800 
 36 H       -8.1210    -7.9870     0.4340 H     1 <1>   0.1500 
 37 H       -3.6860    -9.6570     0.3290 H     1 <1>   0.1500 
 38 H       -5.4490   -10.8870     1.4450 H     1 <1>   0.1500 
@<TRIPOS>BOND
  1   1   2  1   
  2   1   3  1   
  3   2   4  2   
  4   2  22  1   
  5   3   5  2   
  6   3  23  1   
  7   4   5  1   
  8   4   6  1   
  9   5  24  1   
 10   6   7  1   
 11   6  25  1   
 12   6  26  1   
 13   7   8  2   
 14   7   9  am  
 15   9  10  1   
 16   9  11  1   
 17  10  12  1   
 18  10  27  1   
 19  10  28  1   
 20  11  13  1   
 21  11  29  1   
 22  11  30  1   
 23  12  13  1   
 24  12  14  1   
 25  12  31  1   
 26  13  15  1   
 27  13  32  1   
 28  14  33  1   
 29  15  16  1   
 30  15  34  1   
 31  15  35  1   
 32  16  17  ar  
 33  16  18  ar  
 34  17  19  ar  
 35  18  20  ar  
 36  18  36  1   
 37  19  21  ar  
 38  19  37  1   
 39  20  21  ar  
 40  21  38  1   
@<TRIPOS>SUBSTRUCTURE
  1 ****  11 GROUP 4 **** **** 0

# MOE 2024.06 (io_trps.svl 2023.06)
