@<TRIPOS>MOLECULE
NONAME
39 41 1 0 0 
SMALL
USER_CHARGES


@<TRIPOS>ATOM
  1 F        2.5680    -2.1160     2.5630 F     1 <1>  -0.3400 
  2 C        2.5600    -1.5360     1.3690 C.3   1 <1>   1.1640 
  3 F        3.8250    -1.4980     0.9660 F     1 <1>  -0.3400 
  4 F        2.1950    -0.2760     1.5670 F     1 <1>  -0.3400 
  5 C        1.6460    -2.2450     0.3650 C.ar  1 <1>  -0.1440 
  6 C        0.5470    -2.9830     0.7580 C.ar  1 <1>  -0.1500 
  7 C        1.8630    -2.1830    -1.0040 C.ar  1 <1>  -0.1500 
  8 C       -0.2630    -3.6060    -0.1830 C.ar  1 <1>   0.4100 
  9 C        1.0030    -2.8380    -1.8660 C.ar  1 <1>   0.1600 
 10 N       -0.0480    -3.5430    -1.4910 N.ar  1 <1>  -0.6200 
 11 N       -1.3480    -4.3360     0.2450 N.pl3 1 <1>  -0.8380 
 12 C       -2.6690    -3.9690    -0.3420 C.3   1 <1>   0.2090 
 13 C       -1.1870    -5.8170     0.1710 C.3   1 <1>   0.2090 
 14 C       -3.2040    -5.2450    -0.9890 C.3   1 <1>   0.2000 
 15 C       -2.5570    -6.3790    -0.2080 C.3   1 <1>  -0.0800 
 16 O       -4.5880    -5.3350    -0.9030 O.3   1 <1>  -0.6800 
 17 C       -2.4960    -7.6920    -1.0070 C.3   1 <1>  -0.0170 
 18 C       -1.9620    -8.8410    -0.1670 C.ar  1 <1>   0.1670 
 19 N       -0.6490    -8.8890     0.0060 N.ar  1 <1>  -0.6200 
 20 C       -2.8470    -9.7650     0.3690 C.ar  1 <1>  -0.1500 
 21 C       -0.2020    -9.8980     0.7360 C.ar  1 <1>   0.1600 
 22 C       -2.3680   -10.8100     1.1300 C.ar  1 <1>  -0.1500 
 23 C       -1.0040   -10.8690     1.3120 C.ar  1 <1>  -0.1500 
 24 H        0.2840    -3.0960     1.7940 H     1 <1>   0.1500 
 25 H        2.6940    -1.6290    -1.4070 H     1 <1>   0.1500 
 26 H        1.1900    -2.7790    -2.9250 H     1 <1>   0.1500 
 27 H       -3.3190    -3.6430     0.4510 H     1 <1>   0.0800 
 28 H       -2.5730    -3.1850    -1.0740 H     1 <1>   0.0800 
 29 H       -0.4580    -6.0670    -0.5820 H     1 <1>   0.0800 
 30 H       -0.8560    -6.2110     1.1170 H     1 <1>   0.0800 
 31 H       -2.9180    -5.2690    -2.0270 H     1 <1>   0.0800 
 32 H       -3.1000    -6.5400     0.7070 H     1 <1>   0.0800 
 33 H       -4.8690    -5.3220     0.0310 H     1 <1>   0.4000 
 34 H       -1.8680    -7.5670    -1.8720 H     1 <1>   0.0800 
 35 H       -3.4820    -7.9360    -1.3590 H     1 <1>   0.0800 
 36 H       -3.9030    -9.6710     0.1930 H     1 <1>   0.1500 
 37 H        0.8620    -9.9550     0.8840 H     1 <1>   0.1500 
 38 H       -3.0270   -11.5450     1.5590 H     1 <1>   0.1500 
 39 H       -0.5620   -11.6580     1.8930 H     1 <1>   0.1500 
@<TRIPOS>BOND
  1   1   2  1   
  2   2   3  1   
  3   2   4  1   
  4   2   5  1   
  5   5   6  ar  
  6   5   7  ar  
  7   6   8  ar  
  8   6  24  1   
  9   7   9  ar  
 10   7  25  1   
 11   8  10  ar  
 12   8  11  1   
 13   9  10  ar  
 14   9  26  1   
 15  11  12  1   
 16  11  13  1   
 17  12  14  1   
 18  12  27  1   
 19  12  28  1   
 20  13  15  1   
 21  13  29  1   
 22  13  30  1   
 23  14  15  1   
 24  14  16  1   
 25  14  31  1   
 26  15  17  1   
 27  15  32  1   
 28  16  33  1   
 29  17  18  1   
 30  17  34  1   
 31  17  35  1   
 32  18  19  ar  
 33  18  20  ar  
 34  19  21  ar  
 35  20  22  ar  
 36  20  36  1   
 37  21  23  ar  
 38  21  37  1   
 39  22  23  ar  
 40  22  38  1   
 41  23  39  1   
@<TRIPOS>SUBSTRUCTURE
  1 ****  13 GROUP 4 **** **** 0

# MOE 2024.06 (io_trps.svl 2023.06)
