@<TRIPOS>MOLECULE
NONAME
44 46 1 0 0 
SMALL
USER_CHARGES


@<TRIPOS>ATOM
  1 O       -2.3390     1.4160    -3.1690 O.2   1 <1>  -0.5700 
  2 C       -2.5870     1.7480    -2.0220 C.2   1 <1>   0.5440 
  3 N       -3.1220     0.8240    -1.1610 N.am  1 <1>  -0.6600 
  4 C       -2.3740     3.1160    -1.6080 C.ar  1 <1>   0.0860 
  5 C       -3.5410     1.1640     0.2310 C.3   1 <1>   0.2350 
  6 C       -2.7090    -0.6040    -1.2620 C.3   1 <1>   0.2350 
  7 C       -1.1750     3.5540    -1.0290 C.ar  1 <1>   0.0820 
  8 C       -3.3940     4.0530    -1.7750 C.ar  1 <1>  -0.1500 
  9 C       -3.3910    -0.1050     1.0430 C.3   1 <1>  -0.2420 
 10 C       -2.8910    -1.1970     0.1250 C.3   1 <1>  -0.2420 
 11 O       -0.1200     2.7340    -0.8490 O.3   1 <1>  -0.3620 
 12 C       -1.0190     4.8760    -0.6420 C.ar  1 <1>  -0.1500 
 13 C       -3.2380     5.3700    -1.3840 C.ar  1 <1>  -0.1500 
 14 C       -3.0440     0.2190     2.4980 C.2   1 <1>   0.9470 
 15 C       -4.2630    -1.2920     0.7360 C.3   1 <1>  -0.2000 
 16 C       -1.8960    -2.3310     0.3720 C.2   1 <1>   0.9470 
 17 C       -0.1540     1.8210     0.2350 C.3   1 <1>   0.1200 
 18 C       -2.0470     5.7840    -0.8140 C.ar  1 <1>  -0.1500 
 19 O       -3.8160    -0.1320     3.4000 O.co2 1 <1>  -0.9000 
 20 O       -2.0920     0.9780     2.7290 O.co2 1 <1>  -0.9000 
 21 O       -2.3200    -3.4840     0.5320 O.co2 1 <1>  -0.9000 
 22 O       -0.6850    -2.1040     0.2570 O.co2 1 <1>  -0.9000 
 23 C        1.2840     1.5090     0.6460 C.3   1 <1>  -0.1600 
 24 C        1.3030     0.5510     1.8430 C.3   1 <1>  -0.1600 
 25 C        2.7340     0.2490     2.2970 C.3   1 <1>  -0.2400 
 26 H       -2.9180     1.9420     0.6340 H     1 <1>   0.0800 
 27 H       -4.5650     1.4910     0.2450 H     1 <1>   0.0800 
 28 H       -3.3160    -1.1240    -1.9810 H     1 <1>   0.0800 
 29 H       -1.6760    -0.6590    -1.5640 H     1 <1>   0.0800 
 30 H       -4.3180     3.7290    -2.2200 H     1 <1>   0.1500 
 31 H       -0.0860     5.1820    -0.2030 H     1 <1>   0.1500 
 32 H       -4.0410     6.0740    -1.5220 H     1 <1>   0.1500 
 33 H       -5.1270    -1.1730     0.1100 H     1 <1>   0.1000 
 34 H       -4.4140    -2.0200     1.5160 H     1 <1>   0.1000 
 35 H       -0.6890     2.2670     1.0560 H     1 <1>   0.0800 
 36 H       -0.6560     0.9220    -0.0750 H     1 <1>   0.0800 
 37 H       -1.9200     6.8080    -0.5070 H     1 <1>   0.1500 
 38 H        1.7910     1.0500    -0.1840 H     1 <1>   0.0800 
 39 H        1.7820     2.4240     0.9090 H     1 <1>   0.0800 
 40 H        0.7430     0.9790     2.6590 H     1 <1>   0.0800 
 41 H        0.8100    -0.3690     1.5700 H     1 <1>   0.0800 
 42 H        3.2320     1.1530     2.5970 H     1 <1>   0.0800 
 43 H        3.2850    -0.2110     1.4960 H     1 <1>   0.0800 
 44 H        2.7090    -0.4290     3.1300 H     1 <1>   0.0800 
@<TRIPOS>BOND
  1   1   2  2   
  2   2   3  am  
  3   2   4  1   
  4   3   5  1   
  5   3   6  1   
  6   4   7  ar  
  7   4   8  ar  
  8   5   9  1   
  9   5  26  1   
 10   5  27  1   
 11   6  10  1   
 12   6  28  1   
 13   6  29  1   
 14   7  11  1   
 15   7  12  ar  
 16   8  13  ar  
 17   8  30  1   
 18   9  10  1   
 19   9  14  1   
 20   9  15  1   
 21  10  15  1   
 22  10  16  1   
 23  11  17  1   
 24  12  18  ar  
 25  12  31  1   
 26  13  18  ar  
 27  13  32  1   
 28  14  19  ar  
 29  14  20  ar  
 30  15  33  1   
 31  15  34  1   
 32  16  21  ar  
 33  16  22  ar  
 34  17  23  1   
 35  17  35  1   
 36  17  36  1   
 37  18  37  1   
 38  23  24  1   
 39  23  38  1   
 40  23  39  1   
 41  24  25  1   
 42  24  40  1   
 43  24  41  1   
 44  25  42  1   
 45  25  43  1   
 46  25  44  1   
@<TRIPOS>SUBSTRUCTURE
  1 ****   5 GROUP 4 **** **** 0

# MOE 2024.06 (io_trps.svl 2023.06)
