@<TRIPOS>MOLECULE
NONAME
42 43 1 0 0 
SMALL
USER_CHARGES


@<TRIPOS>ATOM
  1 F       -1.1230     0.0710     0.4560 F     1 <1>  -0.3400 
  2 C       -0.1070     0.7850    -0.0120 C.3   1 <1>   1.1640 
  3 F       -0.4620     1.1810    -1.2290 F     1 <1>  -0.3400 
  4 F       -0.0650     1.8860     0.7280 F     1 <1>  -0.3400 
  5 C        1.2120    -0.0180    -0.0150 C.ar  1 <1>  -0.1440 
  6 C        1.4260    -1.1250    -0.8510 C.ar  1 <1>  -0.1440 
  7 C        2.2390     0.3760     0.8430 C.ar  1 <1>  -0.1500 
  8 C        2.6560    -1.7710    -0.8240 C.ar  1 <1>  -0.1500 
  9 C        0.3620    -1.6690    -1.8200 C.3   1 <1>   0.0450 
 10 C        3.4500    -0.2880     0.8690 C.ar  1 <1>  -0.1500 
 11 C        3.6610    -1.3610     0.0300 C.ar  1 <1>  -0.1500 
 12 C        0.3520    -3.1890    -1.9610 C.2   1 <1>   0.5690 
 13 O        0.7660    -3.6390    -3.0040 O.2   1 <1>  -0.5700 
 14 N       -0.1060    -4.0080    -0.9570 N.am  1 <1>  -0.6600 
 15 C       -0.0940    -5.4880    -1.1370 C.3   1 <1>   0.3200 
 16 C       -0.5320    -3.5330     0.3960 C.3   1 <1>   0.1400 
 17 C       -1.5150    -6.0170    -1.1300 C.2   1 <1>  -0.3320 
 18 C       -2.0250    -3.1850     0.4360 C.3   1 <1>   0.1200 
 19 N       -2.1480    -6.6010    -0.0890 N.pl3 1 <1>   0.0480 
 20 C       -2.3990    -5.9920    -2.1510 C.2   1 <1>   0.0770 
 21 O       -2.4140    -3.0770     1.7630 O.3   1 <1>  -0.6800 
 22 C       -3.3830    -6.8830    -0.5600 C.2   1 <1>   0.0360 
 23 C       -1.6560    -6.8630     1.2760 C.3   1 <1>   0.0160 
 24 N       -3.5750    -6.5340    -1.7890 N.2   1 <1>  -0.5650 
 25 H        2.1140     1.2140     1.5090 H     1 <1>   0.1500 
 26 H        2.8530    -2.6070    -1.4740 H     1 <1>   0.1500 
 27 H        0.5490    -1.2450    -2.7900 H     1 <1>   0.0800 
 28 H       -0.6290    -1.3760    -1.5420 H     1 <1>   0.0800 
 29 H        4.2300     0.0330     1.5390 H     1 <1>   0.1500 
 30 H        4.6060    -1.8770     0.0380 H     1 <1>   0.1500 
 31 H        0.4920    -5.9430    -0.3580 H     1 <1>   0.0800 
 32 H        0.3640    -5.7530    -2.0750 H     1 <1>   0.0800 
 33 H        0.0390    -2.6720     0.6880 H     1 <1>   0.0800 
 34 H       -0.3320    -4.3070     1.1150 H     1 <1>   0.0800 
 35 H       -2.6250    -3.9510    -0.0220 H     1 <1>   0.0800 
 36 H       -2.2140    -2.2460    -0.0510 H     1 <1>   0.0800 
 37 H       -2.2440    -5.5980    -3.1430 H     1 <1>   0.1500 
 38 H       -3.3460    -2.7840     1.8210 H     1 <1>   0.4000 
 39 H       -4.1310    -7.3560     0.0520 H     1 <1>   0.1500 
 40 H       -0.6250    -7.1600     1.2400 H     1 <1>   0.0800 
 41 H       -2.2350    -7.6520     1.7200 H     1 <1>   0.0800 
 42 H       -1.7580    -5.9710     1.8670 H     1 <1>   0.0800 
@<TRIPOS>BOND
  1   1   2  1   
  2   2   3  1   
  3   2   4  1   
  4   2   5  1   
  5   5   6  ar  
  6   5   7  ar  
  7   6   8  ar  
  8   6   9  1   
  9   7  10  ar  
 10   7  25  1   
 11   8  11  ar  
 12   8  26  1   
 13   9  12  1   
 14   9  27  1   
 15   9  28  1   
 16  10  11  ar  
 17  10  29  1   
 18  11  30  1   
 19  12  13  2   
 20  12  14  am  
 21  14  15  1   
 22  14  16  1   
 23  15  17  1   
 24  15  31  1   
 25  15  32  1   
 26  16  18  1   
 27  16  33  1   
 28  16  34  1   
 29  17  19  1   
 30  17  20  2   
 31  18  21  1   
 32  18  35  1   
 33  18  36  1   
 34  19  22  1   
 35  19  23  1   
 36  20  24  1   
 37  20  37  1   
 38  21  38  1   
 39  22  24  2   
 40  22  39  1   
 41  23  40  1   
 42  23  41  1   
 43  23  42  1   
@<TRIPOS>SUBSTRUCTURE
  1 ****  16 GROUP 4 **** **** 0

# MOE 2024.06 (io_trps.svl 2023.06)
