@<TRIPOS>MOLECULE
NONAME
42 43 1 0 0 
SMALL
USER_CHARGES


@<TRIPOS>ATOM
  1 O       -1.1840    -0.1440     0.2790 O.2   1 <1>  -0.5700 
  2 C       -2.0530     0.5210     0.8000 C.2   1 <1>   0.6300 
  3 N       -3.0810    -0.0810     1.4780 N.am  1 <1>  -0.6600 
  4 C       -1.9830     2.0480     0.7020 C.3   1 <1>  -0.1000 
  5 C       -3.1950    -1.5680     1.4930 C.3   1 <1>   0.3200 
  6 C       -4.2250     0.6400     2.1040 C.3   1 <1>   0.1400 
  7 C       -2.8930     2.8500    -0.2090 C.3   1 <1>  -0.1900 
  8 C       -1.4190     2.8170    -0.4760 C.3   1 <1>  -0.1900 
  9 C       -3.7750    -2.0600     0.1790 C.2   1 <1>   0.0060 
 10 C       -3.9570     0.8620     3.5950 C.3   1 <1>   0.1200 
 11 C       -3.8710     2.1260    -1.1540 C.3   1 <1>  -0.1450 
 12 C       -3.5500     4.1230     0.3480 C.3   1 <1>  -0.1450 
 13 C       -0.5320     4.0320    -0.1600 C.3   1 <1>  -0.1450 
 14 C       -0.8710     2.1010    -1.7230 C.3   1 <1>  -0.1450 
 15 N       -4.9170    -2.6560     0.0390 N.2   1 <1>  -0.5650 
 16 N       -3.1050    -1.8990    -0.9810 N.pl3 1 <1>   0.0330 
 17 O       -4.9980     1.5920     4.1500 O.3   1 <1>  -0.6800 
 18 C       -4.9940    -2.8940    -1.2850 C.2   1 <1>   0.0770 
 19 C       -3.8960    -2.4380    -1.9260 C.2   1 <1>  -0.3020 
 20 H       -1.7650     2.4570     1.6700 H     1 <1>   0.1000 
 21 H       -3.8280    -1.8840     2.3030 H     1 <1>   0.0800 
 22 H       -2.2240    -2.0060     1.6410 H     1 <1>   0.0800 
 23 H       -5.1240     0.0600     1.9790 H     1 <1>   0.0800 
 24 H       -4.3730     1.5880     1.6240 H     1 <1>   0.0800 
 25 H       -3.0430     1.4100     3.7470 H     1 <1>   0.0800 
 26 H       -3.9060    -0.0800     4.1130 H     1 <1>   0.0800 
 27 H       -3.5220     1.1510    -1.4360 H     1 <1>   0.0800 
 28 H       -4.0120     2.7070    -2.0470 H     1 <1>   0.0800 
 29 H       -4.8280     1.9960    -0.6810 H     1 <1>   0.0800 
 30 H       -2.9660     4.5680     1.1310 H     1 <1>   0.0800 
 31 H       -4.5200     3.8980     0.7530 H     1 <1>   0.0800 
 32 H       -3.6700     4.8440    -0.4410 H     1 <1>   0.0800 
 33 H       -0.7880     4.4890     0.7780 H     1 <1>   0.0800 
 34 H       -0.6270     4.7690    -0.9370 H     1 <1>   0.0800 
 35 H        0.4990     3.7300    -0.0990 H     1 <1>   0.0800 
 36 H       -1.4050     1.2000    -1.9520 H     1 <1>   0.0800 
 37 H        0.1580     1.8300    -1.5670 H     1 <1>   0.0800 
 38 H       -0.9290     2.7530    -2.5760 H     1 <1>   0.0800 
 39 H       -2.1920    -1.4290    -1.0690 H     1 <1>   0.2700 
 40 H       -5.0070     2.5090     3.8110 H     1 <1>   0.4000 
 41 H       -5.8500    -3.3900    -1.7140 H     1 <1>   0.1500 
 42 H       -3.6410    -2.4650    -2.9690 H     1 <1>   0.1500 
@<TRIPOS>BOND
  1   1   2  2   
  2   2   3  am  
  3   2   4  1   
  4   3   5  1   
  5   3   6  1   
  6   4   7  1   
  7   4   8  1   
  8   4  20  1   
  9   5   9  1   
 10   5  21  1   
 11   5  22  1   
 12   6  10  1   
 13   6  23  1   
 14   6  24  1   
 15   7   8  1   
 16   7  11  1   
 17   7  12  1   
 18   8  13  1   
 19   8  14  1   
 20   9  15  2   
 21   9  16  1   
 22  10  17  1   
 23  10  25  1   
 24  10  26  1   
 25  11  27  1   
 26  11  28  1   
 27  11  29  1   
 28  12  30  1   
 29  12  31  1   
 30  12  32  1   
 31  13  33  1   
 32  13  34  1   
 33  13  35  1   
 34  14  36  1   
 35  14  37  1   
 36  14  38  1   
 37  15  18  1   
 38  16  19  1   
 39  16  39  1   
 40  17  40  1   
 41  18  19  2   
 42  18  41  1   
 43  19  42  1   
@<TRIPOS>SUBSTRUCTURE
  1 ****   2 GROUP 4 **** **** 0

# MOE 2024.06 (io_trps.svl 2023.06)
