@<TRIPOS>MOLECULE
NONAME
58 60 1 0 0 
SMALL
USER_CHARGES


@<TRIPOS>ATOM
  1 O        3.4440    -0.1070    -0.5800 O.2   1 <1>  -0.5700 
  2 C        2.3740    -0.6390    -0.8070 C.2   1 <1>   0.5440 
  3 N        1.3840     0.0900    -1.4180 N.am  1 <1>  -0.7300 
  4 C        2.1380    -2.0210    -0.4280 C.ar  1 <1>   0.0860 
  5 C        1.3900     1.4480    -2.0570 C.3   1 <1>   0.2200 
  6 C        0.8580    -2.4980    -0.1520 C.ar  1 <1>  -0.1500 
  7 C        3.1900    -2.9290    -0.3240 C.ar  1 <1>  -0.1500 
  8 C        2.6160     2.3320    -1.7200 C.3   1 <1>   0.3430 
  9 C        0.1160     2.1910    -1.6140 C.3   1 <1>  -0.1600 
 10 C        0.6070    -3.8140     0.1940 C.ar  1 <1>   0.1000 
 11 C        2.9730    -4.2500     0.0240 C.ar  1 <1>  -0.1500 
 12 N        2.7740     2.5130    -0.2360 N.4   1 <1>  -0.9590 
 13 C        0.3380     3.1010    -0.3840 C.3   1 <1>  -0.1600 
 14 N       -0.7330    -4.1500     0.4330 N.pl3 1 <1>  -0.8380 
 15 C        1.6870    -4.7110     0.2840 C.ar  1 <1>   0.0830 
 16 C        1.4840     2.6250     0.5200 C.3   1 <1>   0.3430 
 17 C        3.7800     3.5500     0.0970 C.3   1 <1>   0.3430 
 18 C       -1.0540    -4.5450     1.8380 C.3   1 <1>   0.2090 
 19 C       -1.3320    -5.1280    -0.5250 C.3   1 <1>   0.2090 
 20 O        1.4370    -6.0080     0.6260 O.3   1 <1>  -0.3620 
 21 C        4.3320     3.3110     1.5040 C.3   1 <1>  -0.1600 
 22 C       -2.5700    -4.7530     2.0140 C.3   1 <1>   0.1200 
 23 C       -2.8360    -5.3110    -0.2490 C.3   1 <1>   0.1200 
 24 C        2.4660    -6.9640     0.7450 C.3   1 <1>   0.0400 
 25 C        5.4390     4.3180     1.8380 C.3   1 <1>  -0.2400 
 26 O       -3.0670    -5.6780     1.0840 O.3   1 <1>  -0.5600 
 27 H        0.5380    -0.4410    -1.6430 H     1 <1>   0.3700 
 28 H        1.3550     1.3060    -3.1250 H     1 <1>   0.0800 
 29 H        0.0120    -1.8390    -0.1950 H     1 <1>   0.1500 
 30 H        4.1940    -2.5940    -0.5210 H     1 <1>   0.1500 
 31 H        2.4850     3.2930    -2.1890 H     1 <1>   0.0800 
 32 H        3.5040     1.8760    -2.1280 H     1 <1>   0.0800 
 33 H       -0.6700     1.4830    -1.4130 H     1 <1>   0.0800 
 34 H       -0.2250     2.8110    -2.4260 H     1 <1>   0.0800 
 35 H        3.8230    -4.9030     0.0860 H     1 <1>   0.1500 
 36 H        3.1810     1.5930     0.0390 H     1 <1>   0.4500 
 37 H       -0.5690     3.1480     0.1920 H     1 <1>   0.0800 
 38 H        0.5570     4.1040    -0.7070 H     1 <1>   0.0800 
 39 H        1.5950     3.2980     1.3540 H     1 <1>   0.0800 
 40 H        1.2260     1.6540     0.9100 H     1 <1>   0.0800 
 41 H        3.3380     4.5310     0.0320 H     1 <1>   0.0800 
 42 H        4.5970     3.4980    -0.6050 H     1 <1>   0.0800 
 43 H       -0.7150    -3.7770     2.5100 H     1 <1>   0.0800 
 44 H       -0.5450    -5.4590     2.0890 H     1 <1>   0.0800 
 45 H       -0.8430    -6.0820    -0.4330 H     1 <1>   0.0800 
 46 H       -1.1900    -4.7740    -1.5300 H     1 <1>   0.0800 
 47 H        4.7420     2.3170     1.5650 H     1 <1>   0.0800 
 48 H        3.5510     3.4080     2.2370 H     1 <1>   0.0800 
 49 H       -3.0910    -3.8210     1.8820 H     1 <1>   0.0800 
 50 H       -2.7790    -5.1320     2.9980 H     1 <1>   0.0800 
 51 H       -3.2360    -6.0870    -0.8760 H     1 <1>   0.0800 
 52 H       -3.3660    -4.3960    -0.4490 H     1 <1>   0.0800 
 53 H        2.0190    -7.9010     1.0250 H     1 <1>   0.0800 
 54 H        3.1540    -6.6460     1.5090 H     1 <1>   0.0800 
 55 H        2.9610    -7.0660    -0.2040 H     1 <1>   0.0800 
 56 H        6.2570     4.2310     1.1440 H     1 <1>   0.0800 
 57 H        5.8180     4.1310     2.8280 H     1 <1>   0.0800 
 58 H        5.0620     5.3260     1.8070 H     1 <1>   0.0800 
@<TRIPOS>BOND
  1   1   2  2   
  2   2   3  am  
  3   2   4  1   
  4   3   5  1   
  5   3  27  1   
  6   4   6  ar  
  7   4   7  ar  
  8   5   8  1   
  9   5   9  1   
 10   5  28  1   
 11   6  10  ar  
 12   6  29  1   
 13   7  11  ar  
 14   7  30  1   
 15   8  12  1   
 16   8  31  1   
 17   8  32  1   
 18   9  13  1   
 19   9  33  1   
 20   9  34  1   
 21  10  14  1   
 22  10  15  ar  
 23  11  15  ar  
 24  11  35  1   
 25  12  16  1   
 26  12  17  1   
 27  12  36  1   
 28  13  16  1   
 29  13  37  1   
 30  13  38  1   
 31  14  18  1   
 32  14  19  1   
 33  15  20  1   
 34  16  39  1   
 35  16  40  1   
 36  17  21  1   
 37  17  41  1   
 38  17  42  1   
 39  18  22  1   
 40  18  43  1   
 41  18  44  1   
 42  19  23  1   
 43  19  45  1   
 44  19  46  1   
 45  20  24  1   
 46  21  25  1   
 47  21  47  1   
 48  21  48  1   
 49  22  26  1   
 50  22  49  1   
 51  22  50  1   
 52  23  26  1   
 53  23  51  1   
 54  23  52  1   
 55  24  53  1   
 56  24  54  1   
 57  24  55  1   
 58  25  56  1   
 59  25  57  1   
 60  25  58  1   
@<TRIPOS>SUBSTRUCTURE
  1 ****   4 GROUP 4 **** **** 0

# MOE 2024.06 (io_trps.svl 2023.06)
