@<TRIPOS>MOLECULE
NONAME
35 36 1 0 0 
SMALL
USER_CHARGES


@<TRIPOS>ATOM
  1 O        0.0370    -0.2210    -0.3500 O.2   1 <1>  -0.5700 
  2 C        1.1490    -0.6330    -0.0630 C.2   1 <1>   0.7160 
  3 N        2.1780     0.2500     0.1510 N.am  1 <1>  -0.4940 
  4 C        1.4550    -2.0520     0.0600 C.2   1 <1>   0.1410 
  5 C        2.3110     1.6550     0.0320 C.2   1 <1>  -0.0880 
  6 N        2.7270    -2.4720     0.3540 N.2   1 <1>  -0.5650 
  7 C        0.6560    -3.1580    -0.0720 C.2   1 <1>  -0.3320 
  8 N        1.3720     2.6150     0.2650 N.pl3 1 <1>   0.3140 
  9 C        3.4440     2.3110    -0.3170 C.2   1 <1>  -0.1810 
 10 C        2.6570    -3.7580     0.3880 C.2   1 <1>   0.0370 
 11 N        1.4240    -4.2360     0.1370 N.pl3 1 <1>   0.0330 
 12 C       -0.8260    -3.2860    -0.3930 C.3   1 <1>  -0.0600 
 13 N        1.8790     3.8550     0.0740 N.2   1 <1>  -0.7070 
 14 C       -0.0010     2.4620     0.7610 C.3   1 <1>   0.0160 
 15 C        3.1100     3.6610    -0.2720 C.2   1 <1>   0.1080 
 16 C        4.7900     1.7100    -0.6850 C.3   1 <1>   0.0210 
 17 C        4.0380     4.8130    -0.5850 C.3   1 <1>  -0.0590 
 18 C        5.6600     1.5390     0.5610 C.3   1 <1>  -0.2400 
 19 H        3.0500    -0.2620     0.3130 H     1 <1>   0.3700 
 20 H        3.4900    -4.4090     0.5950 H     1 <1>   0.1500 
 21 H        1.1430    -5.2210     0.1130 H     1 <1>   0.2700 
 22 H       -1.2830    -2.3230    -0.5260 H     1 <1>   0.0800 
 23 H       -1.3370    -3.7900     0.4080 H     1 <1>   0.0800 
 24 H       -0.9620    -3.8470    -1.3000 H     1 <1>   0.0800 
 25 H       -0.0330     1.6640     1.4770 H     1 <1>   0.0800 
 26 H       -0.6470     2.2400    -0.0670 H     1 <1>   0.0800 
 27 H       -0.3120     3.3780     1.2260 H     1 <1>   0.0800 
 28 H        5.2880     2.3440    -1.3970 H     1 <1>   0.0800 
 29 H        4.6380     0.7520    -1.1530 H     1 <1>   0.0800 
 30 H        4.9920     4.6570    -0.1190 H     1 <1>   0.0800 
 31 H        3.6160     5.7290    -0.2140 H     1 <1>   0.0800 
 32 H        4.1650     4.8930    -1.6480 H     1 <1>   0.0800 
 33 H        5.8260     2.4920     1.0320 H     1 <1>   0.0800 
 34 H        6.6100     1.1120     0.2960 H     1 <1>   0.0800 
 35 H        5.1720     0.8900     1.2670 H     1 <1>   0.0800 
@<TRIPOS>BOND
  1   1   2  2   
  2   2   3  am  
  3   2   4  1   
  4   3   5  1   
  5   3  19  1   
  6   4   6  1   
  7   4   7  2   
  8   5   8  1   
  9   5   9  2   
 10   6  10  2   
 11   7  11  1   
 12   7  12  1   
 13   8  13  1   
 14   8  14  1   
 15   9  15  1   
 16   9  16  1   
 17  10  11  1   
 18  10  20  1   
 19  11  21  1   
 20  12  22  1   
 21  12  23  1   
 22  12  24  1   
 23  13  15  2   
 24  14  25  1   
 25  14  26  1   
 26  14  27  1   
 27  15  17  1   
 28  16  18  1   
 29  16  28  1   
 30  16  29  1   
 31  17  30  1   
 32  17  31  1   
 33  17  32  1   
 34  18  33  1   
 35  18  34  1   
 36  18  35  1   
@<TRIPOS>SUBSTRUCTURE
  1 ****   3 GROUP 4 **** **** 0

# MOE 2024.06 (io_trps.svl 2023.06)
