@<TRIPOS>MOLECULE
NONAME
48 51 1 0 0 
SMALL
USER_CHARGES


@<TRIPOS>ATOM
  1 O        0.7590     1.1540    -1.3930 O.co2 1 <1>  -0.9000 
  2 C        0.7650     1.9730    -0.4510 C.2   1 <1>   1.0330 
  3 O        0.7750     1.5290     0.7130 O.co2 1 <1>  -0.9000 
  4 C        0.7740     3.4050    -0.7570 C.2   1 <1>  -0.0060 
  5 N        0.7690     4.4690     0.1180 N.2   1 <1>  -0.5650 
  6 C        0.7990     3.9250    -2.0010 C.2   1 <1>  -0.0100 
  7 C        0.8020     5.4970    -0.6460 C.2   1 <1>   0.2980 
  8 O        0.8180     5.2250    -1.9290 O.3   1 <1>  -0.2800 
  9 C        0.8450     6.9500    -0.1860 C.3   1 <1>   0.2900 
 10 N        2.2170     7.5320    -0.2430 N.3   1 <1>  -0.8100 
 11 C        2.2630     8.9760     0.0600 C.3   1 <1>   0.1900 
 12 C        3.1630     6.6850     0.5110 C.3   1 <1>   0.1100 
 13 C        3.2210     9.6470    -0.9530 C.3   1 <1>   0.3430 
 14 C        2.6300     9.2550     1.5340 C.3   1 <1>  -0.1600 
 15 C        4.3770     7.4940     0.9650 C.3   1 <1>  -0.0800 
 16 N        4.7040     9.4150    -0.7780 N.4   1 <1>  -0.9590 
 17 C        3.9010     8.5200     2.0090 C.3   1 <1>  -0.1600 
 18 C        5.1100     8.0490    -0.2750 C.3   1 <1>   0.3430 
 19 C        5.3580    10.5430    -0.0590 C.3   1 <1>   0.4860 
 20 C        6.8620    10.3910    -0.1640 C.ar  1 <1>  -0.1430 
 21 C        7.5980     9.9570     0.9300 C.ar  1 <1>  -0.1500 
 22 C        7.5150    10.6790    -1.3550 C.ar  1 <1>  -0.1500 
 23 C        8.9690     9.7990     0.8300 C.ar  1 <1>  -0.1500 
 24 C        8.8870    10.5210    -1.4520 C.ar  1 <1>  -0.1500 
 25 C        9.6130    10.0790    -0.3610 C.ar  1 <1>  -0.1500 
 26 H        0.8080     3.4230    -2.9520 H     1 <1>   0.1500 
 27 H        0.4780     6.9930     0.8250 H     1 <1>   0.0800 
 28 H        0.1800     7.5160    -0.8120 H     1 <1>   0.0800 
 29 H        1.2880     9.3960    -0.1280 H     1 <1>   0.0800 
 30 H        2.6760     6.2700     1.3810 H     1 <1>   0.0800 
 31 H        3.4690     5.8570    -0.1090 H     1 <1>   0.0800 
 32 H        3.0310    10.7070    -0.9420 H     1 <1>   0.0800 
 33 H        2.9310     9.2870    -1.9260 H     1 <1>   0.0800 
 34 H        2.7350    10.3140     1.6930 H     1 <1>   0.0800 
 35 H        1.8020     8.9340     2.1420 H     1 <1>   0.0800 
 36 H        5.0490     6.8060     1.4470 H     1 <1>   0.0800 
 37 H        5.1110     9.4620    -1.7190 H     1 <1>   0.4500 
 38 H        3.6520     7.9870     2.9120 H     1 <1>   0.0800 
 39 H        4.6870     9.2000     2.2750 H     1 <1>   0.0800 
 40 H        4.9670     7.3370    -1.0710 H     1 <1>   0.0800 
 41 H        6.1660     8.0580    -0.0610 H     1 <1>   0.0800 
 42 H        5.0720    11.4790    -0.5110 H     1 <1>   0.0800 
 43 H        5.0580    10.5700     0.9720 H     1 <1>   0.0800 
 44 H        7.1200     9.7370     1.8690 H     1 <1>   0.1500 
 45 H        6.9750    11.0330    -2.2160 H     1 <1>   0.1500 
 46 H        9.5400     9.4620     1.6790 H     1 <1>   0.1500 
 47 H        9.3940    10.7440    -2.3760 H     1 <1>   0.1500 
 48 H       10.6800     9.9580    -0.4380 H     1 <1>   0.1500 
@<TRIPOS>BOND
  1   1   2  ar  
  2   2   3  ar  
  3   2   4  1   
  4   4   5  1   
  5   4   6  2   
  6   5   7  2   
  7   6   8  1   
  8   6  26  1   
  9   7   8  1   
 10   7   9  1   
 11   9  10  1   
 12   9  27  1   
 13   9  28  1   
 14  10  11  1   
 15  10  12  1   
 16  11  13  1   
 17  11  14  1   
 18  11  29  1   
 19  12  15  1   
 20  12  30  1   
 21  12  31  1   
 22  13  16  1   
 23  13  32  1   
 24  13  33  1   
 25  14  17  1   
 26  14  34  1   
 27  14  35  1   
 28  15  17  1   
 29  15  18  1   
 30  15  36  1   
 31  16  18  1   
 32  16  19  1   
 33  16  37  1   
 34  17  38  1   
 35  17  39  1   
 36  18  40  1   
 37  18  41  1   
 38  19  20  1   
 39  19  42  1   
 40  19  43  1   
 41  20  21  ar  
 42  20  22  ar  
 43  21  23  ar  
 44  21  44  1   
 45  22  24  ar  
 46  22  45  1   
 47  23  25  ar  
 48  23  46  1   
 49  24  25  ar  
 50  24  47  1   
 51  25  48  1   
@<TRIPOS>SUBSTRUCTURE
  1 ****  12 GROUP 4 **** **** 0

# MOE 2024.06 (io_trps.svl 2023.06)
