@<TRIPOS>MOLECULE
NONAME
43 45 1 0 0 
SMALL
USER_CHARGES


@<TRIPOS>ATOM
  1 O        0.7970    -0.0760    -0.0180 O.2   1 <1>  -0.5700 
  2 C        1.8850    -0.5560     0.1880 C.2   1 <1>   0.5690 
  3 N        2.8810     0.2040     0.7560 N.am  1 <1>  -0.6600 
  4 C        2.1360    -2.0070    -0.2230 C.3   1 <1>  -0.0190 
  5 C        4.3320    -0.1560     0.8140 C.3   1 <1>   0.1400 
  6 C        2.5560     1.5300     1.3490 C.3   1 <1>   0.1400 
  7 C        1.0350    -2.6180    -1.0780 C.3   1 <1>   0.1200 
  8 C        2.1990    -2.9880     0.9450 C.3   1 <1>  -0.1600 
  9 C        5.1470     0.5450    -0.2930 C.3   1 <1>   0.3430 
 10 C        2.5810     2.6250     0.2760 C.3   1 <1>  -0.1600 
 11 O        1.2140    -3.9850    -0.9240 O.3   1 <1>  -0.5600 
 12 C        1.5770    -4.2690     0.3880 C.3   1 <1>   0.1200 
 13 N        4.9040     2.0270    -0.3730 N.4   1 <1>  -0.9590 
 14 C        3.5500     2.3800    -0.8820 C.3   1 <1>   0.3430 
 15 C        6.0120     2.7250    -1.0770 C.3   1 <1>   0.5230 
 16 C        7.1660     2.8570    -0.0890 C.2   1 <1>   0.0070 
 17 N        7.0550     2.5780     1.1760 N.2   1 <1>  -0.5650 
 18 N        8.4030     3.2850    -0.4380 N.pl3 1 <1>   0.0330 
 19 C        8.2800     2.8360     1.6750 C.2   1 <1>   0.0770 
 20 C        9.1130     3.2660     0.7040 C.2   1 <1>  -0.3020 
 21 H        3.0390    -2.0650    -0.8000 H     1 <1>   0.0800 
 22 H        4.4630    -1.2190     0.7230 H     1 <1>   0.0800 
 23 H        4.7310     0.1210     1.7740 H     1 <1>   0.0800 
 24 H        3.2630     1.7610     2.1280 H     1 <1>   0.0800 
 25 H        1.5790     1.4960     1.8060 H     1 <1>   0.0800 
 26 H        1.1180    -2.3590    -2.1180 H     1 <1>   0.0800 
 27 H        0.0540    -2.3690    -0.7090 H     1 <1>   0.0800 
 28 H        1.6040    -2.6410     1.7720 H     1 <1>   0.0800 
 29 H        3.2040    -3.1590     1.2840 H     1 <1>   0.0800 
 30 H        4.9140     0.0890    -1.2400 H     1 <1>   0.0800 
 31 H        6.1920     0.3670    -0.0920 H     1 <1>   0.0800 
 32 H        2.7920     3.5720     0.7390 H     1 <1>   0.0800 
 33 H        1.5910     2.7000    -0.1390 H     1 <1>   0.0800 
 34 H        0.6890    -4.5450     0.9320 H     1 <1>   0.0800 
 35 H        2.2730    -5.0910     0.3770 H     1 <1>   0.0800 
 36 H        5.0130     2.3790     0.5950 H     1 <1>   0.4500 
 37 H        3.5950     3.2700    -1.4890 H     1 <1>   0.0800 
 38 H        3.1720     1.5760    -1.4940 H     1 <1>   0.0800 
 39 H        5.6970     3.7110    -1.3760 H     1 <1>   0.0800 
 40 H        6.3150     2.1700    -1.9500 H     1 <1>   0.0800 
 41 H        8.7550     3.5750    -1.3580 H     1 <1>   0.2700 
 42 H        8.5060     2.6990     2.7220 H     1 <1>   0.1500 
 43 H       10.1480     3.5540     0.7680 H     1 <1>   0.1500 
@<TRIPOS>BOND
  1   1   2  2   
  2   2   3  am  
  3   2   4  1   
  4   3   5  1   
  5   3   6  1   
  6   4   7  1   
  7   4   8  1   
  8   4  21  1   
  9   5   9  1   
 10   5  22  1   
 11   5  23  1   
 12   6  10  1   
 13   6  24  1   
 14   6  25  1   
 15   7  11  1   
 16   7  26  1   
 17   7  27  1   
 18   8  12  1   
 19   8  28  1   
 20   8  29  1   
 21   9  13  1   
 22   9  30  1   
 23   9  31  1   
 24  10  14  1   
 25  10  32  1   
 26  10  33  1   
 27  11  12  1   
 28  12  34  1   
 29  12  35  1   
 30  13  14  1   
 31  13  15  1   
 32  13  36  1   
 33  14  37  1   
 34  14  38  1   
 35  15  16  1   
 36  15  39  1   
 37  15  40  1   
 38  16  17  2   
 39  16  18  1   
 40  17  19  1   
 41  18  20  1   
 42  18  41  1   
 43  19  20  2   
 44  19  42  1   
 45  20  43  1   
@<TRIPOS>SUBSTRUCTURE
  1 ****   5 GROUP 4 **** **** 0

# MOE 2024.06 (io_trps.svl 2023.06)
