@<TRIPOS>MOLECULE
NONAME
53 55 1 0 0 
SMALL
USER_CHARGES


@<TRIPOS>ATOM
  1 O        0.0830     0.2380     2.0430 O.3   1 <1>  -0.6800 
  2 C        0.6600     0.0320     0.7970 C.3   1 <1>   0.2000 
  3 C        1.3310    -1.3420     0.8160 C.3   1 <1>  -0.0800 
  4 C        1.8360     1.0140     0.6420 C.3   1 <1>   0.3430 
  5 C        2.6030    -1.0270     1.6070 C.3   1 <1>   0.3430 
  6 C        1.5960    -1.8460    -0.6300 C.3   1 <1>  -0.0160 
  7 N        3.0670     0.2510     1.0260 N.4   1 <1>  -0.9590 
  8 C        2.9730    -2.4580    -0.8450 C.ar  1 <1>   0.1670 
  9 C        4.0150     1.0120     1.8700 C.3   1 <1>   0.4860 
 10 N        3.9720    -1.6010    -1.0280 N.ar  1 <1>  -0.6200 
 11 C        3.1200    -3.8370    -0.8430 C.ar  1 <1>  -0.1500 
 12 C        4.4470     2.2450     1.1010 C.ar  1 <1>  -0.1430 
 13 C        5.1600    -2.1520    -1.2440 C.ar  1 <1>   0.1600 
 14 C        4.3650    -4.3900    -1.0500 C.ar  1 <1>  -0.1500 
 15 C        4.0490     3.5040     1.5150 C.ar  1 <1>  -0.1500 
 16 C        5.2360     2.1280    -0.0320 C.ar  1 <1>  -0.1500 
 17 C        5.4060    -3.5130    -1.2590 C.ar  1 <1>  -0.1500 
 18 C        4.4290     4.6250     0.8010 C.ar  1 <1>  -0.1500 
 19 C        5.6130     3.2540    -0.7420 C.ar  1 <1>  -0.1500 
 20 C        5.2160     4.5260    -0.3420 C.ar  1 <1>  -0.1430 
 21 C        5.6130     5.8110    -1.1030 C.3   1 <1>   0.1430 
 22 C        6.4230     6.7280    -0.1740 C.3   1 <1>  -0.2400 
 23 C        4.3490     6.5470    -1.5710 C.3   1 <1>  -0.2400 
 24 C        6.4740     5.5370    -2.3480 C.3   1 <1>  -0.2400 
 25 H       -0.7860    -0.2120     2.1150 H     1 <1>   0.4000 
 26 H       -0.0950     0.1590     0.0390 H     1 <1>   0.0800 
 27 H        0.7410    -2.0730     1.3400 H     1 <1>   0.0800 
 28 H        1.6840     1.8710     1.2770 H     1 <1>   0.0800 
 29 H        1.9230     1.3410    -0.3810 H     1 <1>   0.0800 
 30 H        3.3460    -1.8020     1.5160 H     1 <1>   0.0800 
 31 H        2.3490    -0.8870     2.6470 H     1 <1>   0.0800 
 32 H        1.4990    -1.0410    -1.3380 H     1 <1>   0.0800 
 33 H        0.8400    -2.5660    -0.8920 H     1 <1>   0.0800 
 34 H        3.5590    -0.0150     0.1500 H     1 <1>   0.4500 
 35 H        3.5400     1.3020     2.7930 H     1 <1>   0.0800 
 36 H        4.8770     0.4080     2.0970 H     1 <1>   0.0800 
 37 H        2.2730    -4.4820    -0.6870 H     1 <1>   0.1500 
 38 H        5.9880    -1.4850    -1.4210 H     1 <1>   0.1500 
 39 H        4.5160    -5.4570    -1.0570 H     1 <1>   0.1500 
 40 H        3.4410     3.6310     2.3950 H     1 <1>   0.1500 
 41 H        5.5670     1.1630    -0.3760 H     1 <1>   0.1500 
 42 H        6.4010    -3.8820    -1.4380 H     1 <1>   0.1500 
 43 H        4.1040     5.5890     1.1500 H     1 <1>   0.1500 
 44 H        6.2240     3.1090    -1.6140 H     1 <1>   0.1500 
 45 H        6.7410     7.6130    -0.6960 H     1 <1>   0.0800 
 46 H        7.2950     6.2110     0.1840 H     1 <1>   0.0800 
 47 H        5.8400     7.0340     0.6750 H     1 <1>   0.0800 
 48 H        4.6080     7.4270    -2.1320 H     1 <1>   0.0800 
 49 H        3.7450     6.8530    -0.7360 H     1 <1>   0.0800 
 50 H        3.7580     5.9030    -2.1980 H     1 <1>   0.0800 
 51 H        6.7220     6.4570    -2.8460 H     1 <1>   0.0800 
 52 H        5.9430     4.9150    -3.0460 H     1 <1>   0.0800 
 53 H        7.3940     5.0510    -2.0730 H     1 <1>   0.0800 
@<TRIPOS>BOND
  1   1   2  1   
  2   1  25  1   
  3   2   3  1   
  4   2   4  1   
  5   2  26  1   
  6   3   5  1   
  7   3   6  1   
  8   3  27  1   
  9   4   7  1   
 10   4  28  1   
 11   4  29  1   
 12   5   7  1   
 13   5  30  1   
 14   5  31  1   
 15   6   8  1   
 16   6  32  1   
 17   6  33  1   
 18   7   9  1   
 19   7  34  1   
 20   8  10  ar  
 21   8  11  ar  
 22   9  12  1   
 23   9  35  1   
 24   9  36  1   
 25  10  13  ar  
 26  11  14  ar  
 27  11  37  1   
 28  12  15  ar  
 29  12  16  ar  
 30  13  17  ar  
 31  13  38  1   
 32  14  17  ar  
 33  14  39  1   
 34  15  18  ar  
 35  15  40  1   
 36  16  19  ar  
 37  16  41  1   
 38  17  42  1   
 39  18  20  ar  
 40  18  43  1   
 41  19  20  ar  
 42  19  44  1   
 43  20  21  1   
 44  21  22  1   
 45  21  23  1   
 46  21  24  1   
 47  22  45  1   
 48  22  46  1   
 49  22  47  1   
 50  23  48  1   
 51  23  49  1   
 52  23  50  1   
 53  24  51  1   
 54  24  52  1   
 55  24  53  1   
@<TRIPOS>SUBSTRUCTURE
  1 ****   7 GROUP 4 **** **** 0

# MOE 2024.06 (io_trps.svl 2023.06)
