@<TRIPOS>MOLECULE
NONAME
50 53 1 0 0 
SMALL
USER_CHARGES


@<TRIPOS>ATOM
  1 O       -0.0750     0.3780     0.8570 O.2   1 <1>  -0.5700 
  2 C       -0.5820     1.2520     0.1930 C.2   1 <1>   0.5690 
  3 N       -1.9430     1.3410     0.0370 N.am  1 <1>  -0.6600 
  4 C        0.3300     2.2680    -0.4750 C.3   1 <1>  -0.0990 
  5 C       -2.6630     2.4050    -0.7340 C.3   1 <1>   0.1400 
  6 C       -2.8620     0.3330     0.6390 C.3   1 <1>   0.1400 
  7 C        1.8090     2.0040    -0.1990 C.3   1 <1>   0.1200 
  8 C       -3.6390     3.1720     0.1790 C.3   1 <1>   0.1440 
  9 C       -3.8630     1.0280     1.5690 C.3   1 <1>  -0.1600 
 10 O        2.5600     3.0110    -0.8390 O.3   1 <1>  -0.3630 
 11 C       -4.4280     4.1930    -0.6200 C.ar  1 <1>   0.1670 
 12 C       -4.6050     2.1820     0.8680 C.3   1 <1>  -0.1600 
 13 C       -2.8990     4.0670     1.2120 C.3   1 <1>  -0.1600 
 14 C        3.9140     3.0330    -0.7590 C.ar  1 <1>   0.0820 
 15 N       -5.0310     3.9630    -1.7620 N.ar  1 <1>  -0.6200 
 16 C       -4.4430     5.4110    -0.0050 C.ar  1 <1>  -0.1440 
 17 C       -3.6730     5.3940     1.2910 C.3   1 <1>  -0.0170 
 18 C        4.6640     2.0900    -0.0600 C.ar  1 <1>  -0.1500 
 19 C        4.5630     4.0640    -1.4200 C.ar  1 <1>  -0.1500 
 20 C       -5.6470     5.0210    -2.2690 C.ar  1 <1>   0.7200 
 21 C       -5.1260     6.4320    -0.6210 C.ar  1 <1>   0.1600 
 22 C        6.0450     2.1880    -0.0300 C.ar  1 <1>  -0.1500 
 23 C        5.9430     4.1600    -1.3890 C.ar  1 <1>  -0.1500 
 24 N       -5.7420     6.2440    -1.7660 N.ar  1 <1>  -0.6200 
 25 N       -6.2780     4.8230    -3.4270 N.pl3 1 <1>  -0.9000 
 26 C        6.6850     3.2210    -0.6930 C.ar  1 <1>  -0.1500 
 27 H        0.0840     3.2450    -0.1070 H     1 <1>   0.0800 
 28 H        0.1650     2.2300    -1.5350 H     1 <1>   0.0800 
 29 H       -3.2200     1.9340    -1.5260 H     1 <1>   0.0800 
 30 H       -1.9810     3.0970    -1.1920 H     1 <1>   0.0800 
 31 H       -2.3090    -0.4070     1.1930 H     1 <1>   0.0800 
 32 H       -3.3890    -0.1720    -0.1520 H     1 <1>   0.0800 
 33 H        2.1050     1.0480    -0.5970 H     1 <1>   0.0800 
 34 H        2.0110     2.0440     0.8570 H     1 <1>   0.0800 
 35 H       -3.3330     1.3910     2.4320 H     1 <1>   0.0800 
 36 H       -4.5770     0.3030     1.9170 H     1 <1>   0.0800 
 37 H       -5.2550     1.7640     0.1180 H     1 <1>   0.0800 
 38 H       -5.2260     2.7030     1.5760 H     1 <1>   0.0800 
 39 H       -1.9090     4.2820     0.8520 H     1 <1>   0.0800 
 40 H       -2.8070     3.6060     2.1780 H     1 <1>   0.0800 
 41 H       -3.0080     6.2370     1.3730 H     1 <1>   0.0800 
 42 H       -4.3600     5.3860     2.1200 H     1 <1>   0.0800 
 43 H        4.1960     1.2780     0.4630 H     1 <1>   0.1500 
 44 H        3.9790     4.7890    -1.9580 H     1 <1>   0.1500 
 45 H       -5.1670     7.4090    -0.1720 H     1 <1>   0.1500 
 46 H        6.6230     1.4580     0.5100 H     1 <1>   0.1500 
 47 H        6.4380     4.9640    -1.9050 H     1 <1>   0.1500 
 48 H       -6.9850     5.5170    -3.6550 H     1 <1>   0.4000 
 49 H       -6.4970     3.8550    -3.6420 H     1 <1>   0.4000 
 50 H        7.7580     3.2950    -0.6680 H     1 <1>   0.1500 
@<TRIPOS>BOND
  1   1   2  2   
  2   2   3  am  
  3   2   4  1   
  4   3   5  1   
  5   3   6  1   
  6   4   7  1   
  7   4  27  1   
  8   4  28  1   
  9   5   8  1   
 10   5  29  1   
 11   5  30  1   
 12   6   9  1   
 13   6  31  1   
 14   6  32  1   
 15   7  10  1   
 16   7  33  1   
 17   7  34  1   
 18   8  11  1   
 19   8  12  1   
 20   8  13  1   
 21   9  12  1   
 22   9  35  1   
 23   9  36  1   
 24  10  14  1   
 25  11  15  ar  
 26  11  16  ar  
 27  12  37  1   
 28  12  38  1   
 29  13  17  1   
 30  13  39  1   
 31  13  40  1   
 32  14  18  ar  
 33  14  19  ar  
 34  15  20  ar  
 35  16  17  1   
 36  16  21  ar  
 37  17  41  1   
 38  17  42  1   
 39  18  22  ar  
 40  18  43  1   
 41  19  23  ar  
 42  19  44  1   
 43  20  24  ar  
 44  20  25  1   
 45  21  24  ar  
 46  21  45  1   
 47  22  26  ar  
 48  22  46  1   
 49  23  26  ar  
 50  23  47  1   
 51  25  48  1   
 52  25  49  1   
 53  26  50  1   
@<TRIPOS>SUBSTRUCTURE
  1 ****   4 GROUP 4 **** **** 0

# MOE 2024.06 (io_trps.svl 2023.06)
