@<TRIPOS>MOLECULE
NONAME
23 23 1 0 0 
SMALL
USER_CHARGES


@<TRIPOS>ATOM
  1 O        4.4150     0.4380    -1.2040 O.co2 1 <1>  -0.9000 
  2 C        4.8120     0.7070    -0.0670 C.2   1 <1>   0.9060 
  3 O        4.1350     1.2820     0.7800 O.co2 1 <1>  -0.9000 
  4 C        6.1560     0.1700     0.3350 C.3   1 <1>  -0.1860 
  5 C        7.3220     0.8170    -0.4440 C.3   1 <1>  -0.0800 
  6 C        6.0260    -1.3140     0.0540 C.3   1 <1>   0.3430 
  7 C        8.6160     0.0190    -0.2210 C.3   1 <1>  -0.1600 
  8 C        7.5180     2.2810    -0.0320 C.3   1 <1>  -0.2400 
  9 N        7.3190    -1.9940     0.3380 N.4   1 <1>  -0.9060 
 10 C        8.4100    -1.4660    -0.5190 C.3   1 <1>   0.3430 
 11 H        6.2700     0.3300     1.3910 H     1 <1>   0.0800 
 12 H        7.0800     0.7950    -1.4950 H     1 <1>   0.0800 
 13 H        5.7520    -1.4510    -0.9820 H     1 <1>   0.0800 
 14 H        5.2350    -1.7210     0.6640 H     1 <1>   0.0800 
 15 H        8.9560     0.1390     0.7930 H     1 <1>   0.0800 
 16 H        9.3840     0.4030    -0.8690 H     1 <1>   0.0800 
 17 H        7.7400     2.3610     1.0170 H     1 <1>   0.0800 
 18 H        6.6200     2.8430    -0.2280 H     1 <1>   0.0800 
 19 H        8.3190     2.7280    -0.5930 H     1 <1>   0.0800 
 20 H        7.2020    -3.0030     0.1990 H     1 <1>   0.4500 
 21 H        7.5450    -1.8240     1.3230 H     1 <1>   0.4500 
 22 H        9.3250    -2.0040    -0.3300 H     1 <1>   0.0800 
 23 H        8.1480    -1.5880    -1.5580 H     1 <1>   0.0800 
@<TRIPOS>BOND
  1   1   2  ar  
  2   2   3  ar  
  3   2   4  1   
  4   4   5  1   
  5   4   6  1   
  6   4  11  1   
  7   5   7  1   
  8   5   8  1   
  9   5  12  1   
 10   6   9  1   
 11   6  13  1   
 12   6  14  1   
 13   7  10  1   
 14   7  15  1   
 15   7  16  1   
 16   8  17  1   
 17   8  18  1   
 18   8  19  1   
 19   9  10  1   
 20   9  20  1   
 21   9  21  1   
 22  10  22  1   
 23  10  23  1   
@<TRIPOS>SUBSTRUCTURE
  1 ****   4 GROUP 4 **** **** 0

# MOE 2024.06 (io_trps.svl 2023.06)
