@<TRIPOS>MOLECULE
NONAME
50 52 1 0 0 
SMALL
USER_CHARGES


@<TRIPOS>ATOM
  1 O       -2.4850     0.1310    -0.8460 O.2   1 <1>  -0.5700 
  2 C       -2.0030     0.5660     0.1710 C.2   1 <1>   0.5690 
  3 N       -1.6020    -0.2330     1.1980 N.am  1 <1>  -0.7300 
  4 C       -1.8180     2.0760     0.3320 C.3   1 <1>  -0.0190 
  5 C       -1.6620    -1.7120     1.2800 C.3   1 <1>   0.2200 
  6 C       -2.7940     2.9010    -0.5340 C.3   1 <1>  -0.1600 
  7 C       -0.3550     2.4870     0.0440 C.3   1 <1>  -0.1600 
  8 C       -0.8080    -2.3640     0.1940 C.3   1 <1>  -0.1600 
  9 C       -3.1030    -2.2160     1.2090 C.3   1 <1>  -0.1600 
 10 C       -2.6960     4.4150    -0.2470 C.3   1 <1>   0.2000 
 11 C       -0.1810     3.9830    -0.2900 C.3   1 <1>  -0.1600 
 12 C       -0.8330    -3.8870     0.3340 C.3   1 <1>   0.2090 
 13 C       -3.1360    -3.7360     1.3720 C.3   1 <1>   0.2090 
 14 O       -2.9460     5.1140    -1.4420 O.3   1 <1>  -0.5600 
 15 C       -1.3070     4.8320     0.3040 C.3   1 <1>   0.2000 
 16 N       -2.2410    -4.3800     0.3670 N.pl3 1 <1>  -0.8380 
 17 C       -4.2850     5.1830    -1.8240 C.3   1 <1>   0.0400 
 18 O       -1.0660     6.1510    -0.0200 O.3   1 <1>  -0.6800 
 19 C       -2.6520    -5.4580    -0.3940 C.ar  1 <1>   0.7200 
 20 N       -1.7000    -6.2420    -0.9050 N.ar  1 <1>  -0.6200 
 21 N       -3.9650    -5.6340    -0.5500 N.ar  1 <1>  -0.6200 
 22 C       -2.1020    -7.2560    -1.6300 C.ar  1 <1>   0.1600 
 23 C       -4.3380    -6.6550    -1.2810 C.ar  1 <1>   0.1600 
 24 C       -3.4320    -7.5110    -1.8540 C.ar  1 <1>  -0.1500 
 25 H       -1.1790     0.2090     2.0120 H     1 <1>   0.3700 
 26 H       -2.0370     2.3070     1.3600 H     1 <1>   0.0800 
 27 H       -1.2580    -1.9990     2.2360 H     1 <1>   0.0800 
 28 H       -3.8010     2.5680    -0.3540 H     1 <1>   0.0800 
 29 H       -2.5610     2.7160    -1.5690 H     1 <1>   0.0800 
 30 H        0.2490     2.2400     0.9000 H     1 <1>   0.0800 
 31 H        0.0200     1.9120    -0.7870 H     1 <1>   0.0800 
 32 H       -1.1860    -2.1110    -0.7800 H     1 <1>   0.0800 
 33 H        0.2070    -2.0190     0.2660 H     1 <1>   0.0800 
 34 H       -3.6900    -1.7640     1.9870 H     1 <1>   0.0800 
 35 H       -3.5420    -1.9690     0.2590 H     1 <1>   0.0800 
 36 H       -3.4370     4.7030     0.4800 H     1 <1>   0.0800 
 37 H       -0.1970     4.1020    -1.3610 H     1 <1>   0.0800 
 38 H        0.7710     4.3280     0.0730 H     1 <1>   0.0800 
 39 H       -0.3400    -4.1850     1.2430 H     1 <1>   0.0800 
 40 H       -0.2920    -4.3120    -0.4930 H     1 <1>   0.0800 
 41 H       -4.1520    -4.0750     1.2740 H     1 <1>   0.0800 
 42 H       -2.7970    -4.0050     2.3570 H     1 <1>   0.0800 
 43 H       -1.2890     4.7490     1.3770 H     1 <1>   0.0800 
 44 H       -4.3450     5.7670    -2.7250 H     1 <1>   0.0800 
 45 H       -4.8540     5.6600    -1.0460 H     1 <1>   0.0800 
 46 H       -4.6570     4.1910    -2.0140 H     1 <1>   0.0800 
 47 H       -1.5340     6.3030    -0.8740 H     1 <1>   0.4000 
 48 H       -1.3520    -7.8990    -2.0560 H     1 <1>   0.1500 
 49 H       -5.3930    -6.8110    -1.4250 H     1 <1>   0.1500 
 50 H       -3.7500    -8.3440    -2.4520 H     1 <1>   0.1500 
@<TRIPOS>BOND
  1   1   2  2   
  2   2   3  am  
  3   2   4  1   
  4   3   5  1   
  5   3  25  1   
  6   4   6  1   
  7   4   7  1   
  8   4  26  1   
  9   5   8  1   
 10   5   9  1   
 11   5  27  1   
 12   6  10  1   
 13   6  28  1   
 14   6  29  1   
 15   7  11  1   
 16   7  30  1   
 17   7  31  1   
 18   8  12  1   
 19   8  32  1   
 20   8  33  1   
 21   9  13  1   
 22   9  34  1   
 23   9  35  1   
 24  10  14  1   
 25  10  15  1   
 26  10  36  1   
 27  11  15  1   
 28  11  37  1   
 29  11  38  1   
 30  12  16  1   
 31  12  39  1   
 32  12  40  1   
 33  13  16  1   
 34  13  41  1   
 35  13  42  1   
 36  14  17  1   
 37  15  18  1   
 38  15  43  1   
 39  16  19  1   
 40  17  44  1   
 41  17  45  1   
 42  17  46  1   
 43  18  47  1   
 44  19  20  ar  
 45  19  21  ar  
 46  20  22  ar  
 47  21  23  ar  
 48  22  24  ar  
 49  22  48  1   
 50  23  24  ar  
 51  23  49  1   
 52  24  50  1   
@<TRIPOS>SUBSTRUCTURE
  1 ****   1 GROUP 4 **** **** 0

# MOE 2024.06 (io_trps.svl 2023.06)
