@<TRIPOS>MOLECULE
NONAME
52 55 1 0 0 
SMALL
USER_CHARGES


@<TRIPOS>ATOM
  1 S       -0.9940    -0.0370    -1.1340 S.o2  1 <1>   1.0900 
  2 O       -0.3790     0.9530    -0.2820 O.2   1 <1>  -0.6500 
  3 O       -0.4350    -0.3950    -2.4170 O.2   1 <1>  -0.6500 
  4 C       -1.2820    -1.5400    -0.2450 C.3   1 <1>  -0.0550 
  5 C       -2.7280     0.3220    -1.3710 C.3   1 <1>  -0.0550 
  6 C       -2.5400    -2.1160    -0.8880 C.3   1 <1>   0.1760 
  7 C       -3.5370    -0.9520    -1.0650 C.3   1 <1>  -0.1600 
  8 N       -3.1080    -3.2150    -0.0680 N.pl3 1 <1>   0.3140 
  9 N       -3.3830    -3.0350     1.2380 N.2   1 <1>  -0.7070 
 10 C       -3.4040    -4.4780    -0.4680 C.2   1 <1>  -0.3320 
 11 C       -3.8360    -4.1790     1.6470 C.2   1 <1>   0.1080 
 12 C       -3.8710    -5.1290     0.6210 C.2   1 <1>   0.0630 
 13 C       -3.2130    -5.0090    -1.8830 C.3   1 <1>  -0.0600 
 14 C       -4.2730    -4.3900     3.0790 C.3   1 <1>  -0.0590 
 15 N       -4.3070    -6.4770     0.6520 N.am  1 <1>  -0.4930 
 16 C       -4.0500    -7.4840     1.5400 C.2   1 <1>   0.7160 
 17 O       -3.4050    -7.2570     2.5510 O.2   1 <1>  -0.5700 
 18 C       -4.5580    -8.8090     1.2110 C.2   1 <1>   0.1410 
 19 N       -5.2480    -9.0260     0.0520 N.2   1 <1>  -0.5650 
 20 C       -4.4720    -9.9950     1.8920 C.2   1 <1>  -0.3320 
 21 C       -5.5520   -10.2920     0.0440 C.2   1 <1>   0.1330 
 22 N       -5.0980   -10.9170     1.1550 N.pl3 1 <1>   0.0330 
 23 C       -3.8270   -10.3370     3.2280 C.3   1 <1>  -0.0600 
 24 C       -6.2910   -10.9760    -0.9940 C.ar  1 <1>   0.0530 
 25 C       -7.2850   -10.3130    -1.7120 C.ar  1 <1>  -0.1500 
 26 C       -6.0460   -12.3110    -1.3180 C.ar  1 <1>  -0.1500 
 27 C       -8.0120   -10.9520    -2.6990 C.ar  1 <1>  -0.1500 
 28 C       -6.7710   -12.9570    -2.3030 C.ar  1 <1>  -0.1500 
 29 C       -7.7570   -12.2790    -2.9950 C.ar  1 <1>  -0.1500 
 30 H       -1.4680    -1.3170     0.7900 H     1 <1>   0.0800 
 31 H       -0.4510    -2.2140    -0.3270 H     1 <1>   0.0800 
 32 H       -2.8990     0.6450    -2.3800 H     1 <1>   0.0800 
 33 H       -3.0360     1.1090    -0.7070 H     1 <1>   0.0800 
 34 H       -2.2780    -2.5020    -1.8560 H     1 <1>   0.0800 
 35 H       -4.2360    -1.1650    -1.8550 H     1 <1>   0.0800 
 36 H       -4.0830    -0.8000    -0.1490 H     1 <1>   0.0800 
 37 H       -3.8100    -4.4450    -2.5770 H     1 <1>   0.0800 
 38 H       -3.5080    -6.0410    -1.9440 H     1 <1>   0.0800 
 39 H       -2.1790    -4.9410    -2.1690 H     1 <1>   0.0800 
 40 H       -4.5930    -3.4580     3.5050 H     1 <1>   0.0800 
 41 H       -3.4490    -4.7730     3.6510 H     1 <1>   0.0800 
 42 H       -5.0860    -5.0910     3.1200 H     1 <1>   0.0800 
 43 H       -4.7820    -6.8200    -0.1840 H     1 <1>   0.3700 
 44 H       -5.2350   -11.9070     1.3730 H     1 <1>   0.2700 
 45 H       -3.3860    -9.4690     3.6840 H     1 <1>   0.0800 
 46 H       -3.0520   -11.0690     3.0870 H     1 <1>   0.0800 
 47 H       -4.5630   -10.7320     3.9050 H     1 <1>   0.0800 
 48 H       -7.4860    -9.2800    -1.4860 H     1 <1>   0.1500 
 49 H       -5.2740   -12.8530    -0.8030 H     1 <1>   0.1500 
 50 H       -8.7760   -10.4170    -3.2360 H     1 <1>   0.1500 
 51 H       -6.5670   -13.9880    -2.5380 H     1 <1>   0.1500 
 52 H       -8.3230   -12.7790    -3.7630 H     1 <1>   0.1500 
@<TRIPOS>BOND
  1   1   2  2   
  2   1   3  2   
  3   1   4  1   
  4   1   5  1   
  5   4   6  1   
  6   4  30  1   
  7   4  31  1   
  8   5   7  1   
  9   5  32  1   
 10   5  33  1   
 11   6   7  1   
 12   6   8  1   
 13   6  34  1   
 14   7  35  1   
 15   7  36  1   
 16   8   9  1   
 17   8  10  1   
 18   9  11  2   
 19  10  12  2   
 20  10  13  1   
 21  11  12  1   
 22  11  14  1   
 23  12  15  1   
 24  13  37  1   
 25  13  38  1   
 26  13  39  1   
 27  14  40  1   
 28  14  41  1   
 29  14  42  1   
 30  15  16  am  
 31  15  43  1   
 32  16  17  2   
 33  16  18  1   
 34  18  19  1   
 35  18  20  2   
 36  19  21  2   
 37  20  22  1   
 38  20  23  1   
 39  21  22  1   
 40  21  24  1   
 41  22  44  1   
 42  23  45  1   
 43  23  46  1   
 44  23  47  1   
 45  24  25  ar  
 46  24  26  ar  
 47  25  27  ar  
 48  25  48  1   
 49  26  28  ar  
 50  26  49  1   
 51  27  29  ar  
 52  27  50  1   
 53  28  29  ar  
 54  28  51  1   
 55  29  52  1   
@<TRIPOS>SUBSTRUCTURE
  1 ****  15 GROUP 4 **** **** 0

# MOE 2024.06 (io_trps.svl 2023.06)
