@<TRIPOS>MOLECULE
NONAME
49 51 1 0 0 
SMALL
USER_CHARGES


@<TRIPOS>ATOM
  1 N       -0.9300     1.0730     1.2690 N.2   1 <1>  -0.3380 
  2 N       -1.8510     0.1210     1.1610 N.2   1 <1>  -0.3380 
  3 C       -1.3450     2.0800     0.5780 C.2   1 <1>   0.0070 
  4 C       -2.7930     0.5910     0.4180 C.2   1 <1>   0.0360 
  5 N       -2.5350     1.8360     0.0140 N.pl3 1 <1>   0.0480 
  6 C       -0.5640     3.3740     0.4320 C.3   1 <1>   0.5230 
  7 C       -3.3950     2.6920    -0.8360 C.3   1 <1>   0.0960 
  8 N        0.9030     3.1220     0.5320 N.4   1 <1>  -0.9590 
  9 C       -2.8480     2.7780    -2.2650 C.3   1 <1>  -0.2400 
 10 C        1.7410     4.3600     0.6100 C.3   1 <1>   0.4230 
 11 C        1.3130     2.2230    -0.5930 C.3   1 <1>   0.3430 
 12 C        3.2190     3.9540     0.7490 C.3   1 <1>  -0.1600 
 13 C        1.3900     5.3020     1.7890 C.3   1 <1>  -0.1600 
 14 C        2.7690     1.7960    -0.4350 C.3   1 <1>  -0.1600 
 15 C        3.6910     3.0130    -0.3630 C.3   1 <1>  -0.1600 
 16 C        0.1110     6.1710     1.7280 C.3   1 <1>  -0.0170 
 17 C       -0.4250     6.4400     0.3260 C.ar  1 <1>  -0.1430 
 18 C       -1.7680     6.2200     0.0490 C.ar  1 <1>  -0.1500 
 19 C        0.4010     6.9200    -0.6800 C.ar  1 <1>  -0.1500 
 20 C       -2.2650     6.4270    -1.2260 C.ar  1 <1>  -0.1500 
 21 C       -0.0940     7.1230    -1.9560 C.ar  1 <1>  -0.1500 
 22 C       -1.4250     6.8690    -2.2320 C.ar  1 <1>  -0.1500 
 23 H       -3.6850     0.0530     0.1500 H     1 <1>   0.1500 
 24 H       -0.8770     4.0240     1.2260 H     1 <1>   0.0800 
 25 H       -0.7900     3.8460    -0.5090 H     1 <1>   0.0800 
 26 H       -3.4580     3.6730    -0.4010 H     1 <1>   0.0800 
 27 H       -4.3860     2.2710    -0.8550 H     1 <1>   0.0800 
 28 H        1.0260     2.5710     1.3930 H     1 <1>   0.4500 
 29 H       -1.8820     3.2480    -2.2890 H     1 <1>   0.0800 
 30 H       -3.5170     3.3630    -2.8710 H     1 <1>   0.0800 
 31 H       -2.7790     1.7950    -2.7010 H     1 <1>   0.0800 
 32 H        1.6380     4.9030    -0.3150 H     1 <1>   0.0800 
 33 H        1.1920     2.7370    -1.5330 H     1 <1>   0.0800 
 34 H        0.6950     1.3380    -0.6090 H     1 <1>   0.0800 
 35 H        3.3740     3.4820     1.7050 H     1 <1>   0.0800 
 36 H        3.8360     4.8360     0.7260 H     1 <1>   0.0800 
 37 H        2.1990     6.0080     1.8650 H     1 <1>   0.0800 
 38 H        1.4000     4.7470     2.7110 H     1 <1>   0.0800 
 39 H        3.0490     1.1830    -1.2740 H     1 <1>   0.0800 
 40 H        2.8710     1.1940     0.4520 H     1 <1>   0.0800 
 41 H        4.7030     2.6940    -0.1700 H     1 <1>   0.0800 
 42 H        3.6830     3.5320    -1.3070 H     1 <1>   0.0800 
 43 H        0.3120     7.1190     2.1990 H     1 <1>   0.0800 
 44 H       -0.6550     5.7060     2.3250 H     1 <1>   0.0800 
 45 H       -2.4430     5.9000     0.8240 H     1 <1>   0.1500 
 46 H        1.4340     7.1490    -0.4800 H     1 <1>   0.1500 
 47 H       -3.3070     6.2610    -1.4380 H     1 <1>   0.1500 
 48 H        0.5530     7.4910    -2.7340 H     1 <1>   0.1500 
 49 H       -1.8090     7.0350    -3.2240 H     1 <1>   0.1500 
@<TRIPOS>BOND
  1   1   2  1   
  2   1   3  2   
  3   2   4  2   
  4   3   5  1   
  5   3   6  1   
  6   4   5  1   
  7   4  23  1   
  8   5   7  1   
  9   6   8  1   
 10   6  24  1   
 11   6  25  1   
 12   7   9  1   
 13   7  26  1   
 14   7  27  1   
 15   8  10  1   
 16   8  11  1   
 17   8  28  1   
 18   9  29  1   
 19   9  30  1   
 20   9  31  1   
 21  10  12  1   
 22  10  13  1   
 23  10  32  1   
 24  11  14  1   
 25  11  33  1   
 26  11  34  1   
 27  12  15  1   
 28  12  35  1   
 29  12  36  1   
 30  13  16  1   
 31  13  37  1   
 32  13  38  1   
 33  14  15  1   
 34  14  39  1   
 35  14  40  1   
 36  15  41  1   
 37  15  42  1   
 38  16  17  1   
 39  16  43  1   
 40  16  44  1   
 41  17  18  ar  
 42  17  19  ar  
 43  18  20  ar  
 44  18  45  1   
 45  19  21  ar  
 46  19  46  1   
 47  20  22  ar  
 48  20  47  1   
 49  21  22  ar  
 50  21  48  1   
 51  22  49  1   
@<TRIPOS>SUBSTRUCTURE
  1 ****   6 GROUP 4 **** **** 0

# MOE 2024.06 (io_trps.svl 2023.06)
