@<TRIPOS>MOLECULE
NONAME
46 48 1 0 0 
SMALL
USER_CHARGES


@<TRIPOS>ATOM
  1 O       -1.5530    -1.6650    -0.3740 O.co2 1 <1>  -0.9000 
  2 C       -2.4640    -1.0440    -0.9300 C.2   1 <1>   0.9790 
  3 O       -2.9120    -1.4910    -2.0020 O.co2 1 <1>  -0.9000 
  4 C       -3.2680    -0.1040    -0.1810 C.ar  1 <1>  -0.1790 
  5 C       -4.2170    -0.5990     0.7180 C.ar  1 <1>  -0.1440 
  6 C       -3.1550     1.2760    -0.3350 C.ar  1 <1>  -0.1500 
  7 C       -5.0220     0.2680     1.4410 C.ar  1 <1>  -0.1500 
  8 C       -4.3510    -2.1110     0.8870 C.3   1 <1>   0.4870 
  9 C       -3.9590     2.1380     0.3860 C.ar  1 <1>  -0.1500 
 10 C       -4.8930     1.6360     1.2750 C.ar  1 <1>  -0.1500 
 11 N       -4.7330    -2.7440    -0.4060 N.4   1 <1>  -0.9590 
 12 C       -5.9520    -2.1530    -1.0110 C.3   1 <1>   0.3430 
 13 C       -4.9300    -4.2080    -0.2950 C.3   1 <1>   0.3430 
 14 C       -7.0710    -3.1430    -0.6860 C.3   1 <1>   0.2000 
 15 C       -6.3510    -4.4880    -0.7960 C.3   1 <1>  -0.0800 
 16 O       -7.4850    -2.9620     0.6430 O.3   1 <1>  -0.5600 
 17 C       -7.0340    -5.6560    -0.0620 C.3   1 <1>   0.0200 
 18 C       -8.4350    -1.9590     0.8320 C.3   1 <1>   0.0400 
 19 C       -6.1970    -6.9160    -0.1550 C.2   1 <1>  -0.0400 
 20 O       -5.8320    -7.3720    -1.3230 O.3   1 <1>  -0.0190 
 21 C       -5.6960    -7.7340     0.7820 C.2   1 <1>  -0.1500 
 22 N       -5.1080    -8.4470    -1.2180 N.2   1 <1>  -0.4100 
 23 C       -5.0130    -8.6930     0.0400 C.2   1 <1>   0.1080 
 24 C       -4.2580    -9.8680     0.6210 C.3   1 <1>  -0.0590 
 25 H       -2.4270     1.6650    -1.0280 H     1 <1>   0.1500 
 26 H       -5.7480    -0.1110     2.1380 H     1 <1>   0.1500 
 27 H       -5.0960    -2.3290     1.6330 H     1 <1>   0.0800 
 28 H       -3.4020    -2.5070     1.2140 H     1 <1>   0.0800 
 29 H       -3.8560     3.2010     0.2560 H     1 <1>   0.1500 
 30 H       -5.5150     2.3110     1.8370 H     1 <1>   0.1500 
 31 H       -3.9400    -2.5290    -1.0690 H     1 <1>   0.4500 
 32 H       -6.1610    -1.1660    -0.6360 H     1 <1>   0.0800 
 33 H       -5.8150    -2.1000    -2.0780 H     1 <1>   0.0800 
 34 H       -4.2010    -4.7410    -0.8860 H     1 <1>   0.0800 
 35 H       -4.8390    -4.5140     0.7340 H     1 <1>   0.0800 
 36 H       -7.9160    -3.0680    -1.3490 H     1 <1>   0.0800 
 37 H       -6.2730    -4.7400    -1.8390 H     1 <1>   0.0800 
 38 H       -7.9990    -5.8430    -0.5010 H     1 <1>   0.0800 
 39 H       -7.1830    -5.4200     0.9770 H     1 <1>   0.0800 
 40 H       -8.6780    -1.9200     1.8790 H     1 <1>   0.0800 
 41 H       -9.3220    -2.1960     0.2690 H     1 <1>   0.0800 
 42 H       -8.0320    -1.0100     0.5210 H     1 <1>   0.0800 
 43 H       -5.7790    -7.6980     1.8530 H     1 <1>   0.1500 
 44 H       -3.4960    -9.5180     1.2920 H     1 <1>   0.0800 
 45 H       -3.7940   -10.4330    -0.1680 H     1 <1>   0.0800 
 46 H       -4.9350   -10.5090     1.1540 H     1 <1>   0.0800 
@<TRIPOS>BOND
  1   1   2  ar  
  2   2   3  ar  
  3   2   4  1   
  4   4   5  ar  
  5   4   6  ar  
  6   5   7  ar  
  7   5   8  1   
  8   6   9  ar  
  9   6  25  1   
 10   7  10  ar  
 11   7  26  1   
 12   8  11  1   
 13   8  27  1   
 14   8  28  1   
 15   9  10  ar  
 16   9  29  1   
 17  10  30  1   
 18  11  12  1   
 19  11  13  1   
 20  11  31  1   
 21  12  14  1   
 22  12  32  1   
 23  12  33  1   
 24  13  15  1   
 25  13  34  1   
 26  13  35  1   
 27  14  15  1   
 28  14  16  1   
 29  14  36  1   
 30  15  17  1   
 31  15  37  1   
 32  16  18  1   
 33  17  19  1   
 34  17  38  1   
 35  17  39  1   
 36  18  40  1   
 37  18  41  1   
 38  18  42  1   
 39  19  20  1   
 40  19  21  2   
 41  20  22  1   
 42  21  23  1   
 43  21  43  1   
 44  22  23  2   
 45  23  24  1   
 46  24  44  1   
 47  24  45  1   
 48  24  46  1   
@<TRIPOS>SUBSTRUCTURE
  1 ****  11 GROUP 4 **** **** 0

# MOE 2024.06 (io_trps.svl 2023.06)
