@<TRIPOS>MOLECULE
NONAME
59 62 1 0 0 
SMALL
USER_CHARGES


@<TRIPOS>ATOM
  1 O       -1.2670    -4.2250    -0.4640 O.2   1 <1>  -0.5700 
  2 C       -0.8430    -3.2190    -1.0880 C.2   1 <1>   0.5410 
  3 C        0.4590    -2.6520    -0.9290 C.2   1 <1>   0.0140 
  4 C       -1.7410    -2.6220    -1.9980 C.2   1 <1>  -0.1360 
  5 C        1.4300    -3.1480    -0.0160 C.2   1 <1>   0.2710 
  6 C        0.7750    -1.5420    -1.7380 C.2   1 <1>  -0.1500 
  7 C       -1.3970    -1.5340    -2.7500 C.2   1 <1>  -0.1500 
  8 N        1.5430    -4.4530     0.2000 N.2   1 <1>  -0.6210 
  9 N        2.2630    -2.2760     0.6280 N.pl3 1 <1>  -0.6000 
 10 C       -0.1180    -0.9910    -2.6220 C.2   1 <1>  -0.1500 
 11 C        2.4540    -4.8820     1.0590 C.2   1 <1>   0.4860 
 12 C        3.2410    -2.6770     1.4710 C.2   1 <1>  -0.0380 
 13 N        2.4130    -6.2080     1.3750 N.pl3 1 <1>  -0.7880 
 14 C        3.3490    -4.0090     1.6970 C.2   1 <1>  -0.1360 
 15 C        4.1330    -1.6250     2.0950 C.3   1 <1>  -0.1020 
 16 C        1.8930    -6.5560     2.7170 C.3   1 <1>   0.2090 
 17 C        1.9360    -7.1850     0.3560 C.3   1 <1>   0.2090 
 18 C        0.3540    -6.4210     2.6910 C.3   1 <1>   0.3430 
 19 C        0.3920    -7.1470     0.2670 C.3   1 <1>   0.3430 
 20 N       -0.3480    -7.2150     1.6000 N.4   1 <1>  -0.9590 
 21 C       -1.7150    -6.6280     1.4660 C.3   1 <1>   0.3430 
 22 C       -2.5690    -7.3050     0.3890 C.3   1 <1>  -0.1600 
 23 C       -3.8750    -6.5290     0.1990 C.3   1 <1>   0.3540 
 24 N       -4.6660    -7.1510    -0.8930 N.pl3 1 <1>  -0.7640 
 25 C       -5.7290    -7.9470    -0.8120 C.cat 1 <1>   0.6560 
 26 C       -4.4220    -6.9440    -2.2350 C.2   1 <1>   0.2000 
 27 N       -6.1550    -8.2600    -2.0220 N.pl3 1 <1>  -0.7000 
 28 C       -6.3760    -8.4340     0.4640 C.3   1 <1>  -0.0960 
 29 C       -5.3460    -7.6340    -2.9330 C.2   1 <1>   0.2000 
 30 H       -2.7190    -3.0540    -2.0810 H     1 <1>   0.1500 
 31 H        1.7620    -1.1160    -1.6730 H     1 <1>   0.1500 
 32 H       -2.0920    -1.0870    -3.4420 H     1 <1>   0.1500 
 33 H        2.1360    -1.2760     0.4530 H     1 <1>   0.4000 
 34 H        0.1550    -0.1410    -3.2250 H     1 <1>   0.1500 
 35 H        4.0940    -4.4220     2.3480 H     1 <1>   0.1500 
 36 H        4.6500    -1.0790     1.3260 H     1 <1>   0.0800 
 37 H        4.8630    -2.0810     2.7390 H     1 <1>   0.0800 
 38 H        3.5440    -0.9380     2.6760 H     1 <1>   0.0800 
 39 H        2.2990    -5.8850     3.4540 H     1 <1>   0.0800 
 40 H        2.1840    -7.5580     2.9820 H     1 <1>   0.0800 
 41 H        2.2730    -8.1740     0.6110 H     1 <1>   0.0800 
 42 H        2.3530    -6.9310    -0.6040 H     1 <1>   0.0800 
 43 H        0.1430    -5.3730     2.5420 H     1 <1>   0.0800 
 44 H       -0.0400    -6.6970     3.6540 H     1 <1>   0.0800 
 45 H        0.0650    -7.9490    -0.3720 H     1 <1>   0.0800 
 46 H        0.1250    -6.2270    -0.2270 H     1 <1>   0.0800 
 47 H       -0.3960    -8.1990     1.8930 H     1 <1>   0.4500 
 48 H       -1.6140    -5.5810     1.2300 H     1 <1>   0.0800 
 49 H       -2.2250    -6.6950     2.4140 H     1 <1>   0.0800 
 50 H       -2.7880    -8.3170     0.6800 H     1 <1>   0.0800 
 51 H       -2.0550    -7.3020    -0.5540 H     1 <1>   0.0800 
 52 H       -3.6610    -5.5040    -0.0610 H     1 <1>   0.0800 
 53 H       -4.4470    -6.5270     1.1130 H     1 <1>   0.0800 
 54 H       -3.6200    -6.3250    -2.6080 H     1 <1>   0.1500 
 55 H       -6.9570    -8.8570    -2.2470 H     1 <1>   0.4500 
 56 H       -5.6460    -8.9200     1.0840 H     1 <1>   0.0800 
 57 H       -7.1600    -9.1350     0.2420 H     1 <1>   0.0800 
 58 H       -6.8000    -7.6020     0.9970 H     1 <1>   0.0800 
 59 H       -5.4750    -7.7150    -4.0020 H     1 <1>   0.1500 
@<TRIPOS>BOND
  1   1   2  2   
  2   2   3  1   
  3   2   4  1   
  4   3   5  2   
  5   3   6  1   
  6   4   7  2   
  7   4  30  1   
  8   5   8  1   
  9   5   9  1   
 10   6  10  2   
 11   6  31  1   
 12   7  10  1   
 13   7  32  1   
 14   8  11  2   
 15   9  12  1   
 16   9  33  1   
 17  10  34  1   
 18  11  13  1   
 19  11  14  1   
 20  12  14  2   
 21  12  15  1   
 22  13  16  1   
 23  13  17  1   
 24  14  35  1   
 25  15  36  1   
 26  15  37  1   
 27  15  38  1   
 28  16  18  1   
 29  16  39  1   
 30  16  40  1   
 31  17  19  1   
 32  17  41  1   
 33  17  42  1   
 34  18  20  1   
 35  18  43  1   
 36  18  44  1   
 37  19  20  1   
 38  19  45  1   
 39  19  46  1   
 40  20  21  1   
 41  20  47  1   
 42  21  22  1   
 43  21  48  1   
 44  21  49  1   
 45  22  23  1   
 46  22  50  1   
 47  22  51  1   
 48  23  24  1   
 49  23  52  1   
 50  23  53  1   
 51  24  25  ar  
 52  24  26  1   
 53  25  27  ar  
 54  25  28  1   
 55  26  29  2   
 56  26  54  1   
 57  27  29  1   
 58  27  55  1   
 59  28  56  1   
 60  28  57  1   
 61  28  58  1   
 62  29  59  1   
@<TRIPOS>SUBSTRUCTURE
  1 ****   1 GROUP 4 **** **** 0

# MOE 2024.06 (io_trps.svl 2023.06)
