@<TRIPOS>MOLECULE
NONAME
48 49 1 0 0 
SMALL
USER_CHARGES


@<TRIPOS>ATOM
  1 S        0.9160     0.3190     0.6580 S.o2  1 <1>   1.3330 
  2 O        0.5820     1.1340     1.8040 O.2   1 <1>  -0.6500 
  3 O        1.2960    -1.0620     0.8530 O.2   1 <1>  -0.6500 
  4 N       -0.4070     0.3400    -0.4070 N.am  1 <1>  -0.8490 
  5 C        2.2000     1.1610    -0.2650 C.3   1 <1>  -0.0550 
  6 C       -0.3390    -0.6940    -1.4440 C.3   1 <1>   0.1160 
  7 C       -1.6870     0.2550     0.3010 C.3   1 <1>   0.1160 
  8 C        3.4850     1.3910     0.5480 C.3   1 <1>  -0.0800 
  9 C        4.5600     2.0900    -0.2570 C.3   1 <1>   0.2200 
 10 C        4.1920     0.1110     0.9950 C.3   1 <1>   0.1200 
 11 N        4.3730     3.5540    -0.2420 N.am  1 <1>  -0.7300 
 12 C        5.8340     1.6420     0.4440 C.3   1 <1>   0.1200 
 13 O        5.5650     0.3680     0.9490 O.3   1 <1>  -0.5600 
 14 C        3.7790     4.2840    -1.2170 C.2   1 <1>   0.5690 
 15 O        3.2920     3.7640    -2.1930 O.2   1 <1>  -0.5700 
 16 C        3.7080     5.8060    -1.0580 C.3   1 <1>   0.2010 
 17 N        5.0450     6.4670    -0.8890 N.am  1 <1>  -0.7300 
 18 C        5.7990     6.4310     0.2500 C.2   1 <1>   0.5440 
 19 O        5.3860     5.7780     1.1890 O.2   1 <1>  -0.5700 
 20 C        7.0570     7.1530     0.3360 C.ar  1 <1>   0.0860 
 21 C        7.5160     7.6420     1.5600 C.ar  1 <1>  -0.1500 
 22 C        7.8550     7.3900    -0.7870 C.ar  1 <1>  -0.1500 
 23 C        8.7030     8.3440     1.6610 C.ar  1 <1>  -0.1500 
 24 C        9.0430     8.0930    -0.6930 C.ar  1 <1>  -0.1500 
 25 C        9.4690     8.5730     0.5320 C.ar  1 <1>  -0.1500 
 26 H        2.4340     0.6000    -1.1480 H     1 <1>   0.0800 
 27 H        1.8230     2.1160    -0.5800 H     1 <1>   0.0800 
 28 H       -1.1570    -0.5790    -2.1340 H     1 <1>   0.0800 
 29 H       -0.3880    -1.6760    -1.0020 H     1 <1>   0.0800 
 30 H        0.5820    -0.6080    -1.9950 H     1 <1>   0.0800 
 31 H       -2.5040     0.2900    -0.3980 H     1 <1>   0.0800 
 32 H       -1.7890     1.0870     0.9780 H     1 <1>   0.0800 
 33 H       -1.7410    -0.6600     0.8670 H     1 <1>   0.0800 
 34 H        3.2590     1.9680     1.4290 H     1 <1>   0.0800 
 35 H        4.5740     1.7280    -1.2720 H     1 <1>   0.0800 
 36 H        3.9950    -0.7080     0.3240 H     1 <1>   0.0800 
 37 H        3.9210    -0.1720     1.9980 H     1 <1>   0.0800 
 38 H        4.7820     4.0750     0.5510 H     1 <1>   0.3700 
 39 H        6.0630     2.2810     1.2790 H     1 <1>   0.0800 
 40 H        6.6690     1.5840    -0.2300 H     1 <1>   0.0800 
 41 H        3.1010     6.0230    -0.1970 H     1 <1>   0.0800 
 42 H        3.2160     6.2190    -1.9200 H     1 <1>   0.0800 
 43 H        5.3660     7.0210    -1.6850 H     1 <1>   0.3700 
 44 H        6.9280     7.4650     2.4440 H     1 <1>   0.1500 
 45 H        7.5500     7.0140    -1.7460 H     1 <1>   0.1500 
 46 H        9.0330     8.7120     2.6180 H     1 <1>   0.1500 
 47 H        9.6410     8.2660    -1.5720 H     1 <1>   0.1500 
 48 H       10.3930     9.1210     0.6080 H     1 <1>   0.1500 
@<TRIPOS>BOND
  1   1   2  2   
  2   1   3  2   
  3   1   4  am  
  4   1   5  1   
  5   4   6  1   
  6   4   7  1   
  7   5   8  1   
  8   5  26  1   
  9   5  27  1   
 10   6  28  1   
 11   6  29  1   
 12   6  30  1   
 13   7  31  1   
 14   7  32  1   
 15   7  33  1   
 16   8   9  1   
 17   8  10  1   
 18   8  34  1   
 19   9  11  1   
 20   9  12  1   
 21   9  35  1   
 22  10  13  1   
 23  10  36  1   
 24  10  37  1   
 25  11  14  am  
 26  11  38  1   
 27  12  13  1   
 28  12  39  1   
 29  12  40  1   
 30  14  15  2   
 31  14  16  1   
 32  16  17  1   
 33  16  41  1   
 34  16  42  1   
 35  17  18  am  
 36  17  43  1   
 37  18  19  2   
 38  18  20  1   
 39  20  21  ar  
 40  20  22  ar  
 41  21  23  ar  
 42  21  44  1   
 43  22  24  ar  
 44  22  45  1   
 45  23  25  ar  
 46  23  46  1   
 47  24  25  ar  
 48  24  47  1   
 49  25  48  1   
@<TRIPOS>SUBSTRUCTURE
  1 ****  11 GROUP 4 **** **** 0

# MOE 2024.06 (io_trps.svl 2023.06)
