@<TRIPOS>MOLECULE
NONAME
52 54 1 0 0 
SMALL
USER_CHARGES


@<TRIPOS>ATOM
  1 F       -1.0000    -1.1890     1.5600 F     1 <1>  -0.1900 
  2 C       -1.7450    -1.3860     0.5030 C.ar  1 <1>   0.1900 
  3 C       -2.0780    -2.6770     0.0750 C.ar  1 <1>   0.0820 
  4 C       -2.2010    -0.2560    -0.1470 C.ar  1 <1>  -0.1500 
  5 O       -1.6580    -3.8420     0.6610 O.3   1 <1>  -0.3630 
  6 C       -2.9170    -2.8000    -1.0320 C.ar  1 <1>  -0.1440 
  7 C       -3.0210    -0.4000    -1.2510 C.ar  1 <1>  -0.1500 
  8 C       -0.4470    -3.8970     1.3940 C.3   1 <1>   0.0400 
  9 C       -3.3780    -1.6650    -1.6880 C.ar  1 <1>  -0.1500 
 10 C       -3.3320    -4.1720    -1.5310 C.3   1 <1>   0.4870 
 11 N       -4.0300    -4.8790    -0.4180 N.4   1 <1>  -0.9590 
 12 C       -4.1830    -6.3540    -0.6590 C.3   1 <1>   0.3430 
 13 C       -5.3030    -4.1870    -0.0320 C.3   1 <1>   0.3430 
 14 C       -5.0930    -6.9560     0.4430 C.3   1 <1>   0.4230 
 15 C       -6.1480    -5.0500     0.9320 C.3   1 <1>  -0.1600 
 16 N       -4.8980    -8.4100     0.8350 N.4   1 <1>  -0.9590 
 17 C       -6.5960    -6.4400     0.2330 C.3   1 <1>   0.0000 
 18 C       -5.0720    -9.3750    -0.2670 C.3   1 <1>   0.3430 
 19 C       -3.6370    -8.6830     1.5990 C.3   1 <1>   0.2630 
 20 C       -7.0660    -7.7820    -0.5380 C.3   1 <1>  -0.1600 
 21 C       -8.1010    -5.8920     0.1190 C.3   1 <1>   0.1200 
 22 C       -6.1080    -8.8000    -1.2070 C.3   1 <1>  -0.1600 
 23 O       -8.6750    -6.0350     1.3770 O.3   1 <1>  -0.6800 
 24 H       -1.9190     0.7210     0.2080 H     1 <1>   0.1500 
 25 H       -3.3800     0.4760    -1.7690 H     1 <1>   0.1500 
 26 H       -0.1590    -4.9270     1.5050 H     1 <1>   0.0800 
 27 H       -0.6000    -3.4600     2.3650 H     1 <1>   0.0800 
 28 H        0.3200    -3.3640     0.8570 H     1 <1>   0.0800 
 29 H       -4.0170    -1.7440    -2.5530 H     1 <1>   0.1500 
 30 H       -2.4460    -4.7150    -1.8200 H     1 <1>   0.0800 
 31 H       -3.9770    -4.0800    -2.3890 H     1 <1>   0.0800 
 32 H       -3.3660    -4.7240     0.3660 H     1 <1>   0.4500 
 33 H       -4.6340    -6.5190    -1.6230 H     1 <1>   0.0800 
 34 H       -3.2150    -6.8250    -0.6360 H     1 <1>   0.0800 
 35 H       -5.0730    -3.2410     0.4360 H     1 <1>   0.0800 
 36 H       -5.8860    -3.9810    -0.9160 H     1 <1>   0.0800 
 37 H       -4.6880    -6.4960     1.3220 H     1 <1>   0.0800 
 38 H       -5.6500    -5.1590     1.8820 H     1 <1>   0.0800 
 39 H       -6.9200    -4.3660     1.2530 H     1 <1>   0.0800 
 40 H       -5.6830    -8.6030     1.4810 H     1 <1>   0.4500 
 41 H       -4.1460    -9.5400    -0.7940 H     1 <1>   0.0800 
 42 H       -5.4150   -10.3200     0.1280 H     1 <1>   0.0800 
 43 H       -2.7710    -8.5190     0.9780 H     1 <1>   0.0800 
 44 H       -3.6220    -9.7070     1.9390 H     1 <1>   0.0800 
 45 H       -3.5730    -8.0420     2.4630 H     1 <1>   0.0800 
 46 H       -7.7110    -8.3450     0.1220 H     1 <1>   0.0800 
 47 H       -7.6420    -7.5440    -1.4200 H     1 <1>   0.0800 
 48 H       -8.8120    -6.3650    -0.5380 H     1 <1>   0.0800 
 49 H       -8.1740    -4.8590    -0.1850 H     1 <1>   0.0800 
 50 H       -5.6120    -8.3490    -2.0490 H     1 <1>   0.0800 
 51 H       -6.6820    -9.6180    -1.6100 H     1 <1>   0.0800 
 52 H       -9.6170    -5.7580     1.3790 H     1 <1>   0.4000 
@<TRIPOS>BOND
  1   1   2  1   
  2   2   3  ar  
  3   2   4  ar  
  4   3   5  1   
  5   3   6  ar  
  6   4   7  ar  
  7   4  24  1   
  8   5   8  1   
  9   6   9  ar  
 10   6  10  1   
 11   7   9  ar  
 12   7  25  1   
 13   8  26  1   
 14   8  27  1   
 15   8  28  1   
 16   9  29  1   
 17  10  11  1   
 18  10  30  1   
 19  10  31  1   
 20  11  12  1   
 21  11  13  1   
 22  11  32  1   
 23  12  14  1   
 24  12  33  1   
 25  12  34  1   
 26  13  15  1   
 27  13  35  1   
 28  13  36  1   
 29  14  16  1   
 30  14  17  1   
 31  14  37  1   
 32  15  17  1   
 33  15  38  1   
 34  15  39  1   
 35  16  18  1   
 36  16  19  1   
 37  16  40  1   
 38  17  20  1   
 39  17  21  1   
 40  18  22  1   
 41  18  41  1   
 42  18  42  1   
 43  19  43  1   
 44  19  44  1   
 45  19  45  1   
 46  20  22  1   
 47  20  46  1   
 48  20  47  1   
 49  21  23  1   
 50  21  48  1   
 51  21  49  1   
 52  22  50  1   
 53  22  51  1   
 54  23  52  1   
@<TRIPOS>SUBSTRUCTURE
  1 ****  11 GROUP 4 **** **** 0

# MOE 2024.06 (io_trps.svl 2023.06)
