@<TRIPOS>MOLECULE
NONAME
46 50 1 0 0 
SMALL
USER_CHARGES


@<TRIPOS>ATOM
  1 S        1.6540     1.3490     2.5800 S.3   1 <1>  -0.0800 
  2 C        1.0860     2.5770     1.4690 C.2   1 <1>  -0.1400 
  3 C        3.3210     1.8160     2.2730 C.2   1 <1>  -0.1100 
  4 C        2.0970     3.2580     0.9160 C.2   1 <1>  -0.1810 
  5 C       -0.3750     2.8140     1.1990 C.3   1 <1>   0.0200 
  6 C        3.3840     2.8260     1.3830 C.2   1 <1>  -0.1500 
  7 C        1.8350     4.3720    -0.1000 C.3   1 <1>   0.4610 
  8 C       -0.4980     4.2080     0.5640 C.3   1 <1>   0.1200 
  9 O        0.4620     4.3930    -0.4510 O.3   1 <1>  -0.5600 
 10 C        2.5950     4.0950    -1.4040 C.3   1 <1>  -0.1600 
 11 C        2.2250     5.7440     0.4720 C.3   1 <1>  -0.1600 
 12 C        2.4320     5.2340    -2.4130 C.3   1 <1>   0.1400 
 13 C        2.0480     6.8500    -0.5690 C.3   1 <1>   0.1400 
 14 N        2.8580     6.5070    -1.7680 N.am  1 <1>  -0.6600 
 15 C        3.9340     7.2470    -2.2350 C.2   1 <1>   0.5440 
 16 O        4.3390     7.0130    -3.3620 O.2   1 <1>  -0.5700 
 17 C        4.5990     8.2970    -1.4560 C.ar  1 <1>   0.3960 
 18 N        4.8580     8.1150    -0.1480 N.ar  1 <1>  -0.6200 
 19 C        4.9720     9.4730    -2.1030 C.ar  1 <1>  -0.1500 
 20 C        5.4740     9.0880     0.5140 C.ar  1 <1>   0.2870 
 21 C        5.6120    10.4870    -1.4270 C.ar  1 <1>  -0.1500 
 22 N        5.7340     8.8720     1.8940 N.pl3 1 <1>   0.3260 
 23 C        5.8650    10.2800    -0.0920 C.ar  1 <1>  -0.1500 
 24 C        5.9070     9.7520     2.8930 C.2   1 <1>   0.0370 
 25 C        5.8580     7.7080     2.5480 C.2   1 <1>   0.0370 
 26 N        6.1220     9.1820     4.0250 N.2   1 <1>  -0.3380 
 27 N        6.0910     7.8670     3.8040 N.2   1 <1>  -0.3380 
 28 H        4.0880     1.2770     2.8000 H     1 <1>   0.1500 
 29 H       -0.9380     2.7790     2.1130 H     1 <1>   0.0800 
 30 H       -0.7510     2.0630     0.5280 H     1 <1>   0.0800 
 31 H        4.2900     3.2880     1.0340 H     1 <1>   0.1500 
 32 H       -0.3590     4.9720     1.3080 H     1 <1>   0.0800 
 33 H       -1.4710     4.3310     0.1220 H     1 <1>   0.0800 
 34 H        2.2420     3.1740    -1.8300 H     1 <1>   0.0800 
 35 H        3.6420     3.9780    -1.1970 H     1 <1>   0.0800 
 36 H        3.2570     5.7220     0.7730 H     1 <1>   0.0800 
 37 H        1.6450     5.9610     1.3480 H     1 <1>   0.0800 
 38 H        1.4020     5.3160    -2.7180 H     1 <1>   0.0800 
 39 H        3.0240     5.0270    -3.2890 H     1 <1>   0.0800 
 40 H        2.3380     7.8000    -0.1590 H     1 <1>   0.0800 
 41 H        1.0120     6.9190    -0.8550 H     1 <1>   0.0800 
 42 H        4.7560     9.5790    -3.1530 H     1 <1>   0.1500 
 43 H        5.9030    11.3970    -1.9260 H     1 <1>   0.1500 
 44 H        6.3710    11.0430     0.4710 H     1 <1>   0.1500 
 45 H        5.8620    10.8150     2.7470 H     1 <1>   0.1500 
 46 H        5.7680     6.7610     2.0490 H     1 <1>   0.1500 
@<TRIPOS>BOND
  1   1   2  1   
  2   1   3  1   
  3   2   4  2   
  4   2   5  1   
  5   3   6  2   
  6   3  28  1   
  7   4   6  1   
  8   4   7  1   
  9   5   8  1   
 10   5  29  1   
 11   5  30  1   
 12   6  31  1   
 13   7   9  1   
 14   7  10  1   
 15   7  11  1   
 16   8   9  1   
 17   8  32  1   
 18   8  33  1   
 19  10  12  1   
 20  10  34  1   
 21  10  35  1   
 22  11  13  1   
 23  11  36  1   
 24  11  37  1   
 25  12  14  1   
 26  12  38  1   
 27  12  39  1   
 28  13  14  1   
 29  13  40  1   
 30  13  41  1   
 31  14  15  am  
 32  15  16  2   
 33  15  17  1   
 34  17  18  ar  
 35  17  19  ar  
 36  18  20  ar  
 37  19  21  ar  
 38  19  42  1   
 39  20  22  1   
 40  20  23  ar  
 41  21  23  ar  
 42  21  43  1   
 43  22  24  1   
 44  22  25  1   
 45  23  44  1   
 46  24  26  2   
 47  24  45  1   
 48  25  27  2   
 49  25  46  1   
 50  26  27  1   
@<TRIPOS>SUBSTRUCTURE
  1 ****  11 GROUP 4 **** **** 0

# MOE 2024.06 (io_trps.svl 2023.06)
