@<TRIPOS>MOLECULE
NONAME
37 39 1 0 0 
SMALL
USER_CHARGES


@<TRIPOS>ATOM
  1 O       -0.5780     0.7920    -0.6740 O.2   1 <1>  -0.5700 
  2 C       -1.5590     1.2860    -0.1410 C.2   1 <1>   0.7150 
  3 N       -2.7050     0.5060    -0.0450 N.am  1 <1>  -0.6600 
  4 C       -1.4510     2.6570     0.3300 C.2   1 <1>   0.0550 
  5 C       -4.0610     1.1130     0.1460 C.3   1 <1>   0.2200 
  6 C       -2.6110    -0.9790    -0.2120 C.3   1 <1>   0.0600 
  7 O       -2.2610     3.1860     1.2480 O.3   1 <1>  -0.2800 
  8 C       -0.5450     3.6110    -0.0270 C.2   1 <1>  -0.1500 
  9 C       -5.2440     0.1400     0.1820 C.3   1 <1>  -0.1600 
 10 C       -4.4260     2.0480    -1.0050 C.3   1 <1>  -0.1600 
 11 C       -1.9030     4.4290     1.4720 C.2   1 <1>  -0.0100 
 12 C       -0.8400     4.7580     0.7090 C.2   1 <1>  -0.1500 
 13 C       -6.4680     1.0140    -0.1130 C.3   1 <1>  -0.0800 
 14 C       -5.9450     2.2290    -0.8980 C.3   1 <1>  -0.0800 
 15 C       -7.1430     1.5700     1.1490 C.3   1 <1>  -0.1600 
 16 C       -6.3510     3.4740    -0.0950 C.3   1 <1>  -0.1600 
 17 C       -7.4920     3.0060     0.7940 C.3   1 <1>   0.2000 
 18 O       -7.5520     3.7760     1.9340 O.3   1 <1>  -0.6800 
 19 H       -4.0760     1.6620     1.0710 H     1 <1>   0.0800 
 20 H       -3.1440    -1.4760     0.5780 H     1 <1>   0.0800 
 21 H       -1.5860    -1.3070    -0.1740 H     1 <1>   0.0800 
 22 H       -3.0220    -1.2640    -1.1640 H     1 <1>   0.0800 
 23 H        0.2560     3.5070    -0.7390 H     1 <1>   0.1500 
 24 H       -5.1640    -0.5780    -0.6140 H     1 <1>   0.0800 
 25 H       -5.3220    -0.3690     1.1260 H     1 <1>   0.0800 
 26 H       -3.9050     2.9870    -0.9580 H     1 <1>   0.0800 
 27 H       -4.1960     1.5630    -1.9380 H     1 <1>   0.0800 
 28 H       -2.4540     5.0130     2.1890 H     1 <1>   0.1500 
 29 H       -0.3110     5.6930     0.6580 H     1 <1>   0.1500 
 30 H       -7.1910     0.4740    -0.7020 H     1 <1>   0.0800 
 31 H       -6.3940     2.2640    -1.8770 H     1 <1>   0.0800 
 32 H       -6.4540     1.5570     1.9750 H     1 <1>   0.0800 
 33 H       -8.0230     1.0070     1.4040 H     1 <1>   0.0800 
 34 H       -6.6640     4.2730    -0.7420 H     1 <1>   0.0800 
 35 H       -5.5280     3.8060     0.5150 H     1 <1>   0.0800 
 36 H       -8.4370     3.0630     0.2790 H     1 <1>   0.0800 
 37 H       -6.6990     3.7350     2.4050 H     1 <1>   0.4000 
@<TRIPOS>BOND
  1   1   2  2   
  2   2   3  am  
  3   2   4  1   
  4   3   5  1   
  5   3   6  1   
  6   4   7  1   
  7   4   8  2   
  8   5   9  1   
  9   5  10  1   
 10   5  19  1   
 11   6  20  1   
 12   6  21  1   
 13   6  22  1   
 14   7  11  1   
 15   8  12  1   
 16   8  23  1   
 17   9  13  1   
 18   9  24  1   
 19   9  25  1   
 20  10  14  1   
 21  10  26  1   
 22  10  27  1   
 23  11  12  2   
 24  11  28  1   
 25  12  29  1   
 26  13  14  1   
 27  13  15  1   
 28  13  30  1   
 29  14  16  1   
 30  14  31  1   
 31  15  17  1   
 32  15  32  1   
 33  15  33  1   
 34  16  17  1   
 35  16  34  1   
 36  16  35  1   
 37  17  18  1   
 38  17  36  1   
 39  18  37  1   
@<TRIPOS>SUBSTRUCTURE
  1 ****   5 GROUP 4 **** **** 0

# MOE 2024.06 (io_trps.svl 2023.06)
