@<TRIPOS>MOLECULE
NONAME
50 53 1 0 0 
SMALL
USER_CHARGES


@<TRIPOS>ATOM
  1 O       -2.1730    -1.1350     0.0180 O.2   1 <1>  -0.5700 
  2 C       -2.4110     0.0260    -0.2840 C.2   1 <1>   0.4690 
  3 C       -1.7620     1.1290     0.3790 C.ar  1 <1>   0.0860 
  4 C       -3.3730     0.3580    -1.2890 C.2   1 <1>  -0.1240 
  5 C       -2.1440     2.4360     0.0510 C.ar  1 <1>   0.0830 
  6 C       -0.7630     0.9650     1.3430 C.ar  1 <1>  -0.1500 
  7 C       -3.6770     1.6510    -1.5360 C.2   1 <1>  -0.0730 
  8 C       -4.0320    -0.7660    -2.0730 C.3   1 <1>   0.2480 
  9 O       -3.0950     2.6590    -0.8820 O.3   1 <1>  -0.1590 
 10 C       -1.5550     3.5290     0.6710 C.ar  1 <1>  -0.1500 
 11 C       -0.1760     2.0540     1.9570 C.ar  1 <1>  -0.1500 
 12 N       -5.4060    -1.0400    -1.6080 N.3   1 <1>  -0.8100 
 13 C       -0.5730     3.3400     1.6220 C.ar  1 <1>  -0.1500 
 14 C       -5.4740    -1.4840    -0.1840 C.3   1 <1>   0.1100 
 15 C       -6.0820    -1.9680    -2.5550 C.3   1 <1>   0.1100 
 16 C       -5.3930    -3.0210    -0.1240 C.3   1 <1>   0.4230 
 17 C       -7.1920    -2.8020    -1.8910 C.3   1 <1>  -0.1600 
 18 N       -4.9830    -3.6580     1.1650 N.4   1 <1>  -0.9590 
 19 C       -6.7320    -3.5930    -0.6240 C.3   1 <1>  -0.1060 
 20 C       -4.7570    -5.1170     0.9840 C.3   1 <1>   0.3430 
 21 C       -3.8440    -2.9890     1.8500 C.3   1 <1>   0.2630 
 22 C       -7.8220    -3.4640     0.4570 C.2   1 <1>   0.9060 
 23 C       -6.4790    -5.0860    -0.9340 C.3   1 <1>  -0.1600 
 24 C       -5.9620    -5.8080     0.3270 C.3   1 <1>  -0.1600 
 25 O       -7.5130    -3.0960     1.6030 O.co2 1 <1>  -0.9000 
 26 O       -8.9720    -3.7970     0.1780 O.co2 1 <1>  -0.9000 
 27 H       -0.4470    -0.0300     1.6060 H     1 <1>   0.1500 
 28 H       -4.4020     1.9670    -2.2670 H     1 <1>   0.1500 
 29 H       -3.4370    -1.6630    -2.0250 H     1 <1>   0.0800 
 30 H       -4.0770    -0.4650    -3.1060 H     1 <1>   0.0800 
 31 H       -1.8690     4.5230     0.4020 H     1 <1>   0.1500 
 32 H        0.5930     1.9100     2.6980 H     1 <1>   0.1500 
 33 H       -0.1140     4.1860     2.1040 H     1 <1>   0.1500 
 34 H       -4.7010    -1.0230     0.3930 H     1 <1>   0.0800 
 35 H       -6.4130    -1.1600     0.2320 H     1 <1>   0.0800 
 36 H       -6.5030    -1.3930    -3.3630 H     1 <1>   0.0800 
 37 H       -5.3640    -2.6500    -2.9790 H     1 <1>   0.0800 
 38 H       -4.6400    -3.2880    -0.8440 H     1 <1>   0.0800 
 39 H       -7.9760    -2.1140    -1.6180 H     1 <1>   0.0800 
 40 H       -7.6260    -3.4740    -2.6100 H     1 <1>   0.0800 
 41 H       -5.8610    -3.5310     1.7370 H     1 <1>   0.4500 
 42 H       -3.8890    -5.2630     0.3610 H     1 <1>   0.0800 
 43 H       -4.5660    -5.5760     1.9400 H     1 <1>   0.0800 
 44 H       -2.9680    -3.0060     1.2230 H     1 <1>   0.0800 
 45 H       -3.6230    -3.4910     2.7770 H     1 <1>   0.0800 
 46 H       -4.0920    -1.9650     2.0710 H     1 <1>   0.0800 
 47 H       -7.4000    -5.5460    -1.2540 H     1 <1>   0.0800 
 48 H       -5.7630    -5.1820    -1.7320 H     1 <1>   0.0800 
 49 H       -5.6930    -6.8180     0.0730 H     1 <1>   0.0800 
 50 H       -6.7560    -5.8720     1.0520 H     1 <1>   0.0800 
@<TRIPOS>BOND
  1   1   2  2   
  2   2   3  1   
  3   2   4  1   
  4   3   5  ar  
  5   3   6  ar  
  6   4   7  2   
  7   4   8  1   
  8   5   9  1   
  9   5  10  ar  
 10   6  11  ar  
 11   6  27  1   
 12   7   9  1   
 13   7  28  1   
 14   8  12  1   
 15   8  29  1   
 16   8  30  1   
 17  10  13  ar  
 18  10  31  1   
 19  11  13  ar  
 20  11  32  1   
 21  12  14  1   
 22  12  15  1   
 23  13  33  1   
 24  14  16  1   
 25  14  34  1   
 26  14  35  1   
 27  15  17  1   
 28  15  36  1   
 29  15  37  1   
 30  16  18  1   
 31  16  19  1   
 32  16  38  1   
 33  17  19  1   
 34  17  39  1   
 35  17  40  1   
 36  18  20  1   
 37  18  21  1   
 38  18  41  1   
 39  19  22  1   
 40  19  23  1   
 41  20  24  1   
 42  20  42  1   
 43  20  43  1   
 44  21  44  1   
 45  21  45  1   
 46  21  46  1   
 47  22  25  ar  
 48  22  26  ar  
 49  23  24  1   
 50  23  47  1   
 51  23  48  1   
 52  24  49  1   
 53  24  50  1   
@<TRIPOS>SUBSTRUCTURE
  1 ****  14 GROUP 4 **** **** 0

# MOE 2024.06 (io_trps.svl 2023.06)
