@<TRIPOS>MOLECULE
NONAME
54 57 1 0 0 
SMALL
USER_CHARGES


@<TRIPOS>ATOM
  1 O       -0.6550     0.0330     0.7930 O.3   1 <1>  -0.2800 
  2 C       -0.9360     1.3300     0.8510 C.2   1 <1>   0.0870 
  3 C       -1.7320    -0.6580     1.0960 C.2   1 <1>  -0.0400 
  4 C        0.0830     2.3140     0.5580 C.ar  1 <1>   0.0530 
  5 C       -2.2410     1.4670     1.2070 C.2   1 <1>  -0.1500 
  6 C       -2.7580     0.1800     1.3660 C.2   1 <1>  -0.1500 
  7 C       -1.6120    -2.1720     1.0820 C.3   1 <1>   0.5230 
  8 C        1.3920     1.9390     0.2510 C.ar  1 <1>  -0.1500 
  9 C       -0.2040     3.6790     0.5700 C.ar  1 <1>  -0.1500 
 10 N       -2.9480    -2.8060     0.9170 N.4   1 <1>  -0.9590 
 11 C        2.3700     2.8750    -0.0310 C.ar  1 <1>  -0.1500 
 12 C        0.7680     4.6220     0.2900 C.ar  1 <1>  -0.1500 
 13 C       -3.6230    -2.4880    -0.3680 C.3   1 <1>   0.3430 
 14 C       -2.9380    -4.2920     1.0160 C.3   1 <1>   0.3430 
 15 C        2.0610     4.2320    -0.0130 C.ar  1 <1>   0.0830 
 16 C       -4.7230    -3.5440    -0.4550 C.3   1 <1>   0.2000 
 17 C       -4.0370    -4.8100     0.0660 C.3   1 <1>  -0.0800 
 18 O        2.9530     5.2160    -0.2760 O.3   1 <1>  -0.3630 
 19 O       -5.7160    -3.1900     0.4520 O.3   1 <1>  -0.6800 
 20 C       -3.4550    -5.6500    -1.0920 C.3   1 <1>  -0.0170 
 21 C        4.2940     4.9270    -0.5940 C.3   1 <1>   0.1200 
 22 C       -2.7860    -6.9270    -0.6030 C.ar  1 <1>   0.1670 
 23 C        5.0180     6.2490    -0.8290 C.3   1 <1>  -0.2400 
 24 N       -1.6060    -6.7830    -0.0180 N.ar  1 <1>  -0.6200 
 25 C       -3.4110    -8.1600    -0.7840 C.ar  1 <1>   0.1600 
 26 C       -1.0940    -7.9470     0.3580 C.ar  1 <1>   0.1600 
 27 N       -2.9050    -9.3170    -0.3960 N.ar  1 <1>  -0.6200 
 28 C       -1.7230    -9.1720     0.1760 C.ar  1 <1>   0.1600 
 29 H       -2.7960     2.3780     1.3480 H     1 <1>   0.1500 
 30 H       -3.7730    -0.0340     1.6520 H     1 <1>   0.1500 
 31 H       -1.1530    -2.4960     2.0010 H     1 <1>   0.0800 
 32 H       -0.9720    -2.4620     0.2650 H     1 <1>   0.0800 
 33 H        1.6500     0.8960     0.2330 H     1 <1>   0.1500 
 34 H       -1.1980     4.0140     0.8010 H     1 <1>   0.1500 
 35 H       -3.5800    -2.4560     1.6520 H     1 <1>   0.4500 
 36 H        3.3610     2.5330    -0.2610 H     1 <1>   0.1500 
 37 H        0.5320     5.6710     0.3030 H     1 <1>   0.1500 
 38 H       -4.0330    -1.4910    -0.3790 H     1 <1>   0.0800 
 39 H       -2.9350    -2.6070    -1.1890 H     1 <1>   0.0800 
 40 H       -1.9760    -4.6690     0.7150 H     1 <1>   0.0800 
 41 H       -3.1320    -4.6070     2.0290 H     1 <1>   0.0800 
 42 H       -5.1550    -3.6290    -1.4380 H     1 <1>   0.0800 
 43 H       -4.7310    -5.4280     0.6100 H     1 <1>   0.0800 
 44 H       -6.5230    -3.7370     0.3340 H     1 <1>   0.4000 
 45 H       -2.7290    -5.0780    -1.6460 H     1 <1>   0.0800 
 46 H       -4.2450    -5.9090    -1.7750 H     1 <1>   0.0800 
 47 H        4.7330     4.3940     0.2320 H     1 <1>   0.0800 
 48 H        4.3100     4.3210    -1.4830 H     1 <1>   0.0800 
 49 H        4.9810     6.8530     0.0590 H     1 <1>   0.0800 
 50 H        4.5610     6.7810    -1.6440 H     1 <1>   0.0800 
 51 H        6.0480     6.0620    -1.0750 H     1 <1>   0.0800 
 52 H       -4.3690    -8.1990    -1.2700 H     1 <1>   0.1500 
 53 H       -0.1290    -7.9340     0.8340 H     1 <1>   0.1500 
 54 H       -1.2290   -10.0650     0.5170 H     1 <1>   0.1500 
@<TRIPOS>BOND
  1   1   2  1   
  2   1   3  1   
  3   2   4  1   
  4   2   5  2   
  5   3   6  2   
  6   3   7  1   
  7   4   8  ar  
  8   4   9  ar  
  9   5   6  1   
 10   5  29  1   
 11   6  30  1   
 12   7  10  1   
 13   7  31  1   
 14   7  32  1   
 15   8  11  ar  
 16   8  33  1   
 17   9  12  ar  
 18   9  34  1   
 19  10  13  1   
 20  10  14  1   
 21  10  35  1   
 22  11  15  ar  
 23  11  36  1   
 24  12  15  ar  
 25  12  37  1   
 26  13  16  1   
 27  13  38  1   
 28  13  39  1   
 29  14  17  1   
 30  14  40  1   
 31  14  41  1   
 32  15  18  1   
 33  16  17  1   
 34  16  19  1   
 35  16  42  1   
 36  17  20  1   
 37  17  43  1   
 38  18  21  1   
 39  19  44  1   
 40  20  22  1   
 41  20  45  1   
 42  20  46  1   
 43  21  23  1   
 44  21  47  1   
 45  21  48  1   
 46  22  24  ar  
 47  22  25  ar  
 48  23  49  1   
 49  23  50  1   
 50  23  51  1   
 51  24  26  ar  
 52  25  27  ar  
 53  25  52  1   
 54  26  28  ar  
 55  26  53  1   
 56  27  28  ar  
 57  28  54  1   
@<TRIPOS>SUBSTRUCTURE
  1 ****   7 GROUP 4 **** **** 0

# MOE 2024.06 (io_trps.svl 2023.06)
