@<TRIPOS>MOLECULE
NONAME
36 38 1 0 0 
SMALL
USER_CHARGES


@<TRIPOS>ATOM
  1 F        0.4740    -0.1130     0.7180 F     1 <1>  -0.1900 
  2 C        1.4780     0.6980     0.4910 C.ar  1 <1>   0.1900 
  3 C        2.2500     0.5550    -0.6340 C.ar  1 <1>   0.1600 
  4 C        1.7790     1.7010     1.3770 C.ar  1 <1>   0.1600 
  5 N        3.2610     1.3630    -0.8720 N.ar  1 <1>  -0.6200 
  6 N        2.7870     2.5200     1.1600 N.ar  1 <1>  -0.6200 
  7 C        3.4760     2.3240     0.0320 C.ar  1 <1>   0.7200 
  8 N        4.5080     3.1870    -0.2310 N.pl3 1 <1>  -0.8380 
  9 C        4.7730     4.3900     0.6160 C.3   1 <1>   0.4690 
 10 C        5.7450     2.7150    -0.8900 C.3   1 <1>   0.2090 
 11 C        3.8560     5.5940     0.3270 C.2   1 <1>   0.2980 
 12 C        6.2570     4.6960     0.3650 C.3   1 <1>  -0.1600 
 13 C        6.8680     3.3820    -0.1110 C.3   1 <1>  -0.1600 
 14 O        2.5770     5.3800     0.1310 O.3   1 <1>  -0.0190 
 15 N        4.2080     6.8230     0.2750 N.2   1 <1>  -0.5650 
 16 N        2.0780     6.5630    -0.0620 N.2   1 <1>  -0.4100 
 17 C        3.0390     7.3950     0.0200 C.2   1 <1>   0.3350 
 18 C        2.9310     8.9130    -0.1390 C.3   1 <1>   0.1010 
 19 C        2.8290     9.5940     1.2330 C.3   1 <1>  -0.2400 
 20 C        1.7460     9.3310    -1.0230 C.3   1 <1>  -0.2400 
 21 H        2.0340    -0.2280    -1.3400 H     1 <1>   0.1500 
 22 H        1.1880     1.8290     2.2660 H     1 <1>   0.1500 
 23 H        4.6550     4.1180     1.6500 H     1 <1>   0.0800 
 24 H        5.8320     1.6410    -0.8590 H     1 <1>   0.0800 
 25 H        5.7420     3.0460    -1.9150 H     1 <1>   0.0800 
 26 H        6.3450     5.4260    -0.4210 H     1 <1>   0.0800 
 27 H        6.7330     5.0810     1.2480 H     1 <1>   0.0800 
 28 H        7.1230     2.7650     0.7330 H     1 <1>   0.0800 
 29 H        7.7430     3.5300    -0.7190 H     1 <1>   0.0800 
 30 H        3.8350     9.2500    -0.6180 H     1 <1>   0.0800 
 31 H        1.9390     9.2690     1.7430 H     1 <1>   0.0800 
 32 H        2.7990    10.6630     1.1230 H     1 <1>   0.0800 
 33 H        3.6810     9.3330     1.8350 H     1 <1>   0.0800 
 34 H        0.8160     9.0320    -0.5710 H     1 <1>   0.0800 
 35 H        1.8230     8.8580    -1.9870 H     1 <1>   0.0800 
 36 H        1.7370    10.3970    -1.1630 H     1 <1>   0.0800 
@<TRIPOS>BOND
  1   1   2  1   
  2   2   3  ar  
  3   2   4  ar  
  4   3   5  ar  
  5   3  21  1   
  6   4   6  ar  
  7   4  22  1   
  8   5   7  ar  
  9   6   7  ar  
 10   7   8  1   
 11   8   9  1   
 12   8  10  1   
 13   9  11  1   
 14   9  12  1   
 15   9  23  1   
 16  10  13  1   
 17  10  24  1   
 18  10  25  1   
 19  11  14  1   
 20  11  15  2   
 21  12  13  1   
 22  12  26  1   
 23  12  27  1   
 24  13  28  1   
 25  13  29  1   
 26  14  16  1   
 27  15  17  1   
 28  16  17  2   
 29  17  18  1   
 30  18  19  1   
 31  18  20  1   
 32  18  30  1   
 33  19  31  1   
 34  19  32  1   
 35  19  33  1   
 36  20  34  1   
 37  20  35  1   
 38  20  36  1   
@<TRIPOS>SUBSTRUCTURE
  1 ****  14 GROUP 4 **** **** 0

# MOE 2024.06 (io_trps.svl 2023.06)
