@<TRIPOS>MOLECULE
NONAME
46 49 1 0 0 
SMALL
USER_CHARGES


@<TRIPOS>ATOM
  1 O        3.6610    -2.3830     2.3030 O.2   1 <1>  -0.5700 
  2 C        3.9220    -2.3380     1.1240 C.2   1 <1>   0.5690 
  3 N        4.5520    -1.2360     0.5900 N.am  1 <1>  -0.6600 
  4 C        3.4530    -3.5050     0.2790 C.3   1 <1>   0.1570 
  5 C        4.9330    -0.0780     1.4670 C.3   1 <1>   0.1400 
  6 C        4.8390    -1.0220    -0.8630 C.3   1 <1>   0.1400 
  7 N        2.2280    -3.1050    -0.4270 N.pl3 1 <1>   0.3140 
  8 C        4.1070     1.2190     1.2290 C.3   1 <1>   0.4230 
  9 C        3.9530     0.0890    -1.4670 C.3   1 <1>  -0.0800 
 10 N        2.2200    -2.8500    -1.7580 N.2   1 <1>  -0.7070 
 11 C        1.0200    -2.8100     0.1440 C.ar  1 <1>  -0.1520 
 12 N        2.7260     1.0290     0.6230 N.4   1 <1>  -0.9590 
 13 C        4.9230     2.2690     0.4440 C.3   1 <1>   0.1200 
 14 C        4.7120     1.3930    -1.7550 C.3   1 <1>   0.1200 
 15 C        2.6410     0.3090    -0.6980 C.3   1 <1>   0.3430 
 16 C        1.0160    -2.4650    -2.0250 C.2   1 <1>   0.1390 
 17 C        0.2040    -2.3860    -0.8840 C.ar  1 <1>   0.0000 
 18 C        0.5480    -2.8590     1.4620 C.ar  1 <1>  -0.1500 
 19 C        1.8150     0.3440     1.5990 C.3   1 <1>   0.2630 
 20 O        5.5350     1.7420    -0.6920 O.3   1 <1>  -0.5600 
 21 C       -1.1130    -1.9900    -0.6150 C.ar  1 <1>  -0.1500 
 22 C       -0.7440    -2.4650     1.7190 C.ar  1 <1>  -0.1500 
 23 C       -1.5750    -2.0290     0.6790 C.ar  1 <1>  -0.1500 
 24 H        3.2300    -4.3440     0.9090 H     1 <1>   0.0800 
 25 H        4.2040    -3.7930    -0.4300 H     1 <1>   0.0800 
 26 H        4.8250    -0.3500     2.5020 H     1 <1>   0.0800 
 27 H        5.9800     0.1310     1.3280 H     1 <1>   0.0800 
 28 H        5.8810    -0.7760    -0.9860 H     1 <1>   0.0800 
 29 H        4.6760    -1.9320    -1.4120 H     1 <1>   0.0800 
 30 H        3.9620     1.6570     2.2020 H     1 <1>   0.0800 
 31 H        3.6530    -0.2780    -2.4320 H     1 <1>   0.0800 
 32 H        2.3470     1.9700     0.4640 H     1 <1>   0.4500 
 33 H        5.7200     2.6270     1.0730 H     1 <1>   0.0800 
 34 H        4.3210     3.1150     0.1630 H     1 <1>   0.0800 
 35 H        4.0490     2.2120    -1.9810 H     1 <1>   0.0800 
 36 H        5.3590     1.2460    -2.6040 H     1 <1>   0.0800 
 37 H        2.2040    -0.6590    -0.5330 H     1 <1>   0.0800 
 38 H        1.9600     0.8460    -1.3380 H     1 <1>   0.0800 
 39 H        0.6670    -2.2230    -3.0160 H     1 <1>   0.1500 
 40 H        1.1840    -3.2080     2.2590 H     1 <1>   0.1500 
 41 H        2.1840    -0.6410     1.8290 H     1 <1>   0.0800 
 42 H        0.8250     0.2430     1.1850 H     1 <1>   0.0800 
 43 H        1.7510     0.9060     2.5160 H     1 <1>   0.0800 
 44 H       -1.7450    -1.6690    -1.4240 H     1 <1>   0.1500 
 45 H       -1.1350    -2.4980     2.7220 H     1 <1>   0.1500 
 46 H       -2.5860    -1.7340     0.9070 H     1 <1>   0.1500 
@<TRIPOS>BOND
  1   1   2  2   
  2   2   3  am  
  3   2   4  1   
  4   3   5  1   
  5   3   6  1   
  6   4   7  1   
  7   4  24  1   
  8   4  25  1   
  9   5   8  1   
 10   5  26  1   
 11   5  27  1   
 12   6   9  1   
 13   6  28  1   
 14   6  29  1   
 15   7  10  1   
 16   7  11  1   
 17   8  12  1   
 18   8  13  1   
 19   8  30  1   
 20   9  14  1   
 21   9  15  1   
 22   9  31  1   
 23  10  16  2   
 24  11  17  ar  
 25  11  18  ar  
 26  12  15  1   
 27  12  19  1   
 28  12  32  1   
 29  13  20  1   
 30  13  33  1   
 31  13  34  1   
 32  14  20  1   
 33  14  35  1   
 34  14  36  1   
 35  15  37  1   
 36  15  38  1   
 37  16  17  1   
 38  16  39  1   
 39  17  21  ar  
 40  18  22  ar  
 41  18  40  1   
 42  19  41  1   
 43  19  42  1   
 44  19  43  1   
 45  21  23  ar  
 46  21  44  1   
 47  22  23  ar  
 48  22  45  1   
 49  23  46  1   
@<TRIPOS>SUBSTRUCTURE
  1 ****  15 GROUP 4 **** **** 0

# MOE 2024.06 (io_trps.svl 2023.06)
