@<TRIPOS>MOLECULE
NONAME
49 50 1 0 0 
SMALL
USER_CHARGES


@<TRIPOS>ATOM
  1 F        1.2380     0.6040    -0.2520 F     1 <1>  -0.1900 
  2 C        2.3280    -0.1130    -0.2210 C.ar  1 <1>   0.1900 
  3 C        3.4760     0.4140     0.3660 C.ar  1 <1>   0.0860 
  4 C        2.2780    -1.3710    -0.7910 C.ar  1 <1>  -0.1500 
  5 C        4.6200    -0.3940     0.3560 C.ar  1 <1>  -0.1440 
  6 C        3.4650     1.7400     0.9430 C.2   1 <1>   0.5440 
  7 C        3.4190    -2.1500    -0.7860 C.ar  1 <1>  -0.1500 
  8 C        4.5830    -1.6580    -0.2150 C.ar  1 <1>  -0.1500 
  9 C        5.9180     0.1130     0.9690 C.3   1 <1>  -0.0960 
 10 O        3.3750     1.8620     2.1520 O.2   1 <1>  -0.5700 
 11 N        3.5750     2.8710     0.1580 N.am  1 <1>  -0.6600 
 12 C        3.9090     2.7900    -1.3030 C.3   1 <1>   0.1400 
 13 C        3.3820     4.2240     0.7520 C.3   1 <1>   0.1400 
 14 C        4.8060     3.9290    -1.8170 C.3   1 <1>   0.1400 
 15 C        4.7210     4.8000     1.2310 C.3   1 <1>  -0.1600 
 16 N        5.9250     4.2190    -0.8740 N.am  1 <1>  -0.6600 
 17 C        5.6360     5.2990     0.1070 C.3   1 <1>   0.1400 
 18 C        7.0600     3.4400    -0.8770 C.2   1 <1>   0.5690 
 19 O        7.1930     2.5630    -1.7040 O.2   1 <1>  -0.5700 
 20 C        8.1680     3.6450     0.1910 C.3   1 <1>   0.2610 
 21 O        8.8630     4.8430    -0.0150 O.3   1 <1>  -0.6800 
 22 C        9.2010     2.4900     0.3150 C.3   1 <1>  -0.0800 
 23 C        9.9550     2.5680     1.6530 C.3   1 <1>  -0.2400 
 24 C       10.2260     2.4290    -0.8350 C.3   1 <1>  -0.2400 
 25 H        1.3630    -1.7290    -1.2280 H     1 <1>   0.1500 
 26 H        3.4060    -3.1340    -1.2240 H     1 <1>   0.1500 
 27 H        5.4650    -2.2750    -0.2200 H     1 <1>   0.1500 
 28 H        6.1990     1.0420     0.5090 H     1 <1>   0.0800 
 29 H        6.7180    -0.5910     0.8290 H     1 <1>   0.0800 
 30 H        5.7850     0.2770     2.0250 H     1 <1>   0.0800 
 31 H        2.9950     2.7800    -1.8700 H     1 <1>   0.0800 
 32 H        4.4240     1.8680    -1.5040 H     1 <1>   0.0800 
 33 H        2.7150     4.1440     1.5940 H     1 <1>   0.0800 
 34 H        2.9170     4.8800     0.0370 H     1 <1>   0.0800 
 35 H        4.2150     4.8140    -1.9670 H     1 <1>   0.0800 
 36 H        5.2080     3.6510    -2.7760 H     1 <1>   0.0800 
 37 H        5.2320     4.0660     1.8280 H     1 <1>   0.0800 
 38 H        4.5100     5.6350     1.8740 H     1 <1>   0.0800 
 39 H        6.5480     5.6780     0.5330 H     1 <1>   0.0800 
 40 H        5.1660     6.1210    -0.4040 H     1 <1>   0.0800 
 41 H        7.6690     3.7380     1.1370 H     1 <1>   0.0800 
 42 H        9.3600     4.7700    -0.8530 H     1 <1>   0.4000 
 43 H        8.6500     1.5650     0.3140 H     1 <1>   0.0800 
 44 H       10.5260     3.4790     1.7140 H     1 <1>   0.0800 
 45 H       10.6290     1.7350     1.7540 H     1 <1>   0.0800 
 46 H        9.2640     2.5430     2.4760 H     1 <1>   0.0800 
 47 H       10.8720     3.2890    -0.8260 H     1 <1>   0.0800 
 48 H        9.7320     2.3770    -1.7890 H     1 <1>   0.0800 
 49 H       10.8380     1.5500    -0.7340 H     1 <1>   0.0800 
@<TRIPOS>BOND
  1   1   2  1   
  2   2   3  ar  
  3   2   4  ar  
  4   3   5  ar  
  5   3   6  1   
  6   4   7  ar  
  7   4  25  1   
  8   5   8  ar  
  9   5   9  1   
 10   6  10  2   
 11   6  11  am  
 12   7   8  ar  
 13   7  26  1   
 14   8  27  1   
 15   9  28  1   
 16   9  29  1   
 17   9  30  1   
 18  11  12  1   
 19  11  13  1   
 20  12  14  1   
 21  12  31  1   
 22  12  32  1   
 23  13  15  1   
 24  13  33  1   
 25  13  34  1   
 26  14  16  1   
 27  14  35  1   
 28  14  36  1   
 29  15  17  1   
 30  15  37  1   
 31  15  38  1   
 32  16  17  1   
 33  16  18  am  
 34  17  39  1   
 35  17  40  1   
 36  18  19  2   
 37  18  20  1   
 38  20  21  1   
 39  20  22  1   
 40  20  41  1   
 41  21  42  1   
 42  22  23  1   
 43  22  24  1   
 44  22  43  1   
 45  23  44  1   
 46  23  45  1   
 47  23  46  1   
 48  24  47  1   
 49  24  48  1   
 50  24  49  1   
@<TRIPOS>SUBSTRUCTURE
  1 ****  11 GROUP 4 **** **** 0

# MOE 2024.06 (io_trps.svl 2023.06)
