@<TRIPOS>MOLECULE
NONAME
47 49 1 0 0 
SMALL
USER_CHARGES


@<TRIPOS>ATOM
  1 CL      -2.1240     0.8000    -2.2280 Cl    1 <1>  -0.1230 
  2 C       -2.2280     0.4130    -0.5190 C.2   1 <1>   0.1230 
  3 C       -2.7310    -0.7690    -0.0010 C.2   1 <1>   0.1080 
  4 C       -1.8580     1.1700     0.5310 C.2   1 <1>  -0.3320 
  5 N       -2.6910    -0.7670     1.3020 N.2   1 <1>  -0.7070 
  6 C       -3.2710    -1.9150    -0.8440 C.3   1 <1>   0.5240 
  7 N       -2.1450     0.4320     1.6280 N.pl3 1 <1>   0.3000 
  8 C       -1.2420     2.5590     0.5700 C.3   1 <1>  -0.0600 
  9 N       -4.4520    -2.5210    -0.1740 N.4   1 <1>  -0.9590 
 10 C       -4.8410    -3.8610    -0.7090 C.3   1 <1>   0.3430 
 11 C       -5.6040    -1.5850    -0.0390 C.3   1 <1>   0.3430 
 12 C       -5.8720    -4.5090     0.2300 C.3   1 <1>   0.2000 
 13 C       -6.6500    -2.2030     0.8840 C.3   1 <1>  -0.1600 
 14 O       -5.2220    -4.6610     1.4510 O.3   1 <1>  -0.6800 
 15 C       -7.1230    -3.6110     0.4070 C.3   1 <1>  -0.1060 
 16 C       -7.9680    -4.2890     1.4980 C.2   1 <1>   0.9060 
 17 C       -7.9040    -3.5220    -0.9520 C.3   1 <1>  -0.0160 
 18 O       -9.0130    -4.8730     1.2130 O.co2 1 <1>  -0.9000 
 19 O       -7.5010    -4.3190     2.6450 O.co2 1 <1>  -0.9000 
 20 C       -8.7690    -2.2760    -1.1290 C.ar  1 <1>  -0.1430 
 21 C       -8.4490    -1.3190    -2.0830 C.ar  1 <1>  -0.1500 
 22 C       -9.8920    -2.0880    -0.3370 C.ar  1 <1>  -0.1500 
 23 C       -9.2270    -0.1840    -2.2280 C.ar  1 <1>  -0.1500 
 24 C      -10.6710    -0.9540    -0.4800 C.ar  1 <1>  -0.1500 
 25 C      -10.3380     0.0010    -1.4240 C.ar  1 <1>  -0.1500 
 26 H       -2.4950    -2.6540    -0.9490 H     1 <1>   0.0800 
 27 H       -3.5410    -1.5540    -1.8220 H     1 <1>   0.0800 
 28 H       -1.9820     0.7130     2.6050 H     1 <1>   0.2700 
 29 H       -1.1080     2.9380    -0.4280 H     1 <1>   0.0800 
 30 H       -0.2800     2.5290     1.0520 H     1 <1>   0.0800 
 31 H       -1.8800     3.2380     1.1080 H     1 <1>   0.0800 
 32 H       -4.1540    -2.7020     0.8050 H     1 <1>   0.4500 
 33 H       -5.2480    -3.7630    -1.6990 H     1 <1>   0.0800 
 34 H       -3.9800    -4.5070    -0.7580 H     1 <1>   0.0800 
 35 H       -5.2730    -0.6500     0.3860 H     1 <1>   0.0800 
 36 H       -6.0420    -1.3880    -1.0030 H     1 <1>   0.0800 
 37 H       -6.1580    -5.4890    -0.1140 H     1 <1>   0.0800 
 38 H       -6.2240    -2.2710     1.8710 H     1 <1>   0.0800 
 39 H       -7.4880    -1.5360     0.9800 H     1 <1>   0.0800 
 40 H       -5.9390    -4.6740     2.1630 H     1 <1>   0.4000 
 41 H       -7.2250    -3.5480    -1.7800 H     1 <1>   0.0800 
 42 H       -8.5300    -4.3890    -1.0820 H     1 <1>   0.0800 
 43 H       -7.5980    -1.4510    -2.7250 H     1 <1>   0.1500 
 44 H      -10.1660    -2.8280     0.3980 H     1 <1>   0.1500 
 45 H       -8.9750     0.5550    -2.9680 H     1 <1>   0.1500 
 46 H      -11.5360    -0.8220     0.1450 H     1 <1>   0.1500 
 47 H      -10.9450     0.8820    -1.5340 H     1 <1>   0.1500 
@<TRIPOS>BOND
  1   1   2  1   
  2   2   3  1   
  3   2   4  2   
  4   3   5  2   
  5   3   6  1   
  6   4   7  1   
  7   4   8  1   
  8   5   7  1   
  9   6   9  1   
 10   6  26  1   
 11   6  27  1   
 12   7  28  1   
 13   8  29  1   
 14   8  30  1   
 15   8  31  1   
 16   9  10  1   
 17   9  11  1   
 18   9  32  1   
 19  10  12  1   
 20  10  33  1   
 21  10  34  1   
 22  11  13  1   
 23  11  35  1   
 24  11  36  1   
 25  12  14  1   
 26  12  15  1   
 27  12  37  1   
 28  13  15  1   
 29  13  38  1   
 30  13  39  1   
 31  14  40  1   
 32  15  16  1   
 33  15  17  1   
 34  16  18  ar  
 35  16  19  ar  
 36  17  20  1   
 37  17  41  1   
 38  17  42  1   
 39  20  21  ar  
 40  20  22  ar  
 41  21  23  ar  
 42  21  43  1   
 43  22  24  ar  
 44  22  44  1   
 45  23  25  ar  
 46  23  45  1   
 47  24  25  ar  
 48  24  46  1   
 49  25  47  1   
@<TRIPOS>SUBSTRUCTURE
  1 ****  11 GROUP 4 **** **** 0

# MOE 2024.06 (io_trps.svl 2023.06)
