@<TRIPOS>MOLECULE
NONAME
44 46 1 0 0 
SMALL
USER_CHARGES


@<TRIPOS>ATOM
  1 CL      -0.9400     5.4430     2.6170 Cl    1 <1>  -0.1770 
  2 C        0.0220     4.8020     1.3030 C.ar  1 <1>   0.1770 
  3 C       -0.5790     4.5220     0.0830 C.ar  1 <1>   0.0830 
  4 C        1.3730     4.5880     1.4960 C.ar  1 <1>  -0.1500 
  5 O       -1.8940     4.7320    -0.1090 O.3   1 <1>  -0.5330 
  6 C        0.1870     4.0170    -0.9520 C.ar  1 <1>  -0.1500 
  7 C        2.1470     4.0920     0.4540 C.ar  1 <1>  -0.1440 
  8 C        1.5430     3.8010    -0.7640 C.ar  1 <1>  -0.1500 
  9 C        3.6450     3.8680     0.6490 C.3   1 <1>   0.0440 
 10 C        4.3630     5.0700     1.2570 C.2   1 <1>   0.5690 
 11 O        5.0420     4.8680     2.2340 O.2   1 <1>  -0.5700 
 12 N        4.2740     6.3410     0.7270 N.am  1 <1>  -0.6600 
 13 C        4.7430     7.5110     1.5400 C.3   1 <1>   0.1400 
 14 C        3.7250     6.6450    -0.6210 C.3   1 <1>   0.1400 
 15 C        6.0420     8.1590     1.0090 C.3   1 <1>   0.4230 
 16 C        4.7000     7.4510    -1.4970 C.3   1 <1>  -0.0800 
 17 N        5.8070     9.2280    -0.0290 N.4   1 <1>  -0.9590 
 18 C        7.0420     7.1370     0.4110 C.3   1 <1>   0.1200 
 19 C        6.0560     6.7340    -1.7270 C.3   1 <1>   0.1200 
 20 C        4.7630     8.9250    -1.0560 C.3   1 <1>   0.3430 
 21 C        5.6710    10.5980     0.5460 C.3   1 <1>   0.2630 
 22 O        7.1160     7.2760    -0.9890 O.3   1 <1>  -0.5600 
 23 H        1.8080     4.8100     2.4550 H     1 <1>   0.1500 
 24 H       -2.3410     5.0570     0.6980 H     1 <1>   0.4500 
 25 H       -0.2820     3.7930    -1.8940 H     1 <1>   0.1500 
 26 H        2.1210     3.3980    -1.5790 H     1 <1>   0.1500 
 27 H        4.1180     3.6240    -0.2830 H     1 <1>   0.0800 
 28 H        3.7780     3.0250     1.3020 H     1 <1>   0.0800 
 29 H        3.9610     8.2460     1.6040 H     1 <1>   0.0800 
 30 H        4.9340     7.1870     2.5490 H     1 <1>   0.0800 
 31 H        3.5000     5.7310    -1.1410 H     1 <1>   0.0800 
 32 H        2.7950     7.1770    -0.5070 H     1 <1>   0.0800 
 33 H        6.5260     8.6130     1.8570 H     1 <1>   0.0800 
 34 H        4.2180     7.4670    -2.4590 H     1 <1>   0.0800 
 35 H        6.6890     9.1630    -0.5720 H     1 <1>   0.4500 
 36 H        6.8140     6.1170     0.6670 H     1 <1>   0.0800 
 37 H        8.0240     7.3480     0.7970 H     1 <1>   0.0800 
 38 H        6.3350     6.8280    -2.7630 H     1 <1>   0.0800 
 39 H        5.9880     5.6810    -1.5050 H     1 <1>   0.0800 
 40 H        3.7940     9.2120    -0.6790 H     1 <1>   0.0800 
 41 H        4.9610     9.5300    -1.9260 H     1 <1>   0.0800 
 42 H        4.7650    10.6740     1.1250 H     1 <1>   0.0800 
 43 H        5.6390    11.3320    -0.2430 H     1 <1>   0.0800 
 44 H        6.5100    10.8210     1.1850 H     1 <1>   0.0800 
@<TRIPOS>BOND
  1   1   2  1   
  2   2   3  ar  
  3   2   4  ar  
  4   3   5  1   
  5   3   6  ar  
  6   4   7  ar  
  7   4  23  1   
  8   5  24  1   
  9   6   8  ar  
 10   6  25  1   
 11   7   8  ar  
 12   7   9  1   
 13   8  26  1   
 14   9  10  1   
 15   9  27  1   
 16   9  28  1   
 17  10  11  2   
 18  10  12  am  
 19  12  13  1   
 20  12  14  1   
 21  13  15  1   
 22  13  29  1   
 23  13  30  1   
 24  14  16  1   
 25  14  31  1   
 26  14  32  1   
 27  15  17  1   
 28  15  18  1   
 29  15  33  1   
 30  16  19  1   
 31  16  20  1   
 32  16  34  1   
 33  17  20  1   
 34  17  21  1   
 35  17  35  1   
 36  18  22  1   
 37  18  36  1   
 38  18  37  1   
 39  19  22  1   
 40  19  38  1   
 41  19  39  1   
 42  20  40  1   
 43  20  41  1   
 44  21  42  1   
 45  21  43  1   
 46  21  44  1   
@<TRIPOS>SUBSTRUCTURE
  1 ****  12 GROUP 4 **** **** 0

# MOE 2024.06 (io_trps.svl 2023.06)
