@<TRIPOS>MOLECULE
NONAME
52 54 1 0 0 
SMALL
USER_CHARGES


@<TRIPOS>ATOM
  1 S        0.6760     2.1460     0.6690 S.o2  1 <1>   1.3330 
  2 O        0.9280     3.5390     0.3750 O.2   1 <1>  -0.6500 
  3 O        0.6880     1.7450     2.0550 O.2   1 <1>  -0.6500 
  4 N        1.9330     1.2790    -0.0710 N.am  1 <1>  -0.8490 
  5 C       -0.8070     1.5560    -0.1210 C.3   1 <1>  -0.1350 
  6 C        3.0450     0.9030     0.8260 C.3   1 <1>   0.1960 
  7 C        2.3300     1.6170    -1.4470 C.3   1 <1>   0.1960 
  8 C        3.6910     2.1050     1.5580 C.3   1 <1>   0.3430 
  9 C        3.1370     2.9190    -1.6150 C.3   1 <1>  -0.1600 
 10 N        3.7260     3.3500     0.7260 N.4   1 <1>  -0.9590 
 11 C        4.2860     3.1430    -0.6320 C.3   1 <1>   0.3430 
 12 C        4.3230     4.4990     1.4410 C.3   1 <1>   0.5240 
 13 C        3.9440     5.7570     0.6950 C.2   1 <1>  -0.1810 
 14 C        4.8170     6.4950    -0.1080 C.2   1 <1>   0.2350 
 15 C        2.7550     6.3910     0.6190 C.2   1 <1>  -0.3020 
 16 N        4.1970     7.5060    -0.6550 N.2   1 <1>  -0.7070 
 17 C        6.2010     6.1450    -0.3340 C.ar  1 <1>   0.0540 
 18 N        2.9360     7.4470    -0.1960 N.pl3 1 <1>   0.3000 
 19 C        7.1740     6.2090     0.6690 C.ar  1 <1>  -0.1440 
 20 C        6.5790     5.6830    -1.5930 C.ar  1 <1>  -0.1500 
 21 C        8.4550     5.7490     0.4170 C.ar  1 <1>  -0.1500 
 22 C        6.8750     6.8040     2.0400 C.3   1 <1>  -0.0970 
 23 C        7.8600     5.2300    -1.8470 C.ar  1 <1>  -0.1440 
 24 C        8.7960     5.2540    -0.8290 C.ar  1 <1>  -0.1500 
 25 C        8.2550     4.7260    -3.2230 C.3   1 <1>  -0.0970 
 26 H       -1.6660     2.0280     0.3140 H     1 <1>   0.0800 
 27 H       -0.8980     0.4960     0.0100 H     1 <1>   0.0800 
 28 H       -0.7890     1.7770    -1.1690 H     1 <1>   0.0800 
 29 H        3.7980     0.3780     0.2660 H     1 <1>   0.0800 
 30 H        2.6780     0.2130     1.5680 H     1 <1>   0.0800 
 31 H        1.4480     1.6760    -2.0630 H     1 <1>   0.0800 
 32 H        2.9180     0.8000    -1.8340 H     1 <1>   0.0800 
 33 H        4.6880     1.8320     1.8640 H     1 <1>   0.0800 
 34 H        3.1170     2.2950     2.4500 H     1 <1>   0.0800 
 35 H        2.4790     3.7680    -1.5930 H     1 <1>   0.0800 
 36 H        3.5570     2.9060    -2.6050 H     1 <1>   0.0800 
 37 H        2.7350     3.6300     0.5680 H     1 <1>   0.4500 
 38 H        4.8290     4.0200    -0.9420 H     1 <1>   0.0800 
 39 H        4.9670     2.3080    -0.6420 H     1 <1>   0.0800 
 40 H        5.3950     4.3980     1.4910 H     1 <1>   0.0800 
 41 H        3.9290     4.5550     2.4420 H     1 <1>   0.0800 
 42 H        1.8060     6.1620     1.0750 H     1 <1>   0.1500 
 43 H        2.2230     8.1400    -0.4630 H     1 <1>   0.2700 
 44 H        5.8450     5.6890    -2.3800 H     1 <1>   0.1500 
 45 H        9.2070     5.7840     1.1870 H     1 <1>   0.1500 
 46 H        6.1360     7.5830     1.9650 H     1 <1>   0.0800 
 47 H        7.7650     7.2440     2.4550 H     1 <1>   0.0800 
 48 H        6.5250     6.0470     2.7160 H     1 <1>   0.0800 
 49 H        9.7980     4.9040    -1.0070 H     1 <1>   0.1500 
 50 H        7.4760     4.9110    -3.9410 H     1 <1>   0.0800 
 51 H        8.4520     3.6700    -3.1870 H     1 <1>   0.0800 
 52 H        9.1440     5.2320    -3.5550 H     1 <1>   0.0800 
@<TRIPOS>BOND
  1   1   2  2   
  2   1   3  2   
  3   1   4  am  
  4   1   5  1   
  5   4   6  1   
  6   4   7  1   
  7   5  26  1   
  8   5  27  1   
  9   5  28  1   
 10   6   8  1   
 11   6  29  1   
 12   6  30  1   
 13   7   9  1   
 14   7  31  1   
 15   7  32  1   
 16   8  10  1   
 17   8  33  1   
 18   8  34  1   
 19   9  11  1   
 20   9  35  1   
 21   9  36  1   
 22  10  11  1   
 23  10  12  1   
 24  10  37  1   
 25  11  38  1   
 26  11  39  1   
 27  12  13  1   
 28  12  40  1   
 29  12  41  1   
 30  13  14  1   
 31  13  15  2   
 32  14  16  2   
 33  14  17  1   
 34  15  18  1   
 35  15  42  1   
 36  16  18  1   
 37  17  19  ar  
 38  17  20  ar  
 39  18  43  1   
 40  19  21  ar  
 41  19  22  1   
 42  20  23  ar  
 43  20  44  1   
 44  21  24  ar  
 45  21  45  1   
 46  22  46  1   
 47  22  47  1   
 48  22  48  1   
 49  23  24  ar  
 50  23  25  1   
 51  24  49  1   
 52  25  50  1   
 53  25  51  1   
 54  25  52  1   
@<TRIPOS>SUBSTRUCTURE
  1 ****  11 GROUP 4 **** **** 0

# MOE 2024.06 (io_trps.svl 2023.06)
