@<TRIPOS>MOLECULE
NONAME
48 50 1 0 0 
SMALL
USER_CHARGES


@<TRIPOS>ATOM
  1 S        0.8400    -0.3950    -1.2770 S.o2  1 <1>   1.3330 
  2 O        2.1590    -0.8910    -0.9490 O.2   1 <1>  -0.6500 
  3 O        0.3440    -0.5330    -2.6270 O.2   1 <1>  -0.6500 
  4 N       -0.2780    -1.1730    -0.2600 N.am  1 <1>  -0.8490 
  5 C        0.7210     1.3330    -0.7850 C.3   1 <1>  -0.0550 
  6 C        0.0860    -2.5690     0.0010 C.3   1 <1>   0.1160 
  7 C       -1.6590    -1.1070    -0.7520 C.3   1 <1>   0.1160 
  8 C        1.4750     1.7730     0.4910 C.3   1 <1>  -0.0800 
  9 C        2.9990     1.7070     0.3520 C.3   1 <1>   0.2200 
 10 C        1.1880     0.9880     1.7770 C.3   1 <1>   0.1200 
 11 N        3.5620     3.0660     0.5200 N.am  1 <1>  -0.7300 
 12 C        3.4130     0.8080     1.5160 C.3   1 <1>   0.1200 
 13 O        2.4000     0.9540     2.4570 O.3   1 <1>  -0.5600 
 14 C        3.6580     3.9880    -0.4750 C.2   1 <1>   0.7150 
 15 O        3.2350     3.7030    -1.5770 O.2   1 <1>  -0.5700 
 16 C        4.2310     5.2760    -0.1890 C.2   1 <1>  -0.2370 
 17 N        4.0270     5.9040     1.0180 N.pl3 1 <1>   0.0330 
 18 C        5.0060     6.1030    -0.9560 C.2   1 <1>  -0.1810 
 19 C        4.6700     7.1110     1.0200 C.ar  1 <1>  -0.1520 
 20 C        5.2970     7.2640    -0.2140 C.ar  1 <1>   0.0000 
 21 C        5.5050     5.8730    -2.3710 C.3   1 <1>  -0.0590 
 22 C        4.7510     8.0960     2.0120 C.ar  1 <1>  -0.1500 
 23 C        6.0290     8.4290    -0.4750 C.ar  1 <1>  -0.1500 
 24 C        5.4710     9.2390     1.7530 C.ar  1 <1>  -0.1500 
 25 C        6.0970     9.3810     0.5100 C.ar  1 <1>   0.1900 
 26 F        6.7760    10.4780     0.2900 F     1 <1>  -0.1900 
 27 H        1.0970     1.9310    -1.5940 H     1 <1>   0.0800 
 28 H       -0.3140     1.5870    -0.6740 H     1 <1>   0.0800 
 29 H       -0.6370    -3.0290     0.6530 H     1 <1>   0.0800 
 30 H        1.0490    -2.6170     0.4820 H     1 <1>   0.0800 
 31 H        0.1340    -3.1220    -0.9230 H     1 <1>   0.0800 
 32 H       -2.3320    -1.5280    -0.0240 H     1 <1>   0.0800 
 33 H       -1.7570    -1.6540    -1.6760 H     1 <1>   0.0800 
 34 H       -1.9460    -0.0840    -0.9260 H     1 <1>   0.0800 
 35 H        1.1850     2.7910     0.6800 H     1 <1>   0.0800 
 36 H        3.3290     1.2940    -0.5870 H     1 <1>   0.0800 
 37 H        0.9000    -0.0300     1.5950 H     1 <1>   0.0800 
 38 H        0.4510     1.4680     2.3970 H     1 <1>   0.0800 
 39 H        3.9980     3.2480     1.4220 H     1 <1>   0.3700 
 40 H        4.3580     1.0810     1.9490 H     1 <1>   0.0800 
 41 H        3.4340    -0.2240     1.2100 H     1 <1>   0.0800 
 42 H        3.4310     5.5570     1.7760 H     1 <1>   0.2700 
 43 H        6.5750     5.9660    -2.4020 H     1 <1>   0.0800 
 44 H        5.0710     6.6020    -3.0310 H     1 <1>   0.0800 
 45 H        5.2360     4.8930    -2.7200 H     1 <1>   0.0800 
 46 H        4.2550     7.9550     2.9570 H     1 <1>   0.1500 
 47 H        6.5180     8.5640    -1.4210 H     1 <1>   0.1500 
 48 H        5.5650    10.0250     2.4800 H     1 <1>   0.1500 
@<TRIPOS>BOND
  1   1   2  2   
  2   1   3  2   
  3   1   4  am  
  4   1   5  1   
  5   4   6  1   
  6   4   7  1   
  7   5   8  1   
  8   5  27  1   
  9   5  28  1   
 10   6  29  1   
 11   6  30  1   
 12   6  31  1   
 13   7  32  1   
 14   7  33  1   
 15   7  34  1   
 16   8   9  1   
 17   8  10  1   
 18   8  35  1   
 19   9  11  1   
 20   9  12  1   
 21   9  36  1   
 22  10  13  1   
 23  10  37  1   
 24  10  38  1   
 25  11  14  am  
 26  11  39  1   
 27  12  13  1   
 28  12  40  1   
 29  12  41  1   
 30  14  15  2   
 31  14  16  1   
 32  16  17  1   
 33  16  18  2   
 34  17  19  1   
 35  17  42  1   
 36  18  20  1   
 37  18  21  1   
 38  19  20  ar  
 39  19  22  ar  
 40  20  23  ar  
 41  21  43  1   
 42  21  44  1   
 43  21  45  1   
 44  22  24  ar  
 45  22  46  1   
 46  23  25  ar  
 47  23  47  1   
 48  24  25  ar  
 49  24  48  1   
 50  25  26  1   
@<TRIPOS>SUBSTRUCTURE
  1 ****  14 GROUP 4 **** **** 0

# MOE 2024.06 (io_trps.svl 2023.06)
