@<TRIPOS>MOLECULE
NONAME
46 48 1 0 0 
SMALL
USER_CHARGES


@<TRIPOS>ATOM
  1 N       -0.0560     0.3800     0.3820 N.ar  1 <1>  -0.6200 
  2 C       -1.2650    -0.1470     0.2730 C.ar  1 <1>   0.7710 
  3 C        0.0580     1.6640     0.6650 C.ar  1 <1>   0.4100 
  4 N       -2.3760     0.5880     0.4380 N.ar  1 <1>  -0.1790 
  5 N       -1.3910    -1.4670    -0.0090 N.pl3 1 <1>  -0.8380 
  6 N        1.3160     2.1720     0.7960 N.pl3 1 <1>  -0.8380 
  7 C       -1.0900     2.4680     0.8240 C.ar  1 <1>  -0.1500 
  8 C       -2.3200     1.9110     0.7110 C.ar  1 <1>   0.2180 
  9 C       -2.6300    -2.2600    -0.2390 C.3   1 <1>   0.2090 
 10 C       -0.1930    -2.3420    -0.1620 C.3   1 <1>   0.2090 
 11 C        1.6830     3.3220     1.7040 C.3   1 <1>   0.3530 
 12 C        2.5290     1.4550     0.2760 C.3   1 <1>   0.1290 
 13 C       -3.6160     2.6880     0.8660 C.3   1 <1>  -0.0970 
 14 C       -2.1500    -3.5830    -0.8200 C.3   1 <1>  -0.1600 
 15 C       -0.7420    -3.7580    -0.2640 C.3   1 <1>  -0.1600 
 16 C        2.7330     4.2740     1.1160 C.ar  1 <1>   0.1670 
 17 N        3.9250     4.2200     1.7020 N.ar  1 <1>  -0.6200 
 18 C        2.4320     5.1240     0.0500 C.ar  1 <1>  -0.1430 
 19 C        4.8510     5.0300     1.2190 C.ar  1 <1>   0.1600 
 20 C        3.4180     5.9620    -0.4350 C.ar  1 <1>  -0.1500 
 21 C        1.0600     5.1640    -0.6080 C.3   1 <1>  -0.0970 
 22 C        4.6530     5.9070     0.1700 C.ar  1 <1>  -0.1500 
 23 H       -3.2470     0.0840     0.3440 H     1 <1>   0.4570 
 24 H       -0.9770     3.5150     1.0210 H     1 <1>   0.1500 
 25 H       -3.3000    -1.7690    -0.9250 H     1 <1>   0.0800 
 26 H       -3.1230    -2.4390     0.7030 H     1 <1>   0.0800 
 27 H        0.4760    -2.2420     0.6780 H     1 <1>   0.0800 
 28 H        0.3290    -2.0770    -1.0670 H     1 <1>   0.0800 
 29 H        2.0800     2.9090     2.6150 H     1 <1>   0.0800 
 30 H        0.8220     3.8970     1.9800 H     1 <1>   0.0800 
 31 H        2.2620     0.6340    -0.3650 H     1 <1>   0.0800 
 32 H        3.1090     1.0760     1.1000 H     1 <1>   0.0800 
 33 H        3.1420     2.1290    -0.2970 H     1 <1>   0.0800 
 34 H       -4.1980     2.2890     1.6780 H     1 <1>   0.0800 
 35 H       -4.1950     2.6390    -0.0390 H     1 <1>   0.0800 
 36 H       -3.4120     3.7230     1.0780 H     1 <1>   0.0800 
 37 H       -2.1100    -3.5050    -1.8930 H     1 <1>   0.0800 
 38 H       -2.7990    -4.3990    -0.5540 H     1 <1>   0.0800 
 39 H       -0.7850    -4.1900     0.7210 H     1 <1>   0.0800 
 40 H       -0.1270    -4.3800    -0.8900 H     1 <1>   0.0800 
 41 H        5.8200     4.9950     1.6860 H     1 <1>   0.1500 
 42 H        3.2400     6.6360    -1.2550 H     1 <1>   0.1500 
 43 H        0.8180     4.1980    -1.0130 H     1 <1>   0.0800 
 44 H        1.0410     5.8760    -1.4140 H     1 <1>   0.0800 
 45 H        0.3130     5.4510     0.1090 H     1 <1>   0.0800 
 46 H        5.4560     6.5360    -0.1680 H     1 <1>   0.1500 
@<TRIPOS>BOND
  1   1   2  ar  
  2   1   3  ar  
  3   2   4  ar  
  4   2   5  1   
  5   3   6  1   
  6   3   7  ar  
  7   4   8  ar  
  8   4  23  1   
  9   5   9  1   
 10   5  10  1   
 11   6  11  1   
 12   6  12  1   
 13   7   8  ar  
 14   7  24  1   
 15   8  13  1   
 16   9  14  1   
 17   9  25  1   
 18   9  26  1   
 19  10  15  1   
 20  10  27  1   
 21  10  28  1   
 22  11  16  1   
 23  11  29  1   
 24  11  30  1   
 25  12  31  1   
 26  12  32  1   
 27  12  33  1   
 28  13  34  1   
 29  13  35  1   
 30  13  36  1   
 31  14  15  1   
 32  14  37  1   
 33  14  38  1   
 34  15  39  1   
 35  15  40  1   
 36  16  17  ar  
 37  16  18  ar  
 38  17  19  ar  
 39  18  20  ar  
 40  18  21  1   
 41  19  22  ar  
 42  19  41  1   
 43  20  22  ar  
 44  20  42  1   
 45  21  43  1   
 46  21  44  1   
 47  21  45  1   
 48  22  46  1   
@<TRIPOS>SUBSTRUCTURE
  1 ****   3 GROUP 4 **** **** 0

# MOE 2024.06 (io_trps.svl 2023.06)
