@<TRIPOS>MOLECULE
NONAME
45 47 1 0 0 
SMALL
USER_CHARGES


@<TRIPOS>ATOM
  1 S        1.0050     0.1540    -0.3450 S.o2  1 <1>   1.3330 
  2 O        2.2530     0.4270     0.3320 O.2   1 <1>  -0.6500 
  3 O        0.9920    -0.0020    -1.7800 O.2   1 <1>  -0.6500 
  4 N        0.2390    -1.1710     0.3830 N.am  1 <1>  -0.8490 
  5 C       -0.0680     1.5310     0.0560 C.3   1 <1>  -0.0550 
  6 C       -0.7590    -1.8150    -0.4800 C.3   1 <1>   0.1160 
  7 C        1.1920    -2.1740     0.8690 C.3   1 <1>   0.1160 
  8 C        0.4150     2.8570    -0.5760 C.3   1 <1>  -0.0800 
  9 C       -0.4380     4.0850    -0.2560 C.3   1 <1>   0.2000 
 10 C        1.8380     3.2630    -0.1540 C.3   1 <1>   0.3430 
 11 O       -0.7420     4.0980     1.1030 O.3   1 <1>  -0.6800 
 12 C        0.5250     5.2400    -0.5460 C.3   1 <1>   0.3430 
 13 N        1.8650     4.7530    -0.1070 N.4   1 <1>  -0.9590 
 14 C        2.1910     5.2580     1.2470 C.3   1 <1>   0.5240 
 15 C        2.5550     6.7200     1.1210 C.2   1 <1>  -0.1810 
 16 C        3.1790     7.3430     0.0850 C.2   1 <1>  -0.0260 
 17 C        2.3280     7.7150     2.0580 C.2   1 <1>   0.1390 
 18 N        3.6320     6.8460    -1.1230 N.2   1 <1>  -0.5760 
 19 N        3.3000     8.6650     0.4590 N.pl3 1 <1>   0.6010 
 20 N        2.7620     8.8820     1.6740 N.2   1 <1>  -0.7070 
 21 C        4.2140     7.7030    -1.9040 C.2   1 <1>   0.3760 
 22 C        3.9180     9.5540    -0.3930 C.2   1 <1>  -0.1810 
 23 C        4.3810     9.0800    -1.5790 C.2   1 <1>  -0.1360 
 24 H       -1.0590     1.3150    -0.2950 H     1 <1>   0.0800 
 25 H       -0.1110     1.6270     1.1240 H     1 <1>   0.0800 
 26 H       -1.2720    -2.5910     0.0620 H     1 <1>   0.0800 
 27 H       -0.2850    -2.2480    -1.3470 H     1 <1>   0.0800 
 28 H       -1.4870    -1.0940    -0.8110 H     1 <1>   0.0800 
 29 H        0.6700    -2.9860     1.3460 H     1 <1>   0.0800 
 30 H        1.8570    -1.7340     1.5930 H     1 <1>   0.0800 
 31 H        1.7790    -2.5630     0.0520 H     1 <1>   0.0800 
 32 H        0.4280     2.7300    -1.6460 H     1 <1>   0.0800 
 33 H       -1.3500     4.1530    -0.8260 H     1 <1>   0.0800 
 34 H        2.5660     2.8810    -0.8530 H     1 <1>   0.0800 
 35 H        2.0560     2.8580     0.8220 H     1 <1>   0.0800 
 36 H       -1.5910     3.6390     1.2830 H     1 <1>   0.4000 
 37 H        0.2270     6.1420    -0.0360 H     1 <1>   0.0800 
 38 H        0.5460     5.4260    -1.6070 H     1 <1>   0.0800 
 39 H        2.5960     5.1670    -0.7190 H     1 <1>   0.4500 
 40 H        1.3490     5.1290     1.9080 H     1 <1>   0.0800 
 41 H        3.0350     4.7200     1.6480 H     1 <1>   0.0800 
 42 H        1.8460     7.5700     3.0140 H     1 <1>   0.1500 
 43 H        4.5950     7.3720    -2.8550 H     1 <1>   0.0600 
 44 H        3.9920    10.5700    -0.0530 H     1 <1>   0.1500 
 45 H        4.8770     9.7120    -2.2940 H     1 <1>   0.1500 
@<TRIPOS>BOND
  1   1   2  2   
  2   1   3  2   
  3   1   4  am  
  4   1   5  1   
  5   4   6  1   
  6   4   7  1   
  7   5   8  1   
  8   5  24  1   
  9   5  25  1   
 10   6  26  1   
 11   6  27  1   
 12   6  28  1   
 13   7  29  1   
 14   7  30  1   
 15   7  31  1   
 16   8   9  1   
 17   8  10  1   
 18   8  32  1   
 19   9  11  1   
 20   9  12  1   
 21   9  33  1   
 22  10  13  1   
 23  10  34  1   
 24  10  35  1   
 25  11  36  1   
 26  12  13  1   
 27  12  37  1   
 28  12  38  1   
 29  13  14  1   
 30  13  39  1   
 31  14  15  1   
 32  14  40  1   
 33  14  41  1   
 34  15  16  2   
 35  15  17  1   
 36  16  18  1   
 37  16  19  1   
 38  17  20  2   
 39  17  42  1   
 40  18  21  2   
 41  19  20  1   
 42  19  22  1   
 43  21  23  1   
 44  21  43  1   
 45  22  23  2   
 46  22  44  1   
 47  23  45  1   
@<TRIPOS>SUBSTRUCTURE
  1 ****  13 GROUP 4 **** **** 0

# MOE 2024.06 (io_trps.svl 2023.06)
