@<TRIPOS>MOLECULE
NONAME
50 52 1 0 0 
SMALL
USER_CHARGES


@<TRIPOS>ATOM
  1 S        1.1850     2.3050     3.0180 S.3   1 <1>  -0.0800 
  2 C        2.0370     1.9660     1.5050 C.2   1 <1>  -0.0450 
  3 C        0.9060     0.6060     3.3280 C.2   1 <1>  -0.1100 
  4 C        2.5520     3.0740     0.7420 C.2   1 <1>   0.7150 
  5 C        2.0650     0.6200     1.3190 C.2   1 <1>  -0.1500 
  6 C        1.4310    -0.1430     2.3420 C.2   1 <1>  -0.1500 
  7 O        2.3260     4.2270     1.0610 O.2   1 <1>  -0.5700 
  8 N        3.3210     2.8380    -0.3580 N.am  1 <1>  -0.7300 
  9 C        4.1640     3.8250    -1.0770 C.3   1 <1>   0.3610 
 10 C        4.9240     4.7970    -0.1070 C.2   1 <1>   0.5690 
 11 C        5.2000     2.9960    -1.8470 C.3   1 <1>  -0.2400 
 12 C        3.2610     4.5180    -2.1110 C.3   1 <1>  -0.2400 
 13 O        5.6000     4.3230     0.7840 O.2   1 <1>  -0.5700 
 14 N        4.8780     6.1670    -0.2100 N.am  1 <1>  -0.6600 
 15 C        3.6460     6.8800     0.3020 C.3   1 <1>   0.2200 
 16 C        6.1790     6.9080    -0.1480 C.3   1 <1>   0.1400 
 17 C        3.5310     8.3290    -0.2020 C.3   1 <1>   0.1200 
 18 C        3.5670     6.8390     1.8510 C.3   1 <1>   0.3430 
 19 C        6.2710     8.0010     0.9350 C.3   1 <1>  -0.0800 
 20 O        4.1910     9.2080     0.6610 O.3   1 <1>  -0.5600 
 21 N        4.8830     6.4980     2.4920 N.4   1 <1>  -0.9590 
 22 C        5.5660     9.2970     0.5040 C.3   1 <1>   0.1200 
 23 C        5.9110     7.5770     2.3780 C.3   1 <1>   0.3430 
 24 C        4.6920     6.0280     3.8900 C.3   1 <1>   0.2630 
 25 H        0.3740     0.3430     4.2250 H     1 <1>   0.1500 
 26 H        2.5170     0.1200     0.4800 H     1 <1>   0.1500 
 27 H        1.3950    -1.2180     2.2950 H     1 <1>   0.1500 
 28 H        3.5560     1.8700    -0.5660 H     1 <1>   0.3700 
 29 H        5.8320     3.6470    -2.4250 H     1 <1>   0.0800 
 30 H        4.7250     2.3040    -2.5210 H     1 <1>   0.0800 
 31 H        5.8270     2.4490    -1.1640 H     1 <1>   0.0800 
 32 H        3.8150     5.2680    -2.6470 H     1 <1>   0.0800 
 33 H        2.4180     4.9820    -1.6380 H     1 <1>   0.0800 
 34 H        2.8880     3.8050    -2.8240 H     1 <1>   0.0800 
 35 H        2.7790     6.3730    -0.0730 H     1 <1>   0.0800 
 36 H        6.9800     6.2040     0.0140 H     1 <1>   0.0800 
 37 H        6.3580     7.3530    -1.1130 H     1 <1>   0.0800 
 38 H        2.4950     8.6190    -0.1940 H     1 <1>   0.0800 
 39 H        3.9030     8.4380    -1.2060 H     1 <1>   0.0800 
 40 H        2.8390     6.0970     2.1280 H     1 <1>   0.0800 
 41 H        3.2080     7.7850     2.2210 H     1 <1>   0.0800 
 42 H        7.3100     8.2740     0.9710 H     1 <1>   0.0800 
 43 H        5.2360     5.6900     1.9310 H     1 <1>   0.4500 
 44 H        5.7850     9.5490    -0.5210 H     1 <1>   0.0800 
 45 H        5.8960    10.1150     1.1230 H     1 <1>   0.0800 
 46 H        5.5800     8.4460     2.9220 H     1 <1>   0.0800 
 47 H        6.8140     7.2250     2.8510 H     1 <1>   0.0800 
 48 H        4.3030     6.8240     4.5030 H     1 <1>   0.0800 
 49 H        5.6300     5.6940     4.3020 H     1 <1>   0.0800 
 50 H        3.9980     5.2030     3.9090 H     1 <1>   0.0800 
@<TRIPOS>BOND
  1   1   2  1   
  2   1   3  1   
  3   2   4  1   
  4   2   5  2   
  5   3   6  2   
  6   3  25  1   
  7   4   7  2   
  8   4   8  am  
  9   5   6  1   
 10   5  26  1   
 11   6  27  1   
 12   8   9  1   
 13   8  28  1   
 14   9  10  1   
 15   9  11  1   
 16   9  12  1   
 17  10  13  2   
 18  10  14  am  
 19  11  29  1   
 20  11  30  1   
 21  11  31  1   
 22  12  32  1   
 23  12  33  1   
 24  12  34  1   
 25  14  15  1   
 26  14  16  1   
 27  15  17  1   
 28  15  18  1   
 29  15  35  1   
 30  16  19  1   
 31  16  36  1   
 32  16  37  1   
 33  17  20  1   
 34  17  38  1   
 35  17  39  1   
 36  18  21  1   
 37  18  40  1   
 38  18  41  1   
 39  19  22  1   
 40  19  23  1   
 41  19  42  1   
 42  20  22  1   
 43  21  23  1   
 44  21  24  1   
 45  21  43  1   
 46  22  44  1   
 47  22  45  1   
 48  23  46  1   
 49  23  47  1   
 50  24  48  1   
 51  24  49  1   
 52  24  50  1   
@<TRIPOS>SUBSTRUCTURE
  1 ****  10 GROUP 4 **** **** 0

# MOE 2024.06 (io_trps.svl 2023.06)
