@<TRIPOS>MOLECULE
NONAME
34 36 1 0 0 
SMALL
USER_CHARGES


@<TRIPOS>ATOM
  1 O        0.8190    -0.1160     1.4930 O.3   1 <1>  -0.0190 
  2 N        1.7370     0.7990     1.3240 N.2   1 <1>  -0.4100 
  3 C        1.0900    -1.0050     0.5710 C.2   1 <1>   0.3930 
  4 C        2.4700     0.4150     0.3490 C.2   1 <1>   0.5990 
  5 N        2.0920    -0.7480    -0.1650 N.2   1 <1>  -0.5650 
  6 C        0.2020    -2.2360     0.4760 C.3   1 <1>  -0.0150 
  7 N        3.5680     1.1100    -0.1630 N.pl3 1 <1>  -0.8210 
  8 C       -0.0020    -2.9610    -0.8200 C.3   1 <1>  -0.2000 
  9 C       -1.1220    -2.1650    -0.2210 C.3   1 <1>  -0.2000 
 10 C        4.1460     2.1540     0.7330 C.3   1 <1>   0.3530 
 11 C        4.5730     0.3200    -0.9360 C.3   1 <1>   0.1290 
 12 C        5.0550     3.1060    -0.0430 C.ar  1 <1>  -0.1430 
 13 C        6.3990     3.3060     0.2320 C.ar  1 <1>  -0.1430 
 14 C        4.5320     3.8300    -1.0970 C.ar  1 <1>  -0.1500 
 15 C        7.1140     4.2040    -0.5510 C.ar  1 <1>   0.1600 
 16 C        7.1080     2.5710     1.3620 C.3   1 <1>  -0.0970 
 17 C        5.3400     4.6960    -1.8100 C.ar  1 <1>   0.1600 
 18 N        6.6220     4.9010    -1.5610 N.ar  1 <1>  -0.6200 
 19 H        0.2610    -2.8350     1.3670 H     1 <1>   0.1000 
 20 H       -0.0570    -4.0350    -0.8060 H     1 <1>   0.1000 
 21 H        0.4900    -2.5840    -1.7010 H     1 <1>   0.1000 
 22 H       -1.4080    -1.2420    -0.6970 H     1 <1>   0.1000 
 23 H       -1.9600    -2.6860     0.2080 H     1 <1>   0.1000 
 24 H        4.6730     1.6730     1.5360 H     1 <1>   0.0800 
 25 H        3.3530     2.7390     1.1660 H     1 <1>   0.0800 
 26 H        4.0800    -0.2720    -1.6880 H     1 <1>   0.0800 
 27 H        5.1140    -0.3350    -0.2750 H     1 <1>   0.0800 
 28 H        5.2680     0.9720    -1.4370 H     1 <1>   0.0800 
 29 H        3.4980     3.7150    -1.3690 H     1 <1>   0.1500 
 30 H        8.1570     4.3600    -0.3370 H     1 <1>   0.1500 
 31 H        6.6600     2.8250     2.3060 H     1 <1>   0.0800 
 32 H        8.1490     2.8360     1.4020 H     1 <1>   0.0800 
 33 H        7.0380     1.5080     1.2130 H     1 <1>   0.0800 
 34 H        4.9090     5.2470    -2.6280 H     1 <1>   0.1500 
@<TRIPOS>BOND
  1   1   2  1   
  2   1   3  1   
  3   2   4  2   
  4   3   5  2   
  5   3   6  1   
  6   4   5  1   
  7   4   7  1   
  8   6   8  1   
  9   6   9  1   
 10   6  19  1   
 11   7  10  1   
 12   7  11  1   
 13   8   9  1   
 14   8  20  1   
 15   8  21  1   
 16   9  22  1   
 17   9  23  1   
 18  10  12  1   
 19  10  24  1   
 20  10  25  1   
 21  11  26  1   
 22  11  27  1   
 23  11  28  1   
 24  12  13  ar  
 25  12  14  ar  
 26  13  15  ar  
 27  13  16  1   
 28  14  17  ar  
 29  14  29  1   
 30  15  18  ar  
 31  15  30  1   
 32  16  31  1   
 33  16  32  1   
 34  16  33  1   
 35  17  18  ar  
 36  17  34  1   
@<TRIPOS>SUBSTRUCTURE
  1 ****   7 GROUP 4 **** **** 0

# MOE 2024.06 (io_trps.svl 2023.06)
