@<TRIPOS>MOLECULE
NONAME
43 45 1 0 0 
SMALL
USER_CHARGES


@<TRIPOS>ATOM
  1 F        0.7810     0.1430     1.6470 F     1 <1>  -0.1900 
  2 C        1.6720    -0.6480     1.1150 C.ar  1 <1>   0.1900 
  3 C        2.7180    -0.0880     0.4120 C.ar  1 <1>  -0.1500 
  4 C        1.5290    -2.0090     1.2770 C.ar  1 <1>  -0.1500 
  5 C        3.6720    -0.9230    -0.1550 C.ar  1 <1>   0.0730 
  6 C        2.4650    -2.8690     0.7060 C.ar  1 <1>   0.0860 
  7 C        4.7770    -0.3790    -0.8920 C.1   1 <1>   0.4840 
  8 C        3.5280    -2.2980     0.0050 C.ar  1 <1>  -0.1500 
  9 C        2.3540    -4.3090     0.8400 C.2   1 <1>   0.5440 
 10 N        5.6480     0.0570    -1.4840 N.1   1 <1>  -0.5570 
 11 O        3.3320    -4.9550     1.1590 O.2   1 <1>  -0.5700 
 12 N        1.1710    -4.9650     0.5960 N.am  1 <1>  -0.6600 
 13 C        0.0880    -4.4630    -0.2920 C.3   1 <1>   0.1400 
 14 C        0.9800    -6.4130     0.8450 C.3   1 <1>   0.1400 
 15 C       -0.8440    -5.6580    -0.5360 C.3   1 <1>   0.2000 
 16 C        0.0410    -6.8800    -0.2690 C.3   1 <1>  -0.0800 
 17 O       -1.8830    -5.6400     0.4000 O.3   1 <1>  -0.5600 
 18 C       -0.7300    -8.1670     0.0760 C.3   1 <1>   0.0200 
 19 C       -3.0040    -4.8990     0.0320 C.3   1 <1>   0.0400 
 20 C        0.1620    -9.3950     0.1670 C.2   1 <1>  -0.0400 
 21 O       -0.3700   -10.5300     0.5350 O.3   1 <1>  -0.0190 
 22 C        1.4670    -9.6130    -0.0630 C.2   1 <1>  -0.1500 
 23 N        0.5060   -11.4920     0.5680 N.2   1 <1>  -0.4100 
 24 C        1.6230   -10.9680     0.2130 C.2   1 <1>   0.1080 
 25 C        2.9270   -11.7280     0.1130 C.3   1 <1>  -0.0590 
 26 H        2.7870     0.9820     0.3140 H     1 <1>   0.1500 
 27 H        0.7050    -2.4010     1.8460 H     1 <1>   0.1500 
 28 H        4.2660    -2.9580    -0.4230 H     1 <1>   0.1500 
 29 H       -0.4420    -3.6470     0.1650 H     1 <1>   0.0800 
 30 H        0.5210    -4.1420    -1.2230 H     1 <1>   0.0800 
 31 H        1.9160    -6.9440     0.8300 H     1 <1>   0.0800 
 32 H        0.5140    -6.5380     1.8080 H     1 <1>   0.0800 
 33 H       -1.2580    -5.6710    -1.5300 H     1 <1>   0.0800 
 34 H        0.6350    -7.0550    -1.1480 H     1 <1>   0.0800 
 35 H       -1.4760    -8.3480    -0.6780 H     1 <1>   0.0800 
 36 H       -1.2410    -8.0460     1.0150 H     1 <1>   0.0800 
 37 H       -3.7160    -4.9510     0.8370 H     1 <1>   0.0800 
 38 H       -3.4360    -5.3260    -0.8570 H     1 <1>   0.0800 
 39 H       -2.7230    -3.8750    -0.1360 H     1 <1>   0.0800 
 40 H        2.2430    -8.9420    -0.3820 H     1 <1>   0.1500 
 41 H        3.6610   -11.2780     0.7550 H     1 <1>   0.0800 
 42 H        3.2820   -11.7090    -0.9010 H     1 <1>   0.0800 
 43 H        2.7800   -12.7500     0.4120 H     1 <1>   0.0800 
@<TRIPOS>BOND
  1   1   2  1   
  2   2   3  ar  
  3   2   4  ar  
  4   3   5  ar  
  5   3  26  1   
  6   4   6  ar  
  7   4  27  1   
  8   5   7  1   
  9   5   8  ar  
 10   6   8  ar  
 11   6   9  1   
 12   7  10  3   
 13   8  28  1   
 14   9  11  2   
 15   9  12  am  
 16  12  13  1   
 17  12  14  1   
 18  13  15  1   
 19  13  29  1   
 20  13  30  1   
 21  14  16  1   
 22  14  31  1   
 23  14  32  1   
 24  15  16  1   
 25  15  17  1   
 26  15  33  1   
 27  16  18  1   
 28  16  34  1   
 29  17  19  1   
 30  18  20  1   
 31  18  35  1   
 32  18  36  1   
 33  19  37  1   
 34  19  38  1   
 35  19  39  1   
 36  20  21  1   
 37  20  22  2   
 38  21  23  1   
 39  22  24  1   
 40  22  40  1   
 41  23  24  2   
 42  24  25  1   
 43  25  41  1   
 44  25  42  1   
 45  25  43  1   
@<TRIPOS>SUBSTRUCTURE
  1 ****  12 GROUP 4 **** **** 0

# MOE 2024.06 (io_trps.svl 2023.06)
