@<TRIPOS>MOLECULE
NONAME
63 67 1 0 0 
SMALL
USER_CHARGES


@<TRIPOS>ATOM
  1 O       -0.1550     1.4340     1.2950 O.2   1 <1>  -0.5700 
  2 C       -0.9870     1.6430     0.4410 C.2   1 <1>   0.5690 
  3 N       -2.0090     0.7290     0.2520 N.am  1 <1>  -0.6600 
  4 C       -0.8270     2.9260    -0.4110 C.3   1 <1>   0.0610 
  5 C       -2.1790    -0.4120     1.2030 C.3   1 <1>   0.1400 
  6 C       -2.9480     0.6450    -0.9050 C.3   1 <1>   0.1400 
  7 C        0.0410     4.0130     0.2850 C.3   1 <1>   0.2200 
  8 C       -2.1470     3.7350    -0.6220 C.3   1 <1>  -0.1600 
  9 C       -0.1960     2.5620    -1.7860 C.3   1 <1>  -0.0170 
 10 C       -3.6150    -0.4360     1.7350 C.3   1 <1>  -0.1600 
 11 C       -4.3980     0.6350    -0.4060 C.3   1 <1>  -0.1600 
 12 N       -0.3860     5.2040    -0.4510 N.am  1 <1>  -0.6600 
 13 C       -0.4800     4.4110     1.6830 C.3   1 <1>  -0.1600 
 14 C       -1.8080     5.1580    -0.1570 C.3   1 <1>   0.2200 
 15 C        1.1840     1.9190    -1.7040 C.ar  1 <1>  -0.1440 
 16 C       -4.6400    -0.5010     0.5950 C.3   1 <1>  -0.1600 
 17 C        0.4120     6.1800    -0.9780 C.2   1 <1>   0.5690 
 18 C       -1.7750     5.1790     1.3720 C.3   1 <1>  -0.1600 
 19 C        2.3260     2.6910    -1.8620 C.ar  1 <1>  -0.1500 
 20 C        1.3170     0.5560    -1.4850 C.ar  1 <1>  -0.1500 
 21 O        1.6120     6.0490    -1.0360 O.2   1 <1>  -0.5700 
 22 C       -0.1820     7.4550    -1.5450 C.3   1 <1>   0.1570 
 23 C        3.5810     2.1110    -1.7990 C.ar  1 <1>  -0.1500 
 24 C        2.5710    -0.0260    -1.4220 C.ar  1 <1>  -0.1500 
 25 N       -0.8630     8.2500    -0.5010 N.pl3 1 <1>   0.0480 
 26 C        3.7050     0.7510    -1.5790 C.ar  1 <1>  -0.1500 
 27 C       -2.0920     8.8260    -0.5400 C.2   1 <1>   0.0060 
 28 C       -0.3870     8.5490     0.7220 C.2   1 <1>  -0.3020 
 29 N       -2.4130     9.4360     0.5520 N.2   1 <1>  -0.5650 
 30 C       -3.0150     8.7810    -1.7420 C.3   1 <1>  -0.0600 
 31 C       -1.3420     9.2670     1.3470 C.2   1 <1>   0.0770 
 32 H       -1.9610    -1.3320     0.6900 H     1 <1>   0.0800 
 33 H       -1.4990    -0.3310     2.0350 H     1 <1>   0.0800 
 34 H       -2.8150     1.4580    -1.5880 H     1 <1>   0.0800 
 35 H       -2.7490    -0.2670    -1.4420 H     1 <1>   0.0800 
 36 H        1.1030     3.8320     0.2590 H     1 <1>   0.0800 
 37 H       -2.9620     3.3440    -0.0400 H     1 <1>   0.0800 
 38 H       -2.4430     3.7560    -1.6550 H     1 <1>   0.0800 
 39 H       -0.8370     1.8860    -2.3180 H     1 <1>   0.0800 
 40 H       -0.1180     3.4430    -2.3970 H     1 <1>   0.0800 
 41 H       -3.7390    -1.2870     2.3810 H     1 <1>   0.0800 
 42 H       -3.7790     0.4490     2.3250 H     1 <1>   0.0800 
 43 H       -4.6180     1.5790     0.0600 H     1 <1>   0.0800 
 44 H       -5.0610     0.5210    -1.2450 H     1 <1>   0.0800 
 45 H       -0.6510     3.5780     2.3380 H     1 <1>   0.0800 
 46 H        0.2370     5.0630     2.1520 H     1 <1>   0.0800 
 47 H       -2.3990     5.9380    -0.6040 H     1 <1>   0.0800 
 48 H       -5.6370    -0.4300     0.9960 H     1 <1>   0.0800 
 49 H       -4.5510    -1.4480     0.0900 H     1 <1>   0.0800 
 50 H       -1.7130     6.1930     1.7290 H     1 <1>   0.0800 
 51 H       -2.6420     4.7110     1.8030 H     1 <1>   0.0800 
 52 H        2.2470     3.7510    -2.0320 H     1 <1>   0.1500 
 53 H        0.4460    -0.0610    -1.3550 H     1 <1>   0.1500 
 54 H       -0.8750     7.2000    -2.3210 H     1 <1>   0.0800 
 55 H        0.6050     8.0520    -1.9660 H     1 <1>   0.0800 
 56 H        4.4580     2.7220    -1.9190 H     1 <1>   0.1500 
 57 H        2.6640    -1.0830    -1.2450 H     1 <1>   0.1500 
 58 H        4.6800     0.3000    -1.5270 H     1 <1>   0.1500 
 59 H        0.5820     8.2390     1.0730 H     1 <1>   0.1500 
 60 H       -3.9080     9.3420    -1.5320 H     1 <1>   0.0800 
 61 H       -3.2930     7.7680    -1.9640 H     1 <1>   0.0800 
 62 H       -2.5320     9.2200    -2.5960 H     1 <1>   0.0800 
 63 H       -1.3140     9.6790     2.3430 H     1 <1>   0.1500 
@<TRIPOS>BOND
  1   1   2  2   
  2   2   3  am  
  3   2   4  1   
  4   3   5  1   
  5   3   6  1   
  6   4   7  1   
  7   4   8  1   
  8   4   9  1   
  9   5  10  1   
 10   5  32  1   
 11   5  33  1   
 12   6  11  1   
 13   6  34  1   
 14   6  35  1   
 15   7  12  1   
 16   7  13  1   
 17   7  36  1   
 18   8  14  1   
 19   8  37  1   
 20   8  38  1   
 21   9  15  1   
 22   9  39  1   
 23   9  40  1   
 24  10  16  1   
 25  10  41  1   
 26  10  42  1   
 27  11  16  1   
 28  11  43  1   
 29  11  44  1   
 30  12  14  1   
 31  12  17  am  
 32  13  18  1   
 33  13  45  1   
 34  13  46  1   
 35  14  18  1   
 36  14  47  1   
 37  15  19  ar  
 38  15  20  ar  
 39  16  48  1   
 40  16  49  1   
 41  17  21  2   
 42  17  22  1   
 43  18  50  1   
 44  18  51  1   
 45  19  23  ar  
 46  19  52  1   
 47  20  24  ar  
 48  20  53  1   
 49  22  25  1   
 50  22  54  1   
 51  22  55  1   
 52  23  26  ar  
 53  23  56  1   
 54  24  26  ar  
 55  24  57  1   
 56  25  27  1   
 57  25  28  1   
 58  26  58  1   
 59  27  29  2   
 60  27  30  1   
 61  28  31  2   
 62  28  59  1   
 63  29  31  1   
 64  30  60  1   
 65  30  61  1   
 66  30  62  1   
 67  31  63  1   
@<TRIPOS>SUBSTRUCTURE
  1 ****   4 GROUP 4 **** **** 0

# MOE 2024.06 (io_trps.svl 2023.06)
