@<TRIPOS>MOLECULE
NONAME
35 36 1 0 0 
SMALL
USER_CHARGES


@<TRIPOS>ATOM
  1 CL      -0.4990    -0.2370     0.2570 Cl    1 <1>  -0.1770 
  2 C       -0.3330    -1.9500    -0.0320 C.ar  1 <1>   0.1770 
  3 C       -1.4310    -2.7730     0.1230 C.ar  1 <1>  -0.1500 
  4 C        0.8970    -2.4540    -0.4130 C.ar  1 <1>  -0.1500 
  5 C       -1.3020    -4.1340    -0.1050 C.ar  1 <1>   0.0830 
  6 C        1.0280    -3.8130    -0.6420 C.ar  1 <1>  -0.1500 
  7 O       -2.4150    -4.8880     0.0660 O.3   1 <1>  -0.3630 
  8 C       -0.0650    -4.6510    -0.4900 C.ar  1 <1>  -0.1500 
  9 C       -2.3830    -6.2900    -0.1080 C.3   1 <1>   0.1200 
 10 C       -3.7870    -6.8420     0.1460 C.3   1 <1>   0.1100 
 11 N       -3.8270    -8.3020    -0.0630 N.3   1 <1>  -0.8100 
 12 C       -5.2200    -8.7520    -0.3450 C.3   1 <1>   0.2910 
 13 C       -3.2520    -9.0340     1.0780 C.3   1 <1>   0.0300 
 14 C       -5.3650   -10.2360    -0.7040 C.2   1 <1>   0.3350 
 15 N       -5.3270   -10.7080    -1.8890 N.2   1 <1>  -0.4100 
 16 N       -5.5790   -11.1650     0.2240 N.2   1 <1>  -0.5650 
 17 O       -5.5010   -11.9910    -1.7970 O.3   1 <1>  -0.0190 
 18 C       -5.6450   -12.1990    -0.5120 C.2   1 <1>   0.2980 
 19 C       -5.8750   -13.6100    -0.0260 C.3   1 <1>  -0.0600 
 20 H       -2.3780    -2.3630     0.4190 H     1 <1>   0.1500 
 21 H        1.7340    -1.7900    -0.5260 H     1 <1>   0.1500 
 22 H        1.9810    -4.2180    -0.9400 H     1 <1>   0.1500 
 23 H        0.0660    -5.7010    -0.6760 H     1 <1>   0.1500 
 24 H       -1.6770    -6.6960     0.5920 H     1 <1>   0.0800 
 25 H       -2.0840    -6.5010    -1.1190 H     1 <1>   0.0800 
 26 H       -4.4530    -6.3620    -0.5500 H     1 <1>   0.0800 
 27 H       -4.1030    -6.6020     1.1480 H     1 <1>   0.0800 
 28 H       -5.6020    -8.1880    -1.1780 H     1 <1>   0.0800 
 29 H       -5.8450    -8.5460     0.5060 H     1 <1>   0.0800 
 30 H       -2.2530    -8.6930     1.2830 H     1 <1>   0.0800 
 31 H       -3.1950   -10.0850     0.8510 H     1 <1>   0.0800 
 32 H       -3.8570    -8.9010     1.9590 H     1 <1>   0.0800 
 33 H       -5.9740   -13.6180     1.0440 H     1 <1>   0.0800 
 34 H       -5.0420   -14.2290    -0.3060 H     1 <1>   0.0800 
 35 H       -6.7720   -14.0030    -0.4650 H     1 <1>   0.0800 
@<TRIPOS>BOND
  1   1   2  1   
  2   2   3  ar  
  3   2   4  ar  
  4   3   5  ar  
  5   3  20  1   
  6   4   6  ar  
  7   4  21  1   
  8   5   7  1   
  9   5   8  ar  
 10   6   8  ar  
 11   6  22  1   
 12   7   9  1   
 13   8  23  1   
 14   9  10  1   
 15   9  24  1   
 16   9  25  1   
 17  10  11  1   
 18  10  26  1   
 19  10  27  1   
 20  11  12  1   
 21  11  13  1   
 22  12  14  1   
 23  12  28  1   
 24  12  29  1   
 25  13  30  1   
 26  13  31  1   
 27  13  32  1   
 28  14  15  2   
 29  14  16  1   
 30  15  17  1   
 31  16  18  2   
 32  17  18  1   
 33  18  19  1   
 34  19  33  1   
 35  19  34  1   
 36  19  35  1   
@<TRIPOS>SUBSTRUCTURE
  1 ****   9 GROUP 4 **** **** 0

# MOE 2024.06 (io_trps.svl 2023.06)
