@<TRIPOS>MOLECULE
NONAME
46 48 1 0 0 
SMALL
USER_CHARGES


@<TRIPOS>ATOM
  1 O        0.1530     0.2320     0.7340 O.co2 1 <1>  -0.9000 
  2 C        1.3390    -0.0430     0.9110 C.2   1 <1>   0.9060 
  3 O        1.7160    -0.6810     1.9070 O.co2 1 <1>  -0.9000 
  4 C        2.3600     0.3540    -0.1710 C.3   1 <1>  -0.1060 
  5 C        3.7800    -0.0390     0.2730 C.3   1 <1>   0.4230 
  6 C        2.2700     1.9020    -0.3850 C.3   1 <1>  -0.1600 
  7 C        2.0780    -0.4270    -1.4740 C.3   1 <1>  -0.1600 
  8 N        3.8580    -1.4950     0.6190 N.4   1 <1>  -0.9590 
  9 C        4.2720     0.9940     1.2980 C.3   1 <1>   0.2090 
 10 C        3.6100     2.6560    -0.5050 C.3   1 <1>   0.2090 
 11 C        2.2270    -1.9420    -1.2300 C.3   1 <1>  -0.1600 
 12 C        3.5610    -2.3320    -0.5750 C.3   1 <1>   0.3430 
 13 C        5.1190    -1.8880     1.2990 C.3   1 <1>   0.2630 
 14 N        4.6360     2.2030     0.4930 N.pl3 1 <1>  -0.8380 
 15 C        5.9520     2.4570     0.1820 C.ar  1 <1>   0.7200 
 16 N        6.8180     1.4480     0.3050 N.ar  1 <1>  -0.6200 
 17 N        6.2270     3.6820    -0.2530 N.ar  1 <1>  -0.6200 
 18 C        8.0620     1.7170    -0.0050 C.ar  1 <1>   0.1670 
 19 C        7.4750     3.9270    -0.5570 C.ar  1 <1>   0.1670 
 20 C        8.4470     2.9610    -0.4460 C.ar  1 <1>  -0.1500 
 21 C        9.0690     0.5960     0.1430 C.3   1 <1>  -0.0970 
 22 C        7.8040     5.3240    -1.0370 C.3   1 <1>  -0.0970 
 23 H        4.4270     0.1000    -0.5760 H     1 <1>   0.0800 
 24 H        1.7600     2.3380     0.4590 H     1 <1>   0.0800 
 25 H        1.6540     2.1240    -1.2380 H     1 <1>   0.0800 
 26 H        1.0740    -0.2190    -1.8070 H     1 <1>   0.0800 
 27 H        2.7570    -0.1110    -2.2470 H     1 <1>   0.0800 
 28 H        3.0510    -1.5820     1.2950 H     1 <1>   0.4500 
 29 H        5.1210     0.6460     1.8530 H     1 <1>   0.0800 
 30 H        3.4960     1.2450     2.0020 H     1 <1>   0.0800 
 31 H        3.4400     3.7120    -0.3740 H     1 <1>   0.0800 
 32 H        4.0060     2.5120    -1.4970 H     1 <1>   0.0800 
 33 H        2.1290    -2.4640    -2.1650 H     1 <1>   0.0800 
 34 H        1.4230    -2.2830    -0.5980 H     1 <1>   0.0800 
 35 H        4.3520    -2.2070    -1.2960 H     1 <1>   0.0800 
 36 H        3.5240    -3.3710    -0.2900 H     1 <1>   0.0800 
 37 H        5.9670    -1.6390     0.6830 H     1 <1>   0.0800 
 38 H        5.1200    -2.9480     1.4940 H     1 <1>   0.0800 
 39 H        5.2080    -1.3710     2.2400 H     1 <1>   0.0800 
 40 H        9.4690     3.1720    -0.6960 H     1 <1>   0.1500 
 41 H       10.0540     0.9240    -0.1350 H     1 <1>   0.0800 
 42 H        8.7880    -0.2270    -0.4870 H     1 <1>   0.0800 
 43 H        9.0900     0.2640     1.1640 H     1 <1>   0.0800 
 44 H        8.8510     5.4220    -1.2550 H     1 <1>   0.0800 
 45 H        7.5380     6.0350    -0.2770 H     1 <1>   0.0800 
 46 H        7.2410     5.5410    -1.9260 H     1 <1>   0.0800 
@<TRIPOS>BOND
  1   1   2  ar  
  2   2   3  ar  
  3   2   4  1   
  4   4   5  1   
  5   4   6  1   
  6   4   7  1   
  7   5   8  1   
  8   5   9  1   
  9   5  23  1   
 10   6  10  1   
 11   6  24  1   
 12   6  25  1   
 13   7  11  1   
 14   7  26  1   
 15   7  27  1   
 16   8  12  1   
 17   8  13  1   
 18   8  28  1   
 19   9  14  1   
 20   9  29  1   
 21   9  30  1   
 22  10  14  1   
 23  10  31  1   
 24  10  32  1   
 25  11  12  1   
 26  11  33  1   
 27  11  34  1   
 28  12  35  1   
 29  12  36  1   
 30  13  37  1   
 31  13  38  1   
 32  13  39  1   
 33  14  15  1   
 34  15  16  ar  
 35  15  17  ar  
 36  16  18  ar  
 37  17  19  ar  
 38  18  20  ar  
 39  18  21  1   
 40  19  20  ar  
 41  19  22  1   
 42  20  40  1   
 43  21  41  1   
 44  21  42  1   
 45  21  43  1   
 46  22  44  1   
 47  22  45  1   
 48  22  46  1   
@<TRIPOS>SUBSTRUCTURE
  1 ****   9 GROUP 4 **** **** 0

# MOE 2024.06 (io_trps.svl 2023.06)
