@<TRIPOS>MOLECULE
NONAME
35 36 1 0 0 
SMALL
USER_CHARGES


@<TRIPOS>ATOM
  1 O        0.5610    -0.6520     0.7300 O.co2 1 <1>  -0.9000 
  2 C        1.5590    -0.6720     0.0060 C.2   1 <1>   0.9060 
  3 O        1.6650    -1.4380    -0.9620 O.co2 1 <1>  -0.9000 
  4 C        2.7070     0.2610     0.3350 C.3   1 <1>  -0.1860 
  5 C        4.0330    -0.5060     0.4460 C.3   1 <1>   0.2000 
  6 C        2.8280     1.4390    -0.6570 C.3   1 <1>  -0.1600 
  7 O        4.2670    -1.1880    -0.7390 O.3   1 <1>  -0.6800 
  8 C        5.2060     0.4500     0.7460 C.3   1 <1>   0.2090 
  9 C        3.9670     2.3880    -0.2660 C.3   1 <1>   0.2090 
 10 N        5.2460     1.6400    -0.1630 N.pl3 1 <1>  -0.8380 
 11 C        6.4370     2.3230    -0.2730 C.ar  1 <1>   0.4100 
 12 N        6.4990     3.5410     0.2480 N.ar  1 <1>  -0.6200 
 13 C        7.5120     1.7130    -0.9070 C.ar  1 <1>  -0.1500 
 14 C        7.6560     4.1710     0.1410 C.ar  1 <1>   0.1670 
 15 C        8.7140     2.3690    -1.0110 C.ar  1 <1>  -0.1500 
 16 C        8.7910     3.6370    -0.4670 C.ar  1 <1>  -0.1440 
 17 C        7.6750     5.5610     0.7500 C.3   1 <1>  -0.0970 
 18 C       10.1090     4.3940    -0.5550 C.3   1 <1>  -0.0970 
 19 H        2.4920     0.6730     1.3030 H     1 <1>   0.0800 
 20 H        3.9550    -1.2470     1.2220 H     1 <1>   0.0800 
 21 H        1.9010     1.9830    -0.6770 H     1 <1>   0.0800 
 22 H        3.0090     1.0620    -1.6480 H     1 <1>   0.0800 
 23 H        3.3610    -1.4540    -1.0800 H     1 <1>   0.4000 
 24 H        6.1290    -0.0970     0.6820 H     1 <1>   0.0800 
 25 H        5.1040     0.8080     1.7550 H     1 <1>   0.0800 
 26 H        3.7530     2.8510     0.6820 H     1 <1>   0.0800 
 27 H        4.0660     3.1620    -1.0070 H     1 <1>   0.0800 
 28 H        7.3720     0.7290    -1.3130 H     1 <1>   0.1500 
 29 H        9.5540     1.9070    -1.4990 H     1 <1>   0.1500 
 30 H        8.1990     6.2490     0.1140 H     1 <1>   0.0800 
 31 H        8.1510     5.5250     1.7120 H     1 <1>   0.0800 
 32 H        6.6710     5.9230     0.8780 H     1 <1>   0.0800 
 33 H       10.8980     3.7520    -0.9030 H     1 <1>   0.0800 
 34 H       10.3870     4.7710     0.4130 H     1 <1>   0.0800 
 35 H       10.0130     5.2170    -1.2400 H     1 <1>   0.0800 
@<TRIPOS>BOND
  1   1   2  ar  
  2   2   3  ar  
  3   2   4  1   
  4   4   5  1   
  5   4   6  1   
  6   4  19  1   
  7   5   7  1   
  8   5   8  1   
  9   5  20  1   
 10   6   9  1   
 11   6  21  1   
 12   6  22  1   
 13   7  23  1   
 14   8  10  1   
 15   8  24  1   
 16   8  25  1   
 17   9  10  1   
 18   9  26  1   
 19   9  27  1   
 20  10  11  1   
 21  11  12  ar  
 22  11  13  ar  
 23  12  14  ar  
 24  13  15  ar  
 25  13  28  1   
 26  14  16  ar  
 27  14  17  1   
 28  15  16  ar  
 29  15  29  1   
 30  16  18  1   
 31  17  30  1   
 32  17  31  1   
 33  17  32  1   
 34  18  33  1   
 35  18  34  1   
 36  18  35  1   
@<TRIPOS>SUBSTRUCTURE
  1 ****  10 GROUP 4 **** **** 0

# MOE 2024.06 (io_trps.svl 2023.06)
