@<TRIPOS>MOLECULE
NONAME
48 49 1 0 0 
SMALL
USER_CHARGES


@<TRIPOS>ATOM
  1 F       -3.0040    -1.0110    -0.1540 F     1 <1>  -0.3400 
  2 C       -1.7300    -1.1570    -0.5080 C.3   1 <1>   1.1640 
  3 F       -1.0100    -0.7340     0.5220 F     1 <1>  -0.3400 
  4 F       -1.5170    -0.2990    -1.4980 F     1 <1>  -0.3400 
  5 C       -1.4150    -2.6160    -0.8750 C.ar  1 <1>  -0.1440 
  6 C       -1.7510    -3.6350     0.0120 C.ar  1 <1>  -0.1500 
  7 C       -0.8000    -2.9560    -2.0750 C.ar  1 <1>  -0.1500 
  8 C       -1.5000    -4.9660    -0.2880 C.ar  1 <1>  -0.1440 
  9 C       -0.5290    -4.2790    -2.3750 C.ar  1 <1>  -0.1500 
 10 C       -0.8750    -5.2780    -1.4850 C.ar  1 <1>  -0.1500 
 11 C       -1.8880    -6.0710     0.6940 C.3   1 <1>   0.2540 
 12 N       -3.2620    -6.5770     0.4710 N.3   1 <1>  -0.8100 
 13 C       -3.3510    -7.2920    -0.8210 C.3   1 <1>   0.2900 
 14 C       -4.2890    -5.5320     0.6750 C.3   1 <1>   0.1100 
 15 C       -4.6760    -8.0160    -0.9520 C.2   1 <1>  -0.3320 
 16 C       -5.6360    -6.1370     1.1200 C.3   1 <1>   0.3430 
 17 N       -5.5190    -7.8290    -1.9860 N.pl3 1 <1>   0.0330 
 18 C       -5.2680    -8.9250    -0.1430 C.2   1 <1>   0.0460 
 19 N       -6.5690    -5.1470     1.7510 N.4   1 <1>  -0.9590 
 20 C       -6.5900    -8.6010    -1.7120 C.2   1 <1>   0.0360 
 21 N       -6.4850    -9.2580    -0.6030 N.2   1 <1>  -0.5650 
 22 C       -4.7450    -9.5570     1.1300 C.3   1 <1>  -0.0590 
 23 C       -7.7860    -5.8760     2.2230 C.3   1 <1>   0.2630 
 24 C       -6.9500    -4.0450     0.8130 C.3   1 <1>   0.2630 
 25 H       -2.2100    -3.3830     0.9520 H     1 <1>   0.1500 
 26 H       -0.5200    -2.1950    -2.7860 H     1 <1>   0.1500 
 27 H       -0.0450    -4.5290    -3.3040 H     1 <1>   0.1500 
 28 H       -0.6490    -6.3010    -1.7320 H     1 <1>   0.1500 
 29 H       -1.8060    -5.6990     1.7010 H     1 <1>   0.0800 
 30 H       -1.1900    -6.8880     0.6090 H     1 <1>   0.0800 
 31 H       -2.5580    -8.0190    -0.8860 H     1 <1>   0.0800 
 32 H       -3.2340    -6.5950    -1.6350 H     1 <1>   0.0800 
 33 H       -4.4100    -4.9580    -0.2270 H     1 <1>   0.0800 
 34 H       -3.9560    -4.8770     1.4610 H     1 <1>   0.0800 
 35 H       -5.4240    -6.9210     1.8280 H     1 <1>   0.0800 
 36 H       -6.1210    -6.5850     0.2710 H     1 <1>   0.0800 
 37 H       -5.3820    -7.2500    -2.8200 H     1 <1>   0.2700 
 38 H       -6.0950    -4.7440     2.5730 H     1 <1>   0.4500 
 39 H       -7.4410    -8.6570    -2.3690 H     1 <1>   0.1500 
 40 H       -3.7690    -9.1780     1.3700 H     1 <1>   0.0800 
 41 H       -4.6800   -10.6210     0.9960 H     1 <1>   0.0800 
 42 H       -5.4150    -9.3530     1.9430 H     1 <1>   0.0800 
 43 H       -8.2910    -6.3410     1.3910 H     1 <1>   0.0800 
 44 H       -8.4690    -5.1970     2.7070 H     1 <1>   0.0800 
 45 H       -7.5120    -6.6460     2.9260 H     1 <1>   0.0800 
 46 H       -7.4310    -4.4510    -0.0630 H     1 <1>   0.0800 
 47 H       -6.0760    -3.4940     0.5040 H     1 <1>   0.0800 
 48 H       -7.6310    -3.3630     1.2950 H     1 <1>   0.0800 
@<TRIPOS>BOND
  1   1   2  1   
  2   2   3  1   
  3   2   4  1   
  4   2   5  1   
  5   5   6  ar  
  6   5   7  ar  
  7   6   8  ar  
  8   6  25  1   
  9   7   9  ar  
 10   7  26  1   
 11   8  10  ar  
 12   8  11  1   
 13   9  10  ar  
 14   9  27  1   
 15  10  28  1   
 16  11  12  1   
 17  11  29  1   
 18  11  30  1   
 19  12  13  1   
 20  12  14  1   
 21  13  15  1   
 22  13  31  1   
 23  13  32  1   
 24  14  16  1   
 25  14  33  1   
 26  14  34  1   
 27  15  17  1   
 28  15  18  2   
 29  16  19  1   
 30  16  35  1   
 31  16  36  1   
 32  17  20  1   
 33  17  37  1   
 34  18  21  1   
 35  18  22  1   
 36  19  23  1   
 37  19  24  1   
 38  19  38  1   
 39  20  21  2   
 40  20  39  1   
 41  22  40  1   
 42  22  41  1   
 43  22  42  1   
 44  23  43  1   
 45  23  44  1   
 46  23  45  1   
 47  24  46  1   
 48  24  47  1   
 49  24  48  1   
@<TRIPOS>SUBSTRUCTURE
  1 ****  14 GROUP 4 **** **** 0

# MOE 2024.06 (io_trps.svl 2023.06)
