@<TRIPOS>MOLECULE
NONAME
44 45 1 0 0 
SMALL
USER_CHARGES


@<TRIPOS>ATOM
  1 O        0.2460    -0.0220     1.0550 O.2   1 <1>  -0.5700 
  2 C        1.1180    -0.4940     0.3540 C.2   1 <1>   0.5440 
  3 N        1.9190     0.3490    -0.3630 N.am  1 <1>  -0.7300 
  4 C        1.3250    -1.9240     0.2690 C.ar  1 <1>   0.0860 
  5 C        1.8540     1.8250    -0.3260 C.3   1 <1>   0.1400 
  6 C        0.3030    -2.8260    -0.0540 C.ar  1 <1>   0.1670 
  7 C        2.5870    -2.4550     0.5040 C.ar  1 <1>  -0.1500 
  8 C        3.2740     2.3860    -0.2950 C.3   1 <1>  -0.1600 
  9 N        0.4590    -4.1370    -0.1540 N.ar  1 <1>  -0.6200 
 10 C       -1.1100    -2.3370    -0.3270 C.3   1 <1>  -0.0970 
 11 C        2.7540    -3.8170     0.4040 C.ar  1 <1>  -0.1500 
 12 C        3.2420     3.9090    -0.2320 C.3   1 <1>   0.2090 
 13 C        1.6700    -4.6110     0.0750 C.ar  1 <1>   0.1670 
 14 N        4.6280     4.4200    -0.1990 N.pl3 1 <1>  -0.8690 
 15 C        1.8240    -6.1120    -0.0410 C.3   1 <1>  -0.0970 
 16 C        4.8940     5.7640    -0.0640 C.ar  1 <1>   0.4100 
 17 N        3.8720     6.5720     0.1820 N.ar  1 <1>  -0.6200 
 18 C        6.2050     6.2120    -0.1970 C.ar  1 <1>  -0.1500 
 19 C        4.1660     7.8560     0.2980 C.ar  1 <1>   0.1600 
 20 C        6.4940     7.5510    -0.0760 C.ar  1 <1>  -0.1500 
 21 C        5.4360     8.4000     0.1810 C.ar  1 <1>  -0.1430 
 22 C        5.6800     9.8920     0.3290 C.3   1 <1>  -0.0970 
 23 H        2.5880    -0.0510    -1.0230 H     1 <1>   0.3700 
 24 H        1.3130     2.1460     0.5490 H     1 <1>   0.0800 
 25 H        1.3300     2.1780    -1.1980 H     1 <1>   0.0800 
 26 H        3.4100    -1.8130     0.7670 H     1 <1>   0.1500 
 27 H        3.8000     2.0790    -1.1800 H     1 <1>   0.0800 
 28 H        3.7810     2.0140     0.5780 H     1 <1>   0.0800 
 29 H       -1.0970    -1.4600    -0.9480 H     1 <1>   0.0800 
 30 H       -1.5930    -2.1000     0.6040 H     1 <1>   0.0800 
 31 H       -1.6820    -3.0970    -0.8270 H     1 <1>   0.0800 
 32 H        3.7180    -4.2590     0.5830 H     1 <1>   0.1500 
 33 H        2.7250     4.2330     0.6570 H     1 <1>   0.0800 
 34 H        2.7340     4.3150    -1.0910 H     1 <1>   0.0800 
 35 H        5.2840     3.9050    -0.7850 H     1 <1>   0.4000 
 36 H        1.1690    -6.5940     0.6610 H     1 <1>   0.0800 
 37 H        2.8340    -6.4170     0.1600 H     1 <1>   0.0800 
 38 H        1.5560    -6.4240    -1.0330 H     1 <1>   0.0800 
 39 H        6.9840     5.5020    -0.3900 H     1 <1>   0.1500 
 40 H        3.3390     8.5150     0.5000 H     1 <1>   0.1500 
 41 H        7.5010     7.9190    -0.1750 H     1 <1>   0.1500 
 42 H        4.7600    10.4160     0.5160 H     1 <1>   0.0800 
 43 H        6.1200    10.2820    -0.5720 H     1 <1>   0.0800 
 44 H        6.3510    10.0720     1.1500 H     1 <1>   0.0800 
@<TRIPOS>BOND
  1   1   2  2   
  2   2   3  am  
  3   2   4  1   
  4   3   5  1   
  5   3  23  1   
  6   4   6  ar  
  7   4   7  ar  
  8   5   8  1   
  9   5  24  1   
 10   5  25  1   
 11   6   9  ar  
 12   6  10  1   
 13   7  11  ar  
 14   7  26  1   
 15   8  12  1   
 16   8  27  1   
 17   8  28  1   
 18   9  13  ar  
 19  10  29  1   
 20  10  30  1   
 21  10  31  1   
 22  11  13  ar  
 23  11  32  1   
 24  12  14  1   
 25  12  33  1   
 26  12  34  1   
 27  13  15  1   
 28  14  16  1   
 29  14  35  1   
 30  15  36  1   
 31  15  37  1   
 32  15  38  1   
 33  16  17  ar  
 34  16  18  ar  
 35  17  19  ar  
 36  18  20  ar  
 37  18  39  1   
 38  19  21  ar  
 39  19  40  1   
 40  20  21  ar  
 41  20  41  1   
 42  21  22  1   
 43  22  42  1   
 44  22  43  1   
 45  22  44  1   
@<TRIPOS>SUBSTRUCTURE
  1 ****   8 GROUP 4 **** **** 0

# MOE 2024.06 (io_trps.svl 2023.06)
