@<TRIPOS>MOLECULE
NONAME
45 47 1 0 0 
SMALL
USER_CHARGES


@<TRIPOS>ATOM
  1 O       -0.7890     0.1460    -1.7400 O.2   1 <1>  -0.5700 
  2 C       -1.1070     1.1410    -1.1380 C.2   1 <1>   0.5690 
  3 N       -2.0750     1.2220    -0.2020 N.am  1 <1>  -0.6600 
  4 C       -0.4550     2.4770    -1.3540 C.3   1 <1>  -0.0990 
  5 C       -2.2500     2.5930     0.3110 C.3   1 <1>   0.1400 
  6 C       -3.0160     0.1300     0.1400 C.3   1 <1>   0.2840 
  7 C       -0.9860     3.3200    -0.1780 C.3   1 <1>  -0.0190 
  8 C       -4.4470     0.5860    -0.0940 C.ar  1 <1>  -0.1440 
  9 C       -1.2530     4.7700    -0.5500 C.2   1 <1>   0.5690 
 10 C       -4.8910     0.9480    -1.3500 C.ar  1 <1>  -0.1500 
 11 C       -5.3730     0.6700     0.9280 C.ar  1 <1>  -0.1500 
 12 O       -2.1620     5.0130    -1.3060 O.2   1 <1>  -0.5700 
 13 N       -0.4490     5.7330    -0.0170 N.am  1 <1>  -0.4930 
 14 C       -6.1990     1.3680    -1.5200 C.ar  1 <1>   0.1600 
 15 C       -6.6590     1.1030     0.6500 C.ar  1 <1>   0.1600 
 16 C       -0.5080     7.1370    -0.2070 C.2   1 <1>   0.0630 
 17 N       -7.0940     1.4550    -0.5480 N.ar  1 <1>  -0.6200 
 18 C       -1.4000     7.8950    -0.9660 C.2   1 <1>   0.1390 
 19 C        0.3260     8.0450     0.3390 C.2   1 <1>  -0.3020 
 20 N       -1.1460     9.1680    -0.9000 N.2   1 <1>  -0.7070 
 21 N       -0.0720     9.2650    -0.0890 N.pl3 1 <1>   0.3140 
 22 C        0.5690    10.5660     0.2650 C.3   1 <1>   0.1760 
 23 C       -0.4210    11.4740     1.0070 C.3   1 <1>  -0.2400 
 24 C        1.1130    11.2620    -0.9910 C.3   1 <1>  -0.2400 
 25 H       -0.7840     2.8660    -2.3010 H     1 <1>   0.0800 
 26 H        0.6150     2.3890    -1.3420 H     1 <1>   0.0800 
 27 H       -2.3220     2.5990     1.3840 H     1 <1>   0.0800 
 28 H       -3.1420     3.0210    -0.1180 H     1 <1>   0.0800 
 29 H       -2.8730    -0.1480     1.1690 H     1 <1>   0.0800 
 30 H       -2.8090    -0.7320    -0.4720 H     1 <1>   0.0800 
 31 H       -0.2670     3.2810     0.6200 H     1 <1>   0.0800 
 32 H       -4.2260     0.9090    -2.1940 H     1 <1>   0.1500 
 33 H       -5.1090     0.4060     1.9350 H     1 <1>   0.1500 
 34 H        0.3070     5.4270     0.5920 H     1 <1>   0.3700 
 35 H       -6.5260     1.6490    -2.5070 H     1 <1>   0.1500 
 36 H       -7.3690     1.1630     1.4580 H     1 <1>   0.1500 
 37 H       -2.2100     7.4820    -1.5440 H     1 <1>   0.1500 
 38 H        1.1640     7.9020     0.9940 H     1 <1>   0.1500 
 39 H        1.3940    10.3520     0.9210 H     1 <1>   0.0800 
 40 H       -1.2580    11.7100     0.3730 H     1 <1>   0.0800 
 41 H        0.0590    12.3910     1.2970 H     1 <1>   0.0800 
 42 H       -0.7830    10.9820     1.8930 H     1 <1>   0.0800 
 43 H        0.3070    11.4940    -1.6660 H     1 <1>   0.0800 
 44 H        1.8160    10.6230    -1.4940 H     1 <1>   0.0800 
 45 H        1.6110    12.1760    -0.7240 H     1 <1>   0.0800 
@<TRIPOS>BOND
  1   1   2  2   
  2   2   3  am  
  3   2   4  1   
  4   3   5  1   
  5   3   6  1   
  6   4   7  1   
  7   4  25  1   
  8   4  26  1   
  9   5   7  1   
 10   5  27  1   
 11   5  28  1   
 12   6   8  1   
 13   6  29  1   
 14   6  30  1   
 15   7   9  1   
 16   7  31  1   
 17   8  10  ar  
 18   8  11  ar  
 19   9  12  2   
 20   9  13  am  
 21  10  14  ar  
 22  10  32  1   
 23  11  15  ar  
 24  11  33  1   
 25  13  16  1   
 26  13  34  1   
 27  14  17  ar  
 28  14  35  1   
 29  15  17  ar  
 30  15  36  1   
 31  16  18  1   
 32  16  19  2   
 33  18  20  2   
 34  18  37  1   
 35  19  21  1   
 36  19  38  1   
 37  20  21  1   
 38  21  22  1   
 39  22  23  1   
 40  22  24  1   
 41  22  39  1   
 42  23  40  1   
 43  23  41  1   
 44  23  42  1   
 45  24  43  1   
 46  24  44  1   
 47  24  45  1   
@<TRIPOS>SUBSTRUCTURE
  1 ****   9 GROUP 4 **** **** 0

# MOE 2024.06 (io_trps.svl 2023.06)
