@<TRIPOS>MOLECULE
NONAME
48 50 1 0 0 
SMALL
USER_CHARGES


@<TRIPOS>ATOM
  1 S        3.0040    -1.7110    -1.7670 S.3   1 <1>  -0.3320 
  2 C        1.4060    -1.8510    -0.9540 C.ar  1 <1>   0.1020 
  3 C        3.9870    -0.6670    -0.6130 C.3   1 <1>   0.1500 
  4 C        1.2350    -2.6110     0.1990 C.ar  1 <1>  -0.1440 
  5 C        0.3580    -1.1490    -1.5210 C.ar  1 <1>  -0.1500 
  6 C        3.3100     0.7010    -0.5140 C.3   1 <1>  -0.1600 
  7 C        5.4000    -0.5590    -1.1860 C.3   1 <1>  -0.1600 
  8 C       -0.0190    -2.6230     0.7930 C.ar  1 <1>  -0.1500 
  9 C        2.3480    -3.4430     0.8210 C.3   1 <1>  -0.0970 
 10 C       -0.8860    -1.1760    -0.9170 C.ar  1 <1>  -0.1500 
 11 C        4.1760     1.6870     0.2610 C.3   1 <1>   0.3430 
 12 C        6.2350     0.4470    -0.3990 C.3   1 <1>   0.3430 
 13 C       -1.0710    -1.9090     0.2420 C.ar  1 <1>  -0.1500 
 14 N        5.5330     1.7620    -0.3620 N.4   1 <1>  -0.9590 
 15 C        6.3740     2.8580     0.2570 C.3   1 <1>   0.4040 
 16 C        5.8610     4.2740    -0.0670 C.2   1 <1>   0.5690 
 17 O        5.1540     4.3880    -1.0410 O.2   1 <1>  -0.5700 
 18 N        6.1970     5.3200     0.7400 N.am  1 <1>  -0.4930 
 19 C        5.8250     6.6600     0.6480 C.2   1 <1>   0.3520 
 20 N        6.1950     7.4980     1.5480 N.2   1 <1>  -0.4100 
 21 C        5.0610     7.2930    -0.3340 C.2   1 <1>  -0.1500 
 22 O        5.6980     8.6550     1.1900 O.3   1 <1>  -0.0190 
 23 C        5.0200     8.5680     0.0760 C.2   1 <1>  -0.0400 
 24 C        4.3640     9.8010    -0.5080 C.3   1 <1>  -0.0600 
 25 H        3.9950    -1.1650     0.3410 H     1 <1>   0.0800 
 26 H        0.5140    -0.5860    -2.4230 H     1 <1>   0.1500 
 27 H        2.3630     0.6000    -0.0120 H     1 <1>   0.0800 
 28 H        3.1180     1.0920    -1.4980 H     1 <1>   0.0800 
 29 H        5.3560    -0.2560    -2.2180 H     1 <1>   0.0800 
 30 H        5.8740    -1.5250    -1.1490 H     1 <1>   0.0800 
 31 H       -0.1870    -3.1960     1.6880 H     1 <1>   0.1500 
 32 H        3.0040    -3.8330     0.0640 H     1 <1>   0.0800 
 33 H        1.9330    -4.2800     1.3530 H     1 <1>   0.0800 
 34 H        2.9140    -2.8480     1.5130 H     1 <1>   0.0800 
 35 H       -1.7090    -0.6310    -1.3480 H     1 <1>   0.1500 
 36 H        4.2590     1.3660     1.2870 H     1 <1>   0.0800 
 37 H        3.7060     2.6580     0.2430 H     1 <1>   0.0800 
 38 H        7.2000     0.5530    -0.8700 H     1 <1>   0.0800 
 39 H        6.3850     0.0820     0.6050 H     1 <1>   0.0800 
 40 H       -2.0380    -1.9310     0.7140 H     1 <1>   0.1500 
 41 H        5.3670     2.0720    -1.3370 H     1 <1>   0.4500 
 42 H        7.3800     2.7880    -0.1190 H     1 <1>   0.0800 
 43 H        6.4060     2.7320     1.3260 H     1 <1>   0.0800 
 44 H        6.8020     5.1770     1.5480 H     1 <1>   0.3700 
 45 H        4.6230     6.8410    -1.2040 H     1 <1>   0.1500 
 46 H        3.8510     9.5540    -1.4190 H     1 <1>   0.0800 
 47 H        5.1110    10.5450    -0.7190 H     1 <1>   0.0800 
 48 H        3.6570    10.2050     0.1930 H     1 <1>   0.0800 
@<TRIPOS>BOND
  1   1   2  1   
  2   1   3  1   
  3   2   4  ar  
  4   2   5  ar  
  5   3   6  1   
  6   3   7  1   
  7   3  25  1   
  8   4   8  ar  
  9   4   9  1   
 10   5  10  ar  
 11   5  26  1   
 12   6  11  1   
 13   6  27  1   
 14   6  28  1   
 15   7  12  1   
 16   7  29  1   
 17   7  30  1   
 18   8  13  ar  
 19   8  31  1   
 20   9  32  1   
 21   9  33  1   
 22   9  34  1   
 23  10  13  ar  
 24  10  35  1   
 25  11  14  1   
 26  11  36  1   
 27  11  37  1   
 28  12  14  1   
 29  12  38  1   
 30  12  39  1   
 31  13  40  1   
 32  14  15  1   
 33  14  41  1   
 34  15  16  1   
 35  15  42  1   
 36  15  43  1   
 37  16  17  2   
 38  16  18  am  
 39  18  19  1   
 40  18  44  1   
 41  19  20  2   
 42  19  21  1   
 43  20  22  1   
 44  21  23  2   
 45  21  45  1   
 46  22  23  1   
 47  23  24  1   
 48  24  46  1   
 49  24  47  1   
 50  24  48  1   
@<TRIPOS>SUBSTRUCTURE
  1 ****  11 GROUP 4 **** **** 0

# MOE 2024.06 (io_trps.svl 2023.06)
