@<TRIPOS>MOLECULE
NONAME
59 62 1 0 0 
SMALL
USER_CHARGES


@<TRIPOS>ATOM
  1 O       -2.5770    -2.7720    -2.5550 O.3   1 <1>  -0.3630 
  2 C       -2.8410    -2.5290    -1.2350 C.ar  1 <1>   0.0820 
  3 C       -1.6270    -1.9780    -3.2370 C.3   1 <1>   0.0400 
  4 C       -2.8990    -3.6220    -0.3600 C.ar  1 <1>   0.0820 
  5 C       -3.1040    -1.2410    -0.7440 C.ar  1 <1>   0.0820 
  6 O       -2.6590    -4.9090    -0.7500 O.3   1 <1>  -0.3630 
  7 C       -3.2360    -3.4350     0.9770 C.ar  1 <1>  -0.1440 
  8 O       -3.0840    -0.1790    -1.6020 O.3   1 <1>  -0.3630 
  9 C       -3.4060    -1.0720     0.6050 C.ar  1 <1>  -0.1500 
 10 C       -1.4850    -5.1990    -1.4850 C.3   1 <1>   0.0400 
 11 C       -3.4760    -2.1580     1.4560 C.ar  1 <1>  -0.1500 
 12 C       -3.3530    -4.6280     1.9050 C.3   1 <1>   0.4860 
 13 C       -3.4710     1.1210    -1.2100 C.3   1 <1>   0.0400 
 14 N       -4.4120    -5.5140     1.3700 N.4   1 <1>  -0.9590 
 15 C       -5.7690    -4.8910     1.4730 C.3   1 <1>   0.3430 
 16 C       -4.4620    -6.8260     2.0700 C.3   1 <1>   0.3430 
 17 C       -6.5480    -5.7460     2.4810 C.3   1 <1>   0.2000 
 18 C       -5.9470    -7.1370     2.2970 C.3   1 <1>  -0.0800 
 19 O       -6.2310    -5.3060     3.7610 O.3   1 <1>  -0.6800 
 20 C       -6.6080    -7.8950     1.1230 C.3   1 <1>  -0.0170 
 21 C       -5.7060    -9.0110     0.6070 C.ar  1 <1>  -0.1440 
 22 C       -4.8380    -8.8530    -0.5040 C.ar  1 <1>   0.0000 
 23 C       -5.6980   -10.2150     1.2480 C.ar  1 <1>  -0.1500 
 24 C       -3.9910    -9.9410    -0.8300 C.ar  1 <1>   0.3100 
 25 C       -4.7510    -7.6890    -1.3060 C.ar  1 <1>  -0.1500 
 26 C       -4.8350   -11.2330     0.8280 C.ar  1 <1>   0.1600 
 27 N       -4.0010   -11.1150    -0.1540 N.ar  1 <1>  -0.6200 
 28 C       -3.0900    -9.8080    -1.8990 C.ar  1 <1>  -0.1500 
 29 C       -3.8650    -7.5940    -2.3440 C.ar  1 <1>  -0.1500 
 30 C       -3.0180    -8.6630    -2.6440 C.ar  1 <1>  -0.1500 
 31 H       -1.2060    -2.5660    -4.0330 H     1 <1>   0.0800 
 32 H       -0.8550    -1.6760    -2.5520 H     1 <1>   0.0800 
 33 H       -2.1240    -1.1190    -3.6510 H     1 <1>   0.0800 
 34 H       -3.5960    -0.0980     1.0150 H     1 <1>   0.1500 
 35 H       -1.2240    -6.2280    -1.3120 H     1 <1>   0.0800 
 36 H       -0.6890    -4.5550    -1.1560 H     1 <1>   0.0800 
 37 H       -1.6820    -5.0510    -2.5310 H     1 <1>   0.0800 
 38 H       -3.7220    -1.9940     2.4920 H     1 <1>   0.1500 
 39 H       -3.6020    -4.3100     2.9050 H     1 <1>   0.0800 
 40 H       -2.4110    -5.1510     1.9270 H     1 <1>   0.0800 
 41 H       -3.4180     1.7590    -2.0740 H     1 <1>   0.0800 
 42 H       -2.7930     1.4770    -0.4540 H     1 <1>   0.0800 
 43 H       -4.4810     1.0910    -0.8430 H     1 <1>   0.0800 
 44 H       -4.1520    -5.6420     0.3750 H     1 <1>   0.4500 
 45 H       -5.7240    -3.8640     1.7960 H     1 <1>   0.0800 
 46 H       -6.2550    -4.9350     0.5130 H     1 <1>   0.0800 
 47 H       -3.9590    -7.5970     1.5090 H     1 <1>   0.0800 
 48 H       -3.9860    -6.7350     3.0330 H     1 <1>   0.0800 
 49 H       -7.6160    -5.6920     2.3440 H     1 <1>   0.0800 
 50 H       -6.0570    -7.7360     3.1850 H     1 <1>   0.0800 
 51 H       -6.8340    -5.6950     4.4310 H     1 <1>   0.4000 
 52 H       -6.8830    -7.2340     0.3240 H     1 <1>   0.0800 
 53 H       -7.5310    -8.3300     1.4720 H     1 <1>   0.0800 
 54 H       -6.3400   -10.4170     2.0870 H     1 <1>   0.1500 
 55 H       -5.3940    -6.8540    -1.1230 H     1 <1>   0.1500 
 56 H       -4.8620   -12.1710     1.3590 H     1 <1>   0.1500 
 57 H       -2.4540   -10.6470    -2.1160 H     1 <1>   0.1500 
 58 H       -3.8110    -6.7020    -2.9480 H     1 <1>   0.1500 
 59 H       -2.3250    -8.5770    -3.4630 H     1 <1>   0.1500 
@<TRIPOS>BOND
  1   1   2  1   
  2   1   3  1   
  3   2   4  ar  
  4   2   5  ar  
  5   3  31  1   
  6   3  32  1   
  7   3  33  1   
  8   4   6  1   
  9   4   7  ar  
 10   5   8  1   
 11   5   9  ar  
 12   6  10  1   
 13   7  11  ar  
 14   7  12  1   
 15   8  13  1   
 16   9  11  ar  
 17   9  34  1   
 18  10  35  1   
 19  10  36  1   
 20  10  37  1   
 21  11  38  1   
 22  12  14  1   
 23  12  39  1   
 24  12  40  1   
 25  13  41  1   
 26  13  42  1   
 27  13  43  1   
 28  14  15  1   
 29  14  16  1   
 30  14  44  1   
 31  15  17  1   
 32  15  45  1   
 33  15  46  1   
 34  16  18  1   
 35  16  47  1   
 36  16  48  1   
 37  17  18  1   
 38  17  19  1   
 39  17  49  1   
 40  18  20  1   
 41  18  50  1   
 42  19  51  1   
 43  20  21  1   
 44  20  52  1   
 45  20  53  1   
 46  21  22  ar  
 47  21  23  ar  
 48  22  24  ar  
 49  22  25  ar  
 50  23  26  ar  
 51  23  54  1   
 52  24  27  ar  
 53  24  28  ar  
 54  25  29  ar  
 55  25  55  1   
 56  26  27  ar  
 57  26  56  1   
 58  28  30  ar  
 59  28  57  1   
 60  29  30  ar  
 61  29  58  1   
 62  30  59  1   
@<TRIPOS>SUBSTRUCTURE
  1 ****  14 GROUP 4 **** **** 0

# MOE 2024.06 (io_trps.svl 2023.06)
