@<TRIPOS>MOLECULE
NONAME
44 47 1 0 0 
SMALL
USER_CHARGES


@<TRIPOS>ATOM
  1 S        0.4070    -0.2050     2.2450 S.3   1 <1>  -0.0800 
  2 C        1.2850    -0.0110     0.7290 C.2   1 <1>   0.3250 
  3 C        0.0770    -1.8550     1.8610 C.2   1 <1>  -0.1100 
  4 N        1.2780    -1.1080     0.0400 N.2   1 <1>  -0.5650 
  5 C        1.8870     1.2870     0.4380 C.ar  1 <1>   0.6730 
  6 C        0.6120    -2.1680     0.6630 C.2   1 <1>   0.1410 
  7 N        2.4210     1.4770    -0.7790 N.ar  1 <1>  -0.6200 
  8 N        1.8780     2.2230     1.4020 N.ar  1 <1>  -0.6200 
  9 C        0.5240    -3.4870     0.0400 C.2   1 <1>   0.7160 
 10 C        2.9690     2.6410    -1.0280 C.ar  1 <1>   0.1600 
 11 C        2.4320     3.3800     1.1270 C.ar  1 <1>   0.1600 
 12 O        1.4550    -3.9480    -0.5980 O.2   1 <1>  -0.5700 
 13 N       -0.5900    -4.2880     0.2140 N.am  1 <1>  -0.6600 
 14 C        3.0010     3.6430    -0.0930 C.ar  1 <1>  -0.1500 
 15 C       -1.9450    -3.9460    -0.3020 C.3   1 <1>   0.2200 
 16 C       -0.3820    -5.7520     0.3940 C.3   1 <1>   0.0600 
 17 C       -2.9660    -3.8240     0.8220 C.3   1 <1>  -0.1600 
 18 C       -2.0910    -2.6290    -1.0640 C.3   1 <1>  -0.1600 
 19 C       -4.1670    -3.1230     0.1710 C.3   1 <1>  -0.0800 
 20 C       -3.6030    -2.3670    -1.0590 C.3   1 <1>  -0.0800 
 21 C       -4.9740    -2.2650     1.1640 C.3   1 <1>   0.1400 
 22 C       -3.9660    -0.8680    -1.1080 C.3   1 <1>  -0.0990 
 23 N       -5.8310    -1.3260     0.4130 N.am  1 <1>  -0.7300 
 24 C       -5.4020    -0.6520    -0.6750 C.2   1 <1>   0.5690 
 25 O       -6.1260     0.0960    -1.2790 O.2   1 <1>  -0.5700 
 26 H       -0.4770    -2.4430     2.5680 H     1 <1>   0.1500 
 27 H        3.4010     2.7960    -2.0020 H     1 <1>   0.1500 
 28 H        2.4310     4.1360     1.8950 H     1 <1>   0.1500 
 29 H        3.4520     4.5940    -0.3070 H     1 <1>   0.1500 
 30 H       -2.2650    -4.7330    -0.9650 H     1 <1>   0.0800 
 31 H       -1.1200    -6.1520     1.0660 H     1 <1>   0.0800 
 32 H        0.5960    -5.9410     0.8040 H     1 <1>   0.0800 
 33 H       -0.4550    -6.2500    -0.5580 H     1 <1>   0.0800 
 34 H       -3.2380    -4.7850     1.2190 H     1 <1>   0.0800 
 35 H       -2.5590    -3.2100     1.6040 H     1 <1>   0.0800 
 36 H       -1.6050    -1.8260    -0.5450 H     1 <1>   0.0800 
 37 H       -1.7010    -2.7010    -2.0650 H     1 <1>   0.0800 
 38 H       -4.8300    -3.8870    -0.2010 H     1 <1>   0.0800 
 39 H       -4.0260    -2.8300    -1.9360 H     1 <1>   0.0800 
 40 H       -4.3110    -1.6930     1.7910 H     1 <1>   0.0800 
 41 H       -5.5820    -2.8960     1.7910 H     1 <1>   0.0800 
 42 H       -3.8270    -0.4840    -2.1020 H     1 <1>   0.0800 
 43 H       -3.3410    -0.3050    -0.4390 H     1 <1>   0.0800 
 44 H       -6.7910    -1.1640     0.7250 H     1 <1>   0.3700 
@<TRIPOS>BOND
  1   1   2  1   
  2   1   3  1   
  3   2   4  2   
  4   2   5  1   
  5   3   6  2   
  6   3  26  1   
  7   4   6  1   
  8   5   7  ar  
  9   5   8  ar  
 10   6   9  1   
 11   7  10  ar  
 12   8  11  ar  
 13   9  12  2   
 14   9  13  am  
 15  10  14  ar  
 16  10  27  1   
 17  11  14  ar  
 18  11  28  1   
 19  13  15  1   
 20  13  16  1   
 21  14  29  1   
 22  15  17  1   
 23  15  18  1   
 24  15  30  1   
 25  16  31  1   
 26  16  32  1   
 27  16  33  1   
 28  17  19  1   
 29  17  34  1   
 30  17  35  1   
 31  18  20  1   
 32  18  36  1   
 33  18  37  1   
 34  19  20  1   
 35  19  21  1   
 36  19  38  1   
 37  20  22  1   
 38  20  39  1   
 39  21  23  1   
 40  21  40  1   
 41  21  41  1   
 42  22  24  1   
 43  22  42  1   
 44  22  43  1   
 45  23  24  am  
 46  23  44  1   
 47  24  25  2   
@<TRIPOS>SUBSTRUCTURE
  1 ****   6 GROUP 4 **** **** 0

# MOE 2024.06 (io_trps.svl 2023.06)
