@<TRIPOS>MOLECULE
NONAME
49 52 1 0 0 
SMALL
USER_CHARGES


@<TRIPOS>ATOM
  1 O        1.2900    -0.6290     1.5540 O.2   1 <1>  -0.5700 
  2 C        1.8940    -1.0470     0.5780 C.2   1 <1>   0.5440 
  3 N        2.5620    -0.0970    -0.1990 N.am  1 <1>  -0.6600 
  4 C        1.8340    -2.4880     0.2980 C.ar  1 <1>   0.3960 
  5 C        2.7170     1.3060     0.3130 C.3   1 <1>   0.1400 
  6 C        3.3520    -0.4450    -1.4170 C.3   1 <1>   0.1400 
  7 N        2.9120    -3.1850    -0.0120 N.ar  1 <1>  -0.6200 
  8 C        0.5740    -3.1060     0.3880 C.ar  1 <1>  -0.1500 
  9 C        4.1100     1.6030     0.9310 C.3   1 <1>   0.4230 
 10 C        4.8570    -0.1170    -1.2980 C.3   1 <1>  -0.0800 
 11 C        2.7880    -4.5110    -0.2400 C.ar  1 <1>   0.3100 
 12 C        0.4150    -4.4430     0.1510 C.ar  1 <1>   0.0820 
 13 N        5.1340     2.0840    -0.0690 N.4   1 <1>  -0.9590 
 14 C        4.7070     0.4450     1.7700 C.3   1 <1>   0.1200 
 15 C        5.6250    -0.7950    -0.1390 C.3   1 <1>   0.1200 
 16 C        5.0920     1.3920    -1.3900 C.3   1 <1>   0.3430 
 17 C        1.5570    -5.1960    -0.1840 C.ar  1 <1>   0.0000 
 18 C        3.9470    -5.2420    -0.5530 C.ar  1 <1>  -0.1500 
 19 O       -0.7720    -5.0850     0.2220 O.3   1 <1>  -0.3630 
 20 C        5.0730     3.5670    -0.2500 C.3   1 <1>   0.2630 
 21 O        4.9560    -0.7520     1.0830 O.3   1 <1>  -0.5600 
 22 C        1.5370    -6.5800    -0.4580 C.ar  1 <1>  -0.1500 
 23 C        3.9050    -6.5850    -0.8130 C.ar  1 <1>  -0.1500 
 24 C       -1.9590    -4.4360     0.6250 C.3   1 <1>   0.0400 
 25 C        2.6830    -7.2610    -0.7660 C.ar  1 <1>  -0.1500 
 26 H        2.5030     2.0010    -0.4780 H     1 <1>   0.0800 
 27 H        1.9830     1.4960     1.0760 H     1 <1>   0.0800 
 28 H        3.2440    -1.4840    -1.6620 H     1 <1>   0.0800 
 29 H        2.9350     0.0950    -2.2490 H     1 <1>   0.0800 
 30 H       -0.2560    -2.4810     0.6560 H     1 <1>   0.1500 
 31 H        3.9530     2.4100     1.6260 H     1 <1>   0.0800 
 32 H        5.2920    -0.5120    -2.1990 H     1 <1>   0.0800 
 33 H        6.0430     1.8470     0.3520 H     1 <1>   0.4500 
 34 H        4.0120     0.1980     2.5550 H     1 <1>   0.0800 
 35 H        5.6250     0.7540     2.2360 H     1 <1>   0.0800 
 36 H        6.6090    -0.3800    -0.0100 H     1 <1>   0.0800 
 37 H        5.7380    -1.8420    -0.3700 H     1 <1>   0.0800 
 38 H        4.3150     1.8220    -2.0000 H     1 <1>   0.0800 
 39 H        6.0290     1.5620    -1.8960 H     1 <1>   0.0800 
 40 H        4.8780    -4.7070    -0.5790 H     1 <1>   0.1500 
 41 H        4.1280     3.8550    -0.6820 H     1 <1>   0.0800 
 42 H        5.8640     3.8990    -0.9030 H     1 <1>   0.0800 
 43 H        5.1830     4.0670     0.7000 H     1 <1>   0.0800 
 44 H        0.5950    -7.0980    -0.4180 H     1 <1>   0.1500 
 45 H        4.8010    -7.1330    -1.0520 H     1 <1>   0.1500 
 46 H       -2.7510    -5.1630     0.6310 H     1 <1>   0.0800 
 47 H       -2.1860    -3.6540    -0.0780 H     1 <1>   0.0800 
 48 H       -1.8210    -4.0370     1.6140 H     1 <1>   0.0800 
 49 H        2.6580    -8.3170    -0.9730 H     1 <1>   0.1500 
@<TRIPOS>BOND
  1   1   2  2   
  2   2   3  am  
  3   2   4  1   
  4   3   5  1   
  5   3   6  1   
  6   4   7  ar  
  7   4   8  ar  
  8   5   9  1   
  9   5  26  1   
 10   5  27  1   
 11   6  10  1   
 12   6  28  1   
 13   6  29  1   
 14   7  11  ar  
 15   8  12  ar  
 16   8  30  1   
 17   9  13  1   
 18   9  14  1   
 19   9  31  1   
 20  10  15  1   
 21  10  16  1   
 22  10  32  1   
 23  11  17  ar  
 24  11  18  ar  
 25  12  17  ar  
 26  12  19  1   
 27  13  16  1   
 28  13  20  1   
 29  13  33  1   
 30  14  21  1   
 31  14  34  1   
 32  14  35  1   
 33  15  21  1   
 34  15  36  1   
 35  15  37  1   
 36  16  38  1   
 37  16  39  1   
 38  17  22  ar  
 39  18  23  ar  
 40  18  40  1   
 41  19  24  1   
 42  20  41  1   
 43  20  42  1   
 44  20  43  1   
 45  22  25  ar  
 46  22  44  1   
 47  23  25  ar  
 48  23  45  1   
 49  24  46  1   
 50  24  47  1   
 51  24  48  1   
 52  25  49  1   
@<TRIPOS>SUBSTRUCTURE
  1 ****   4 GROUP 4 **** **** 0

# MOE 2024.06 (io_trps.svl 2023.06)
