@<TRIPOS>MOLECULE
NONAME
60 62 1 0 0 
SMALL
USER_CHARGES


@<TRIPOS>ATOM
  1 O       -0.4270     3.0420    -2.5260 O.co2 1 <1>  -0.9000 
  2 C       -0.6930     2.0720    -1.7950 C.2   1 <1>   0.9060 
  3 O       -1.1430     1.0240    -2.2440 O.co2 1 <1>  -0.9000 
  4 C       -0.5860     2.2290    -0.2850 C.3   1 <1>  -0.1060 
  5 C       -2.0110     2.1520     0.2980 C.3   1 <1>   0.2000 
  6 C       -0.0230     3.6150     0.0260 C.3   1 <1>   0.3430 
  7 C        0.3640     1.1370     0.2800 C.3   1 <1>  -0.0170 
  8 O       -1.9480     2.2820     1.6800 O.3   1 <1>  -0.6800 
  9 C       -2.9030     3.3030    -0.1900 C.3   1 <1>  -0.1600 
 10 N       -0.9040     4.6820    -0.5360 N.4   1 <1>  -0.9590 
 11 C        1.8320     1.5300     0.1380 C.ar  1 <1>  -0.1430 
 12 C       -2.2620     4.6690     0.0690 C.3   1 <1>   0.3430 
 13 C       -0.2050     5.9740    -0.8240 C.3   1 <1>   0.3430 
 14 C        2.5640     1.9260     1.2480 C.ar  1 <1>  -0.1500 
 15 C        2.4420     1.5170    -1.1070 C.ar  1 <1>  -0.1500 
 16 C        0.2340     6.9280     0.3470 C.3   1 <1>   0.5030 
 17 C        3.8860     2.3150     1.1130 C.ar  1 <1>  -0.1500 
 18 C        3.7630     1.9070    -1.2430 C.ar  1 <1>  -0.1500 
 19 N        1.3330     7.8490    -0.0970 N.4   1 <1>  -0.9590 
 20 C       -0.9540     7.7910     0.7940 C.3   1 <1>  -0.2400 
 21 C        0.7550     6.1880     1.5900 C.3   1 <1>  -0.2400 
 22 C        4.4860     2.3080    -0.1340 C.ar  1 <1>  -0.1500 
 23 C        0.9850     8.8590    -1.1670 C.3   1 <1>   0.3430 
 24 C        2.6470     7.1780    -0.4510 C.3   1 <1>   0.3430 
 25 C        2.1520     9.8410    -1.4200 C.3   1 <1>   0.1200 
 26 C        3.7350     8.2110    -0.8220 C.3   1 <1>   0.1200 
 27 O        3.2630     9.5150    -0.6310 O.3   1 <1>  -0.5600 
 28 H       -2.4690     1.2030     0.0630 H     1 <1>   0.0800 
 29 H        0.9550     3.6900    -0.4200 H     1 <1>   0.0800 
 30 H        0.0690     3.7220     1.0930 H     1 <1>   0.0800 
 31 H        0.1660     0.9620     1.3210 H     1 <1>   0.0800 
 32 H        0.1950     0.2000    -0.2250 H     1 <1>   0.0800 
 33 H       -1.9100     1.3930     2.0910 H     1 <1>   0.4000 
 34 H       -3.0940     3.1910    -1.2430 H     1 <1>   0.0800 
 35 H       -3.8560     3.2490     0.3060 H     1 <1>   0.0800 
 36 H       -1.0340     4.2710    -1.5010 H     1 <1>   0.4500 
 37 H       -2.1940     4.8320     1.1320 H     1 <1>   0.0800 
 38 H       -2.8760     5.4390    -0.3680 H     1 <1>   0.0800 
 39 H        0.6810     5.7210    -1.3800 H     1 <1>   0.0800 
 40 H       -0.8320     6.5430    -1.4890 H     1 <1>   0.0800 
 41 H        2.1130     1.9270     2.2250 H     1 <1>   0.1500 
 42 H        1.8910     1.2020    -1.9800 H     1 <1>   0.1500 
 43 H        4.4520     2.6100     1.9800 H     1 <1>   0.1500 
 44 H        4.2250     1.8890    -2.2150 H     1 <1>   0.1500 
 45 H        1.5790     8.4360     0.7150 H     1 <1>   0.4500 
 46 H       -1.6960     7.1810     1.2780 H     1 <1>   0.0800 
 47 H       -1.4360     8.2710    -0.0380 H     1 <1>   0.0800 
 48 H       -0.6430     8.5380     1.5040 H     1 <1>   0.0800 
 49 H       -0.0410     5.6330     2.0540 H     1 <1>   0.0800 
 50 H        1.1240     6.8830     2.3240 H     1 <1>   0.0800 
 51 H        1.5350     5.4900     1.3480 H     1 <1>   0.0800 
 52 H        5.5160     2.6000    -0.2400 H     1 <1>   0.1500 
 53 H        0.7480     8.3580    -2.0910 H     1 <1>   0.0800 
 54 H        0.1200     9.4330    -0.8770 H     1 <1>   0.0800 
 55 H        3.0070     6.6000     0.3840 H     1 <1>   0.0800 
 56 H        2.5160     6.5010    -1.2790 H     1 <1>   0.0800 
 57 H        1.8560    10.8450    -1.1650 H     1 <1>   0.0800 
 58 H        2.4470     9.8320    -2.4550 H     1 <1>   0.0800 
 59 H        4.0410     8.0990    -1.8480 H     1 <1>   0.0800 
 60 H        4.6020     8.0790    -0.1970 H     1 <1>   0.0800 
@<TRIPOS>BOND
  1   1   2  ar  
  2   2   3  ar  
  3   2   4  1   
  4   4   5  1   
  5   4   6  1   
  6   4   7  1   
  7   5   8  1   
  8   5   9  1   
  9   5  28  1   
 10   6  10  1   
 11   6  29  1   
 12   6  30  1   
 13   7  11  1   
 14   7  31  1   
 15   7  32  1   
 16   8  33  1   
 17   9  12  1   
 18   9  34  1   
 19   9  35  1   
 20  10  12  1   
 21  10  13  1   
 22  10  36  1   
 23  11  14  ar  
 24  11  15  ar  
 25  12  37  1   
 26  12  38  1   
 27  13  16  1   
 28  13  39  1   
 29  13  40  1   
 30  14  17  ar  
 31  14  41  1   
 32  15  18  ar  
 33  15  42  1   
 34  16  19  1   
 35  16  20  1   
 36  16  21  1   
 37  17  22  ar  
 38  17  43  1   
 39  18  22  ar  
 40  18  44  1   
 41  19  23  1   
 42  19  24  1   
 43  19  45  1   
 44  20  46  1   
 45  20  47  1   
 46  20  48  1   
 47  21  49  1   
 48  21  50  1   
 49  21  51  1   
 50  22  52  1   
 51  23  25  1   
 52  23  53  1   
 53  23  54  1   
 54  24  26  1   
 55  24  55  1   
 56  24  56  1   
 57  25  27  1   
 58  25  57  1   
 59  25  58  1   
 60  26  27  1   
 61  26  59  1   
 62  26  60  1   
@<TRIPOS>SUBSTRUCTURE
  1 ****   6 GROUP 4 **** **** 0

# MOE 2024.06 (io_trps.svl 2023.06)
