@<TRIPOS>MOLECULE
NONAME
48 49 1 0 0 
SMALL
USER_CHARGES


@<TRIPOS>ATOM
  1 O        2.1000    -1.5960     2.2330 O.2   1 <1>  -0.5700 
  2 C        2.3240    -1.4960     1.0480 C.2   1 <1>   0.5690 
  3 N        2.4670    -0.2890     0.4300 N.am  1 <1>  -0.4930 
  4 C        2.3890    -2.7570     0.1730 C.3   1 <1>  -0.0190 
  5 C        2.2620     1.0020     0.9690 C.2   1 <1>   0.0630 
  6 C        1.0300    -3.0640    -0.5200 C.3   1 <1>  -0.0190 
  7 C        2.9550    -3.9880     0.9350 C.3   1 <1>  -0.1600 
  8 C        1.9560     2.1170     0.2700 C.2   1 <1>  -0.3320 
  9 C        2.3070     1.4170     2.3000 C.2   1 <1>   0.1390 
 10 C        0.2870    -1.7790    -0.8760 C.2   1 <1>   0.5690 
 11 C        0.2080    -4.0780     0.3000 C.3   1 <1>  -0.1600 
 12 C        2.4730    -5.3120     0.3290 C.3   1 <1>  -0.1600 
 13 N        1.8430     3.1200     1.1760 N.pl3 1 <1>   0.3140 
 14 C        1.7480     2.2890    -1.2280 C.3   1 <1>  -0.0600 
 15 N        2.0570     2.6860     2.4290 N.2   1 <1>  -0.7070 
 16 O        0.6600    -1.1660    -1.8490 O.2   1 <1>  -0.5700 
 17 N       -0.6770    -1.3030    -0.0490 N.am  1 <1>  -0.7300 
 18 C        0.9380    -5.4320     0.4060 C.3   1 <1>  -0.1600 
 19 C        1.5260     4.5280     0.9070 C.3   1 <1>   0.0160 
 20 C       -1.2670     0.0470    -0.1350 C.3   1 <1>   0.1400 
 21 C       -2.7460    -0.0280     0.2370 C.3   1 <1>  -0.1600 
 22 C       -3.4040     1.3550     0.1740 C.3   1 <1>  -0.2400 
 23 H        2.4340    -0.3120    -0.5910 H     1 <1>   0.3700 
 24 H        3.0840    -2.5390    -0.6180 H     1 <1>   0.0800 
 25 H        1.2460    -3.5390    -1.4610 H     1 <1>   0.0800 
 26 H        4.0300    -3.9480     0.9320 H     1 <1>   0.0800 
 27 H        2.6390    -3.9720     1.9640 H     1 <1>   0.0800 
 28 H        2.5210     0.7600     3.1250 H     1 <1>   0.1500 
 29 H        0.0560    -3.6860     1.2920 H     1 <1>   0.0800 
 30 H       -0.7580    -4.2280    -0.1500 H     1 <1>   0.0800 
 31 H        2.7880    -5.3630    -0.6990 H     1 <1>   0.0800 
 32 H        2.9250    -6.1400     0.8480 H     1 <1>   0.0800 
 33 H        1.8550     1.3500    -1.7400 H     1 <1>   0.0800 
 34 H        2.4710     2.9780    -1.6270 H     1 <1>   0.0800 
 35 H        0.7600     2.6650    -1.4250 H     1 <1>   0.0800 
 36 H       -0.8450    -1.7860     0.8360 H     1 <1>   0.3700 
 37 H        0.6630    -5.8950     1.3390 H     1 <1>   0.0800 
 38 H        0.6070    -6.0840    -0.3840 H     1 <1>   0.0800 
 39 H        2.2690     4.9370     0.2500 H     1 <1>   0.0800 
 40 H        1.5260     5.0710     1.8340 H     1 <1>   0.0800 
 41 H        0.5560     4.5900     0.4530 H     1 <1>   0.0800 
 42 H       -0.7450     0.7020     0.5430 H     1 <1>   0.0800 
 43 H       -1.1560     0.4310    -1.1360 H     1 <1>   0.0800 
 44 H       -3.2510    -0.6900    -0.4460 H     1 <1>   0.0800 
 45 H       -2.8460    -0.4180     1.2350 H     1 <1>   0.0800 
 46 H       -3.3330     1.7600    -0.8210 H     1 <1>   0.0800 
 47 H       -2.9230     2.0310     0.8600 H     1 <1>   0.0800 
 48 H       -4.4440     1.2800     0.4390 H     1 <1>   0.0800 
@<TRIPOS>BOND
  1   1   2  2   
  2   2   3  am  
  3   2   4  1   
  4   3   5  1   
  5   3  23  1   
  6   4   6  1   
  7   4   7  1   
  8   4  24  1   
  9   5   8  2   
 10   5   9  1   
 11   6  10  1   
 12   6  11  1   
 13   6  25  1   
 14   7  12  1   
 15   7  26  1   
 16   7  27  1   
 17   8  13  1   
 18   8  14  1   
 19   9  15  2   
 20   9  28  1   
 21  10  16  2   
 22  10  17  am  
 23  11  18  1   
 24  11  29  1   
 25  11  30  1   
 26  12  18  1   
 27  12  31  1   
 28  12  32  1   
 29  13  15  1   
 30  13  19  1   
 31  14  33  1   
 32  14  34  1   
 33  14  35  1   
 34  17  20  1   
 35  17  36  1   
 36  18  37  1   
 37  18  38  1   
 38  19  39  1   
 39  19  40  1   
 40  19  41  1   
 41  20  21  1   
 42  20  42  1   
 43  20  43  1   
 44  21  22  1   
 45  21  44  1   
 46  21  45  1   
 47  22  46  1   
 48  22  47  1   
 49  22  48  1   
@<TRIPOS>SUBSTRUCTURE
  1 ****   3 GROUP 4 **** **** 0

# MOE 2024.06 (io_trps.svl 2023.06)
