@<TRIPOS>MOLECULE
NONAME
57 58 1 0 0 
SMALL
USER_CHARGES


@<TRIPOS>ATOM
  1 O       -0.6160     0.4050     0.9210 O.2   1 <1>  -0.5700 
  2 C       -1.4330     0.8920     0.1590 C.2   1 <1>   0.6160 
  3 N       -2.2690     0.0480    -0.5440 N.am  1 <1>  -0.6600 
  4 C       -1.5400     2.3210     0.0650 C.2   1 <1>   0.0290 
  5 C       -3.3160     0.5130    -1.5030 C.3   1 <1>   0.1400 
  6 C       -2.1220    -1.4370    -0.5050 C.3   1 <1>   0.1400 
  7 C       -1.0410     2.9070    -1.1370 C.2   1 <1>   0.6160 
  8 C       -2.0820     3.1390     1.0380 C.2   1 <1>  -0.1380 
  9 C       -4.6280    -0.2820    -1.3250 C.3   1 <1>   0.2000 
 10 C       -3.4970    -2.1250    -0.3820 C.3   1 <1>   0.2000 
 11 O       -0.5960     2.2820    -2.0890 O.2   1 <1>  -0.5700 
 12 N       -1.0900     4.2610    -1.2670 N.am  1 <1>  -0.5390 
 13 C       -2.1280     4.5490     0.8370 C.2   1 <1>  -0.1380 
 14 C       -2.6350     2.5510     2.3410 C.3   1 <1>  -0.1020 
 15 O       -4.3570    -1.6570    -1.3800 O.3   1 <1>  -0.5600 
 16 C       -5.6880     0.0440    -2.4040 C.3   1 <1>  -0.0800 
 17 C       -3.4260    -3.6490    -0.5410 C.3   1 <1>  -0.1600 
 18 C       -1.6100     5.0870    -0.3120 C.2   1 <1>  -0.0290 
 19 C       -2.7600     5.4260     1.9220 C.3   1 <1>  -0.1020 
 20 C       -6.0690     1.5350    -2.4160 C.3   1 <1>  -0.2400 
 21 C       -6.9670    -0.7880    -2.2070 C.3   1 <1>  -0.2400 
 22 C       -2.6280    -4.3360     0.5800 C.3   1 <1>  -0.1600 
 23 C       -1.5490     6.5680    -0.6530 C.3   1 <1>  -0.1020 
 24 C       -2.6650    -5.8610     0.4250 C.3   1 <1>  -0.1600 
 25 C       -1.8690    -6.5470     1.5390 C.3   1 <1>  -0.2400 
 26 H       -3.5170     1.5570    -1.3540 H     1 <1>   0.0800 
 27 H       -2.9530     0.3830    -2.5080 H     1 <1>   0.0800 
 28 H       -1.6370    -1.7650    -1.4070 H     1 <1>   0.0800 
 29 H       -1.5040    -1.7280     0.3260 H     1 <1>   0.0800 
 30 H       -5.0420    -0.0670    -0.3550 H     1 <1>   0.0800 
 31 H       -3.9340    -1.8890     0.5730 H     1 <1>   0.0800 
 32 H       -0.6960     4.6130    -2.1400 H     1 <1>   0.3700 
 33 H       -3.6900     2.7410     2.4170 H     1 <1>   0.0800 
 34 H       -2.1360     2.9930     3.1840 H     1 <1>   0.0800 
 35 H       -2.4930     1.4880     2.4090 H     1 <1>   0.0800 
 36 H       -5.2700    -0.2010    -3.3660 H     1 <1>   0.0800 
 37 H       -4.4310    -4.0330    -0.5360 H     1 <1>   0.0800 
 38 H       -2.9830    -3.8830    -1.4940 H     1 <1>   0.0800 
 39 H       -3.7360     5.0580     2.1780 H     1 <1>   0.0800 
 40 H       -2.8870     6.4430     1.6080 H     1 <1>   0.0800 
 41 H       -2.1420     5.4210     2.8010 H     1 <1>   0.0800 
 42 H       -6.4250     1.8430    -1.4480 H     1 <1>   0.0800 
 43 H       -6.8480     1.7130    -3.1360 H     1 <1>   0.0800 
 44 H       -5.2300     2.1480    -2.6900 H     1 <1>   0.0800 
 45 H       -7.4050    -0.5900    -1.2450 H     1 <1>   0.0800 
 46 H       -6.7440    -1.8390    -2.2700 H     1 <1>   0.0800 
 47 H       -7.6890    -0.5570    -2.9700 H     1 <1>   0.0800 
 48 H       -1.6040    -4.0080     0.5570 H     1 <1>   0.0800 
 49 H       -3.0460    -4.0650     1.5350 H     1 <1>   0.0800 
 50 H       -0.7710     6.7610    -1.3690 H     1 <1>   0.0800 
 51 H       -1.3310     7.1560     0.2200 H     1 <1>   0.0800 
 52 H       -2.4870     6.8850    -1.0700 H     1 <1>   0.0800 
 53 H       -3.6860    -6.2040     0.4570 H     1 <1>   0.0800 
 54 H       -2.2500    -6.1380    -0.5290 H     1 <1>   0.0800 
 55 H       -2.2810    -6.3010     2.5020 H     1 <1>   0.0800 
 56 H       -0.8390    -6.2350     1.5120 H     1 <1>   0.0800 
 57 H       -1.9060    -7.6140     1.4140 H     1 <1>   0.0800 
@<TRIPOS>BOND
  1   1   2  2   
  2   2   3  am  
  3   2   4  1   
  4   3   5  1   
  5   3   6  1   
  6   4   7  1   
  7   4   8  2   
  8   5   9  1   
  9   5  26  1   
 10   5  27  1   
 11   6  10  1   
 12   6  28  1   
 13   6  29  1   
 14   7  11  2   
 15   7  12  am  
 16   8  13  1   
 17   8  14  1   
 18   9  15  1   
 19   9  16  1   
 20   9  30  1   
 21  10  15  1   
 22  10  17  1   
 23  10  31  1   
 24  12  18  1   
 25  12  32  1   
 26  13  18  2   
 27  13  19  1   
 28  14  33  1   
 29  14  34  1   
 30  14  35  1   
 31  16  20  1   
 32  16  21  1   
 33  16  36  1   
 34  17  22  1   
 35  17  37  1   
 36  17  38  1   
 37  18  23  1   
 38  19  39  1   
 39  19  40  1   
 40  19  41  1   
 41  20  42  1   
 42  20  43  1   
 43  20  44  1   
 44  21  45  1   
 45  21  46  1   
 46  21  47  1   
 47  22  24  1   
 48  22  48  1   
 49  22  49  1   
 50  23  50  1   
 51  23  51  1   
 52  23  52  1   
 53  24  25  1   
 54  24  53  1   
 55  24  54  1   
 56  25  55  1   
 57  25  56  1   
 58  25  57  1   
@<TRIPOS>SUBSTRUCTURE
  1 ****   3 GROUP 4 **** **** 0

# MOE 2024.06 (io_trps.svl 2023.06)
