@<TRIPOS>MOLECULE
NONAME
46 49 1 0 0 
SMALL
USER_CHARGES


@<TRIPOS>ATOM
  1 S        0.6710    -0.6060     0.9490 S.3   1 <1>  -0.0800 
  2 C       -0.1190    -2.1410     1.2300 C.ar  1 <1>   0.0400 
  3 C        1.3690    -1.2580    -0.5300 C.2   1 <1>   0.1980 
  4 C        0.2160    -2.9900     0.1940 C.ar  1 <1>   0.2270 
  5 C       -0.9420    -2.5140     2.2740 C.ar  1 <1>  -0.1500 
  6 N        1.0540    -2.4610    -0.7840 N.2   1 <1>  -0.5650 
  7 C        2.2550    -0.3330    -1.3310 C.3   1 <1>  -0.0600 
  8 C       -0.2950    -4.2750     0.2020 C.ar  1 <1>  -0.1500 
  9 C       -1.4470    -3.8020     2.2570 C.ar  1 <1>  -0.1500 
 10 C       -1.1450    -4.7040     1.2240 C.ar  1 <1>   0.0860 
 11 C       -1.6980    -6.0460     1.2220 C.2   1 <1>   0.5440 
 12 O       -1.9210    -6.6170     2.2730 O.2   1 <1>  -0.5700 
 13 N       -2.0090    -6.6830     0.0450 N.am  1 <1>  -0.6600 
 14 C       -1.9140    -8.1810    -0.0040 C.3   1 <1>   0.3640 
 15 C       -2.9240    -6.0120    -0.9210 C.3   1 <1>   0.1400 
 16 C       -0.4450    -8.5600     0.2190 C.ar  1 <1>  -0.1430 
 17 C       -2.4100    -8.8390    -1.3300 C.3   1 <1>   0.2000 
 18 C       -3.0060    -6.7650    -2.2490 C.3   1 <1>   0.1200 
 19 C       -0.0920    -9.3780     1.2830 C.ar  1 <1>  -0.1500 
 20 C        0.5520    -8.0930    -0.6280 C.ar  1 <1>  -0.1500 
 21 O       -3.3820    -8.0810    -2.0030 O.3   1 <1>  -0.5600 
 22 C       -3.0240   -10.2320    -1.1130 C.3   1 <1>   0.1200 
 23 C        1.2290    -9.7340     1.4900 C.ar  1 <1>  -0.1500 
 24 C        1.8740    -8.4470    -0.4230 C.ar  1 <1>  -0.1500 
 25 O       -2.1880   -11.0620    -0.3720 O.3   1 <1>  -0.6800 
 26 C        2.2130    -9.2700     0.6360 C.ar  1 <1>  -0.1500 
 27 H       -1.1740    -1.8240     3.0660 H     1 <1>   0.1500 
 28 H        2.6150    -0.8430    -2.2060 H     1 <1>   0.0800 
 29 H        3.0930    -0.0250    -0.7350 H     1 <1>   0.0800 
 30 H        1.6970     0.5340    -1.6360 H     1 <1>   0.0800 
 31 H       -0.0200    -4.9420    -0.5930 H     1 <1>   0.1500 
 32 H       -2.0900    -4.1340     3.0570 H     1 <1>   0.1500 
 33 H       -2.5070    -8.5770     0.8030 H     1 <1>   0.0800 
 34 H       -3.9090    -5.9610    -0.4900 H     1 <1>   0.0800 
 35 H       -2.5910    -5.0060    -1.1060 H     1 <1>   0.0800 
 36 H       -1.5830    -8.9430    -2.0090 H     1 <1>   0.0800 
 37 H       -2.0620    -6.7520    -2.7650 H     1 <1>   0.0800 
 38 H       -3.7560    -6.3210    -2.8800 H     1 <1>   0.0800 
 39 H       -0.8500    -9.7400     1.9580 H     1 <1>   0.1500 
 40 H        0.3020    -7.4450    -1.4490 H     1 <1>   0.1500 
 41 H       -3.2090   -10.7060    -2.0610 H     1 <1>   0.0800 
 42 H       -3.9510   -10.1460    -0.5720 H     1 <1>   0.0800 
 43 H        1.4890   -10.3690     2.3190 H     1 <1>   0.1500 
 44 H        2.6390    -8.0790    -1.0840 H     1 <1>   0.1500 
 45 H       -1.2780   -11.0720    -0.7350 H     1 <1>   0.4000 
 46 H        3.2410    -9.5450     0.7990 H     1 <1>   0.1500 
@<TRIPOS>BOND
  1   1   2  1   
  2   1   3  1   
  3   2   4  ar  
  4   2   5  ar  
  5   3   6  2   
  6   3   7  1   
  7   4   6  1   
  8   4   8  ar  
  9   5   9  ar  
 10   5  27  1   
 11   7  28  1   
 12   7  29  1   
 13   7  30  1   
 14   8  10  ar  
 15   8  31  1   
 16   9  10  ar  
 17   9  32  1   
 18  10  11  1   
 19  11  12  2   
 20  11  13  am  
 21  13  14  1   
 22  13  15  1   
 23  14  16  1   
 24  14  17  1   
 25  14  33  1   
 26  15  18  1   
 27  15  34  1   
 28  15  35  1   
 29  16  19  ar  
 30  16  20  ar  
 31  17  21  1   
 32  17  22  1   
 33  17  36  1   
 34  18  21  1   
 35  18  37  1   
 36  18  38  1   
 37  19  23  ar  
 38  19  39  1   
 39  20  24  ar  
 40  20  40  1   
 41  22  25  1   
 42  22  41  1   
 43  22  42  1   
 44  23  26  ar  
 45  23  43  1   
 46  24  26  ar  
 47  24  44  1   
 48  25  45  1   
 49  26  46  1   
@<TRIPOS>SUBSTRUCTURE
  1 ****  13 GROUP 4 **** **** 0

# MOE 2024.06 (io_trps.svl 2023.06)
