@<TRIPOS>MOLECULE
NONAME
44 46 1 0 0 
SMALL
USER_CHARGES


@<TRIPOS>ATOM
  1 S        0.1270     0.4090     1.2220 S.3   1 <1>  -0.3320 
  2 C       -1.2050    -0.5030     0.4190 C.ar  1 <1>   0.1020 
  3 C        0.2950     2.0060     0.3140 C.3   1 <1>   0.0700 
  4 C       -1.5380    -1.7310     0.9620 C.ar  1 <1>  -0.1500 
  5 C       -1.8740    -0.0050    -0.6920 C.ar  1 <1>  -0.1500 
  6 C        1.4150     2.8050     0.9780 C.3   1 <1>  -0.0990 
  7 C       -2.5550    -2.4740     0.3900 C.ar  1 <1>   0.0830 
  8 C       -2.8890    -0.7540    -1.2670 C.ar  1 <1>  -0.1500 
  9 C        1.5620     4.1620     0.3290 C.2   1 <1>   0.5690 
 10 O       -2.8840    -3.6690     0.9420 O.3   1 <1>  -0.3630 
 11 C       -3.2270    -1.9870    -0.7350 C.ar  1 <1>   0.0830 
 12 O        1.6710     4.2330    -0.8720 O.2   1 <1>  -0.5700 
 13 N        1.5920     5.2660     1.1140 N.am  1 <1>  -0.7300 
 14 C       -4.1150    -4.2420     0.5410 C.3   1 <1>   0.1200 
 15 O       -4.2140    -2.7060    -1.3280 O.3   1 <1>  -0.3630 
 16 C        1.7090     6.6550     0.6100 C.3   1 <1>   0.2780 
 17 C       -4.3120    -4.0720    -0.9710 C.3   1 <1>   0.1200 
 18 C        3.1540     6.9560     0.2280 C.2   1 <1>  -0.0380 
 19 N        3.7310     6.1910    -0.7490 N.pl3 1 <1>  -0.5500 
 20 C        3.9260     7.9260     0.7680 C.2   1 <1>  -0.1360 
 21 C        5.0160     6.3910    -1.1550 C.2   1 <1>   0.4390 
 22 C        5.2600     8.1020     0.3150 C.2   1 <1>   0.7670 
 23 N        5.7770     7.2990    -0.6670 N.2   1 <1>  -0.6610 
 24 C        5.5320     5.4720    -2.2330 C.3   1 <1>  -0.1790 
 25 O        5.9650     8.9740     0.7970 O.2   1 <1>  -0.5700 
 26 H       -0.6500     2.5160     0.3800 H     1 <1>   0.0800 
 27 H        0.5310     1.7760    -0.7110 H     1 <1>   0.0800 
 28 H       -1.0150    -2.1060     1.8220 H     1 <1>   0.1500 
 29 H       -1.6240     0.9450    -1.1190 H     1 <1>   0.1500 
 30 H        2.3420     2.2730     0.8770 H     1 <1>   0.0800 
 31 H        1.1970     2.9210     2.0240 H     1 <1>   0.0800 
 32 H       -3.4190    -0.3900    -2.1290 H     1 <1>   0.1500 
 33 H        1.6230     5.1650     2.1300 H     1 <1>   0.3700 
 34 H       -4.9040    -3.7470     1.0790 H     1 <1>   0.0800 
 35 H       -4.0990    -5.2820     0.8120 H     1 <1>   0.0800 
 36 H        1.3710     7.3420     1.3660 H     1 <1>   0.0800 
 37 H        1.0820     6.7730    -0.2580 H     1 <1>   0.0800 
 38 H       -5.2810    -4.4250    -1.2730 H     1 <1>   0.0800 
 39 H       -3.5540    -4.6140    -1.5100 H     1 <1>   0.0800 
 40 H        3.1790     5.4150    -1.1530 H     1 <1>   0.4000 
 41 H        3.5920     8.5920     1.5380 H     1 <1>   0.1500 
 42 H        4.9340     5.5780    -3.1190 H     1 <1>   0.0800 
 43 H        5.4920     4.4540    -1.8950 H     1 <1>   0.0800 
 44 H        6.5510     5.7190    -2.4720 H     1 <1>   0.0800 
@<TRIPOS>BOND
  1   1   2  1   
  2   1   3  1   
  3   2   4  ar  
  4   2   5  ar  
  5   3   6  1   
  6   3  26  1   
  7   3  27  1   
  8   4   7  ar  
  9   4  28  1   
 10   5   8  ar  
 11   5  29  1   
 12   6   9  1   
 13   6  30  1   
 14   6  31  1   
 15   7  10  1   
 16   7  11  ar  
 17   8  11  ar  
 18   8  32  1   
 19   9  12  2   
 20   9  13  am  
 21  10  14  1   
 22  11  15  1   
 23  13  16  1   
 24  13  33  1   
 25  14  17  1   
 26  14  34  1   
 27  14  35  1   
 28  15  17  1   
 29  16  18  1   
 30  16  36  1   
 31  16  37  1   
 32  17  38  1   
 33  17  39  1   
 34  18  19  1   
 35  18  20  2   
 36  19  21  1   
 37  19  40  1   
 38  20  22  1   
 39  20  41  1   
 40  21  23  2   
 41  21  24  1   
 42  22  23  1   
 43  22  25  2   
 44  24  42  1   
 45  24  43  1   
 46  24  44  1   
@<TRIPOS>SUBSTRUCTURE
  1 ****   3 GROUP 4 **** **** 0

# MOE 2024.06 (io_trps.svl 2023.06)
