@<TRIPOS>MOLECULE
NONAME
48 50 1 0 0 
SMALL
USER_CHARGES


@<TRIPOS>ATOM
  1 O       -0.3560     0.1300     0.2260 O.2   1 <1>  -0.5700 
  2 C       -1.3340     0.8450     0.2800 C.2   1 <1>   0.5690 
  3 N       -2.5630     0.3200    -0.0610 N.am  1 <1>  -0.6600 
  4 C       -1.1490     2.3190     0.7580 C.3   1 <1>   0.2040 
  5 C       -3.8680     1.0270    -0.1820 C.3   1 <1>   0.1400 
  6 C       -2.7150    -1.1030    -0.4440 C.3   1 <1>   0.1400 
  7 C       -1.8040     3.3100    -0.2290 C.ar  1 <1>  -0.1440 
  8 C        0.3450     2.7100     0.8340 C.3   1 <1>  -0.2400 
  9 C       -1.6970     2.4390     2.1980 C.3   1 <1>  -0.2400 
 10 C       -4.8590    -0.0300    -0.6730 C.3   1 <1>   0.2000 
 11 C       -4.2150    -1.3810    -0.3730 C.3   1 <1>  -0.0800 
 12 C       -1.5250     3.1800    -1.5860 C.ar  1 <1>  -0.1500 
 13 C       -2.6650     4.3310     0.1670 C.ar  1 <1>  -0.1500 
 14 O       -6.0760     0.0680    -0.0160 O.3   1 <1>  -0.6800 
 15 C       -4.6830    -2.4910    -1.3260 C.3   1 <1>  -0.0170 
 16 C       -2.0930     4.0290    -2.5190 C.ar  1 <1>  -0.1500 
 17 C       -3.2340     5.1820    -0.7650 C.ar  1 <1>  -0.1500 
 18 C       -4.0100    -3.8140    -0.9970 C.ar  1 <1>  -0.1440 
 19 C       -2.9510     5.0310    -2.1090 C.ar  1 <1>  -0.1500 
 20 C       -2.8860    -4.2540    -1.6670 C.ar  1 <1>  -0.1500 
 21 C       -4.4900    -4.6430    -0.0030 C.ar  1 <1>  -0.1500 
 22 C       -2.3110    -5.4640    -1.3180 C.ar  1 <1>   0.1600 
 23 C       -3.8400    -5.8360     0.2670 C.ar  1 <1>   0.1600 
 24 N       -2.7610    -6.2660    -0.3660 N.ar  1 <1>  -0.6200 
 25 H       -4.1660     1.4150     0.7740 H     1 <1>   0.0800 
 26 H       -3.8040     1.8220    -0.9040 H     1 <1>   0.0800 
 27 H       -2.3450    -1.2310    -1.4470 H     1 <1>   0.0800 
 28 H       -2.1630    -1.7450     0.2230 H     1 <1>   0.0800 
 29 H        0.4510     3.7390     1.1270 H     1 <1>   0.0800 
 30 H        0.8160     2.5810    -0.1240 H     1 <1>   0.0800 
 31 H        0.8630     2.0920     1.5450 H     1 <1>   0.0800 
 32 H       -1.4780     3.4060     2.6130 H     1 <1>   0.0800 
 33 H       -1.2370     1.6950     2.8240 H     1 <1>   0.0800 
 34 H       -2.7580     2.2830     2.2230 H     1 <1>   0.0800 
 35 H       -5.0320     0.1000    -1.7280 H     1 <1>   0.0800 
 36 H       -4.4340    -1.6660     0.6410 H     1 <1>   0.0800 
 37 H       -0.8590     2.4060    -1.9290 H     1 <1>   0.1500 
 38 H       -2.9110     4.4890     1.2000 H     1 <1>   0.1500 
 39 H       -5.9550    -0.0650     0.9440 H     1 <1>   0.4000 
 40 H       -4.4680    -2.2180    -2.3440 H     1 <1>   0.0800 
 41 H       -5.7510    -2.6050    -1.2420 H     1 <1>   0.0800 
 42 H       -1.8640     3.9090    -3.5630 H     1 <1>   0.1500 
 43 H       -3.8980     5.9650    -0.4420 H     1 <1>   0.1500 
 44 H       -3.3930     5.6940    -2.8330 H     1 <1>   0.1500 
 45 H       -2.4490    -3.6690    -2.4560 H     1 <1>   0.1500 
 46 H       -5.3620    -4.3730     0.5630 H     1 <1>   0.1500 
 47 H       -1.4330    -5.7910    -1.8500 H     1 <1>   0.1500 
 48 H       -4.2290    -6.4700     1.0450 H     1 <1>   0.1500 
@<TRIPOS>BOND
  1   1   2  2   
  2   2   3  am  
  3   2   4  1   
  4   3   5  1   
  5   3   6  1   
  6   4   7  1   
  7   4   8  1   
  8   4   9  1   
  9   5  10  1   
 10   5  25  1   
 11   5  26  1   
 12   6  11  1   
 13   6  27  1   
 14   6  28  1   
 15   7  12  ar  
 16   7  13  ar  
 17   8  29  1   
 18   8  30  1   
 19   8  31  1   
 20   9  32  1   
 21   9  33  1   
 22   9  34  1   
 23  10  11  1   
 24  10  14  1   
 25  10  35  1   
 26  11  15  1   
 27  11  36  1   
 28  12  16  ar  
 29  12  37  1   
 30  13  17  ar  
 31  13  38  1   
 32  14  39  1   
 33  15  18  1   
 34  15  40  1   
 35  15  41  1   
 36  16  19  ar  
 37  16  42  1   
 38  17  19  ar  
 39  17  43  1   
 40  18  20  ar  
 41  18  21  ar  
 42  19  44  1   
 43  20  22  ar  
 44  20  45  1   
 45  21  23  ar  
 46  21  46  1   
 47  22  24  ar  
 48  22  47  1   
 49  23  24  ar  
 50  23  48  1   
@<TRIPOS>SUBSTRUCTURE
  1 ****   3 GROUP 4 **** **** 0

# MOE 2024.06 (io_trps.svl 2023.06)
