@<TRIPOS>MOLECULE
NONAME
41 42 1 0 0 
SMALL
USER_CHARGES


@<TRIPOS>ATOM
  1 S       -0.2120    -0.1130    -0.1030 S.3   1 <1>  -0.1460 
  2 C        1.2300     0.8140     0.2210 C.cat 1 <1>   0.8200 
  3 C        0.6110    -1.6390     0.2540 C.2   1 <1>  -0.1240 
  4 N        1.2760     2.1390     0.1090 N.pl3 1 <1>  -0.7770 
  5 N        2.1950    -0.0220     0.5730 N.pl3 1 <1>  -0.1960 
  6 C        1.8870    -1.3940     0.5920 C.2   1 <1>   0.1390 
  7 C        0.1680     3.0530    -0.2950 C.3   1 <1>   0.2380 
  8 C        2.9990    -2.3840     0.9850 C.3   1 <1>   0.3910 
  9 N        4.2450    -2.1890     0.1980 N.am  1 <1>  -0.6670 
 10 C        2.6190    -3.8510     0.7520 C.3   1 <1>  -0.1730 
 11 C        5.1230    -1.1670     0.4310 C.2   1 <1>   0.7750 
 12 C        4.6880    -3.4720    -0.4030 C.3   1 <1>   0.1270 
 13 C        3.9220    -4.5390     0.3640 C.3   1 <1>  -0.1730 
 14 O        4.7830    -0.1950     1.0840 O.2   1 <1>  -0.5780 
 15 O        6.3270    -1.2470    -0.1260 O.3   1 <1>  -0.4400 
 16 C        7.3810    -0.3110    -0.0480 C.3   1 <1>   0.2680 
 17 C        7.8310    -0.1440     1.4070 C.3   1 <1>  -0.2520 
 18 C        8.5200    -0.9230    -0.8630 C.3   1 <1>  -0.2520 
 19 C        6.9580     1.0170    -0.6870 C.3   1 <1>  -0.2520 
 20 H        0.0310    -2.5440     0.1650 H     1 <1>   0.1370 
 21 H        2.1460     2.6480     0.3040 H     1 <1>   0.4410 
 22 H        3.1610     0.2650     0.7980 H     1 <1>   0.4410 
 23 H       -0.7410     2.5130    -0.4960 H     1 <1>   0.0660 
 24 H        0.4480     3.5940    -1.1840 H     1 <1>   0.0660 
 25 H       -0.0240     3.7620     0.4930 H     1 <1>   0.0660 
 26 H        3.2430    -2.2520     2.0270 H     1 <1>   0.0660 
 27 H        2.1720    -4.2940     1.6250 H     1 <1>   0.0660 
 28 H        1.9350    -3.9390    -0.0730 H     1 <1>   0.0660 
 29 H        4.4160    -3.4870    -1.4450 H     1 <1>   0.0660 
 30 H        5.7510    -3.6200    -0.3070 H     1 <1>   0.0660 
 31 H        3.7620    -5.4210    -0.2310 H     1 <1>   0.0660 
 32 H        4.4780    -4.8080     1.2460 H     1 <1>   0.0660 
 33 H        8.7180     0.4630     1.4460 H     1 <1>   0.0660 
 34 H        8.0590    -1.1010     1.8410 H     1 <1>   0.0660 
 35 H        7.0800     0.3460     1.9980 H     1 <1>   0.0660 
 36 H        9.3750    -0.2720    -0.8570 H     1 <1>   0.0660 
 37 H        8.2150    -1.0710    -1.8840 H     1 <1>   0.0660 
 38 H        8.8140    -1.8690    -0.4440 H     1 <1>   0.0660 
 39 H        7.8090     1.6710    -0.7560 H     1 <1>   0.0660 
 40 H        6.2160     1.5180    -0.0940 H     1 <1>   0.0660 
 41 H        6.5790     0.8520    -1.6790 H     1 <1>   0.0660 
@<TRIPOS>BOND
  1   1   2  1   
  2   1   3  1   
  3   2   4  ar  
  4   2   5  ar  
  5   3   6  2   
  6   3  20  1   
  7   4   7  1   
  8   4  21  1   
  9   5   6  1   
 10   5  22  1   
 11   6   8  1   
 12   7  23  1   
 13   7  24  1   
 14   7  25  1   
 15   8   9  1   
 16   8  10  1   
 17   8  26  1   
 18   9  11  am  
 19   9  12  1   
 20  10  13  1   
 21  10  27  1   
 22  10  28  1   
 23  11  14  2   
 24  11  15  1   
 25  12  13  1   
 26  12  29  1   
 27  12  30  1   
 28  13  31  1   
 29  13  32  1   
 30  15  16  1   
 31  16  17  1   
 32  16  18  1   
 33  16  19  1   
 34  17  33  1   
 35  17  34  1   
 36  17  35  1   
 37  18  36  1   
 38  18  37  1   
 39  18  38  1   
 40  19  39  1   
 41  19  40  1   
 42  19  41  1   
@<TRIPOS>SUBSTRUCTURE
  1 ****  11 GROUP 4 **** **** 0

# MOE 2024.06 (io_trps.svl 2023.06)
