@<TRIPOS>MOLECULE
NONAME
47 49 1 0 0 
SMALL
USER_CHARGES


@<TRIPOS>ATOM
  1 F       -0.6650    -0.1230     0.1880 F     1 <1>  -0.1900 
  2 C       -1.8080    -0.6890    -0.0910 C.ar  1 <1>   0.1900 
  3 C       -2.0730    -1.9650     0.3830 C.ar  1 <1>  -0.1440 
  4 C       -2.7150     0.0160    -0.8580 C.ar  1 <1>  -0.1500 
  5 C       -3.2990    -2.5300     0.0680 C.ar  1 <1>  -0.1500 
  6 C       -1.0550    -2.7280     1.2170 C.3   1 <1>  -0.0960 
  7 C       -3.9310    -0.5700    -1.1580 C.ar  1 <1>  -0.1500 
  8 C       -4.2520    -1.8490    -0.6940 C.ar  1 <1>   0.0860 
  9 C       -5.5310    -2.4660    -0.9960 C.2   1 <1>   0.5440 
 10 O       -5.5550    -3.5950    -1.4500 O.2   1 <1>  -0.5700 
 11 N       -6.7280    -1.8160    -0.7740 N.am  1 <1>  -0.6600 
 12 C       -8.0010    -2.4000    -1.2910 C.3   1 <1>   0.1400 
 13 C       -6.8470    -0.6270     0.1250 C.3   1 <1>   0.1400 
 14 C       -9.0680    -1.3120    -1.4210 C.3   1 <1>  -0.1600 
 15 C       -8.1710    -0.6910     0.8840 C.3   1 <1>  -0.1600 
 16 C       -9.3790    -0.6150    -0.0700 C.3   1 <1>   0.2800 
 17 O       -9.5620     0.7540    -0.3230 O.3   1 <1>  -0.5600 
 18 C      -10.6360    -1.1910     0.6390 C.3   1 <1>  -0.1600 
 19 C      -10.6430     1.1460    -1.1320 C.3   1 <1>   0.1200 
 20 C      -11.8440    -0.2510     0.6220 C.3   1 <1>   0.2800 
 21 C      -11.9460     0.4300    -0.7400 C.3   1 <1>  -0.1600 
 22 O      -11.6130     0.7290     1.5520 O.3   1 <1>  -0.6800 
 23 C      -13.1380    -0.9520     1.0280 C.3   1 <1>  -0.2400 
 24 H       -2.4660     1.0010    -1.2110 H     1 <1>   0.1500 
 25 H       -3.5400    -3.5220     0.4090 H     1 <1>   0.1500 
 26 H       -0.8330    -2.1810     2.1160 H     1 <1>   0.0800 
 27 H       -0.1450    -2.8550     0.6570 H     1 <1>   0.0800 
 28 H       -1.4270    -3.7000     1.4890 H     1 <1>   0.0800 
 29 H       -4.6450    -0.0400    -1.7630 H     1 <1>   0.1500 
 30 H       -8.3330    -3.1730    -0.6180 H     1 <1>   0.0800 
 31 H       -7.8230    -2.8490    -2.2550 H     1 <1>   0.0800 
 32 H       -6.8100     0.2740    -0.4630 H     1 <1>   0.0800 
 33 H       -6.0330    -0.6130     0.8300 H     1 <1>   0.0800 
 34 H       -9.9580    -1.7400    -1.8430 H     1 <1>   0.0800 
 35 H       -8.6890    -0.5930    -2.1250 H     1 <1>   0.0800 
 36 H       -8.2260     0.1070     1.6020 H     1 <1>   0.0800 
 37 H       -8.1810    -1.6170     1.4320 H     1 <1>   0.0800 
 38 H      -10.4240    -1.4480     1.6610 H     1 <1>   0.0800 
 39 H      -10.9080    -2.1160     0.1640 H     1 <1>   0.0800 
 40 H      -10.3960     0.9610    -2.1620 H     1 <1>   0.0800 
 41 H      -10.7580     2.2080    -0.9990 H     1 <1>   0.0800 
 42 H      -12.1640    -0.3130    -1.4860 H     1 <1>   0.0800 
 43 H      -12.7640     1.1280    -0.7480 H     1 <1>   0.0800 
 44 H      -10.7720     1.1630     1.2920 H     1 <1>   0.4000 
 45 H      -13.3780    -1.7280     0.3250 H     1 <1>   0.0800 
 46 H      -13.9500    -0.2480     1.0510 H     1 <1>   0.0800 
 47 H      -13.0290    -1.3940     2.0020 H     1 <1>   0.0800 
@<TRIPOS>BOND
  1   1   2  1   
  2   2   3  ar  
  3   2   4  ar  
  4   3   5  ar  
  5   3   6  1   
  6   4   7  ar  
  7   4  24  1   
  8   5   8  ar  
  9   5  25  1   
 10   6  26  1   
 11   6  27  1   
 12   6  28  1   
 13   7   8  ar  
 14   7  29  1   
 15   8   9  1   
 16   9  10  2   
 17   9  11  am  
 18  11  12  1   
 19  11  13  1   
 20  12  14  1   
 21  12  30  1   
 22  12  31  1   
 23  13  15  1   
 24  13  32  1   
 25  13  33  1   
 26  14  16  1   
 27  14  34  1   
 28  14  35  1   
 29  15  16  1   
 30  15  36  1   
 31  15  37  1   
 32  16  17  1   
 33  16  18  1   
 34  17  19  1   
 35  18  20  1   
 36  18  38  1   
 37  18  39  1   
 38  19  21  1   
 39  19  40  1   
 40  19  41  1   
 41  20  21  1   
 42  20  22  1   
 43  20  23  1   
 44  21  42  1   
 45  21  43  1   
 46  22  44  1   
 47  23  45  1   
 48  23  46  1   
 49  23  47  1   
@<TRIPOS>SUBSTRUCTURE
  1 ****  13 GROUP 4 **** **** 0

# MOE 2024.06 (io_trps.svl 2023.06)
