@<TRIPOS>MOLECULE
NONAME
53 56 1 0 0 
SMALL
USER_CHARGES


@<TRIPOS>ATOM
  1 O       -2.9980    -0.1950    -1.9070 O.2   1 <1>  -0.5700 
  2 C       -2.7650     0.3620    -0.8510 C.2   1 <1>   0.5440 
  3 N       -3.0100    -0.3330     0.3150 N.am  1 <1>  -0.6600 
  4 C       -2.2920     1.7300    -0.8410 C.ar  1 <1>   0.0860 
  5 C       -3.7210     0.2870     1.4590 C.3   1 <1>   0.1400 
  6 C       -3.0280    -1.8160     0.3160 C.3   1 <1>   0.1400 
  7 C       -1.3800     2.1690     0.1180 C.ar  1 <1>   0.1600 
  8 C       -2.7190     2.6630    -1.7760 C.ar  1 <1>  -0.1500 
  9 C       -5.1920    -0.1250     1.3760 C.3   1 <1>  -0.1600 
 10 C       -4.4780    -2.2790     0.2030 C.3   1 <1>  -0.1600 
 11 N       -0.9110     3.4000     0.2390 N.ar  1 <1>  -0.6200 
 12 C       -2.2350     3.9500    -1.6780 C.ar  1 <1>  -0.1500 
 13 C       -5.3400    -1.6520     1.3110 C.3   1 <1>   0.4230 
 14 C       -1.3480     4.2640    -0.6640 C.ar  1 <1>   0.1600 
 15 N       -6.7830    -2.0020     1.1610 N.4   1 <1>  -0.9590 
 16 C       -7.4530    -1.5750    -0.1080 C.3   1 <1>   0.3430 
 17 C       -7.0890    -3.4580     1.3390 C.3   1 <1>   0.3430 
 18 C       -8.6320    -2.5350    -0.2610 C.3   1 <1>   0.2000 
 19 C       -8.0510    -3.8660     0.2090 C.3   1 <1>  -0.0800 
 20 O       -9.6170    -2.1520     0.6420 O.3   1 <1>  -0.6800 
 21 C       -7.3300    -4.5990    -0.9460 C.3   1 <1>  -0.0170 
 22 C       -6.7390    -5.9330    -0.5110 C.ar  1 <1>   0.1670 
 23 N       -5.6040    -5.8800     0.1670 N.ar  1 <1>  -0.6200 
 24 C       -7.3870    -7.1240    -0.8380 C.ar  1 <1>   0.1600 
 25 C       -5.1590    -7.0880     0.4840 C.ar  1 <1>   0.1600 
 26 N       -6.9500    -8.3270    -0.5090 N.ar  1 <1>  -0.6200 
 27 C       -5.8110    -8.2710     0.1590 C.ar  1 <1>   0.1600 
 28 H       -3.2780    -0.0500     2.3820 H     1 <1>   0.0800 
 29 H       -3.6430     1.3610     1.4220 H     1 <1>   0.0800 
 30 H       -2.4530    -2.1940    -0.5150 H     1 <1>   0.0800 
 31 H       -2.5780    -2.1810     1.2240 H     1 <1>   0.0800 
 32 H       -1.0180     1.4490     0.8310 H     1 <1>   0.1500 
 33 H       -3.4060     2.3790    -2.5550 H     1 <1>   0.1500 
 34 H       -5.6100     0.3360     0.5000 H     1 <1>   0.0800 
 35 H       -5.7050     0.2560     2.2410 H     1 <1>   0.0800 
 36 H       -4.4900    -3.3500     0.2730 H     1 <1>   0.0800 
 37 H       -4.8240    -1.9970    -0.7740 H     1 <1>   0.0800 
 38 H       -2.5400     4.7050    -2.3810 H     1 <1>   0.1500 
 39 H       -4.9910    -2.0480     2.2510 H     1 <1>   0.0800 
 40 H       -0.9760     5.2740    -0.5920 H     1 <1>   0.1500 
 41 H       -7.3110    -1.5240     1.9040 H     1 <1>   0.4500 
 42 H       -7.7870    -0.5510    -0.0650 H     1 <1>   0.0800 
 43 H       -6.7880    -1.6970    -0.9450 H     1 <1>   0.0800 
 44 H       -6.1900    -4.0460     1.3260 H     1 <1>   0.0800 
 45 H       -7.5750    -3.6070     2.2890 H     1 <1>   0.0800 
 46 H       -9.0460    -2.5440    -1.2560 H     1 <1>   0.0800 
 47 H       -8.8200    -4.5150     0.5910 H     1 <1>   0.0800 
 48 H      -10.4620    -2.6220     0.4740 H     1 <1>   0.4000 
 49 H       -6.5360    -3.9950    -1.3480 H     1 <1>   0.0800 
 50 H       -8.0290    -4.7740    -1.7450 H     1 <1>   0.0800 
 51 H       -8.3070    -7.0870    -1.3940 H     1 <1>   0.1500 
 52 H       -4.2320    -7.1500     1.0290 H     1 <1>   0.1500 
 53 H       -5.3730    -9.2060     0.4620 H     1 <1>   0.1500 
@<TRIPOS>BOND
  1   1   2  2   
  2   2   3  am  
  3   2   4  1   
  4   3   5  1   
  5   3   6  1   
  6   4   7  ar  
  7   4   8  ar  
  8   5   9  1   
  9   5  28  1   
 10   5  29  1   
 11   6  10  1   
 12   6  30  1   
 13   6  31  1   
 14   7  11  ar  
 15   7  32  1   
 16   8  12  ar  
 17   8  33  1   
 18   9  13  1   
 19   9  34  1   
 20   9  35  1   
 21  10  13  1   
 22  10  36  1   
 23  10  37  1   
 24  11  14  ar  
 25  12  14  ar  
 26  12  38  1   
 27  13  15  1   
 28  13  39  1   
 29  14  40  1   
 30  15  16  1   
 31  15  17  1   
 32  15  41  1   
 33  16  18  1   
 34  16  42  1   
 35  16  43  1   
 36  17  19  1   
 37  17  44  1   
 38  17  45  1   
 39  18  19  1   
 40  18  20  1   
 41  18  46  1   
 42  19  21  1   
 43  19  47  1   
 44  20  48  1   
 45  21  22  1   
 46  21  49  1   
 47  21  50  1   
 48  22  23  ar  
 49  22  24  ar  
 50  23  25  ar  
 51  24  26  ar  
 52  24  51  1   
 53  25  27  ar  
 54  25  52  1   
 55  26  27  ar  
 56  27  53  1   
@<TRIPOS>SUBSTRUCTURE
  1 ****  10 GROUP 4 **** **** 0

# MOE 2024.06 (io_trps.svl 2023.06)
