@<TRIPOS>MOLECULE
NONAME
54 57 1 0 0 
SMALL
USER_CHARGES


@<TRIPOS>ATOM
  1 O        1.0610     0.4990     1.3250 O.3   1 <1>  -0.6800 
  2 C        1.5370    -0.0070     0.1190 C.3   1 <1>   0.2000 
  3 C        2.1820    -1.3640     0.3910 C.3   1 <1>  -0.0800 
  4 C        2.7230     0.8480    -0.3320 C.3   1 <1>   0.3430 
  5 C        3.5970    -1.0230     0.8880 C.3   1 <1>   0.3430 
  6 C        2.2190    -2.2430    -0.8750 C.3   1 <1>  -0.0160 
  7 N        3.8830     0.4000     0.5090 N.4   1 <1>  -0.9590 
  8 C        3.0600    -3.4890    -0.6480 C.ar  1 <1>  -0.1430 
  9 C        4.0200     1.2400     1.7410 C.3   1 <1>   0.4860 
 10 C        4.2440    -3.7070    -1.3270 C.ar  1 <1>  -0.1500 
 11 C        2.6860    -4.4670     0.2530 C.ar  1 <1>  -0.1500 
 12 C        4.2550     2.6810     1.3590 C.ar  1 <1>  -0.1430 
 13 C        4.9850    -4.8470    -1.0630 C.ar  1 <1>   0.1600 
 14 C        3.5010    -5.5710     0.4440 C.ar  1 <1>   0.1600 
 15 C        3.2510     3.6140     1.4640 C.ar  1 <1>   0.1600 
 16 C        5.4660     3.1240     0.8850 C.ar  1 <1>   0.1600 
 17 N        4.6460    -5.7740    -0.1850 N.ar  1 <1>  -0.6200 
 18 N        3.4200     4.8580     1.1010 N.ar  1 <1>  -0.6200 
 19 N        5.6570     4.3620     0.5170 N.ar  1 <1>  -0.6200 
 20 C        4.6220     5.1960     0.6340 C.ar  1 <1>   0.7200 
 21 N        4.8090     6.5040     0.2390 N.pl3 1 <1>  -0.8380 
 22 C        3.6980     7.4990     0.1720 C.3   1 <1>   0.2090 
 23 C        6.1590     7.0900    -0.0080 C.3   1 <1>   0.2090 
 24 C        3.7070     8.1900    -1.1960 C.3   1 <1>  -0.1600 
 25 C        6.1820     7.7690    -1.3810 C.3   1 <1>  -0.1600 
 26 C        5.0700     8.8190    -1.5140 C.3   1 <1>  -0.1600 
 27 H        0.1770     0.1280     1.5400 H     1 <1>   0.4000 
 28 H        0.7330    -0.0250    -0.5980 H     1 <1>   0.0800 
 29 H        1.6440    -1.8990     1.1540 H     1 <1>   0.0800 
 30 H        2.5090     1.8990    -0.2310 H     1 <1>   0.0800 
 31 H        2.9300     0.6380    -1.3680 H     1 <1>   0.0800 
 32 H        4.3260    -1.6890     0.4540 H     1 <1>   0.0800 
 33 H        3.6330    -1.1360     1.9600 H     1 <1>   0.0800 
 34 H        2.6190    -1.6930    -1.7100 H     1 <1>   0.0800 
 35 H        1.2190    -2.5440    -1.1380 H     1 <1>   0.0800 
 36 H        4.7510     0.4710    -0.0360 H     1 <1>   0.4500 
 37 H        3.1230     1.1680     2.3350 H     1 <1>   0.0800 
 38 H        4.8470     0.8890     2.3380 H     1 <1>   0.0800 
 39 H        4.6020    -3.0130    -2.0650 H     1 <1>   0.1500 
 40 H        1.7690    -4.3940     0.8090 H     1 <1>   0.1500 
 41 H        5.9040    -5.0070    -1.6020 H     1 <1>   0.1500 
 42 H        3.1970    -6.3250     1.1500 H     1 <1>   0.1500 
 43 H        2.2810     3.3400     1.8470 H     1 <1>   0.1500 
 44 H        6.3050     2.4540     0.7960 H     1 <1>   0.1500 
 45 H        2.7390     7.0350     0.3190 H     1 <1>   0.0800 
 46 H        3.8360     8.2280     0.9510 H     1 <1>   0.0800 
 47 H        6.3670     7.8160     0.7590 H     1 <1>   0.0800 
 48 H        6.9330     6.3440     0.0300 H     1 <1>   0.0800 
 49 H        3.4610     7.4600    -1.9480 H     1 <1>   0.0800 
 50 H        2.9450     8.9480    -1.2140 H     1 <1>   0.0800 
 51 H        7.1400     8.2350    -1.5300 H     1 <1>   0.0800 
 52 H        6.0620     7.0140    -2.1380 H     1 <1>   0.0800 
 53 H        5.2590     9.6280    -0.8290 H     1 <1>   0.0800 
 54 H        5.0640     9.2200    -2.5120 H     1 <1>   0.0800 
@<TRIPOS>BOND
  1   1   2  1   
  2   1  27  1   
  3   2   3  1   
  4   2   4  1   
  5   2  28  1   
  6   3   5  1   
  7   3   6  1   
  8   3  29  1   
  9   4   7  1   
 10   4  30  1   
 11   4  31  1   
 12   5   7  1   
 13   5  32  1   
 14   5  33  1   
 15   6   8  1   
 16   6  34  1   
 17   6  35  1   
 18   7   9  1   
 19   7  36  1   
 20   8  10  ar  
 21   8  11  ar  
 22   9  12  1   
 23   9  37  1   
 24   9  38  1   
 25  10  13  ar  
 26  10  39  1   
 27  11  14  ar  
 28  11  40  1   
 29  12  15  ar  
 30  12  16  ar  
 31  13  17  ar  
 32  13  41  1   
 33  14  17  ar  
 34  14  42  1   
 35  15  18  ar  
 36  15  43  1   
 37  16  19  ar  
 38  16  44  1   
 39  18  20  ar  
 40  19  20  ar  
 41  20  21  1   
 42  21  22  1   
 43  21  23  1   
 44  22  24  1   
 45  22  45  1   
 46  22  46  1   
 47  23  25  1   
 48  23  47  1   
 49  23  48  1   
 50  24  26  1   
 51  24  49  1   
 52  24  50  1   
 53  25  26  1   
 54  25  51  1   
 55  25  52  1   
 56  26  53  1   
 57  26  54  1   
@<TRIPOS>SUBSTRUCTURE
  1 ****   7 GROUP 4 **** **** 0

# MOE 2024.06 (io_trps.svl 2023.06)
