@<TRIPOS>MOLECULE
NONAME
42 44 1 0 0 
SMALL
USER_CHARGES


@<TRIPOS>ATOM
  1 CL      -2.1880     1.3680    -1.3230 Cl    1 <1>  -0.1770 
  2 C       -1.0610     2.5050    -0.6390 C.ar  1 <1>   0.1770 
  3 C       -1.3820     3.8460    -0.6080 C.ar  1 <1>  -0.1500 
  4 C        0.1440     2.0490    -0.1330 C.ar  1 <1>  -0.1500 
  5 C       -0.4650     4.7230    -0.0620 C.ar  1 <1>   0.1900 
  6 C        1.0460     2.9510     0.4090 C.ar  1 <1>  -0.1500 
  7 F       -0.8000     5.9840    -0.0290 F     1 <1>  -0.1900 
  8 C        0.7720     4.3220     0.4510 C.ar  1 <1>   0.0860 
  9 C        1.7350     5.2490     1.0140 C.2   1 <1>   0.5440 
 10 O        2.3640     4.9420     2.0070 O.2   1 <1>  -0.5700 
 11 N        2.0440     6.4530     0.4290 N.am  1 <1>  -0.6600 
 12 C        2.5300     7.5870     1.3050 C.3   1 <1>   0.2200 
 13 C        2.2150     6.5520    -1.0510 C.3   1 <1>   0.1400 
 14 C        2.0660     8.9600     0.7960 C.3   1 <1>   0.1200 
 15 C        4.0650     7.5470     1.4960 C.3   1 <1>   0.3430 
 16 C        3.3340     7.5100    -1.5020 C.3   1 <1>  -0.0800 
 17 O        2.9610     9.4840    -0.1370 O.3   1 <1>  -0.5600 
 18 N        4.7290     6.6600     0.4850 N.4   1 <1>  -0.9590 
 19 C        2.8910     8.9810    -1.4280 C.3   1 <1>   0.1200 
 20 C        4.7310     7.2830    -0.8790 C.3   1 <1>   0.3430 
 21 C        6.1640     6.4130     0.9250 C.3   1 <1>   0.2370 
 22 C        7.0450     7.6660     0.9550 C.2   1 <1>   0.9060 
 23 O        7.5930     8.0080    -0.0980 O.co2 1 <1>  -0.9000 
 24 O        7.0640     8.3370     1.9890 O.co2 1 <1>  -0.9000 
 25 H       -2.3230     4.1940    -0.9950 H     1 <1>   0.1500 
 26 H        0.3660     0.9960    -0.1620 H     1 <1>   0.1500 
 27 H        1.9780     2.5910     0.8120 H     1 <1>   0.1500 
 28 H        2.0840     7.4630     2.2770 H     1 <1>   0.0800 
 29 H        2.4310     5.5710    -1.4390 H     1 <1>   0.0800 
 30 H        1.2810     6.8690    -1.4840 H     1 <1>   0.0800 
 31 H        2.0540     9.6510     1.6210 H     1 <1>   0.0800 
 32 H        1.0750     8.9180     0.3760 H     1 <1>   0.0800 
 33 H        4.2710     7.1680     2.4830 H     1 <1>   0.0800 
 34 H        4.4770     8.5430     1.4460 H     1 <1>   0.0800 
 35 H        3.4590     7.3300    -2.5540 H     1 <1>   0.0800 
 36 H        4.1800     5.7900     0.4900 H     1 <1>   0.4500 
 37 H        1.8880     9.1150    -1.7980 H     1 <1>   0.0800 
 38 H        3.5510     9.5860    -2.0260 H     1 <1>   0.0800 
 39 H        5.2540     8.2270    -0.8370 H     1 <1>   0.0800 
 40 H        5.2970     6.6450    -1.5370 H     1 <1>   0.0800 
 41 H        6.1740     5.9950     1.9150 H     1 <1>   0.0800 
 42 H        6.6340     5.7150     0.2570 H     1 <1>   0.0800 
@<TRIPOS>BOND
  1   1   2  1   
  2   2   3  ar  
  3   2   4  ar  
  4   3   5  ar  
  5   3  25  1   
  6   4   6  ar  
  7   4  26  1   
  8   5   7  1   
  9   5   8  ar  
 10   6   8  ar  
 11   6  27  1   
 12   8   9  1   
 13   9  10  2   
 14   9  11  am  
 15  11  12  1   
 16  11  13  1   
 17  12  14  1   
 18  12  15  1   
 19  12  28  1   
 20  13  16  1   
 21  13  29  1   
 22  13  30  1   
 23  14  17  1   
 24  14  31  1   
 25  14  32  1   
 26  15  18  1   
 27  15  33  1   
 28  15  34  1   
 29  16  19  1   
 30  16  20  1   
 31  16  35  1   
 32  17  19  1   
 33  18  20  1   
 34  18  21  1   
 35  18  36  1   
 36  19  37  1   
 37  19  38  1   
 38  20  39  1   
 39  20  40  1   
 40  21  22  1   
 41  21  41  1   
 42  21  42  1   
 43  22  23  ar  
 44  22  24  ar  
@<TRIPOS>SUBSTRUCTURE
  1 ****  11 GROUP 4 **** **** 0

# MOE 2024.06 (io_trps.svl 2023.06)
