@<TRIPOS>MOLECULE
NONAME
51 53 1 0 0 
SMALL
USER_CHARGES


@<TRIPOS>ATOM
  1 O       -0.6420     0.0950    -1.0690 O.2   1 <1>  -0.5700 
  2 C       -1.4930     0.6710    -0.4160 C.2   1 <1>   0.7160 
  3 N       -2.3570    -0.1150     0.3360 N.am  1 <1>  -0.6600 
  4 C       -1.5930     2.1220    -0.4800 C.2   1 <1>   0.1410 
  5 C       -3.4090     0.4170     1.2560 C.3   1 <1>   0.1400 
  6 C       -2.4100    -1.5990     0.1740 C.3   1 <1>   0.1400 
  7 N       -2.7770     2.7850    -0.6840 N.2   1 <1>  -0.5650 
  8 C       -0.6140     3.0580    -0.3960 C.2   1 <1>  -0.0400 
  9 C       -4.8230    -0.0090     0.7950 C.3   1 <1>   0.4230 
 10 C       -3.8080    -2.0280    -0.3070 C.3   1 <1>   0.3430 
 11 C       -2.4310     4.0180    -0.7280 C.2   1 <1>   0.3280 
 12 O       -1.1530     4.2300    -0.5570 O.3   1 <1>  -0.2800 
 13 C        0.8920     2.9960    -0.1660 C.3   1 <1>   0.1000 
 14 N       -4.9170    -1.5140     0.5890 N.4   1 <1>  -0.9590 
 15 C       -5.2550     0.7550    -0.4780 C.3   1 <1>   0.1200 
 16 C        1.6220     2.6840    -1.4750 C.3   1 <1>  -0.2400 
 17 C        1.2780     1.9960     0.9300 C.3   1 <1>  -0.2400 
 18 C       -6.2940    -1.8560     0.0840 C.3   1 <1>   0.4230 
 19 O       -6.5350     0.3510    -0.8770 O.3   1 <1>  -0.5600 
 20 C       -6.6660    -1.0130    -1.1600 C.3   1 <1>   0.1200 
 21 C       -6.4230    -3.3690    -0.1580 C.3   1 <1>  -0.1600 
 22 C       -7.8870    -3.8170    -0.3030 C.3   1 <1>  -0.1600 
 23 C       -7.9790    -5.3370    -0.4580 C.3   1 <1>  -0.2400 
 24 H       -3.2320     0.0270     2.2430 H     1 <1>   0.0800 
 25 H       -3.3590     1.4870     1.3390 H     1 <1>   0.0800 
 26 H       -1.6790    -1.9380    -0.5410 H     1 <1>   0.0800 
 27 H       -2.1810    -2.0710     1.1140 H     1 <1>   0.0800 
 28 H       -5.5130     0.2790     1.5710 H     1 <1>   0.0800 
 29 H       -3.8410    -3.1040    -0.3530 H     1 <1>   0.0800 
 30 H       -3.9470    -1.6530    -1.3070 H     1 <1>   0.0800 
 31 H       -3.0760     4.8670    -0.8860 H     1 <1>   0.1500 
 32 H        1.2080     3.9710     0.1670 H     1 <1>   0.0800 
 33 H       -4.8080    -1.9580     1.5070 H     1 <1>   0.4500 
 34 H       -4.5680     0.5940    -1.2910 H     1 <1>   0.0800 
 35 H       -5.2990     1.8110    -0.2790 H     1 <1>   0.0800 
 36 H        1.3470     1.7100    -1.8390 H     1 <1>   0.0800 
 37 H        2.6860     2.7090    -1.3260 H     1 <1>   0.0800 
 38 H        1.3630     3.4130    -2.2220 H     1 <1>   0.0800 
 39 H        1.0990     0.9840     0.6170 H     1 <1>   0.0800 
 40 H        0.7160     2.1910     1.8250 H     1 <1>   0.0800 
 41 H        2.3250     2.0920     1.1590 H     1 <1>   0.0800 
 42 H       -7.0050    -1.5980     0.8530 H     1 <1>   0.0800 
 43 H       -7.6930    -1.1810    -1.4340 H     1 <1>   0.0800 
 44 H       -6.0460    -1.2540    -2.0050 H     1 <1>   0.0800 
 45 H       -5.8920    -3.6520    -1.0500 H     1 <1>   0.0800 
 46 H       -5.9990    -3.8970     0.6780 H     1 <1>   0.0800 
 47 H       -8.4520    -3.5220     0.5670 H     1 <1>   0.0800 
 48 H       -8.3400    -3.3580    -1.1660 H     1 <1>   0.0800 
 49 H       -7.5700    -5.8360     0.4030 H     1 <1>   0.0800 
 50 H       -7.4470    -5.6650    -1.3350 H     1 <1>   0.0800 
 51 H       -9.0090    -5.6330    -0.5610 H     1 <1>   0.0800 
@<TRIPOS>BOND
  1   1   2  2   
  2   2   3  am  
  3   2   4  1   
  4   3   5  1   
  5   3   6  1   
  6   4   7  1   
  7   4   8  2   
  8   5   9  1   
  9   5  24  1   
 10   5  25  1   
 11   6  10  1   
 12   6  26  1   
 13   6  27  1   
 14   7  11  2   
 15   8  12  1   
 16   8  13  1   
 17   9  14  1   
 18   9  15  1   
 19   9  28  1   
 20  10  14  1   
 21  10  29  1   
 22  10  30  1   
 23  11  12  1   
 24  11  31  1   
 25  13  16  1   
 26  13  17  1   
 27  13  32  1   
 28  14  18  1   
 29  14  33  1   
 30  15  19  1   
 31  15  34  1   
 32  15  35  1   
 33  16  36  1   
 34  16  37  1   
 35  16  38  1   
 36  17  39  1   
 37  17  40  1   
 38  17  41  1   
 39  18  20  1   
 40  18  21  1   
 41  18  42  1   
 42  19  20  1   
 43  20  43  1   
 44  20  44  1   
 45  21  22  1   
 46  21  45  1   
 47  21  46  1   
 48  22  23  1   
 49  22  47  1   
 50  22  48  1   
 51  23  49  1   
 52  23  50  1   
 53  23  51  1   
@<TRIPOS>SUBSTRUCTURE
  1 ****   3 GROUP 4 **** **** 0

# MOE 2024.06 (io_trps.svl 2023.06)
