@<TRIPOS>MOLECULE
NONAME
53 55 1 0 0 
SMALL
USER_CHARGES


@<TRIPOS>ATOM
  1 O       -0.9220     0.2980    -2.0070 O.2   1 <1>  -0.5700 
  2 C       -1.4170     1.1330    -1.2820 C.2   1 <1>   0.5690 
  3 N       -1.7770     0.8000    -0.0130 N.am  1 <1>  -0.7300 
  4 C       -1.7080     2.5600    -1.8350 C.3   1 <1>   0.3410 
  5 C       -1.5590    -0.5160     0.6300 C.3   1 <1>   0.2200 
  6 O       -1.5700     3.5940    -0.8590 O.3   1 <1>  -0.3630 
  7 C       -3.1780     2.6400    -2.2690 C.3   1 <1>  -0.2400 
  8 C       -0.8270     2.9230    -3.0450 C.3   1 <1>  -0.2400 
  9 C       -2.8790    -1.2190     0.9000 C.3   1 <1>  -0.0800 
 10 C       -1.0420    -0.3140     2.0500 C.3   1 <1>   0.1200 
 11 C       -0.5870     3.5920     0.0820 C.ar  1 <1>   0.0820 
 12 C       -3.3220    -0.6000     2.2270 C.3   1 <1>   0.1200 
 13 C       -3.9290    -1.1250    -0.2230 C.3   1 <1>  -0.0160 
 14 O       -2.1680    -0.1250     2.8580 O.3   1 <1>  -0.5600 
 15 C       -0.9230     3.3720     1.4210 C.ar  1 <1>   0.0820 
 16 C        0.7290     3.8540    -0.2700 C.ar  1 <1>  -0.1500 
 17 C       -5.1810    -1.9100     0.1340 C.ar  1 <1>  -0.1440 
 18 O       -2.2330     3.1360     1.7210 O.3   1 <1>  -0.3630 
 19 C        0.0810     3.3830     2.3850 C.ar  1 <1>  -0.1500 
 20 C        1.7190     3.8600     0.6970 C.ar  1 <1>  -0.1500 
 21 C       -5.2510    -3.2780    -0.0280 C.ar  1 <1>  -0.1500 
 22 C       -6.3090    -1.2970     0.6390 C.ar  1 <1>  -0.1500 
 23 C       -2.6830     3.1220     3.0590 C.3   1 <1>   0.0400 
 24 C        1.3950     3.6220     2.0210 C.ar  1 <1>  -0.1500 
 25 C       -6.4120    -3.9500     0.3170 C.ar  1 <1>   0.1600 
 26 C       -7.4210    -2.0620     0.9530 C.ar  1 <1>   0.1600 
 27 N       -7.4980    -3.3740     0.8050 N.ar  1 <1>  -0.6200 
 28 H       -2.0880     1.5530     0.6200 H     1 <1>   0.3700 
 29 H       -0.8860    -1.1160     0.0410 H     1 <1>   0.0800 
 30 H       -3.3810     1.8990    -3.0210 H     1 <1>   0.0800 
 31 H       -3.3990     3.6110    -2.6730 H     1 <1>   0.0800 
 32 H       -3.8200     2.4530    -1.4270 H     1 <1>   0.0800 
 33 H       -1.1000     2.3160    -3.8890 H     1 <1>   0.0800 
 34 H        0.2050     2.7170    -2.8330 H     1 <1>   0.0800 
 35 H       -0.9500     3.9580    -3.3090 H     1 <1>   0.0800 
 36 H       -2.6700    -2.2580     1.0830 H     1 <1>   0.0800 
 37 H       -0.3850     0.5340     2.1340 H     1 <1>   0.0800 
 38 H       -0.5400    -1.2010     2.3950 H     1 <1>   0.0800 
 39 H       -3.8060    -1.3180     2.8660 H     1 <1>   0.0800 
 40 H       -3.9700     0.2430     2.0650 H     1 <1>   0.0800 
 41 H       -3.5100    -1.5140    -1.1350 H     1 <1>   0.0800 
 42 H       -4.1960    -0.0990    -0.4050 H     1 <1>   0.0800 
 43 H        0.9860     4.0670    -1.2890 H     1 <1>   0.1500 
 44 H       -0.1370     3.2040     3.4210 H     1 <1>   0.1500 
 45 H        2.7400     4.0570     0.4190 H     1 <1>   0.1500 
 46 H       -4.4140    -3.8280    -0.4200 H     1 <1>   0.1500 
 47 H       -6.3370    -0.2340     0.7910 H     1 <1>   0.1500 
 48 H       -3.7480     2.9820     3.0520 H     1 <1>   0.0800 
 49 H       -2.4400     4.0640     3.5180 H     1 <1>   0.0800 
 50 H       -2.2140     2.3080     3.5820 H     1 <1>   0.0800 
 51 H        2.1680     3.6280     2.7700 H     1 <1>   0.1500 
 52 H       -6.4490    -5.0180     0.1840 H     1 <1>   0.1500 
 53 H       -8.2930    -1.5670     1.3450 H     1 <1>   0.1500 
@<TRIPOS>BOND
  1   1   2  2   
  2   2   3  am  
  3   2   4  1   
  4   3   5  1   
  5   3  28  1   
  6   4   6  1   
  7   4   7  1   
  8   4   8  1   
  9   5   9  1   
 10   5  10  1   
 11   5  29  1   
 12   6  11  1   
 13   7  30  1   
 14   7  31  1   
 15   7  32  1   
 16   8  33  1   
 17   8  34  1   
 18   8  35  1   
 19   9  12  1   
 20   9  13  1   
 21   9  36  1   
 22  10  14  1   
 23  10  37  1   
 24  10  38  1   
 25  11  15  ar  
 26  11  16  ar  
 27  12  14  1   
 28  12  39  1   
 29  12  40  1   
 30  13  17  1   
 31  13  41  1   
 32  13  42  1   
 33  15  18  1   
 34  15  19  ar  
 35  16  20  ar  
 36  16  43  1   
 37  17  21  ar  
 38  17  22  ar  
 39  18  23  1   
 40  19  24  ar  
 41  19  44  1   
 42  20  24  ar  
 43  20  45  1   
 44  21  25  ar  
 45  21  46  1   
 46  22  26  ar  
 47  22  47  1   
 48  23  48  1   
 49  23  49  1   
 50  23  50  1   
 51  24  51  1   
 52  25  27  ar  
 53  25  52  1   
 54  26  27  ar  
 55  26  53  1   
@<TRIPOS>SUBSTRUCTURE
  1 ****   3 GROUP 4 **** **** 0

# MOE 2024.06 (io_trps.svl 2023.06)
