@<TRIPOS>MOLECULE
NONAME
44 46 1 0 0 
SMALL
USER_CHARGES


@<TRIPOS>ATOM
  1 F        0.4240     2.0240    -0.9490 F     1 <1>  -0.1900 
  2 C        1.6850     2.3430    -0.8020 C.ar  1 <1>   0.1900 
  3 C        2.6510     1.4890    -1.2990 C.ar  1 <1>  -0.1500 
  4 C        2.0030     3.5230    -0.1560 C.ar  1 <1>  -0.1500 
  5 C        3.9820     1.8350    -1.1400 C.ar  1 <1>  -0.1500 
  6 C        3.3380     3.8550    -0.0050 C.ar  1 <1>  -0.1500 
  7 C        4.3380     3.0150    -0.4950 C.ar  1 <1>   0.1000 
  8 N        5.6830     3.3330    -0.3530 N.pl3 1 <1>  -0.8380 
  9 C        6.2170     3.3120     1.0420 C.3   1 <1>   0.2090 
 10 C        6.1680     4.4850    -1.1700 C.3   1 <1>   0.2090 
 11 C        7.7590     3.3990     1.0460 C.3   1 <1>   0.3430 
 12 C        7.7090     4.5550    -1.1590 C.3   1 <1>   0.3430 
 13 N        8.2640     4.5700     0.2420 N.4   1 <1>  -0.9590 
 14 C        9.7530     4.7360     0.3230 C.3   1 <1>   0.3430 
 15 C       10.1270     6.2000     0.6550 C.3   1 <1>   0.2000 
 16 O        9.1460     6.6720     1.5630 O.3   1 <1>  -0.2170 
 17 C       10.0020     7.1750    -0.5200 C.3   1 <1>  -0.0990 
 18 N        8.2850     7.4770     0.9700 N.2   1 <1>  -0.5130 
 19 C        8.7010     7.8270    -0.1610 C.2   1 <1>   0.3280 
 20 C        8.0410     8.7750    -1.1530 C.3   1 <1>  -0.0990 
 21 C        6.6330     9.2200    -0.7310 C.3   1 <1>  -0.2400 
 22 H        2.3640     0.5800    -1.7960 H     1 <1>   0.1500 
 23 H        1.2210     4.1590     0.2160 H     1 <1>   0.1500 
 24 H        4.7560     1.1910    -1.5150 H     1 <1>   0.1500 
 25 H        3.6050     4.7670     0.4940 H     1 <1>   0.1500 
 26 H        5.9100     2.3990     1.5230 H     1 <1>   0.0800 
 27 H        5.8070     4.1350     1.6010 H     1 <1>   0.0800 
 28 H        5.7590     5.4020    -0.7830 H     1 <1>   0.0800 
 29 H        5.8220     4.3680    -2.1840 H     1 <1>   0.0800 
 30 H        8.1480     2.4830     0.6340 H     1 <1>   0.0800 
 31 H        8.1000     3.4800     2.0640 H     1 <1>   0.0800 
 32 H        8.0190     5.4400    -1.6870 H     1 <1>   0.0800 
 33 H        8.0890     3.6980    -1.6890 H     1 <1>   0.0800 
 34 H        7.8900     5.4270     0.7080 H     1 <1>   0.4500 
 35 H       10.2260     4.4260    -0.5940 H     1 <1>   0.0800 
 36 H       10.1390     4.1140     1.1130 H     1 <1>   0.0800 
 37 H       11.0950     6.2640     1.1210 H     1 <1>   0.0800 
 38 H        9.9710     6.6790    -1.4730 H     1 <1>   0.0800 
 39 H       10.7980     7.8980    -0.5060 H     1 <1>   0.0800 
 40 H        7.9800     8.2950    -2.1130 H     1 <1>   0.0800 
 41 H        8.6640     9.6460    -1.2590 H     1 <1>   0.0800 
 42 H        5.9800     8.3710    -0.6310 H     1 <1>   0.0800 
 43 H        6.2190     9.8900    -1.4640 H     1 <1>   0.0800 
 44 H        6.6730     9.7340     0.2150 H     1 <1>   0.0800 
@<TRIPOS>BOND
  1   1   2  1   
  2   2   3  ar  
  3   2   4  ar  
  4   3   5  ar  
  5   3  22  1   
  6   4   6  ar  
  7   4  23  1   
  8   5   7  ar  
  9   5  24  1   
 10   6   7  ar  
 11   6  25  1   
 12   7   8  1   
 13   8   9  1   
 14   8  10  1   
 15   9  11  1   
 16   9  26  1   
 17   9  27  1   
 18  10  12  1   
 19  10  28  1   
 20  10  29  1   
 21  11  13  1   
 22  11  30  1   
 23  11  31  1   
 24  12  13  1   
 25  12  32  1   
 26  12  33  1   
 27  13  14  1   
 28  13  34  1   
 29  14  15  1   
 30  14  35  1   
 31  14  36  1   
 32  15  16  1   
 33  15  17  1   
 34  15  37  1   
 35  16  18  1   
 36  17  19  1   
 37  17  38  1   
 38  17  39  1   
 39  18  19  2   
 40  19  20  1   
 41  20  21  1   
 42  20  40  1   
 43  20  41  1   
 44  21  42  1   
 45  21  43  1   
 46  21  44  1   
@<TRIPOS>SUBSTRUCTURE
  1 ****  10 GROUP 4 **** **** 0

# MOE 2024.06 (io_trps.svl 2023.06)
