@<TRIPOS>MOLECULE
NONAME
49 52 1 0 0 
SMALL
USER_CHARGES


@<TRIPOS>ATOM
  1 O        1.1230     0.9660    -0.5830 O.3   1 <1>  -0.6800 
  2 C        0.4610     2.0910    -0.1370 C.3   1 <1>   0.2000 
  3 C       -0.0960     2.8450    -1.3430 C.3   1 <1>  -0.1600 
  4 C        1.4530     2.9510     0.6420 C.3   1 <1>  -0.1600 
  5 C       -0.7440     4.1570    -0.8960 C.3   1 <1>   0.2090 
  6 C        0.7960     4.2600     1.0780 C.3   1 <1>   0.2090 
  7 N        0.2290     4.9570    -0.1050 N.pl3 1 <1>  -0.8380 
  8 C        0.0600     6.3260    -0.0290 C.ar  1 <1>   0.4100 
  9 N       -1.1730     6.7980    -0.0870 N.ar  1 <1>  -0.6200 
 10 C        1.1350     7.1700     0.1140 C.ar  1 <1>  -0.1500 
 11 C       -1.2760     8.1080     0.0050 C.ar  1 <1>   0.4700 
 12 C        0.9080     8.5240     0.2090 C.ar  1 <1>   0.4100 
 13 N       -0.3220     9.0050     0.1500 N.ar  1 <1>  -0.6200 
 14 N        1.9470     9.4230     0.3680 N.pl3 1 <1>  -0.8380 
 15 C        1.7800    10.8670     0.0170 C.3   1 <1>   0.3530 
 16 C        3.0750     9.1410     1.2970 C.3   1 <1>   0.1290 
 17 C        3.0320    11.3770    -0.6880 C.ar  1 <1>  -0.1440 
 18 C        3.8290    12.3860    -0.1030 C.ar  1 <1>   0.3100 
 19 C        3.3690    10.8360    -1.9040 C.ar  1 <1>  -0.1500 
 20 N        3.4900    12.9130     1.1080 N.ar  1 <1>  -0.6200 
 21 C        4.9770    12.8260    -0.8060 C.ar  1 <1>   0.0000 
 22 C        4.5030    11.2740    -2.5920 C.ar  1 <1>  -0.1500 
 23 C        4.2500    13.8400     1.6060 C.ar  1 <1>   0.1600 
 24 C        5.7720    13.8310    -0.2280 C.ar  1 <1>  -0.1500 
 25 C        5.2900    12.2500    -2.0520 C.ar  1 <1>  -0.1500 
 26 C        5.4010    14.3340     0.9800 C.ar  1 <1>  -0.1500 
 27 H        0.5300     0.4190    -1.1310 H     1 <1>   0.4000 
 28 H       -0.3410     1.7730     0.5090 H     1 <1>   0.0800 
 29 H       -0.8310     2.2470    -1.8480 H     1 <1>   0.0800 
 30 H        0.6990     3.0760    -2.0310 H     1 <1>   0.0800 
 31 H        2.3030     3.1800     0.0240 H     1 <1>   0.0800 
 32 H        1.7920     2.4160     1.5100 H     1 <1>   0.0800 
 33 H       -1.6130     3.9590    -0.2920 H     1 <1>   0.0800 
 34 H       -1.0560     4.7200    -1.7610 H     1 <1>   0.0800 
 35 H        1.5230     4.8870     1.5660 H     1 <1>   0.0800 
 36 H        0.0030     4.0580     1.7790 H     1 <1>   0.0800 
 37 H        2.1280     6.7770     0.1340 H     1 <1>   0.1500 
 38 H       -2.2780     8.5000    -0.0430 H     1 <1>   0.1500 
 39 H        1.5570    11.4220     0.9110 H     1 <1>   0.0800 
 40 H        0.9470    10.9900    -0.6520 H     1 <1>   0.0800 
 41 H        2.8820     8.2530     1.8720 H     1 <1>   0.0800 
 42 H        3.2070     9.9660     1.9770 H     1 <1>   0.0800 
 43 H        3.9810     9.0080     0.7320 H     1 <1>   0.0800 
 44 H        2.7600    10.0610    -2.3390 H     1 <1>   0.1500 
 45 H        4.7400    10.8300    -3.5440 H     1 <1>   0.1500 
 46 H        3.9810    14.2570     2.5610 H     1 <1>   0.1500 
 47 H        6.6480    14.1810    -0.7450 H     1 <1>   0.1500 
 48 H        6.1650    12.5940    -2.5750 H     1 <1>   0.1500 
 49 H        5.9700    15.1050     1.4680 H     1 <1>   0.1500 
@<TRIPOS>BOND
  1   1   2  1   
  2   1  27  1   
  3   2   3  1   
  4   2   4  1   
  5   2  28  1   
  6   3   5  1   
  7   3  29  1   
  8   3  30  1   
  9   4   6  1   
 10   4  31  1   
 11   4  32  1   
 12   5   7  1   
 13   5  33  1   
 14   5  34  1   
 15   6   7  1   
 16   6  35  1   
 17   6  36  1   
 18   7   8  1   
 19   8   9  ar  
 20   8  10  ar  
 21   9  11  ar  
 22  10  12  ar  
 23  10  37  1   
 24  11  13  ar  
 25  11  38  1   
 26  12  13  ar  
 27  12  14  1   
 28  14  15  1   
 29  14  16  1   
 30  15  17  1   
 31  15  39  1   
 32  15  40  1   
 33  16  41  1   
 34  16  42  1   
 35  16  43  1   
 36  17  18  ar  
 37  17  19  ar  
 38  18  20  ar  
 39  18  21  ar  
 40  19  22  ar  
 41  19  44  1   
 42  20  23  ar  
 43  21  24  ar  
 44  21  25  ar  
 45  22  25  ar  
 46  22  45  1   
 47  23  26  ar  
 48  23  46  1   
 49  24  26  ar  
 50  24  47  1   
 51  25  48  1   
 52  26  49  1   
@<TRIPOS>SUBSTRUCTURE
  1 ****  14 GROUP 4 **** **** 0

# MOE 2024.06 (io_trps.svl 2023.06)
