@<TRIPOS>MOLECULE
NONAME
38 39 1 0 0 
SMALL
USER_CHARGES


@<TRIPOS>ATOM
  1 O        1.4400     0.8330    -0.2660 O.2   1 <1>  -0.5700 
  2 C        1.9930    -0.2460    -0.1590 C.2   1 <1>   0.7670 
  3 N        2.9890    -0.4030     0.7620 N.2   1 <1>  -0.6610 
  4 C        1.5940    -1.3370    -0.9730 C.2   1 <1>  -0.1360 
  5 C        3.5460    -1.5500     0.8610 C.2   1 <1>   0.4390 
  6 C        2.1870    -2.5450    -0.8360 C.2   1 <1>  -0.0380 
  7 N        3.1920    -2.6330     0.1050 N.pl3 1 <1>  -0.5500 
  8 C        4.6620    -1.7530     1.8550 C.3   1 <1>  -0.1790 
  9 C        1.7750    -3.7660    -1.6540 C.3   1 <1>   0.4810 
 10 N        1.0340    -4.7250    -0.7820 N.4   1 <1>  -0.9590 
 11 C        0.7570    -6.0080    -1.5170 C.3   1 <1>   0.3430 
 12 C       -0.2270    -4.1190    -0.2520 C.3   1 <1>   0.3430 
 13 C        0.0000    -7.0350    -0.6550 C.3   1 <1>   0.2000 
 14 C       -0.9280    -5.1080     0.6770 C.3   1 <1>  -0.1600 
 15 O       -0.3400    -8.0870    -1.4850 O.3   1 <1>  -0.6800 
 16 C       -1.2750    -6.4330    -0.0380 C.3   1 <1>  -0.0800 
 17 C       -1.9700    -7.4270     0.9090 C.3   1 <1>   0.1200 
 18 O       -3.0740    -6.8100     1.4670 O.3   1 <1>  -0.6800 
 19 H        0.8090    -1.1270    -1.6740 H     1 <1>   0.1500 
 20 H        3.7670    -3.4710     0.2370 H     1 <1>   0.4000 
 21 H        4.3910    -2.5090     2.5680 H     1 <1>   0.0800 
 22 H        4.8500    -0.8370     2.3870 H     1 <1>   0.0800 
 23 H        5.5640    -2.0400     1.3470 H     1 <1>   0.0800 
 24 H        2.6550    -4.2340    -2.0650 H     1 <1>   0.0800 
 25 H        1.1450    -3.4550    -2.4720 H     1 <1>   0.0800 
 26 H        1.6280    -4.9280     0.0300 H     1 <1>   0.4500 
 27 H        0.1540    -5.7960    -2.3860 H     1 <1>   0.0800 
 28 H        1.6820    -6.4510    -1.8460 H     1 <1>   0.0800 
 29 H       -0.0060    -3.2160     0.2960 H     1 <1>   0.0800 
 30 H       -0.8870    -3.8670    -1.0670 H     1 <1>   0.0800 
 31 H        0.6530    -7.4190     0.1110 H     1 <1>   0.0800 
 32 H       -0.3160    -5.2940     1.5420 H     1 <1>   0.0800 
 33 H       -1.8330    -4.6400     1.0250 H     1 <1>   0.0800 
 34 H       -0.7700    -8.8200    -0.9980 H     1 <1>   0.4000 
 35 H       -1.9600    -6.2100    -0.8400 H     1 <1>   0.0800 
 36 H       -1.3160    -7.7300     1.7100 H     1 <1>   0.0800 
 37 H       -2.3130    -8.2970     0.3740 H     1 <1>   0.0800 
 38 H       -3.5830    -7.4300     2.0300 H     1 <1>   0.4000 
@<TRIPOS>BOND
  1   1   2  2   
  2   2   3  1   
  3   2   4  1   
  4   3   5  2   
  5   4   6  2   
  6   4  19  1   
  7   5   7  1   
  8   5   8  1   
  9   6   7  1   
 10   6   9  1   
 11   7  20  1   
 12   8  21  1   
 13   8  22  1   
 14   8  23  1   
 15   9  10  1   
 16   9  24  1   
 17   9  25  1   
 18  10  11  1   
 19  10  12  1   
 20  10  26  1   
 21  11  13  1   
 22  11  27  1   
 23  11  28  1   
 24  12  14  1   
 25  12  29  1   
 26  12  30  1   
 27  13  15  1   
 28  13  16  1   
 29  13  31  1   
 30  14  16  1   
 31  14  32  1   
 32  14  33  1   
 33  15  34  1   
 34  16  17  1   
 35  16  35  1   
 36  17  18  1   
 37  17  36  1   
 38  17  37  1   
 39  18  38  1   
@<TRIPOS>SUBSTRUCTURE
  1 ****  10 GROUP 4 **** **** 0

# MOE 2024.06 (io_trps.svl 2023.06)
