@<TRIPOS>MOLECULE
NONAME
53 56 1 0 0 
SMALL
USER_CHARGES


@<TRIPOS>ATOM
  1 O       -2.5260     0.4400    -2.3060 O.2   1 <1>  -0.5700 
  2 C       -1.8210     1.0640    -1.5510 C.2   1 <1>   0.5690 
  3 N       -1.4600     0.6440    -0.3140 N.am  1 <1>  -0.4930 
  4 C       -1.3110     2.4410    -1.9830 C.3   1 <1>   0.1710 
  5 C       -1.7280    -0.5220     0.3820 C.2   1 <1>   0.3520 
  6 N       -0.1280     2.9140    -1.1890 N.3   1 <1>  -0.8100 
  7 N       -1.1950    -0.6880     1.5490 N.2   1 <1>  -0.7070 
  8 C       -2.5220    -1.5980    -0.0010 C.2   1 <1>  -0.1500 
  9 C        0.1080     4.3780    -0.9900 C.3   1 <1>   0.1900 
 10 C        1.1040     2.1650    -1.5530 C.3   1 <1>   0.2530 
 11 N       -1.6420    -1.8950     1.9550 N.pl3 1 <1>   0.3140 
 12 C       -2.4450    -2.4610     1.0320 C.2   1 <1>  -0.3020 
 13 C        0.1210     4.6710     0.5330 C.3   1 <1>  -0.0800 
 14 C       -0.9150     5.3550    -1.6530 C.3   1 <1>   0.3430 
 15 C        2.1210     2.2290    -0.4280 C.ar  1 <1>  -0.1440 
 16 C       -1.2570    -2.4600     3.2530 C.3   1 <1>   0.0160 
 17 C       -1.2710     4.3520     1.1180 C.3   1 <1>  -0.1600 
 18 C        0.3430     6.1840     0.7360 C.3   1 <1>  -0.1600 
 19 N       -1.7430     6.0820    -0.6170 N.4   1 <1>  -0.9590 
 20 C        3.2100     3.0860    -0.5100 C.ar  1 <1>   0.1600 
 21 C        1.9790     1.4450     0.7010 C.ar  1 <1>  -0.1500 
 22 C       -2.3680     5.0920     0.3290 C.3   1 <1>   0.3430 
 23 C       -0.8350     6.9950     0.1580 C.3   1 <1>   0.3430 
 24 N        4.1260     3.2440     0.4300 N.ar  1 <1>  -0.6200 
 25 C        2.9330     1.5870     1.6860 C.ar  1 <1>  -0.1500 
 26 C        3.9680     2.4880     1.5050 C.ar  1 <1>   0.1600 
 27 H       -0.8170     1.2600     0.1820 H     1 <1>   0.3700 
 28 H       -2.1450     3.0990    -1.8470 H     1 <1>   0.0800 
 29 H       -1.0690     2.4120    -3.0320 H     1 <1>   0.0800 
 30 H       -3.0630    -1.6830    -0.9270 H     1 <1>   0.1500 
 31 H        1.0740     4.6260    -1.3950 H     1 <1>   0.0800 
 32 H        1.5230     2.5630    -2.4620 H     1 <1>   0.0800 
 33 H        0.8730     1.1280    -1.7330 H     1 <1>   0.0800 
 34 H       -2.9050    -3.4240     1.1570 H     1 <1>   0.1500 
 35 H        0.8930     4.1150     1.0370 H     1 <1>   0.0800 
 36 H       -1.5500     4.8330    -2.3450 H     1 <1>   0.0800 
 37 H       -0.3600     6.0850    -2.2190 H     1 <1>   0.0800 
 38 H       -1.3340    -1.6940     4.0030 H     1 <1>   0.0800 
 39 H       -0.2430    -2.8060     3.1950 H     1 <1>   0.0800 
 40 H       -1.9100    -3.2760     3.4990 H     1 <1>   0.0800 
 41 H       -1.3130     4.6460     2.1520 H     1 <1>   0.0800 
 42 H       -1.4630     3.2940     1.0930 H     1 <1>   0.0800 
 43 H        1.2610     6.4900     0.2640 H     1 <1>   0.0800 
 44 H        0.4430     6.4070     1.7840 H     1 <1>   0.0800 
 45 H       -2.4800     6.6350    -1.0750 H     1 <1>   0.4500 
 46 H        3.3370     3.6820    -1.3960 H     1 <1>   0.1500 
 47 H        1.1660     0.7490     0.8210 H     1 <1>   0.1500 
 48 H       -3.0260     5.5970     1.0170 H     1 <1>   0.0800 
 49 H       -2.9510     4.3770    -0.2280 H     1 <1>   0.0800 
 50 H       -0.4580     7.7790    -0.4790 H     1 <1>   0.0800 
 51 H       -1.3860     7.4530     0.9650 H     1 <1>   0.0800 
 52 H        2.8760     1.0030     2.5870 H     1 <1>   0.1500 
 53 H        4.7050     2.5900     2.2830 H     1 <1>   0.1500 
@<TRIPOS>BOND
  1   1   2  2   
  2   2   3  am  
  3   2   4  1   
  4   3   5  1   
  5   3  27  1   
  6   4   6  1   
  7   4  28  1   
  8   4  29  1   
  9   5   7  2   
 10   5   8  1   
 11   6   9  1   
 12   6  10  1   
 13   7  11  1   
 14   8  12  2   
 15   8  30  1   
 16   9  13  1   
 17   9  14  1   
 18   9  31  1   
 19  10  15  1   
 20  10  32  1   
 21  10  33  1   
 22  11  12  1   
 23  11  16  1   
 24  12  34  1   
 25  13  17  1   
 26  13  18  1   
 27  13  35  1   
 28  14  19  1   
 29  14  36  1   
 30  14  37  1   
 31  15  20  ar  
 32  15  21  ar  
 33  16  38  1   
 34  16  39  1   
 35  16  40  1   
 36  17  22  1   
 37  17  41  1   
 38  17  42  1   
 39  18  23  1   
 40  18  43  1   
 41  18  44  1   
 42  19  22  1   
 43  19  23  1   
 44  19  45  1   
 45  20  24  ar  
 46  20  46  1   
 47  21  25  ar  
 48  21  47  1   
 49  22  48  1   
 50  22  49  1   
 51  23  50  1   
 52  23  51  1   
 53  24  26  ar  
 54  25  26  ar  
 55  25  52  1   
 56  26  53  1   
@<TRIPOS>SUBSTRUCTURE
  1 ****   6 GROUP 4 **** **** 0

# MOE 2024.06 (io_trps.svl 2023.06)
