@<TRIPOS>MOLECULE
NONAME
46 48 1 0 0 
SMALL
USER_CHARGES


@<TRIPOS>ATOM
  1 CL      -1.5870    -1.3290     2.3950 Cl    1 <1>  -0.1770 
  2 C       -1.4500    -2.9760     1.8260 C.ar  1 <1>   0.1770 
  3 C       -2.5830    -3.7500     1.6500 C.ar  1 <1>   0.1600 
  4 C       -0.2070    -3.5020     1.5540 C.ar  1 <1>  -0.1500 
  5 N       -2.5720    -5.0060     1.2230 N.ar  1 <1>  -0.6200 
  6 C       -0.1840    -4.8070     1.1100 C.ar  1 <1>  -0.1500 
  7 C       -1.3760    -5.5190     0.9570 C.ar  1 <1>   0.4270 
  8 N       -1.4350    -6.8220     0.5200 N.am  1 <1>  -0.5470 
  9 C       -0.5210    -7.6970     0.0190 C.2   1 <1>   0.5690 
 10 O        0.6490    -7.4430    -0.1270 O.2   1 <1>  -0.5700 
 11 C       -1.0400    -9.0830    -0.3750 C.3   1 <1>   0.1710 
 12 N       -2.5170    -9.1340    -0.5930 N.3   1 <1>  -0.8100 
 13 C       -3.0040   -10.5270    -0.5250 C.3   1 <1>   0.1100 
 14 C       -2.8850    -8.5180    -1.8820 C.3   1 <1>   0.1100 
 15 C       -4.5390   -10.5790    -0.6410 C.3   1 <1>   0.2000 
 16 C       -4.4100    -8.4880    -2.0330 C.3   1 <1>  -0.1600 
 17 O       -4.9580   -11.9070    -0.6920 O.3   1 <1>  -0.5600 
 18 C       -5.0110    -9.8990    -1.9280 C.3   1 <1>  -0.1600 
 19 C       -5.1540   -12.5080     0.5610 C.3   1 <1>   0.2640 
 20 C       -5.3710   -14.0140     0.4460 C.ar  1 <1>   0.1670 
 21 N       -5.1970   -14.7000     1.5700 N.ar  1 <1>  -0.6200 
 22 C       -5.7320   -14.5990    -0.7620 C.ar  1 <1>  -0.1500 
 23 C       -5.3840   -16.0070     1.4840 C.ar  1 <1>   0.1600 
 24 C       -5.9240   -15.9620    -0.8350 C.ar  1 <1>  -0.1500 
 25 C       -5.7420   -16.6780     0.3270 C.ar  1 <1>  -0.1500 
 26 H       -3.5390    -3.3110     1.8720 H     1 <1>   0.1500 
 27 H        0.6890    -2.9210     1.6840 H     1 <1>   0.1500 
 28 H        0.7560    -5.2720     0.8850 H     1 <1>   0.1500 
 29 H       -2.3870    -7.1970     0.5060 H     1 <1>   0.3700 
 30 H       -0.7750    -9.7500     0.4250 H     1 <1>   0.0800 
 31 H       -0.5240    -9.4110    -1.2600 H     1 <1>   0.0800 
 32 H       -2.7090   -10.9580     0.4150 H     1 <1>   0.0800 
 33 H       -2.5690   -11.1030    -1.3240 H     1 <1>   0.0800 
 34 H       -2.4500    -9.0780    -2.6940 H     1 <1>   0.0800 
 35 H       -2.5100    -7.5090    -1.9310 H     1 <1>   0.0800 
 36 H       -4.9900   -10.0940     0.2090 H     1 <1>   0.0800 
 37 H       -4.6650    -8.0590    -2.9850 H     1 <1>   0.0800 
 38 H       -4.8230    -7.8560    -1.2660 H     1 <1>   0.0800 
 39 H       -6.0850    -9.8400    -1.9340 H     1 <1>   0.0800 
 40 H       -4.6910   -10.4820    -2.7740 H     1 <1>   0.0800 
 41 H       -6.0120   -12.0560     1.0250 H     1 <1>   0.0800 
 42 H       -4.2870   -12.3320     1.1720 H     1 <1>   0.0800 
 43 H       -5.8620   -13.9940    -1.6400 H     1 <1>   0.1500 
 44 H       -5.2450   -16.5760     2.3870 H     1 <1>   0.1500 
 45 H       -6.2020   -16.4410    -1.7580 H     1 <1>   0.1500 
 46 H       -5.8750   -17.7440     0.3400 H     1 <1>   0.1500 
@<TRIPOS>BOND
  1   1   2  1   
  2   2   3  ar  
  3   2   4  ar  
  4   3   5  ar  
  5   3  26  1   
  6   4   6  ar  
  7   4  27  1   
  8   5   7  ar  
  9   6   7  ar  
 10   6  28  1   
 11   7   8  1   
 12   8   9  am  
 13   8  29  1   
 14   9  10  2   
 15   9  11  1   
 16  11  12  1   
 17  11  30  1   
 18  11  31  1   
 19  12  13  1   
 20  12  14  1   
 21  13  15  1   
 22  13  32  1   
 23  13  33  1   
 24  14  16  1   
 25  14  34  1   
 26  14  35  1   
 27  15  17  1   
 28  15  18  1   
 29  15  36  1   
 30  16  18  1   
 31  16  37  1   
 32  16  38  1   
 33  17  19  1   
 34  18  39  1   
 35  18  40  1   
 36  19  20  1   
 37  19  41  1   
 38  19  42  1   
 39  20  21  ar  
 40  20  22  ar  
 41  21  23  ar  
 42  22  24  ar  
 43  22  43  1   
 44  23  25  ar  
 45  23  44  1   
 46  24  25  ar  
 47  24  45  1   
 48  25  46  1   
@<TRIPOS>SUBSTRUCTURE
  1 ****  12 GROUP 4 **** **** 0

# MOE 2024.06 (io_trps.svl 2023.06)
