@<TRIPOS>MOLECULE
NONAME
59 63 1 0 0 
SMALL
USER_CHARGES


@<TRIPOS>ATOM
  1 O       -1.8380    -0.2440     0.1970 O.3   1 <1>  -0.3630 
  2 C       -1.0540    -1.3280     0.4700 C.ar  1 <1>   0.0830 
  3 C       -1.3370     1.0730     0.1900 C.3   1 <1>   0.0400 
  4 C       -1.6810    -2.6050     0.5170 C.ar  1 <1>   0.3100 
  5 C        0.3010    -1.2030     0.6930 C.ar  1 <1>  -0.1500 
  6 N       -3.0190    -2.7000     0.2930 N.ar  1 <1>  -0.6200 
  7 C       -0.8800    -3.7420     0.7940 C.ar  1 <1>   0.0000 
  8 C        1.0790    -2.3260     0.9680 C.ar  1 <1>  -0.1500 
  9 C       -3.5740    -3.8770     0.3280 C.ar  1 <1>   0.4100 
 10 C       -1.5110    -5.0080     0.8360 C.ar  1 <1>  -0.1440 
 11 C        0.5010    -3.5640     1.0160 C.ar  1 <1>  -0.1500 
 12 N       -4.9260    -3.9770     0.0660 N.pl3 1 <1>  -0.8380 
 13 C       -2.8500    -5.0490     0.6020 C.ar  1 <1>  -0.1500 
 14 C       -0.7390    -6.2850     1.1340 C.3   1 <1>  -0.0970 
 15 C       -5.8450    -2.8880     0.5570 C.3   1 <1>   0.2090 
 16 C       -5.3170    -4.6500    -1.2040 C.3   1 <1>   0.2090 
 17 C       -6.5750    -2.1610    -0.5920 C.3   1 <1>   0.1440 
 18 C       -6.8350    -4.6030    -1.4050 C.3   1 <1>  -0.1600 
 19 C       -7.4130    -1.0520     0.0270 C.ar  1 <1>   0.1670 
 20 C       -7.4080    -3.1700    -1.4280 C.3   1 <1>  -0.1600 
 21 C       -5.5870    -1.3410    -1.4700 C.3   1 <1>  -0.1600 
 22 N       -8.5660    -1.2060     0.6320 N.ar  1 <1>  -0.6200 
 23 C       -6.8020     0.1600    -0.1000 C.ar  1 <1>  -0.1430 
 24 C       -5.4820     0.0470    -0.8220 C.3   1 <1>  -0.0170 
 25 C       -9.1170    -0.0860     1.1080 C.ar  1 <1>   0.7200 
 26 C       -7.4400     1.2550     0.4240 C.ar  1 <1>   0.1600 
 27 N       -8.6000     1.1450     1.0270 N.ar  1 <1>  -0.6200 
 28 N      -10.3370    -0.2130     1.7430 N.pl3 1 <1>  -0.8380 
 29 C      -11.1950     0.9640     2.0500 C.3   1 <1>   0.1290 
 30 C      -10.8680    -1.5350     2.1750 C.3   1 <1>   0.1290 
 31 H       -2.1550     1.7390    -0.0170 H     1 <1>   0.0800 
 32 H       -0.5910     1.1590    -0.5800 H     1 <1>   0.0800 
 33 H       -0.9230     1.2940     1.1580 H     1 <1>   0.0800 
 34 H        0.7990    -0.2530     0.6630 H     1 <1>   0.1500 
 35 H        2.1350    -2.2050     1.1390 H     1 <1>   0.1500 
 36 H        1.1160    -4.4180     1.2280 H     1 <1>   0.1500 
 37 H       -3.4010    -5.9680     0.6250 H     1 <1>   0.1500 
 38 H       -0.2820    -6.2210     2.1050 H     1 <1>   0.0800 
 39 H        0.0240    -6.4370     0.3920 H     1 <1>   0.0800 
 40 H       -1.3930    -7.1390     1.1250 H     1 <1>   0.0800 
 41 H       -5.2980    -2.1730     1.1480 H     1 <1>   0.0800 
 42 H       -6.5800    -3.3320     1.2050 H     1 <1>   0.0800 
 43 H       -4.9900    -5.6750    -1.1770 H     1 <1>   0.0800 
 44 H       -4.8230    -4.1620    -2.0270 H     1 <1>   0.0800 
 45 H       -7.2890    -5.1520    -0.5980 H     1 <1>   0.0800 
 46 H       -7.0920    -5.1070    -2.3200 H     1 <1>   0.0800 
 47 H       -7.4900    -2.8280    -2.4430 H     1 <1>   0.0800 
 48 H       -8.4100    -3.2180    -1.0400 H     1 <1>   0.0800 
 49 H       -5.9970    -1.2090    -2.4540 H     1 <1>   0.0800 
 50 H       -4.6230    -1.8030    -1.5700 H     1 <1>   0.0800 
 51 H       -5.3490     0.8210    -1.5560 H     1 <1>   0.0800 
 52 H       -4.6730     0.0660    -0.1110 H     1 <1>   0.0800 
 53 H       -6.9940     2.2310     0.3470 H     1 <1>   0.1500 
 54 H      -11.0320     1.7470     1.3290 H     1 <1>   0.0800 
 55 H      -10.9570     1.3360     3.0300 H     1 <1>   0.0800 
 56 H      -12.2330     0.6850     2.0160 H     1 <1>   0.0800 
 57 H      -10.0590    -2.2070     2.4080 H     1 <1>   0.0800 
 58 H      -11.4580    -1.9610     1.3830 H     1 <1>   0.0800 
 59 H      -11.4770    -1.4220     3.0540 H     1 <1>   0.0800 
@<TRIPOS>BOND
  1   1   2  1   
  2   1   3  1   
  3   2   4  ar  
  4   2   5  ar  
  5   3  31  1   
  6   3  32  1   
  7   3  33  1   
  8   4   6  ar  
  9   4   7  ar  
 10   5   8  ar  
 11   5  34  1   
 12   6   9  ar  
 13   7  10  ar  
 14   7  11  ar  
 15   8  11  ar  
 16   8  35  1   
 17   9  12  1   
 18   9  13  ar  
 19  10  13  ar  
 20  10  14  1   
 21  11  36  1   
 22  12  15  1   
 23  12  16  1   
 24  13  37  1   
 25  14  38  1   
 26  14  39  1   
 27  14  40  1   
 28  15  17  1   
 29  15  41  1   
 30  15  42  1   
 31  16  18  1   
 32  16  43  1   
 33  16  44  1   
 34  17  19  1   
 35  17  20  1   
 36  17  21  1   
 37  18  20  1   
 38  18  45  1   
 39  18  46  1   
 40  19  22  ar  
 41  19  23  ar  
 42  20  47  1   
 43  20  48  1   
 44  21  24  1   
 45  21  49  1   
 46  21  50  1   
 47  22  25  ar  
 48  23  24  1   
 49  23  26  ar  
 50  24  51  1   
 51  24  52  1   
 52  25  27  ar  
 53  25  28  1   
 54  26  27  ar  
 55  26  53  1   
 56  28  29  1   
 57  28  30  1   
 58  29  54  1   
 59  29  55  1   
 60  29  56  1   
 61  30  57  1   
 62  30  58  1   
 63  30  59  1   
@<TRIPOS>SUBSTRUCTURE
  1 ****  15 GROUP 4 **** **** 0

# MOE 2024.06 (io_trps.svl 2023.06)
