@<TRIPOS>MOLECULE
NONAME
52 53 1 0 0 
SMALL
USER_CHARGES


@<TRIPOS>ATOM
  1 S        2.3990     2.0570    -0.8270 S.o2  1 <1>   1.3330 
  2 O        3.2360     0.8970    -1.0300 O.2   1 <1>  -0.6500 
  3 O        2.5000     3.1610    -1.7560 O.2   1 <1>  -0.6500 
  4 N        2.7190     2.6330     0.7350 N.am  1 <1>  -0.8490 
  5 C        0.6850     1.5020    -0.7850 C.3   1 <1>  -0.0550 
  6 C        3.7970     3.6240     0.7660 C.3   1 <1>   0.1160 
  7 C        2.9860     1.5820     1.7200 C.3   1 <1>   0.1160 
  8 C       -0.4480     2.4990    -0.4290 C.3   1 <1>  -0.0800 
  9 C       -0.4530     3.7940    -1.2540 C.3   1 <1>   0.2000 
 10 C       -0.4420     2.9640     1.0330 C.3   1 <1>   0.1400 
 11 O       -1.7770     4.1630    -1.4370 O.3   1 <1>  -0.6800 
 12 C        0.2130     4.8490    -0.3690 C.3   1 <1>   0.1400 
 13 N        0.0090     4.3730     1.0230 N.am  1 <1>  -0.6600 
 14 C        0.5050     4.9810     2.1480 C.2   1 <1>   0.5690 
 15 O        0.4310     4.4450     3.2310 O.2   1 <1>  -0.5700 
 16 C        1.1200     6.3780     2.0840 C.3   1 <1>   0.1810 
 17 O        2.2480     6.4140     1.2210 O.3   1 <1>  -0.3630 
 18 C        2.7310     7.6020     0.7840 C.ar  1 <1>   0.0820 
 19 C        3.4170     7.5990    -0.4200 C.ar  1 <1>  -0.1500 
 20 C        2.5650     8.7950     1.4800 C.ar  1 <1>  -0.1500 
 21 C        3.9310     8.7750    -0.9380 C.ar  1 <1>  -0.1500 
 22 C        3.0790     9.9700     0.9610 C.ar  1 <1>  -0.1500 
 23 C        3.7610     9.9720    -0.2460 C.ar  1 <1>   0.0820 
 24 O        4.2280    11.1710    -0.6800 O.3   1 <1>  -0.3630 
 25 C        4.9360    11.2800    -1.8930 C.3   1 <1>   0.1200 
 26 C        5.3170    12.7440    -2.0860 C.3   1 <1>  -0.2400 
 27 H        0.4600     1.1080    -1.7580 H     1 <1>   0.0800 
 28 H        0.6180     0.6750    -0.1060 H     1 <1>   0.0800 
 29 H        3.9090     4.0190     1.7610 H     1 <1>   0.0800 
 30 H        3.5660     4.4430     0.1080 H     1 <1>   0.0800 
 31 H        4.7250     3.1790     0.4500 H     1 <1>   0.0800 
 32 H        3.0670     2.0140     2.7040 H     1 <1>   0.0800 
 33 H        3.9030     1.0680     1.4840 H     1 <1>   0.0800 
 34 H        2.1820     0.8670     1.7310 H     1 <1>   0.0800 
 35 H       -1.3660     1.9640    -0.6040 H     1 <1>   0.0800 
 36 H        0.0070     3.7020    -2.2240 H     1 <1>   0.0800 
 37 H        0.2040     2.3640     1.6500 H     1 <1>   0.0800 
 38 H       -1.4380     2.9260     1.4410 H     1 <1>   0.0800 
 39 H       -2.1640     4.3970    -0.5710 H     1 <1>   0.4000 
 40 H       -0.2140     5.8250    -0.5230 H     1 <1>   0.0800 
 41 H        1.2660     4.8940    -0.5750 H     1 <1>   0.0800 
 42 H        1.4410     6.6720     3.0660 H     1 <1>   0.0800 
 43 H        0.3850     7.0700     1.7170 H     1 <1>   0.0800 
 44 H        3.5430     6.6720    -0.9520 H     1 <1>   0.1500 
 45 H        2.0510     8.8250     2.4220 H     1 <1>   0.1500 
 46 H        4.4550     8.7380    -1.8740 H     1 <1>   0.1500 
 47 H        2.9570    10.8980     1.4890 H     1 <1>   0.1500 
 48 H        5.8160    10.6630    -1.8310 H     1 <1>   0.0800 
 49 H        4.2980    10.9450    -2.6920 H     1 <1>   0.0800 
 50 H        5.9410    13.0740    -1.2740 H     1 <1>   0.0800 
 51 H        4.4320    13.3540    -2.1300 H     1 <1>   0.0800 
 52 H        5.8610    12.8610    -3.0060 H     1 <1>   0.0800 
@<TRIPOS>BOND
  1   1   2  2   
  2   1   3  2   
  3   1   4  am  
  4   1   5  1   
  5   4   6  1   
  6   4   7  1   
  7   5   8  1   
  8   5  27  1   
  9   5  28  1   
 10   6  29  1   
 11   6  30  1   
 12   6  31  1   
 13   7  32  1   
 14   7  33  1   
 15   7  34  1   
 16   8   9  1   
 17   8  10  1   
 18   8  35  1   
 19   9  11  1   
 20   9  12  1   
 21   9  36  1   
 22  10  13  1   
 23  10  37  1   
 24  10  38  1   
 25  11  39  1   
 26  12  13  1   
 27  12  40  1   
 28  12  41  1   
 29  13  14  am  
 30  14  15  2   
 31  14  16  1   
 32  16  17  1   
 33  16  42  1   
 34  16  43  1   
 35  17  18  1   
 36  18  19  ar  
 37  18  20  ar  
 38  19  21  ar  
 39  19  44  1   
 40  20  22  ar  
 41  20  45  1   
 42  21  23  ar  
 43  21  46  1   
 44  22  23  ar  
 45  22  47  1   
 46  23  24  1   
 47  24  25  1   
 48  25  26  1   
 49  25  48  1   
 50  25  49  1   
 51  26  50  1   
 52  26  51  1   
 53  26  52  1   
@<TRIPOS>SUBSTRUCTURE
  1 ****  17 GROUP 4 **** **** 0

# MOE 2024.06 (io_trps.svl 2023.06)
