@<TRIPOS>MOLECULE
NONAME
48 49 1 0 0 
SMALL
USER_CHARGES


@<TRIPOS>ATOM
  1 O       -0.1050     0.3240    -1.0290 O.co2 1 <1>  -0.9000 
  2 C        0.2770     1.4160    -0.5700 C.2   1 <1>   0.9060 
  3 O        1.3790     1.8980    -0.8290 O.co2 1 <1>  -0.9000 
  4 C       -0.7180     2.1190     0.3930 C.3   1 <1>   0.4600 
  5 N       -1.9790     1.2800     0.5330 N.4   1 <1>  -0.9590 
  6 C       -1.1130     3.5570     0.0250 C.ar  1 <1>  -0.1430 
  7 C       -2.8670     1.4480    -0.6490 C.3   1 <1>   0.5240 
  8 C       -2.6490     1.3680     1.8560 C.3   1 <1>   0.2630 
  9 C       -1.0800     4.0060    -1.2910 C.ar  1 <1>  -0.1500 
 10 C       -1.5300     4.4320     1.0200 C.ar  1 <1>  -0.1500 
 11 C       -4.0100     0.4670    -0.5460 C.2   1 <1>  -0.1810 
 12 C       -1.4870     5.2900    -1.6020 C.ar  1 <1>  -0.1500 
 13 C       -1.9350     5.7180     0.7090 C.ar  1 <1>  -0.1500 
 14 C       -4.0240    -0.8570    -0.7640 C.2   1 <1>  -0.0400 
 15 C       -5.3250     0.7520    -0.1830 C.2   1 <1>   0.1080 
 16 C       -1.9230     6.1540    -0.6120 C.ar  1 <1>   0.0830 
 17 O       -5.2320    -1.2870    -0.5220 O.3   1 <1>  -0.0190 
 18 C       -2.9560    -1.8410    -1.2050 C.3   1 <1>  -0.0600 
 19 N       -6.0290    -0.3210    -0.1670 N.2   1 <1>  -0.4100 
 20 C       -5.8880     2.1210     0.1410 C.3   1 <1>  -0.0590 
 21 O       -2.3080     7.3910    -1.0150 O.3   1 <1>  -0.3620 
 22 C       -2.6440     8.4290    -0.1220 C.3   1 <1>   0.2000 
 23 C       -4.1190     8.2910     0.2610 C.3   1 <1>  -0.2400 
 24 C       -2.3880     9.7460    -0.8500 C.3   1 <1>  -0.2400 
 25 H       -0.2130     2.1480     1.3410 H     1 <1>   0.0800 
 26 H       -1.5880     0.3290     0.3700 H     1 <1>   0.4500 
 27 H       -2.3080     1.2510    -1.5500 H     1 <1>   0.0800 
 28 H       -3.2480     2.4550    -0.6940 H     1 <1>   0.0800 
 29 H       -3.0670     2.3510     1.9950 H     1 <1>   0.0800 
 30 H       -1.9410     1.1730     2.6450 H     1 <1>   0.0800 
 31 H       -3.4430     0.6410     1.9200 H     1 <1>   0.0800 
 32 H       -0.7280     3.3680    -2.0870 H     1 <1>   0.1500 
 33 H       -1.5390     4.1220     2.0500 H     1 <1>   0.1500 
 34 H       -1.4600     5.6360    -2.6210 H     1 <1>   0.1500 
 35 H       -2.2520     6.3660     1.5040 H     1 <1>   0.1500 
 36 H       -2.0320    -1.3380    -1.4210 H     1 <1>   0.0800 
 37 H       -3.2800    -2.3520    -2.0930 H     1 <1>   0.0800 
 38 H       -2.7850    -2.5680    -0.4320 H     1 <1>   0.0800 
 39 H       -5.3850     2.5430     0.9900 H     1 <1>   0.0800 
 40 H       -6.9360     2.0380     0.3690 H     1 <1>   0.0800 
 41 H       -5.7750     2.7750    -0.7040 H     1 <1>   0.0800 
 42 H       -2.0010     8.3730     0.7390 H     1 <1>   0.0800 
 43 H       -4.7380     8.3530    -0.6160 H     1 <1>   0.0800 
 44 H       -4.3980     9.0830     0.9320 H     1 <1>   0.0800 
 45 H       -4.2990     7.3530     0.7530 H     1 <1>   0.0800 
 46 H       -2.9940     9.8100    -1.7360 H     1 <1>   0.0800 
 47 H       -1.3510     9.8160    -1.1240 H     1 <1>   0.0800 
 48 H       -2.6270    10.5750    -0.2090 H     1 <1>   0.0800 
@<TRIPOS>BOND
  1   1   2  ar  
  2   2   3  ar  
  3   2   4  1   
  4   4   5  1   
  5   4   6  1   
  6   4  25  1   
  7   5   7  1   
  8   5   8  1   
  9   5  26  1   
 10   6   9  ar  
 11   6  10  ar  
 12   7  11  1   
 13   7  27  1   
 14   7  28  1   
 15   8  29  1   
 16   8  30  1   
 17   8  31  1   
 18   9  12  ar  
 19   9  32  1   
 20  10  13  ar  
 21  10  33  1   
 22  11  14  2   
 23  11  15  1   
 24  12  16  ar  
 25  12  34  1   
 26  13  16  ar  
 27  13  35  1   
 28  14  17  1   
 29  14  18  1   
 30  15  19  2   
 31  15  20  1   
 32  16  21  1   
 33  17  19  1   
 34  18  36  1   
 35  18  37  1   
 36  18  38  1   
 37  20  39  1   
 38  20  40  1   
 39  20  41  1   
 40  21  22  1   
 41  22  23  1   
 42  22  24  1   
 43  22  42  1   
 44  23  43  1   
 45  23  44  1   
 46  23  45  1   
 47  24  46  1   
 48  24  47  1   
 49  24  48  1   
@<TRIPOS>SUBSTRUCTURE
  1 ****   6 GROUP 4 **** **** 0

# MOE 2024.06 (io_trps.svl 2023.06)
