@<TRIPOS>MOLECULE
NONAME
54 57 1 0 0 
SMALL
USER_CHARGES


@<TRIPOS>ATOM
  1 O       -0.3780     0.4900     1.3920 O.3   1 <1>  -0.6800 
  2 C        0.4760    -0.2890     0.6240 C.3   1 <1>   0.2000 
  3 C        0.7330    -1.5850     1.4000 C.3   1 <1>  -0.0800 
  4 C        1.8260     0.4380     0.5650 C.3   1 <1>   0.3430 
  5 C        1.8960    -1.1910     2.3130 C.3   1 <1>   0.3430 
  6 C        1.0240    -2.8110     0.4920 C.3   1 <1>  -0.0170 
  7 N        2.7490    -0.3000     1.4860 N.4   1 <1>  -0.9590 
  8 C        2.4710    -2.9840     0.0360 C.ar  1 <1>   0.1670 
  9 C        3.7040     0.5530     2.2360 C.3   1 <1>   0.4860 
 10 N        2.9790    -2.0730    -0.7380 N.ar  1 <1>  -0.6200 
 11 C        3.1910    -4.1060     0.4800 C.ar  1 <1>  -0.1500 
 12 C        4.5510     1.3290     1.2550 C.ar  1 <1>  -0.1440 
 13 C        4.2650    -2.2280    -1.1530 C.ar  1 <1>   0.3100 
 14 C        4.4890    -4.2730     0.1020 C.ar  1 <1>  -0.1500 
 15 C        5.6020     0.7470     0.5860 C.ar  1 <1>   0.1600 
 16 C        4.2990     2.6540     0.9870 C.ar  1 <1>   0.1600 
 17 C        5.0700    -3.3100    -0.7360 C.ar  1 <1>   0.0000 
 18 C        4.8290    -1.2600    -1.9980 C.ar  1 <1>  -0.1500 
 19 N        6.3280     1.4110    -0.2810 N.ar  1 <1>  -0.6200 
 20 N        5.0070     3.3350     0.1190 N.ar  1 <1>  -0.6200 
 21 C        6.4090    -3.3740    -1.1700 C.ar  1 <1>  -0.1500 
 22 C        6.1340    -1.3380    -2.4040 C.ar  1 <1>  -0.1500 
 23 C        5.9960     2.6790    -0.4750 C.ar  1 <1>   0.4770 
 24 C        6.9320    -2.4070    -1.9840 C.ar  1 <1>  -0.1500 
 25 C        6.8460     3.4530    -1.4930 C.3   1 <1>   0.0630 
 26 C        7.5250     4.6800    -0.8610 C.3   1 <1>  -0.2400 
 27 C        6.0200     3.8770    -2.7180 C.3   1 <1>  -0.2400 
 28 H       -1.3130     0.2160     1.2750 H     1 <1>   0.4000 
 29 H        0.0400    -0.4270    -0.3510 H     1 <1>   0.0800 
 30 H       -0.1280    -1.8320     1.9970 H     1 <1>   0.0800 
 31 H        1.6970     1.4630     0.8700 H     1 <1>   0.0800 
 32 H        2.2200     0.4090    -0.4380 H     1 <1>   0.0800 
 33 H        2.4400    -2.0530     2.6650 H     1 <1>   0.0800 
 34 H        1.5080    -0.6400     3.1550 H     1 <1>   0.0800 
 35 H        0.3950    -2.7740    -0.3810 H     1 <1>   0.0800 
 36 H        0.7320    -3.6960     1.0300 H     1 <1>   0.0800 
 37 H        3.2760    -0.9230     0.8420 H     1 <1>   0.4500 
 38 H        3.1640     1.2350     2.8730 H     1 <1>   0.0800 
 39 H        4.3400    -0.0600     2.8530 H     1 <1>   0.0800 
 40 H        2.7160    -4.8350     1.1120 H     1 <1>   0.1500 
 41 H        5.0710    -5.1210     0.4210 H     1 <1>   0.1500 
 42 H        5.8630    -0.2860     0.7520 H     1 <1>   0.1500 
 43 H        3.5000     3.1790     1.4850 H     1 <1>   0.1500 
 44 H        4.2100    -0.4440    -2.3220 H     1 <1>   0.1500 
 45 H        7.0180    -4.2010    -0.8500 H     1 <1>   0.1500 
 46 H        6.5610    -0.5840    -3.0430 H     1 <1>   0.1500 
 47 H        7.9570    -2.4540    -2.3130 H     1 <1>   0.1500 
 48 H        7.6250     2.7950    -1.8380 H     1 <1>   0.0800 
 49 H        6.7870     5.3870    -0.5250 H     1 <1>   0.0800 
 50 H        8.1680     5.1620    -1.5750 H     1 <1>   0.0800 
 51 H        8.1170     4.3750    -0.0160 H     1 <1>   0.0800 
 52 H        5.2400     4.5580    -2.4270 H     1 <1>   0.0800 
 53 H        5.5700     3.0130    -3.1730 H     1 <1>   0.0800 
 54 H        6.6480     4.3600    -3.4450 H     1 <1>   0.0800 
@<TRIPOS>BOND
  1   1   2  1   
  2   1  28  1   
  3   2   3  1   
  4   2   4  1   
  5   2  29  1   
  6   3   5  1   
  7   3   6  1   
  8   3  30  1   
  9   4   7  1   
 10   4  31  1   
 11   4  32  1   
 12   5   7  1   
 13   5  33  1   
 14   5  34  1   
 15   6   8  1   
 16   6  35  1   
 17   6  36  1   
 18   7   9  1   
 19   7  37  1   
 20   8  10  ar  
 21   8  11  ar  
 22   9  12  1   
 23   9  38  1   
 24   9  39  1   
 25  10  13  ar  
 26  11  14  ar  
 27  11  40  1   
 28  12  15  ar  
 29  12  16  ar  
 30  13  17  ar  
 31  13  18  ar  
 32  14  17  ar  
 33  14  41  1   
 34  15  19  ar  
 35  15  42  1   
 36  16  20  ar  
 37  16  43  1   
 38  17  21  ar  
 39  18  22  ar  
 40  18  44  1   
 41  19  23  ar  
 42  20  23  ar  
 43  21  24  ar  
 44  21  45  1   
 45  22  24  ar  
 46  22  46  1   
 47  23  25  1   
 48  24  47  1   
 49  25  26  1   
 50  25  27  1   
 51  25  48  1   
 52  26  49  1   
 53  26  50  1   
 54  26  51  1   
 55  27  52  1   
 56  27  53  1   
 57  27  54  1   
@<TRIPOS>SUBSTRUCTURE
  1 ****  15 GROUP 4 **** **** 0

# MOE 2024.06 (io_trps.svl 2023.06)
