@<TRIPOS>MOLECULE
NONAME
54 57 1 0 0 
SMALL
USER_CHARGES


@<TRIPOS>ATOM
  1 O       -0.2140     0.6690    -0.9330 O.2   1 <1>  -0.5700 
  2 C       -0.2120     1.8320    -0.5980 C.2   1 <1>   0.5690 
  3 N       -1.3020     2.4490    -0.0420 N.am  1 <1>  -0.5090 
  4 C        1.0630     2.6370    -0.8520 C.3   1 <1>   0.1810 
  5 C       -1.3260     3.9290     0.1950 C.3   1 <1>   0.3640 
  6 C       -2.5200     1.7050     0.3660 C.3   1 <1>   0.0490 
  7 O        1.0950     3.8600    -0.1590 O.3   1 <1>  -0.5600 
  8 C       -2.5680     4.5410    -0.4560 C.ar  1 <1>  -0.1440 
  9 C       -0.0620     4.6530    -0.3360 C.3   1 <1>   0.2610 
 10 C       -2.9680     1.7840     1.7930 C.3   1 <1>  -0.2000 
 11 C       -2.3900     0.5130     1.2610 C.3   1 <1>  -0.2000 
 12 C       -3.3460     5.4440     0.2560 C.ar  1 <1>   0.1600 
 13 C       -2.9410     4.2250    -1.7500 C.ar  1 <1>  -0.1500 
 14 C        0.1160     6.0410     0.3090 C.2   1 <1>   0.5690 
 15 N       -4.4360     6.0360    -0.2070 N.ar  1 <1>  -0.6200 
 16 C       -4.0730     4.8330    -2.2460 C.ar  1 <1>  -0.1500 
 17 O       -0.4890     6.2800     1.3320 O.2   1 <1>  -0.5700 
 18 N        0.9230     6.9960    -0.2700 N.am  1 <1>  -0.6600 
 19 C       -4.7740     5.7170    -1.4450 C.ar  1 <1>   0.1600 
 20 C        1.0340     8.3660     0.3040 C.3   1 <1>   0.1400 
 21 C        1.8570     6.7550    -1.4050 C.3   1 <1>   0.1400 
 22 C        2.4650     8.6040     0.7960 C.3   1 <1>  -0.1600 
 23 C        3.2970     6.9670    -0.9290 C.3   1 <1>  -0.1600 
 24 C        3.5030     8.3650    -0.3180 C.3   1 <1>  -0.0800 
 25 C        4.9490     8.5060     0.1920 C.3   1 <1>  -0.1600 
 26 C        5.2720     9.9180     0.6860 C.3   1 <1>   0.1200 
 27 O        6.6170     9.9740     0.9950 O.3   1 <1>  -0.6800 
 28 H        1.1570     2.8370    -1.9040 H     1 <1>   0.0800 
 29 H        1.9120     2.0600    -0.5340 H     1 <1>   0.0800 
 30 H       -1.3800     4.0710     1.2600 H     1 <1>   0.0800 
 31 H       -3.2680     1.6760    -0.4080 H     1 <1>   0.1000 
 32 H       -0.1860     4.8070    -1.3920 H     1 <1>   0.0800 
 33 H       -2.3880     2.3320     2.5140 H     1 <1>   0.1000 
 34 H       -4.0240     1.8140     2.0010 H     1 <1>   0.1000 
 35 H       -3.0450    -0.3230     1.0960 H     1 <1>   0.1000 
 36 H       -1.4050     0.2100     1.5710 H     1 <1>   0.1000 
 37 H       -3.0560     5.7020     1.2620 H     1 <1>   0.1500 
 38 H       -2.3830     3.5270    -2.3510 H     1 <1>   0.1500 
 39 H       -4.4150     4.6260    -3.2440 H     1 <1>   0.1500 
 40 H       -5.6580     6.1860    -1.8410 H     1 <1>   0.1500 
 41 H        0.7830     9.0850    -0.4560 H     1 <1>   0.0800 
 42 H        0.3450     8.4980     1.1210 H     1 <1>   0.0800 
 43 H        1.7590     5.7570    -1.7920 H     1 <1>   0.0800 
 44 H        1.6300     7.4450    -2.1990 H     1 <1>   0.0800 
 45 H        2.5310     9.6130     1.1590 H     1 <1>   0.0800 
 46 H        2.6540     7.9430     1.6250 H     1 <1>   0.0800 
 47 H        3.5300     6.2090    -0.2000 H     1 <1>   0.0800 
 48 H        3.9620     6.8340    -1.7630 H     1 <1>   0.0800 
 49 H        3.3430     9.0950    -1.0950 H     1 <1>   0.0800 
 50 H        5.6220     8.2720    -0.6150 H     1 <1>   0.0800 
 51 H        5.1160     7.8010     0.9880 H     1 <1>   0.0800 
 52 H        4.7140    10.1690     1.5720 H     1 <1>   0.0800 
 53 H        5.0790    10.6500    -0.0800 H     1 <1>   0.0800 
 54 H        6.8380     9.3090     1.6750 H     1 <1>   0.4000 
@<TRIPOS>BOND
  1   1   2  2   
  2   2   3  am  
  3   2   4  1   
  4   3   5  1   
  5   3   6  1   
  6   4   7  1   
  7   4  28  1   
  8   4  29  1   
  9   5   8  1   
 10   5   9  1   
 11   5  30  1   
 12   6  10  1   
 13   6  11  1   
 14   6  31  1   
 15   7   9  1   
 16   8  12  ar  
 17   8  13  ar  
 18   9  14  1   
 19   9  32  1   
 20  10  11  1   
 21  10  33  1   
 22  10  34  1   
 23  11  35  1   
 24  11  36  1   
 25  12  15  ar  
 26  12  37  1   
 27  13  16  ar  
 28  13  38  1   
 29  14  17  2   
 30  14  18  am  
 31  15  19  ar  
 32  16  19  ar  
 33  16  39  1   
 34  18  20  1   
 35  18  21  1   
 36  19  40  1   
 37  20  22  1   
 38  20  41  1   
 39  20  42  1   
 40  21  23  1   
 41  21  43  1   
 42  21  44  1   
 43  22  24  1   
 44  22  45  1   
 45  22  46  1   
 46  23  24  1   
 47  23  47  1   
 48  23  48  1   
 49  24  25  1   
 50  24  49  1   
 51  25  26  1   
 52  25  50  1   
 53  25  51  1   
 54  26  27  1   
 55  26  52  1   
 56  26  53  1   
 57  27  54  1   
@<TRIPOS>SUBSTRUCTURE
  1 ****   9 GROUP 4 **** **** 0

# MOE 2024.06 (io_trps.svl 2023.06)
