@<TRIPOS>MOLECULE
NONAME
26 26 1 0 0 
SMALL
USER_CHARGES


@<TRIPOS>ATOM
  1 O        1.3030     1.6280    -1.5510 O.2   1 <1>  -0.5700 
  2 C        1.1340     1.8550    -0.3800 C.2   1 <1>   0.6590 
  3 O        0.7530     0.9110     0.4720 O.3   1 <1>  -0.4300 
  4 C        1.3200     3.2270     0.2160 C.3   1 <1>  -0.0380 
  5 C        0.5720    -0.4270     0.0600 C.3   1 <1>   0.0400 
  6 C        2.3100     4.0270    -0.6040 C.2   1 <1>   0.4230 
  7 O        1.9030     5.0450    -1.1130 O.2   1 <1>  -0.5700 
  8 C        3.6790     3.5550    -0.7250 C.ar  1 <1>   0.3960 
  9 N        4.1250     2.6300     0.1370 N.ar  1 <1>  -0.6200 
 10 C        4.5010     4.0760    -1.7250 C.ar  1 <1>  -0.1500 
 11 C        5.3710     2.2190    -0.0030 C.ar  1 <1>   0.3920 
 12 C        5.8020     3.6500    -1.8680 C.ar  1 <1>  -0.1500 
 13 O        5.7390     1.2830     0.8950 O.3   1 <1>  -0.3630 
 14 C        6.2420     2.6950    -0.9810 C.ar  1 <1>  -0.1500 
 15 C        7.0100     0.6700     0.8920 C.3   1 <1>   0.0400 
 16 H        1.6790     3.1360     1.2230 H     1 <1>   0.0800 
 17 H        0.3700     3.7260     0.2340 H     1 <1>   0.0800 
 18 H        0.2690    -1.0080     0.9120 H     1 <1>   0.0800 
 19 H        1.5030    -0.7980    -0.3300 H     1 <1>   0.0800 
 20 H       -0.1890    -0.4570    -0.7010 H     1 <1>   0.0800 
 21 H        4.1040     4.8210    -2.3930 H     1 <1>   0.1500 
 22 H        6.4420     4.0460    -2.6380 H     1 <1>   0.1500 
 23 H        7.2480     2.3340    -1.0590 H     1 <1>   0.1500 
 24 H        7.0340    -0.0490     1.6920 H     1 <1>   0.0800 
 25 H        7.7620     1.4210     1.0540 H     1 <1>   0.0800 
 26 H        7.1560     0.1710    -0.0500 H     1 <1>   0.0800 
@<TRIPOS>BOND
  1   1   2  2   
  2   2   3  1   
  3   2   4  1   
  4   3   5  1   
  5   4   6  1   
  6   4  16  1   
  7   4  17  1   
  8   5  18  1   
  9   5  19  1   
 10   5  20  1   
 11   6   7  2   
 12   6   8  1   
 13   8   9  ar  
 14   8  10  ar  
 15   9  11  ar  
 16  10  12  ar  
 17  10  21  1   
 18  11  13  1   
 19  11  14  ar  
 20  12  14  ar  
 21  12  22  1   
 22  13  15  1   
 23  14  23  1   
 24  15  24  1   
 25  15  25  1   
 26  15  26  1   
@<TRIPOS>SUBSTRUCTURE
  1 ****   9 GROUP 4 **** **** 0

# MOE 2024.06 (io_trps.svl 2023.06)
