@<TRIPOS>MOLECULE
NONAME
40 42 1 0 0 
SMALL
USER_CHARGES


@<TRIPOS>ATOM
  1 N        0.7300     1.2860     0.6730 N.ar  1 <1>  -0.6200 
  2 C        0.1840     2.1310    -0.1890 C.ar  1 <1>   0.2020 
  3 C       -0.0480     0.2860     1.0670 C.ar  1 <1>   0.1600 
  4 C       -1.1110     2.0190    -0.6750 C.ar  1 <1>  -0.1500 
  5 C        1.0620     3.2770    -0.6440 C.3   1 <1>   0.1080 
  6 C       -1.3490     0.0890     0.6400 C.ar  1 <1>  -0.1500 
  7 C       -1.9060     0.9740    -0.2570 C.ar  1 <1>  -0.1500 
  8 C        2.4780     2.8160    -1.0500 C.3   1 <1>   0.4720 
  9 C        1.7270     4.0180     0.5330 C.3   1 <1>   0.4720 
 10 N        3.0540     3.8830    -0.1640 N.4   1 <1>  -0.8970 
 11 C        3.5230     5.1060    -0.8400 C.3   1 <1>   0.5230 
 12 C        3.9810     6.0460     0.2420 C.2   1 <1>  -0.3320 
 13 N        5.2190     6.1050     0.7960 N.pl3 1 <1>   0.0480 
 14 C        3.2410     7.0020     0.8480 C.2   1 <1>   0.0770 
 15 C        5.1190     7.0920     1.7160 C.2   1 <1>   0.0360 
 16 C        6.4940     5.3890     0.5000 C.3   1 <1>   0.1760 
 17 N        3.9540     7.6450     1.7800 N.2   1 <1>  -0.5650 
 18 C        7.0230     5.7740    -0.8860 C.3   1 <1>  -0.2400 
 19 C        6.3470     3.8690     0.6400 C.3   1 <1>  -0.2400 
 20 H        0.3720    -0.4160     1.7690 H     1 <1>   0.1500 
 21 H       -1.5040     2.7350    -1.3750 H     1 <1>   0.1500 
 22 H        0.6130     3.9420    -1.3610 H     1 <1>   0.0000 
 23 H       -1.9170    -0.7480     1.0060 H     1 <1>   0.1500 
 24 H       -2.9160     0.8530    -0.6120 H     1 <1>   0.1500 
 25 H        2.7110     2.9820    -2.0860 H     1 <1>   0.0000 
 26 H        2.7370     1.8380    -0.6890 H     1 <1>   0.0000 
 27 H        1.7200     3.4620     1.4530 H     1 <1>   0.0000 
 28 H        1.4190     5.0430     0.6330 H     1 <1>   0.0000 
 29 H        3.7470     3.5200     0.4970 H     1 <1>   0.4500 
 30 H        2.7190     5.5540    -1.4020 H     1 <1>   0.0800 
 31 H        4.3350     4.8830    -1.5110 H     1 <1>   0.0800 
 32 H        2.2120     7.2760     0.6720 H     1 <1>   0.1500 
 33 H        5.9510     7.3870     2.3330 H     1 <1>   0.1500 
 34 H        7.2170     5.7150     1.2300 H     1 <1>   0.0800 
 35 H        6.3710     5.4380    -1.6690 H     1 <1>   0.0800 
 36 H        7.9910     5.3290    -1.0420 H     1 <1>   0.0800 
 37 H        7.1360     6.8420    -0.9540 H     1 <1>   0.0800 
 38 H        5.7770     3.4500    -0.1660 H     1 <1>   0.0800 
 39 H        5.8990     3.6210     1.5860 H     1 <1>   0.0800 
 40 H        7.3240     3.4170     0.6130 H     1 <1>   0.0800 
@<TRIPOS>BOND
  1   1   2  ar  
  2   1   3  ar  
  3   2   4  ar  
  4   2   5  1   
  5   3   6  ar  
  6   3  20  1   
  7   4   7  ar  
  8   4  21  1   
  9   5   8  1   
 10   5   9  1   
 11   5  22  1   
 12   6   7  ar  
 13   6  23  1   
 14   7  24  1   
 15   8  10  1   
 16   8  25  1   
 17   8  26  1   
 18   9  10  1   
 19   9  27  1   
 20   9  28  1   
 21  10  11  1   
 22  10  29  1   
 23  11  12  1   
 24  11  30  1   
 25  11  31  1   
 26  12  13  1   
 27  12  14  2   
 28  13  15  1   
 29  13  16  1   
 30  14  17  1   
 31  14  32  1   
 32  15  17  2   
 33  15  33  1   
 34  16  18  1   
 35  16  19  1   
 36  16  34  1   
 37  18  35  1   
 38  18  36  1   
 39  18  37  1   
 40  19  38  1   
 41  19  39  1   
 42  19  40  1   
@<TRIPOS>SUBSTRUCTURE
  1 ****  10 GROUP 4 **** **** 0

# MOE 2024.06 (io_trps.svl 2023.06)
