@<TRIPOS>MOLECULE
NONAME
52 54 1 0 0 
SMALL
USER_CHARGES


@<TRIPOS>ATOM
  1 O       -0.2900     0.5170     1.2180 O.2   1 <1>  -0.5700 
  2 C       -0.2790     1.5640     0.5990 C.2   1 <1>   0.6900 
  3 N       -1.4340     2.2860     0.4350 N.am  1 <1>  -0.6600 
  4 N        0.8790     2.0620     0.0780 N.am  1 <1>  -0.5470 
  5 C       -1.6040     3.3130    -0.6330 C.3   1 <1>   0.1400 
  6 C       -2.6370     1.9450     1.2470 C.3   1 <1>   0.1400 
  7 C        2.1710     1.5220     0.1270 C.ar  1 <1>   0.1170 
  8 C       -3.0650     3.3690    -1.0760 C.3   1 <1>  -0.1600 
  9 C       -3.5300     3.1770     1.4220 C.3   1 <1>  -0.1600 
 10 C        2.4940     0.3350    -0.5380 C.ar  1 <1>  -0.1430 
 11 C        3.1670     2.2050     0.8300 C.ar  1 <1>  -0.1430 
 12 C       -3.9850     3.8090     0.0820 C.3   1 <1>   0.2800 
 13 C        3.7890    -0.1520    -0.4880 C.ar  1 <1>  -0.1500 
 14 C        1.4530    -0.4490    -1.3290 C.3   1 <1>  -0.0970 
 15 C        4.4580     1.7040     0.8640 C.ar  1 <1>  -0.1500 
 16 C        2.8580     3.4950     1.5810 C.3   1 <1>  -0.0970 
 17 O       -3.8270     5.1970     0.2640 O.3   1 <1>  -0.5600 
 18 C       -5.4670     3.4720    -0.2280 C.3   1 <1>  -0.1600 
 19 C        4.7700     0.5290     0.2080 C.ar  1 <1>  -0.1500 
 20 C       -4.5500     6.0620    -0.5670 C.3   1 <1>   0.1200 
 21 C       -6.4360     4.5490     0.2700 C.3   1 <1>   0.2800 
 22 C       -6.0630     5.8990    -0.3480 C.3   1 <1>  -0.1600 
 23 O       -6.2760     4.6710     1.6250 O.3   1 <1>  -0.6800 
 24 C       -7.8970     4.1820     0.0310 C.3   1 <1>  -0.2400 
 25 H        0.8350     3.0590    -0.0880 H     1 <1>   0.3700 
 26 H       -0.9860     3.0640    -1.4790 H     1 <1>   0.0800 
 27 H       -1.3040     4.2750    -0.2530 H     1 <1>   0.0800 
 28 H       -2.3300     1.5840     2.2150 H     1 <1>   0.0800 
 29 H       -3.1820     1.1570     0.7550 H     1 <1>   0.0800 
 30 H       -3.3460     2.3880    -1.4150 H     1 <1>   0.0800 
 31 H       -3.1640     4.0300    -1.9160 H     1 <1>   0.0800 
 32 H       -2.9700     3.8950     1.9950 H     1 <1>   0.0800 
 33 H       -4.3780     2.8930     2.0170 H     1 <1>   0.0800 
 34 H        4.0430    -1.0680    -0.9910 H     1 <1>   0.1500 
 35 H        0.8450     0.2160    -1.9140 H     1 <1>   0.0800 
 36 H        0.8200    -0.9930    -0.6510 H     1 <1>   0.0800 
 37 H        1.9220    -1.1500    -1.9950 H     1 <1>   0.0800 
 38 H        5.2300     2.2220     1.4040 H     1 <1>   0.1500 
 39 H        2.0360     3.3370     2.2570 H     1 <1>   0.0800 
 40 H        2.6000     4.2740     0.8870 H     1 <1>   0.0800 
 41 H        3.7060     3.8190     2.1570 H     1 <1>   0.0800 
 42 H       -5.7310     2.5130     0.1810 H     1 <1>   0.0800 
 43 H       -5.5930     3.3860    -1.2920 H     1 <1>   0.0800 
 44 H        5.7730     0.1420     0.2410 H     1 <1>   0.1500 
 45 H       -4.2900     5.8550    -1.5900 H     1 <1>   0.0800 
 46 H       -4.2460     7.0680    -0.3370 H     1 <1>   0.0800 
 47 H       -6.5370     5.9970    -1.3080 H     1 <1>   0.0800 
 48 H       -6.4380     6.7010     0.2640 H     1 <1>   0.0800 
 49 H       -5.3590     4.9880     1.7710 H     1 <1>   0.4000 
 50 H       -8.0870     4.0630    -1.0200 H     1 <1>   0.0800 
 51 H       -8.5400     4.9570     0.4090 H     1 <1>   0.0800 
 52 H       -8.1340     3.2580     0.5270 H     1 <1>   0.0800 
@<TRIPOS>BOND
  1   1   2  2   
  2   2   3  am  
  3   2   4  am  
  4   3   5  1   
  5   3   6  1   
  6   4   7  1   
  7   4  25  1   
  8   5   8  1   
  9   5  26  1   
 10   5  27  1   
 11   6   9  1   
 12   6  28  1   
 13   6  29  1   
 14   7  10  ar  
 15   7  11  ar  
 16   8  12  1   
 17   8  30  1   
 18   8  31  1   
 19   9  12  1   
 20   9  32  1   
 21   9  33  1   
 22  10  13  ar  
 23  10  14  1   
 24  11  15  ar  
 25  11  16  1   
 26  12  17  1   
 27  12  18  1   
 28  13  19  ar  
 29  13  34  1   
 30  14  35  1   
 31  14  36  1   
 32  14  37  1   
 33  15  19  ar  
 34  15  38  1   
 35  16  39  1   
 36  16  40  1   
 37  16  41  1   
 38  17  20  1   
 39  18  21  1   
 40  18  42  1   
 41  18  43  1   
 42  19  44  1   
 43  20  22  1   
 44  20  45  1   
 45  20  46  1   
 46  21  22  1   
 47  21  23  1   
 48  21  24  1   
 49  22  47  1   
 50  22  48  1   
 51  23  49  1   
 52  24  50  1   
 53  24  51  1   
 54  24  52  1   
@<TRIPOS>SUBSTRUCTURE
  1 ****   3 GROUP 4 **** **** 0

# MOE 2024.06 (io_trps.svl 2023.06)
