@<TRIPOS>MOLECULE
NONAME
32 32 1 0 0 
SMALL
USER_CHARGES


@<TRIPOS>ATOM
  1 F        0.5710    -0.2050    -0.9610 F     1 <1>  -0.3400 
  2 C        0.0170     0.9980    -1.0730 C.3   1 <1>   1.0200 
  3 F       -0.0880     1.2330    -2.3770 F     1 <1>  -0.3400 
  4 F       -1.2300     0.8590    -0.6250 F     1 <1>  -0.3400 
  5 C        0.8190     2.0810    -0.3010 C.3   1 <1>   0.1100 
  6 N        0.4840     3.5370    -0.4790 N.3   1 <1>  -0.8100 
  7 C        1.3610     4.3950     0.4150 C.3   1 <1>   0.2280 
  8 C       -0.9360     3.8480    -0.2690 C.3   1 <1>   0.0300 
  9 C        1.3700     5.8280    -0.1310 C.ar  1 <1>  -0.1430 
 10 C        2.7930     3.8700     0.7560 C.2   1 <1>   0.9060 
 11 C        0.7630     6.8580     0.5720 C.ar  1 <1>  -0.1500 
 12 C        1.9790     6.1090    -1.3430 C.ar  1 <1>  -0.1500 
 13 O        3.0090     3.5020     1.9230 O.co2 1 <1>  -0.9000 
 14 O        3.6620     3.7240    -0.1200 O.co2 1 <1>  -0.9000 
 15 C        0.7540     8.1520     0.0750 C.ar  1 <1>   0.0830 
 16 C        1.9800     7.3980    -1.8490 C.ar  1 <1>  -0.1500 
 17 O        0.1310     9.0940     0.8280 O.3   1 <1>  -0.3630 
 18 C        1.3690     8.4210    -1.1460 C.ar  1 <1>  -0.1500 
 19 C        0.1260    10.4490     0.4420 C.3   1 <1>   0.0400 
 20 H        1.8420     1.9430    -0.6050 H     1 <1>   0.0800 
 21 H        0.7650     1.8370     0.7450 H     1 <1>   0.0800 
 22 H        0.8820     4.4290     1.3760 H     1 <1>   0.0800 
 23 H       -1.5390     3.3430    -1.0030 H     1 <1>   0.0800 
 24 H       -1.1010     4.9050    -0.3830 H     1 <1>   0.0800 
 25 H       -1.2450     3.5490     0.7180 H     1 <1>   0.0800 
 26 H        0.2900     6.6640     1.5160 H     1 <1>   0.1500 
 27 H        2.4560     5.3070    -1.8830 H     1 <1>   0.1500 
 28 H        2.4610     7.5940    -2.7900 H     1 <1>   0.1500 
 29 H        1.3840     9.4090    -1.5610 H     1 <1>   0.1500 
 30 H       -0.3970    11.0090     1.1970 H     1 <1>   0.0800 
 31 H       -0.3840    10.5400    -0.5010 H     1 <1>   0.0800 
 32 H        1.1420    10.7940     0.3680 H     1 <1>   0.0800 
@<TRIPOS>BOND
  1   1   2  1   
  2   2   3  1   
  3   2   4  1   
  4   2   5  1   
  5   5   6  1   
  6   5  20  1   
  7   5  21  1   
  8   6   7  1   
  9   6   8  1   
 10   7   9  1   
 11   7  10  1   
 12   7  22  1   
 13   8  23  1   
 14   8  24  1   
 15   8  25  1   
 16   9  11  ar  
 17   9  12  ar  
 18  10  13  ar  
 19  10  14  ar  
 20  11  15  ar  
 21  11  26  1   
 22  12  16  ar  
 23  12  27  1   
 24  15  17  1   
 25  15  18  ar  
 26  16  18  ar  
 27  16  28  1   
 28  17  19  1   
 29  18  29  1   
 30  19  30  1   
 31  19  31  1   
 32  19  32  1   
@<TRIPOS>SUBSTRUCTURE
  1 ****   7 GROUP 4 **** **** 0

# MOE 2024.06 (io_trps.svl 2023.06)
