@<TRIPOS>MOLECULE
NONAME
56 58 1 0 0 
SMALL
USER_CHARGES


@<TRIPOS>ATOM
  1 O       -0.6450     0.3740    -0.6510 O.2   1 <1>  -0.5700 
  2 C       -1.6370     1.0730    -0.5640 C.2   1 <1>   0.5440 
  3 N       -2.8750     0.4760    -0.4480 N.am  1 <1>  -0.6600 
  4 C       -1.4830     2.5150    -0.5840 C.ar  1 <1>   0.0860 
  5 C       -3.0240    -1.0120    -0.6020 C.3   1 <1>   0.1400 
  6 C       -4.1100     1.2210    -0.0490 C.3   1 <1>   0.1400 
  7 C       -2.1610     3.3110    -1.5100 C.ar  1 <1>  -0.1500 
  8 C       -0.6400     3.1550     0.3240 C.ar  1 <1>  -0.1500 
  9 C       -4.4750    -1.3500    -0.9640 C.3   1 <1>   0.2000 
 10 C       -4.9990     0.3460     0.8410 C.3   1 <1>  -0.1600 
 11 C       -2.0120     4.6850    -1.5220 C.ar  1 <1>  -0.1500 
 12 C       -0.4860     4.5290     0.3210 C.ar  1 <1>  -0.1500 
 13 O       -4.5720    -2.6730    -1.3560 O.3   1 <1>  -0.6800 
 14 C       -5.4650    -1.0030     0.1910 C.3   1 <1>  -0.1060 
 15 C       -1.1710     5.3030    -0.6100 C.ar  1 <1>   0.0830 
 16 C       -5.4860    -2.0990     1.2910 C.2   1 <1>   0.9060 
 17 C       -6.8740    -0.8420    -0.4590 C.3   1 <1>  -0.1600 
 18 O       -1.0600     6.6510    -0.6570 O.3   1 <1>  -0.1650 
 19 O       -5.1860    -3.2710     1.0130 O.co2 1 <1>  -0.9000 
 20 O       -5.8100    -1.7950     2.4460 O.co2 1 <1>  -0.9000 
 21 C       -8.0520    -0.6780     0.5190 C.3   1 <1>  -0.1600 
 22 C        0.0760     7.2970    -0.2910 C.ar  1 <1>   0.0830 
 23 C       -9.3680    -0.4710    -0.2370 C.3   1 <1>  -0.2400 
 24 C        1.3280     6.8550    -0.7040 C.ar  1 <1>  -0.1500 
 25 C       -0.0330     8.4310     0.4970 C.ar  1 <1>  -0.1500 
 26 C        2.4680     7.5390    -0.3160 C.ar  1 <1>  -0.1500 
 27 C        1.1070     9.1130     0.8850 C.ar  1 <1>  -0.1500 
 28 C        2.3600     8.6740     0.4850 C.ar  1 <1>   0.0830 
 29 O        3.4250     9.4010     0.9120 O.3   1 <1>  -0.3620 
 30 C        4.7410     9.0540     0.5420 C.3   1 <1>   0.0400 
 31 H       -2.3700    -1.3590    -1.3820 H     1 <1>   0.0800 
 32 H       -2.7570    -1.4960     0.3220 H     1 <1>   0.0800 
 33 H       -3.8440     2.1120     0.4940 H     1 <1>   0.0800 
 34 H       -4.6540     1.5080    -0.9330 H     1 <1>   0.0800 
 35 H       -2.8060     2.8350    -2.2270 H     1 <1>   0.1500 
 36 H       -0.1040     2.5540     1.0380 H     1 <1>   0.1500 
 37 H       -4.7200    -0.7740    -1.8390 H     1 <1>   0.0800 
 38 H       -4.4200     0.1340     1.7240 H     1 <1>   0.0800 
 39 H       -5.8410     0.9200     1.1740 H     1 <1>   0.0800 
 40 H       -2.5420     5.2870    -2.2400 H     1 <1>   0.1500 
 41 H        0.1620     4.9950     1.0420 H     1 <1>   0.1500 
 42 H       -4.7710    -3.1860    -0.5080 H     1 <1>   0.4000 
 43 H       -6.8560    -0.0030    -1.1310 H     1 <1>   0.0800 
 44 H       -7.0700    -1.7220    -1.0490 H     1 <1>   0.0800 
 45 H       -8.1370    -1.5610     1.1310 H     1 <1>   0.0800 
 46 H       -7.8910     0.1540     1.1790 H     1 <1>   0.0800 
 47 H       -9.5660    -1.3140    -0.8760 H     1 <1>   0.0800 
 48 H       -9.3220     0.4200    -0.8360 H     1 <1>   0.0800 
 49 H      -10.1790    -0.3750     0.4630 H     1 <1>   0.0800 
 50 H        1.4090     5.9840    -1.3300 H     1 <1>   0.1500 
 51 H       -1.0040     8.7720     0.8050 H     1 <1>   0.1500 
 52 H        3.4220     7.1760    -0.6460 H     1 <1>   0.1500 
 53 H        1.0330     9.9920     1.4990 H     1 <1>   0.1500 
 54 H        5.4110     9.7690     0.9850 H     1 <1>   0.0800 
 55 H        4.8230     9.0920    -0.5300 H     1 <1>   0.0800 
 56 H        4.9600     8.0690     0.9130 H     1 <1>   0.0800 
@<TRIPOS>BOND
  1   1   2  2   
  2   2   3  am  
  3   2   4  1   
  4   3   5  1   
  5   3   6  1   
  6   4   7  ar  
  7   4   8  ar  
  8   5   9  1   
  9   5  31  1   
 10   5  32  1   
 11   6  10  1   
 12   6  33  1   
 13   6  34  1   
 14   7  11  ar  
 15   7  35  1   
 16   8  12  ar  
 17   8  36  1   
 18   9  13  1   
 19   9  14  1   
 20   9  37  1   
 21  10  14  1   
 22  10  38  1   
 23  10  39  1   
 24  11  15  ar  
 25  11  40  1   
 26  12  15  ar  
 27  12  41  1   
 28  13  42  1   
 29  14  16  1   
 30  14  17  1   
 31  15  18  1   
 32  16  19  ar  
 33  16  20  ar  
 34  17  21  1   
 35  17  43  1   
 36  17  44  1   
 37  18  22  1   
 38  21  23  1   
 39  21  45  1   
 40  21  46  1   
 41  22  24  ar  
 42  22  25  ar  
 43  23  47  1   
 44  23  48  1   
 45  23  49  1   
 46  24  26  ar  
 47  24  50  1   
 48  25  27  ar  
 49  25  51  1   
 50  26  28  ar  
 51  26  52  1   
 52  27  28  ar  
 53  27  53  1   
 54  28  29  1   
 55  29  30  1   
 56  30  54  1   
 57  30  55  1   
 58  30  56  1   
@<TRIPOS>SUBSTRUCTURE
  1 ****   4 GROUP 4 **** **** 0

# MOE 2024.06 (io_trps.svl 2023.06)
