@<TRIPOS>MOLECULE
NONAME
61 64 1 0 0 
SMALL
USER_CHARGES


@<TRIPOS>ATOM
  1 S        0.4070     0.1570     0.7570 S.o2  1 <1>   1.3330 
  2 O        1.5070     0.6600     1.5500 O.2   1 <1>  -0.6500 
  3 O        0.6850    -0.6580    -0.4040 O.2   1 <1>  -0.6500 
  4 N       -0.6230    -0.7140     1.7870 N.am  1 <1>  -0.8490 
  5 C       -0.6100     1.5320     0.2210 C.3   1 <1>  -0.0550 
  6 C       -0.7070    -0.1520     3.1390 C.3   1 <1>   0.1160 
  7 C       -0.2610    -2.1330     1.8580 C.3   1 <1>   0.1160 
  8 C        0.0960     2.4330    -0.8130 C.3   1 <1>  -0.0800 
  9 C       -0.7820     3.5340    -1.4100 C.3   1 <1>   0.2000 
 10 C        1.3260     3.1780    -0.2600 C.3   1 <1>   0.1100 
 11 O       -1.5590     4.0870    -0.4080 O.3   1 <1>  -0.6800 
 12 C        0.2490     4.5830    -1.8040 C.3   1 <1>   0.1100 
 13 N        1.1770     4.5870    -0.6630 N.3   1 <1>  -0.8100 
 14 C        2.4470     5.2880    -0.9040 C.3   1 <1>   0.2530 
 15 C        2.5130     6.5960    -0.1100 C.ar  1 <1>  -0.1440 
 16 C        3.7730     7.0680     0.3750 C.ar  1 <1>   0.4610 
 17 C        1.3680     7.2740     0.2020 C.ar  1 <1>  -0.1500 
 18 N        3.7460     8.0910     1.2340 N.ar  1 <1>  -0.1790 
 19 N        4.9900     6.6000     0.0130 N.pl3 1 <1>  -0.8380 
 20 C        1.3880     8.4140     1.0460 C.ar  1 <1>   0.0000 
 21 C        2.6180     8.8040     1.5920 C.ar  1 <1>   0.3610 
 22 C        5.3440     6.1470    -1.3810 C.3   1 <1>   0.2090 
 23 C        6.1830     6.4680     0.9280 C.3   1 <1>   0.2090 
 24 C        0.2410     9.1490     1.3740 C.ar  1 <1>  -0.1500 
 25 C        2.6780     9.9020     2.4570 C.ar  1 <1>  -0.1500 
 26 C        6.6500     6.7990    -1.8710 C.3   1 <1>   0.1200 
 27 C        7.4420     7.1120     0.3170 C.3   1 <1>   0.1200 
 28 C        0.3150    10.2270     2.2210 C.ar  1 <1>  -0.1500 
 29 C        1.5390    10.6070     2.7680 C.ar  1 <1>  -0.1500 
 30 O        7.6850     6.5920    -0.9540 O.3   1 <1>  -0.5600 
 31 H       -1.5070     1.1440    -0.2200 H     1 <1>   0.0800 
 32 H       -0.8940     2.1170     1.0730 H     1 <1>   0.0800 
 33 H       -1.4340    -0.6930     3.7190 H     1 <1>   0.0800 
 34 H       -1.0090     0.8800     3.0940 H     1 <1>   0.0800 
 35 H        0.2500    -0.2110     3.6320 H     1 <1>   0.0800 
 36 H       -0.9430    -2.6600     2.5030 H     1 <1>   0.0800 
 37 H        0.7430    -2.2450     2.2340 H     1 <1>   0.0800 
 38 H       -0.3150    -2.5770     0.8780 H     1 <1>   0.0800 
 39 H        0.4330     1.8110    -1.6240 H     1 <1>   0.0800 
 40 H       -1.4160     3.2070    -2.2170 H     1 <1>   0.0800 
 41 H        2.2210     2.7410    -0.6720 H     1 <1>   0.0800 
 42 H        1.3760     3.1240     0.8150 H     1 <1>   0.0800 
 43 H       -0.9360     4.5420     0.1980 H     1 <1>   0.4000 
 44 H       -0.2030     5.5470    -1.9650 H     1 <1>   0.0800 
 45 H        0.7580     4.2680    -2.6990 H     1 <1>   0.0800 
 46 H        3.2560     4.6540    -0.5840 H     1 <1>   0.0800 
 47 H        2.5690     5.4850    -1.9550 H     1 <1>   0.0800 
 48 H        0.4040     6.9520    -0.1530 H     1 <1>   0.1500 
 49 H        4.6440     8.4240     1.5590 H     1 <1>   0.4570 
 50 H        5.4640     5.0760    -1.3960 H     1 <1>   0.0800 
 51 H        4.5650     6.4130    -2.0730 H     1 <1>   0.0800 
 52 H        5.9880     6.8970     1.8940 H     1 <1>   0.0800 
 53 H        6.3860     5.4210     1.0830 H     1 <1>   0.0800 
 54 H       -0.7090     8.8580     0.9560 H     1 <1>   0.1500 
 55 H        3.6160    10.2070     2.8850 H     1 <1>   0.1500 
 56 H        6.5210     7.8580    -2.0120 H     1 <1>   0.0800 
 57 H        6.9530     6.3640    -2.8080 H     1 <1>   0.0800 
 58 H        8.3030     6.8950     0.9260 H     1 <1>   0.0800 
 59 H        7.3360     8.1800     0.2380 H     1 <1>   0.0800 
 60 H       -0.5720    10.7880     2.4700 H     1 <1>   0.1500 
 61 H        1.5750    11.4550     3.4330 H     1 <1>   0.1500 
@<TRIPOS>BOND
  1   1   2  2   
  2   1   3  2   
  3   1   4  am  
  4   1   5  1   
  5   4   6  1   
  6   4   7  1   
  7   5   8  1   
  8   5  31  1   
  9   5  32  1   
 10   6  33  1   
 11   6  34  1   
 12   6  35  1   
 13   7  36  1   
 14   7  37  1   
 15   7  38  1   
 16   8   9  1   
 17   8  10  1   
 18   8  39  1   
 19   9  11  1   
 20   9  12  1   
 21   9  40  1   
 22  10  13  1   
 23  10  41  1   
 24  10  42  1   
 25  11  43  1   
 26  12  13  1   
 27  12  44  1   
 28  12  45  1   
 29  13  14  1   
 30  14  15  1   
 31  14  46  1   
 32  14  47  1   
 33  15  16  ar  
 34  15  17  ar  
 35  16  18  ar  
 36  16  19  1   
 37  17  20  ar  
 38  17  48  1   
 39  18  21  ar  
 40  18  49  1   
 41  19  22  1   
 42  19  23  1   
 43  20  21  ar  
 44  20  24  ar  
 45  21  25  ar  
 46  22  26  1   
 47  22  50  1   
 48  22  51  1   
 49  23  27  1   
 50  23  52  1   
 51  23  53  1   
 52  24  28  ar  
 53  24  54  1   
 54  25  29  ar  
 55  25  55  1   
 56  26  30  1   
 57  26  56  1   
 58  26  57  1   
 59  27  30  1   
 60  27  58  1   
 61  27  59  1   
 62  28  29  ar  
 63  28  60  1   
 64  29  61  1   
@<TRIPOS>SUBSTRUCTURE
  1 ****  14 GROUP 4 **** **** 0

# MOE 2024.06 (io_trps.svl 2023.06)
