@<TRIPOS>MOLECULE
NONAME
56 60 1 0 0 
SMALL
USER_CHARGES


@<TRIPOS>ATOM
  1 S       -1.7830     1.6740    -1.3030 S.3   1 <1>  -0.0800 
  2 C       -0.7570     2.8820    -0.5590 C.2   1 <1>  -0.1400 
  3 C       -0.3860     0.9310    -2.0660 C.2   1 <1>  -0.1100 
  4 C        0.5320     2.7060    -0.8710 C.2   1 <1>  -0.1810 
  5 C       -1.3040     3.9740     0.3170 C.3   1 <1>   0.0200 
  6 C        0.7470     1.5850    -1.7440 C.2   1 <1>  -0.1500 
  7 C        1.6090     3.6320    -0.3100 C.3   1 <1>   0.4610 
  8 C       -0.2330     5.0740     0.3810 C.3   1 <1>   0.1200 
  9 O        1.0510     4.5370     0.6330 O.3   1 <1>  -0.5600 
 10 C        2.6570     2.8220     0.4570 C.3   1 <1>  -0.1600 
 11 C        2.3040     4.4470    -1.4120 C.3   1 <1>  -0.1600 
 12 C        3.7330     3.7020     1.1020 C.3   1 <1>   0.3430 
 13 C        3.6470     5.0430    -0.9750 C.3   1 <1>   0.3430 
 14 N        3.7410     5.0760     0.5150 N.4   1 <1>  -0.9590 
 15 C        4.8230     5.9340     1.0770 C.3   1 <1>   0.4230 
 16 C        4.4850     7.4130     0.8410 C.3   1 <1>  -0.1600 
 17 C        6.2000     5.5490     0.5160 C.3   1 <1>  -0.1600 
 18 C        5.6040     8.3230     1.3550 C.3   1 <1>   0.1400 
 19 C        7.2780     6.4980     1.0360 C.3   1 <1>   0.1400 
 20 N        6.8710     7.8900     0.7220 N.am  1 <1>  -0.6600 
 21 C        7.3710     8.5240    -0.3960 C.2   1 <1>   0.5440 
 22 O        7.7220     7.8320    -1.3330 O.2   1 <1>  -0.5700 
 23 C        7.4450     9.9710    -0.4930 C.ar  1 <1>   0.0860 
 24 C        7.3000    10.6380    -1.7010 C.ar  1 <1>  -0.1500 
 25 C        7.6740    10.7940     0.6010 C.ar  1 <1>  -0.1500 
 26 C        7.3650    12.0170    -1.7520 C.ar  1 <1>   0.1600 
 27 C        7.7210    12.1660     0.4470 C.ar  1 <1>   0.1600 
 28 N        7.5640    12.7970    -0.7040 N.ar  1 <1>  -0.6200 
 29 H       -0.5660     0.0690    -2.6850 H     1 <1>   0.1500 
 30 H       -1.5140     3.5910     1.2990 H     1 <1>   0.0800 
 31 H       -2.2120     4.3720    -0.1010 H     1 <1>   0.0800 
 32 H        1.7280     1.3140    -2.0920 H     1 <1>   0.1500 
 33 H       -0.4660     5.7660     1.1710 H     1 <1>   0.0800 
 34 H       -0.2040     5.6110    -0.5500 H     1 <1>   0.0800 
 35 H        3.1360     2.1340    -0.2160 H     1 <1>   0.0800 
 36 H        2.1720     2.2310     1.2120 H     1 <1>   0.0800 
 37 H        1.6520     5.2240    -1.7640 H     1 <1>   0.0800 
 38 H        2.4940     3.8090    -2.2560 H     1 <1>   0.0800 
 39 H        4.6960     3.2340     0.9770 H     1 <1>   0.0800 
 40 H        3.5310     3.7750     2.1590 H     1 <1>   0.0800 
 41 H        3.7450     6.0350    -1.3850 H     1 <1>   0.0800 
 42 H        4.4500     4.4410    -1.3680 H     1 <1>   0.0800 
 43 H        2.8330     5.4710     0.8240 H     1 <1>   0.4500 
 44 H        4.8560     5.7850     2.1450 H     1 <1>   0.0800 
 45 H        3.5740     7.6660     1.3510 H     1 <1>   0.0800 
 46 H        4.3590     7.6150    -0.2070 H     1 <1>   0.0800 
 47 H        6.2150     5.6090    -0.5580 H     1 <1>   0.0800 
 48 H        6.4610     4.5480     0.8060 H     1 <1>   0.0800 
 49 H        5.6960     8.2510     2.4260 H     1 <1>   0.0800 
 50 H        5.3830     9.3460     1.1020 H     1 <1>   0.0800 
 51 H        8.2240     6.2760     0.5670 H     1 <1>   0.0800 
 52 H        7.4020     6.3930     2.1010 H     1 <1>   0.0800 
 53 H        7.1410    10.0750    -2.6030 H     1 <1>   0.1500 
 54 H        7.8220    10.3630     1.5740 H     1 <1>   0.1500 
 55 H        7.2470    12.5060    -2.7050 H     1 <1>   0.1500 
 56 H        7.8990    12.7810     1.3140 H     1 <1>   0.1500 
@<TRIPOS>BOND
  1   1   2  1   
  2   1   3  1   
  3   2   4  2   
  4   2   5  1   
  5   3   6  2   
  6   3  29  1   
  7   4   6  1   
  8   4   7  1   
  9   5   8  1   
 10   5  30  1   
 11   5  31  1   
 12   6  32  1   
 13   7   9  1   
 14   7  10  1   
 15   7  11  1   
 16   8   9  1   
 17   8  33  1   
 18   8  34  1   
 19  10  12  1   
 20  10  35  1   
 21  10  36  1   
 22  11  13  1   
 23  11  37  1   
 24  11  38  1   
 25  12  14  1   
 26  12  39  1   
 27  12  40  1   
 28  13  14  1   
 29  13  41  1   
 30  13  42  1   
 31  14  15  1   
 32  14  43  1   
 33  15  16  1   
 34  15  17  1   
 35  15  44  1   
 36  16  18  1   
 37  16  45  1   
 38  16  46  1   
 39  17  19  1   
 40  17  47  1   
 41  17  48  1   
 42  18  20  1   
 43  18  49  1   
 44  18  50  1   
 45  19  20  1   
 46  19  51  1   
 47  19  52  1   
 48  20  21  am  
 49  21  22  2   
 50  21  23  1   
 51  23  24  ar  
 52  23  25  ar  
 53  24  26  ar  
 54  24  53  1   
 55  25  27  ar  
 56  25  54  1   
 57  26  28  ar  
 58  26  55  1   
 59  27  28  ar  
 60  27  56  1   
@<TRIPOS>SUBSTRUCTURE
  1 ****  14 GROUP 4 **** **** 0

# MOE 2024.06 (io_trps.svl 2023.06)
