@<TRIPOS>MOLECULE
NONAME
45 46 1 0 0 
SMALL
USER_CHARGES


@<TRIPOS>ATOM
  1 CL      -1.6220    -0.5500     3.3630 Cl    1 <1>  -0.1770 
  2 C       -2.6440    -1.1100     2.0660 C.ar  1 <1>   0.1770 
  3 C       -2.6980    -0.3980     0.8850 C.ar  1 <1>  -0.1500 
  4 C       -3.3830    -2.2610     2.2320 C.ar  1 <1>  -0.1500 
  5 C       -3.5110    -0.8350    -0.1520 C.ar  1 <1>  -0.1440 
  6 C       -4.1930    -2.6920     1.1970 C.ar  1 <1>  -0.1500 
  7 C       -4.2900    -1.9900    -0.0060 C.ar  1 <1>  -0.0090 
  8 C       -3.5180    -0.0250    -1.4430 C.3   1 <1>  -0.0960 
  9 S       -5.3800    -2.6150    -1.3340 S.o2  1 <1>   1.4470 
 10 O       -6.1260    -1.5280    -1.9360 O.2   1 <1>  -0.6500 
 11 O       -4.5950    -3.4760    -2.1920 O.2   1 <1>  -0.6500 
 12 N       -6.5090    -3.5830    -0.5210 N.am  1 <1>  -0.8490 
 13 C       -7.1370    -4.5760    -1.4170 C.3   1 <1>   0.1960 
 14 C       -7.5250    -2.7900     0.1820 C.3   1 <1>   0.1960 
 15 C       -8.0920    -5.5070    -0.6500 C.3   1 <1>   0.2000 
 16 C       -8.4290    -3.7050     1.0110 C.3   1 <1>  -0.1600 
 17 O       -8.6800    -6.3940    -1.5370 O.3   1 <1>  -0.6800 
 18 C       -9.1840    -4.7510     0.1450 C.3   1 <1>  -0.1060 
 19 C       -9.8960    -5.7920     1.0290 C.2   1 <1>   0.9060 
 20 C      -10.2200    -4.0660    -0.8070 C.3   1 <1>  -0.1600 
 21 O      -10.0510    -5.5760     2.2360 O.co2 1 <1>  -0.9000 
 22 O      -10.2920    -6.8440     0.5010 O.co2 1 <1>  -0.9000 
 23 C      -11.3070    -3.2430    -0.0960 C.3   1 <1>  -0.1600 
 24 C      -12.3500    -2.7340    -1.0950 C.3   1 <1>  -0.2400 
 25 H       -2.1010     0.4910     0.7890 H     1 <1>   0.1500 
 26 H       -3.3240    -2.8090     3.1550 H     1 <1>   0.1500 
 27 H       -4.7600    -3.5990     1.3330 H     1 <1>   0.1500 
 28 H       -2.7270     0.7040    -1.4470 H     1 <1>   0.0800 
 29 H       -4.4530     0.4960    -1.5500 H     1 <1>   0.0800 
 30 H       -3.3770    -0.6670    -2.2950 H     1 <1>   0.0800 
 31 H       -7.6730    -4.0700    -2.2010 H     1 <1>   0.0800 
 32 H       -6.3730    -5.1860    -1.8670 H     1 <1>   0.0800 
 33 H       -7.0430    -2.0900     0.8440 H     1 <1>   0.0800 
 34 H       -8.1140    -2.2270    -0.5220 H     1 <1>   0.0800 
 35 H       -7.5100    -6.1000     0.0360 H     1 <1>   0.0800 
 36 H       -7.8170    -4.2220     1.7310 H     1 <1>   0.0800 
 37 H       -9.1250    -3.1180     1.5790 H     1 <1>   0.0800 
 38 H       -9.3990    -6.8460    -1.0040 H     1 <1>   0.4000 
 39 H       -9.7210    -3.4370    -1.5200 H     1 <1>   0.0800 
 40 H      -10.7160    -4.8400    -1.3690 H     1 <1>   0.0800 
 41 H      -11.7970    -3.8540     0.6450 H     1 <1>   0.0800 
 42 H      -10.8710    -2.3990     0.4060 H     1 <1>   0.0800 
 43 H      -12.8280    -3.5630    -1.5860 H     1 <1>   0.0800 
 44 H      -11.8850    -2.1090    -1.8370 H     1 <1>   0.0800 
 45 H      -13.1010    -2.1610    -0.5810 H     1 <1>   0.0800 
@<TRIPOS>BOND
  1   1   2  1   
  2   2   3  ar  
  3   2   4  ar  
  4   3   5  ar  
  5   3  25  1   
  6   4   6  ar  
  7   4  26  1   
  8   5   7  ar  
  9   5   8  1   
 10   6   7  ar  
 11   6  27  1   
 12   7   9  1   
 13   8  28  1   
 14   8  29  1   
 15   8  30  1   
 16   9  10  2   
 17   9  11  2   
 18   9  12  am  
 19  12  13  1   
 20  12  14  1   
 21  13  15  1   
 22  13  31  1   
 23  13  32  1   
 24  14  16  1   
 25  14  33  1   
 26  14  34  1   
 27  15  17  1   
 28  15  18  1   
 29  15  35  1   
 30  16  18  1   
 31  16  36  1   
 32  16  37  1   
 33  17  38  1   
 34  18  19  1   
 35  18  20  1   
 36  19  21  ar  
 37  19  22  ar  
 38  20  23  1   
 39  20  39  1   
 40  20  40  1   
 41  23  24  1   
 42  23  41  1   
 43  23  42  1   
 44  24  43  1   
 45  24  44  1   
 46  24  45  1   
@<TRIPOS>SUBSTRUCTURE
  1 ****  12 GROUP 4 **** **** 0

# MOE 2024.06 (io_trps.svl 2023.06)
