@<TRIPOS>MOLECULE
NONAME
39 41 1 0 0 
SMALL
USER_CHARGES


@<TRIPOS>ATOM
  1 C       -0.3910     0.6020    -1.3420 C.2   1 <1>  -0.2540 
  2 C        0.5110     1.0220    -0.4710 C.2   1 <1>  -0.2880 
  3 C       -1.8820     0.6710    -0.9540 C.3   1 <1>   0.1160 
  4 C       -0.0670     0.0580    -2.7220 C.3   1 <1>  -0.1020 
  5 C       -0.0180     1.5230     0.8330 C.3   1 <1>  -0.0220 
  6 C       -2.4800     2.0760    -0.2800 C.3   1 <1>   0.0000 
  7 C       -2.3830     0.1330     0.3350 C.3   1 <1>   0.0000 
  8 C       -1.5680     1.4260     0.8280 C.3   1 <1>   0.0000 
  9 C       -3.3260     2.2910    -1.5220 C.3   1 <1>  -0.1600 
 10 C       -2.8020     3.3550     0.5780 C.3   1 <1>  -0.2400 
 11 C       -3.9620     0.0870    -0.0280 C.3   1 <1>  -0.0800 
 12 C       -4.4580     1.2820    -1.0200 C.3   1 <1>  -0.1600 
 13 C       -4.9080    -0.1710     1.1720 C.3   1 <1>  -0.0800 
 14 C       -4.9440     0.9560     2.2110 C.3   1 <1>  -0.2400 
 15 C       -4.5550    -1.4870     1.8790 C.3   1 <1>  -0.2400 
 16 H        1.5800     1.0380    -0.6000 H     1 <1>   0.1500 
 17 H       -2.3870     0.1500    -1.7580 H     1 <1>   0.0000 
 18 H       -0.5380     0.6620    -3.4760 H     1 <1>   0.0800 
 19 H       -0.4210    -0.9540    -2.8120 H     1 <1>   0.0800 
 20 H        0.9950     0.0660    -2.8890 H     1 <1>   0.0800 
 21 H        0.2830     2.5440     0.9860 H     1 <1>   0.0800 
 22 H        0.3750     0.9220     1.6330 H     1 <1>   0.0800 
 23 H       -1.9380    -0.8130     0.5880 H     1 <1>   0.0000 
 24 H       -1.8850     1.6000     1.8430 H     1 <1>   0.0000 
 25 H       -3.7600     3.2620    -1.6760 H     1 <1>   0.0800 
 26 H       -2.8870     2.0350    -2.4750 H     1 <1>   0.0800 
 27 H       -3.3750     4.1200     0.0910 H     1 <1>   0.0800 
 28 H       -1.8880     3.8410     0.8750 H     1 <1>   0.0800 
 29 H       -3.3530     3.1090     1.4660 H     1 <1>   0.0800 
 30 H       -4.0640    -0.8030    -0.6270 H     1 <1>   0.0800 
 31 H       -4.9520     0.8550    -1.8760 H     1 <1>   0.0800 
 32 H       -5.2020     1.8640    -0.5060 H     1 <1>   0.0800 
 33 H       -5.9040    -0.2770     0.7760 H     1 <1>   0.0800 
 34 H       -3.9770     1.0930     2.6590 H     1 <1>   0.0800 
 35 H       -5.6430     0.7150     2.9910 H     1 <1>   0.0800 
 36 H       -5.2600     1.8790     1.7640 H     1 <1>   0.0800 
 37 H       -3.5880    -1.4250     2.3460 H     1 <1>   0.0800 
 38 H       -4.5450    -2.3020     1.1770 H     1 <1>   0.0800 
 39 H       -5.2840    -1.7090     2.6380 H     1 <1>   0.0800 
@<TRIPOS>BOND
  1   1   2  2   
  2   1   3  1   
  3   1   4  1   
  4   2   5  1   
  5   2  16  1   
  6   3   6  1   
  7   3   7  1   
  8   3  17  1   
  9   4  18  1   
 10   4  19  1   
 11   4  20  1   
 12   5   8  1   
 13   5  21  1   
 14   5  22  1   
 15   6   8  1   
 16   6   9  1   
 17   6  10  1   
 18   7   8  1   
 19   7  11  1   
 20   7  23  1   
 21   8  24  1   
 22   9  12  1   
 23   9  25  1   
 24   9  26  1   
 25  10  27  1   
 26  10  28  1   
 27  10  29  1   
 28  11  12  1   
 29  11  13  1   
 30  11  30  1   
 31  12  31  1   
 32  12  32  1   
 33  13  14  1   
 34  13  15  1   
 35  13  33  1   
 36  14  34  1   
 37  14  35  1   
 38  14  36  1   
 39  15  37  1   
 40  15  38  1   
 41  15  39  1   
@<TRIPOS>SUBSTRUCTURE
  1 ****   7 GROUP 4 **** **** 0

# MOE 2024.06 (io_trps.svl 2023.06)
