@<TRIPOS>MOLECULE
NONAME
62 66 1 0 0 
SMALL
USER_CHARGES


@<TRIPOS>ATOM
  1 O       -0.3500     1.0670     1.4620 O.2   1 <1>  -0.5700 
  2 C       -1.2150     1.2850     0.6440 C.2   1 <1>   0.5690 
  3 N       -2.1310     0.2920     0.3530 N.am  1 <1>  -0.6600 
  4 C       -1.2230     2.6680    -0.0490 C.3   1 <1>   0.0610 
  5 C       -2.1460    -0.9780     1.1480 C.3   1 <1>   0.1400 
  6 C       -3.1040     0.2330    -0.7820 C.3   1 <1>   0.1400 
  7 C       -0.4270     3.7520     0.7340 C.3   1 <1>   0.2200 
  8 C       -2.6280     3.3500    -0.0970 C.3   1 <1>  -0.1600 
  9 C       -0.6430     2.5330    -1.4870 C.3   1 <1>  -0.0170 
 10 C       -3.5820    -1.3560     1.5440 C.3   1 <1>   0.1200 
 11 C       -4.4940    -0.1940    -0.2810 C.3   1 <1>   0.1200 
 12 N       -1.0200     4.9670     0.1750 N.am  1 <1>  -0.6600 
 13 C       -0.8980     3.9300     2.1940 C.3   1 <1>  -0.1600 
 14 C       -2.4080     4.7360     0.5250 C.3   1 <1>   0.2200 
 15 C        0.7710     1.9660    -1.5520 C.ar  1 <1>  -0.1440 
 16 O       -4.4130    -1.4020     0.4170 O.3   1 <1>  -0.5600 
 17 C       -0.3730     6.0110    -0.4200 C.2   1 <1>   0.5690 
 18 C       -2.2820     4.5850     2.0420 C.3   1 <1>  -0.1600 
 19 C        1.8610     2.8190    -1.6470 C.ar  1 <1>  -0.1500 
 20 C        0.9880     0.5960    -1.5330 C.ar  1 <1>  -0.1500 
 21 O        0.8240     5.9890    -0.5820 O.2   1 <1>  -0.5700 
 22 C       -1.1780     7.2190    -0.9070 C.3   1 <1>  -0.0190 
 23 C        3.1460     2.3130    -1.7160 C.ar  1 <1>  -0.1500 
 24 C        2.2730     0.0870    -1.6020 C.ar  1 <1>  -0.1500 
 25 C       -1.8650     6.9260    -2.2520 C.3   1 <1>  -0.1600 
 26 C       -0.3330     8.5000    -1.0500 C.3   1 <1>  -0.1600 
 27 C        3.3550     0.9450    -1.6930 C.ar  1 <1>  -0.1500 
 28 C       -2.6120     8.1620    -2.7620 C.3   1 <1>   0.1200 
 29 C       -1.1700     9.6430    -1.6330 C.3   1 <1>   0.1200 
 30 O       -1.7290     9.2360    -2.8440 O.3   1 <1>  -0.5600 
 31 H       -1.7180    -1.7700     0.5600 H     1 <1>   0.0800 
 32 H       -1.5570    -0.8790     2.0430 H     1 <1>   0.0800 
 33 H       -3.1880     1.1720    -1.2870 H     1 <1>   0.0800 
 34 H       -2.7590    -0.4920    -1.4990 H     1 <1>   0.0800 
 35 H        0.6430     3.6930     0.6290 H     1 <1>   0.0800 
 36 H       -3.3680     2.8060     0.4630 H     1 <1>   0.0800 
 37 H       -2.9790     3.4680    -1.1070 H     1 <1>   0.0800 
 38 H       -1.2730     1.8980    -2.0790 H     1 <1>   0.0800 
 39 H       -0.6440     3.4920    -1.9740 H     1 <1>   0.0800 
 40 H       -3.9830    -0.6400     2.2400 H     1 <1>   0.0800 
 41 H       -3.5960    -2.3290     2.0020 H     1 <1>   0.0800 
 42 H       -5.1600    -0.3420    -1.1120 H     1 <1>   0.0800 
 43 H       -4.9110     0.5540     0.3710 H     1 <1>   0.0800 
 44 H       -0.9420     3.0180     2.7570 H     1 <1>   0.0800 
 45 H       -0.2220     4.5990     2.6980 H     1 <1>   0.0800 
 46 H       -3.0990     5.4950     0.2020 H     1 <1>   0.0800 
 47 H       -2.2960     5.5520     2.5130 H     1 <1>   0.0800 
 48 H       -3.0690     3.9790     2.4550 H     1 <1>   0.0800 
 49 H        1.7170     3.8860    -1.6670 H     1 <1>   0.1500 
 50 H        0.1590    -0.0840    -1.4570 H     1 <1>   0.1500 
 51 H       -1.9350     7.4230    -0.1730 H     1 <1>   0.0800 
 52 H        3.9820     2.9870    -1.7850 H     1 <1>   0.1500 
 53 H        2.4310    -0.9760    -1.5800 H     1 <1>   0.1500 
 54 H       -2.5540     6.1090    -2.1480 H     1 <1>   0.0800 
 55 H       -1.1260     6.6430    -2.9820 H     1 <1>   0.0800 
 56 H        0.5020     8.3200    -1.7050 H     1 <1>   0.0800 
 57 H        0.0600     8.7870    -0.0920 H     1 <1>   0.0800 
 58 H        4.3540     0.5520    -1.7440 H     1 <1>   0.1500 
 59 H       -3.4220     8.4330    -2.1050 H     1 <1>   0.0800 
 60 H       -3.0050     7.9860    -3.7490 H     1 <1>   0.0800 
 61 H       -0.5500    10.5000    -1.8300 H     1 <1>   0.0800 
 62 H       -1.9640     9.9310    -0.9660 H     1 <1>   0.0800 
@<TRIPOS>BOND
  1   1   2  2   
  2   2   3  am  
  3   2   4  1   
  4   3   5  1   
  5   3   6  1   
  6   4   7  1   
  7   4   8  1   
  8   4   9  1   
  9   5  10  1   
 10   5  31  1   
 11   5  32  1   
 12   6  11  1   
 13   6  33  1   
 14   6  34  1   
 15   7  12  1   
 16   7  13  1   
 17   7  35  1   
 18   8  14  1   
 19   8  36  1   
 20   8  37  1   
 21   9  15  1   
 22   9  38  1   
 23   9  39  1   
 24  10  16  1   
 25  10  40  1   
 26  10  41  1   
 27  11  16  1   
 28  11  42  1   
 29  11  43  1   
 30  12  14  1   
 31  12  17  am  
 32  13  18  1   
 33  13  44  1   
 34  13  45  1   
 35  14  18  1   
 36  14  46  1   
 37  15  19  ar  
 38  15  20  ar  
 39  17  21  2   
 40  17  22  1   
 41  18  47  1   
 42  18  48  1   
 43  19  23  ar  
 44  19  49  1   
 45  20  24  ar  
 46  20  50  1   
 47  22  25  1   
 48  22  26  1   
 49  22  51  1   
 50  23  27  ar  
 51  23  52  1   
 52  24  27  ar  
 53  24  53  1   
 54  25  28  1   
 55  25  54  1   
 56  25  55  1   
 57  26  29  1   
 58  26  56  1   
 59  26  57  1   
 60  27  58  1   
 61  28  30  1   
 62  28  59  1   
 63  28  60  1   
 64  29  30  1   
 65  29  61  1   
 66  29  62  1   
@<TRIPOS>SUBSTRUCTURE
  1 ****   4 GROUP 4 **** **** 0

# MOE 2024.06 (io_trps.svl 2023.06)
