@<TRIPOS>MOLECULE
NONAME
46 47 1 0 0 
SMALL
USER_CHARGES


@<TRIPOS>ATOM
  1 S       -0.3870    -1.1030    -1.2110 S.o2  1 <1>   1.0900 
  2 O       -0.8360    -0.9910    -2.5780 O.2   1 <1>  -0.6500 
  3 O        0.2460    -2.3180    -0.7560 O.2   1 <1>  -0.6500 
  4 C       -1.7760    -0.7650    -0.1450 C.3   1 <1>  -0.0550 
  5 C        0.7230     0.2520    -0.8850 C.3   1 <1>  -0.1350 
  6 C       -2.8110    -1.8790    -0.2510 C.3   1 <1>   0.1100 
  7 N       -3.9480    -1.5830     0.6350 N.3   1 <1>  -0.8100 
  8 C       -4.5490    -2.8500     1.1120 C.3   1 <1>   0.1100 
  9 C       -4.9200    -0.6910    -0.0280 C.3   1 <1>   0.1100 
 10 C       -5.7120    -2.6700     2.1010 C.3   1 <1>   0.1400 
 11 C       -5.7720     0.0400     1.0150 C.3   1 <1>  -0.1600 
 12 N       -6.9410    -2.1600     1.4200 N.am  1 <1>  -0.6600 
 13 C       -7.0820    -0.6770     1.3730 C.3   1 <1>   0.1400 
 14 C       -7.8490    -2.9870     0.7860 C.2   1 <1>   0.5440 
 15 O       -8.8270    -2.5010     0.2520 O.2   1 <1>  -0.5700 
 16 C       -7.6600    -4.4250     0.7320 C.ar  1 <1>   0.0860 
 17 C       -7.2270    -5.0800    -0.4320 C.ar  1 <1>  -0.1440 
 18 C       -7.9120    -5.1960     1.8650 C.ar  1 <1>  -0.1500 
 19 C       -7.0310    -6.4540    -0.4450 C.ar  1 <1>  -0.1500 
 20 C       -6.9810    -4.2880    -1.7110 C.3   1 <1>  -0.0970 
 21 C       -7.7100    -6.5580     1.8260 C.ar  1 <1>   0.1900 
 22 C       -7.2690    -7.2080     0.6910 C.ar  1 <1>  -0.1500 
 23 F       -7.9400    -7.2600     2.9020 F     1 <1>  -0.1900 
 24 H       -2.2220     0.1690    -0.4210 H     1 <1>   0.0800 
 25 H       -1.4480    -0.7050     0.8740 H     1 <1>   0.0800 
 26 H        1.6080     0.1500    -1.4830 H     1 <1>   0.0800 
 27 H        1.0140     0.2620     0.1480 H     1 <1>   0.0800 
 28 H        0.2580     1.1880    -1.1260 H     1 <1>   0.0800 
 29 H       -2.3370    -2.8000     0.0480 H     1 <1>   0.0800 
 30 H       -3.1460    -1.9950    -1.2700 H     1 <1>   0.0800 
 31 H       -3.7850    -3.4100     1.6210 H     1 <1>   0.0800 
 32 H       -4.8790    -3.4410     0.2770 H     1 <1>   0.0800 
 33 H       -5.5400    -1.2410    -0.7170 H     1 <1>   0.0800 
 34 H       -4.3910     0.0560    -0.5940 H     1 <1>   0.0800 
 35 H       -5.4160    -1.9970     2.8860 H     1 <1>   0.0800 
 36 H       -5.9230    -3.6170     2.5610 H     1 <1>   0.0800 
 37 H       -6.0360     1.0050     0.6240 H     1 <1>   0.0800 
 38 H       -5.1890     0.2140     1.9020 H     1 <1>   0.0800 
 39 H       -7.8190    -0.4090     0.6360 H     1 <1>   0.0800 
 40 H       -7.4380    -0.3270     2.3260 H     1 <1>   0.0800 
 41 H       -8.2650    -4.7300     2.7670 H     1 <1>   0.1500 
 42 H       -6.6970    -6.9490    -1.3410 H     1 <1>   0.1500 
 43 H       -6.2940    -3.4810    -1.5330 H     1 <1>   0.0800 
 44 H       -7.9080    -3.8720    -2.0640 H     1 <1>   0.0800 
 45 H       -6.5740    -4.9130    -2.4850 H     1 <1>   0.0800 
 46 H       -7.1230    -8.2730     0.6990 H     1 <1>   0.1500 
@<TRIPOS>BOND
  1   1   2  2   
  2   1   3  2   
  3   1   4  1   
  4   1   5  1   
  5   4   6  1   
  6   4  24  1   
  7   4  25  1   
  8   5  26  1   
  9   5  27  1   
 10   5  28  1   
 11   6   7  1   
 12   6  29  1   
 13   6  30  1   
 14   7   8  1   
 15   7   9  1   
 16   8  10  1   
 17   8  31  1   
 18   8  32  1   
 19   9  11  1   
 20   9  33  1   
 21   9  34  1   
 22  10  12  1   
 23  10  35  1   
 24  10  36  1   
 25  11  13  1   
 26  11  37  1   
 27  11  38  1   
 28  12  13  1   
 29  12  14  am  
 30  13  39  1   
 31  13  40  1   
 32  14  15  2   
 33  14  16  1   
 34  16  17  ar  
 35  16  18  ar  
 36  17  19  ar  
 37  17  20  1   
 38  18  21  ar  
 39  18  41  1   
 40  19  22  ar  
 41  19  42  1   
 42  20  43  1   
 43  20  44  1   
 44  20  45  1   
 45  21  22  ar  
 46  21  23  1   
 47  22  46  1   
@<TRIPOS>SUBSTRUCTURE
  1 ****   8 GROUP 4 **** **** 0

# MOE 2024.06 (io_trps.svl 2023.06)
