@<TRIPOS>MOLECULE
NONAME
44 46 1 0 0 
SMALL
USER_CHARGES


@<TRIPOS>ATOM
  1 S        0.6280    -0.2100    -1.6350 S.o2  1 <1>   1.5010 
  2 O        1.7470    -1.1230    -1.5150 O.2   1 <1>  -0.6500 
  3 O        0.2500     0.2730    -2.9420 O.2   1 <1>  -0.6500 
  4 N        1.1480     1.1510    -0.7640 N.am  1 <1>  -0.8490 
  5 C       -0.8120    -0.7630    -0.7120 C.2   1 <1>  -0.0630 
  6 C        1.4970     0.9020     0.6640 C.3   1 <1>   0.2760 
  7 C        1.9650     2.0750    -1.5730 C.3   1 <1>   0.1960 
  8 C       -1.2170    -1.9700    -0.2310 C.2   1 <1>  -0.3320 
  9 C       -1.8190     0.1070    -0.3170 C.2   1 <1>   0.1390 
 10 C        1.4180     2.1900     1.5000 C.3   1 <1>   0.1200 
 11 C        2.8590     0.1920     0.9060 C.3   1 <1>   0.3430 
 12 C        3.1930     2.6900    -0.8830 C.3   1 <1>  -0.0800 
 13 N       -2.3870    -1.7660     0.4140 N.pl3 1 <1>   0.3140 
 14 C       -0.5520    -3.3340    -0.3600 C.3   1 <1>  -0.0600 
 15 N       -2.7470    -0.4770     0.3700 N.2   1 <1>  -0.7070 
 16 O        2.6210     2.8960     1.4450 O.3   1 <1>  -0.5600 
 17 N        3.8250     0.2870    -0.2400 N.4   1 <1>  -0.9590 
 18 C        2.8280     3.6210     0.2810 C.3   1 <1>   0.1200 
 19 C        4.2990     1.6820    -0.5140 C.3   1 <1>   0.3430 
 20 C       -3.2290    -2.7660     1.0870 C.3   1 <1>   0.0160 
 21 C        4.9720    -0.6440    -0.0430 C.3   1 <1>   0.2630 
 22 H        0.7380     0.2640     1.0810 H     1 <1>   0.0800 
 23 H        2.3150     1.5700    -2.4600 H     1 <1>   0.0800 
 24 H        1.3210     2.8700    -1.9140 H     1 <1>   0.0800 
 25 H       -1.8330     1.1600    -0.5490 H     1 <1>   0.1500 
 26 H        1.2620     1.9330     2.5330 H     1 <1>   0.0800 
 27 H        0.6030     2.8200     1.1850 H     1 <1>   0.0800 
 28 H        2.6500    -0.8480     1.0930 H     1 <1>   0.0800 
 29 H        3.3090     0.5930     1.7990 H     1 <1>   0.0800 
 30 H        3.6320     3.3410    -1.6170 H     1 <1>   0.0800 
 31 H        0.3470    -3.2740    -0.9450 H     1 <1>   0.0800 
 32 H       -1.2190    -4.0250    -0.8470 H     1 <1>   0.0800 
 33 H       -0.3020    -3.7230     0.6120 H     1 <1>   0.0800 
 34 H        3.2820    -0.0580    -1.0580 H     1 <1>   0.4500 
 35 H        1.9530     4.2130     0.0660 H     1 <1>   0.0800 
 36 H        3.6450     4.2950     0.4790 H     1 <1>   0.0800 
 37 H        4.8330     2.0550     0.3460 H     1 <1>   0.0800 
 38 H        4.9980     1.6450    -1.3340 H     1 <1>   0.0800 
 39 H       -2.6550    -3.2620     1.8460 H     1 <1>   0.0800 
 40 H       -3.5780    -3.4770     0.3630 H     1 <1>   0.0800 
 41 H       -4.0700    -2.2710     1.5380 H     1 <1>   0.0800 
 42 H        5.5410    -0.3590     0.8270 H     1 <1>   0.0800 
 43 H        5.6210    -0.6250    -0.9040 H     1 <1>   0.0800 
 44 H        4.6140    -1.6520     0.0900 H     1 <1>   0.0800 
@<TRIPOS>BOND
  1   1   2  2   
  2   1   3  2   
  3   1   4  am  
  4   1   5  1   
  5   4   6  1   
  6   4   7  1   
  7   5   8  2   
  8   5   9  1   
  9   6  10  1   
 10   6  11  1   
 11   6  22  1   
 12   7  12  1   
 13   7  23  1   
 14   7  24  1   
 15   8  13  1   
 16   8  14  1   
 17   9  15  2   
 18   9  25  1   
 19  10  16  1   
 20  10  26  1   
 21  10  27  1   
 22  11  17  1   
 23  11  28  1   
 24  11  29  1   
 25  12  18  1   
 26  12  19  1   
 27  12  30  1   
 28  13  15  1   
 29  13  20  1   
 30  14  31  1   
 31  14  32  1   
 32  14  33  1   
 33  16  18  1   
 34  17  19  1   
 35  17  21  1   
 36  17  34  1   
 37  18  35  1   
 38  18  36  1   
 39  19  37  1   
 40  19  38  1   
 41  20  39  1   
 42  20  40  1   
 43  20  41  1   
 44  21  42  1   
 45  21  43  1   
 46  21  44  1   
@<TRIPOS>SUBSTRUCTURE
  1 ****   4 GROUP 4 **** **** 0

# MOE 2024.06 (io_trps.svl 2023.06)
