@<TRIPOS>MOLECULE
NONAME
48 51 1 0 0 
SMALL
USER_CHARGES


@<TRIPOS>ATOM
  1 S       -0.7780    -1.6900    -0.6050 S.3   1 <1>  -0.2820 
  2 C       -2.0910    -2.0240     0.4910 C.2   1 <1>   0.6510 
  3 C       -1.0440     0.0390    -0.3920 C.2   1 <1>   0.5300 
  4 N       -2.4680    -3.2250     0.8000 N.2   1 <1>  -0.6210 
  5 N       -2.6130    -0.8320     0.9140 N.am  1 <1>  -0.0580 
  6 N       -1.9980     0.3200     0.3960 N.2   1 <1>  -0.5120 
  7 C       -0.1130     0.9560    -1.1690 C.3   1 <1>  -0.0990 
  8 C       -3.5180    -3.3030     1.6760 C.2   1 <1>   0.0330 
  9 C       -3.6870    -0.8930     1.7880 C.2   1 <1>   0.6160 
 10 C       -0.3960     2.4510    -0.9490 C.3   1 <1>  -0.2400 
 11 C       -4.1270    -2.1890     2.1640 C.2   1 <1>  -0.1360 
 12 C       -3.9660    -4.7120     2.0610 C.3   1 <1>   0.4810 
 13 O       -4.2440     0.1060     2.2160 O.2   1 <1>  -0.5700 
 14 N       -4.0190    -5.5540     0.8310 N.4   1 <1>  -0.9590 
 15 C       -5.1800    -5.1670    -0.0250 C.3   1 <1>   0.3430 
 16 C       -4.1860    -7.0010     1.1710 C.3   1 <1>   0.3430 
 17 C       -6.2990    -6.1390     0.3540 C.3   1 <1>   0.2000 
 18 C       -5.5510    -7.4440     0.6170 C.3   1 <1>  -0.0800 
 19 O       -6.8640    -5.7120     1.5520 O.3   1 <1>  -0.6800 
 20 C       -5.3930    -8.2800    -0.6680 C.3   1 <1>  -0.0170 
 21 C       -4.5210    -9.5010    -0.4190 C.ar  1 <1>  -0.1430 
 22 C       -3.2690    -9.6370    -0.9880 C.ar  1 <1>  -0.1500 
 23 C       -4.9380   -10.5390     0.3910 C.ar  1 <1>  -0.1500 
 24 C       -2.5120   -10.7640    -0.7130 C.ar  1 <1>   0.1600 
 25 C       -4.1010   -11.6220     0.6020 C.ar  1 <1>   0.1600 
 26 N       -2.8960   -11.7530     0.0760 N.ar  1 <1>  -0.6200 
 27 H        0.8990     0.7430    -0.8740 H     1 <1>   0.0800 
 28 H       -0.2080     0.7310    -2.2160 H     1 <1>   0.0800 
 29 H       -0.2870     2.7050     0.0920 H     1 <1>   0.0800 
 30 H       -1.4000     2.6920    -1.2550 H     1 <1>   0.0800 
 31 H        0.2910     3.0490    -1.5210 H     1 <1>   0.0800 
 32 H       -4.9560    -2.2210     2.8480 H     1 <1>   0.1500 
 33 H       -4.9280    -4.6850     2.5460 H     1 <1>   0.0800 
 34 H       -3.2450    -5.1230     2.7480 H     1 <1>   0.0800 
 35 H       -3.1320    -5.3520     0.3400 H     1 <1>   0.4500 
 36 H       -5.4800    -4.1430     0.1260 H     1 <1>   0.0800 
 37 H       -4.9240    -5.3100    -1.0610 H     1 <1>   0.0800 
 38 H       -3.3900    -7.5900     0.7440 H     1 <1>   0.0800 
 39 H       -4.1740    -7.1350     2.2400 H     1 <1>   0.0800 
 40 H       -7.0720    -6.2050    -0.3950 H     1 <1>   0.0800 
 41 H       -6.0660    -8.0440     1.3470 H     1 <1>   0.0800 
 42 H       -7.7070    -6.1820     1.7340 H     1 <1>   0.4000 
 43 H       -4.9610    -7.6890    -1.4570 H     1 <1>   0.0800 
 44 H       -6.3610    -8.6120    -1.0070 H     1 <1>   0.0800 
 45 H       -2.8690    -8.8900    -1.6480 H     1 <1>   0.1500 
 46 H       -5.9050   -10.5260     0.8600 H     1 <1>   0.1500 
 47 H       -1.5380   -10.8580    -1.1650 H     1 <1>   0.1500 
 48 H       -4.4410   -12.4250     1.2360 H     1 <1>   0.1500 
@<TRIPOS>BOND
  1   1   2  1   
  2   1   3  1   
  3   2   4  2   
  4   2   5  1   
  5   3   6  2   
  6   3   7  1   
  7   4   8  1   
  8   5   6  1   
  9   5   9  am  
 10   7  10  1   
 11   7  27  1   
 12   7  28  1   
 13   8  11  2   
 14   8  12  1   
 15   9  11  1   
 16   9  13  2   
 17  10  29  1   
 18  10  30  1   
 19  10  31  1   
 20  11  32  1   
 21  12  14  1   
 22  12  33  1   
 23  12  34  1   
 24  14  15  1   
 25  14  16  1   
 26  14  35  1   
 27  15  17  1   
 28  15  36  1   
 29  15  37  1   
 30  16  18  1   
 31  16  38  1   
 32  16  39  1   
 33  17  18  1   
 34  17  19  1   
 35  17  40  1   
 36  18  20  1   
 37  18  41  1   
 38  19  42  1   
 39  20  21  1   
 40  20  43  1   
 41  20  44  1   
 42  21  22  ar  
 43  21  23  ar  
 44  22  24  ar  
 45  22  45  1   
 46  23  25  ar  
 47  23  46  1   
 48  24  26  ar  
 49  24  47  1   
 50  25  26  ar  
 51  25  48  1   
@<TRIPOS>SUBSTRUCTURE
  1 ****  14 GROUP 4 **** **** 0

# MOE 2024.06 (io_trps.svl 2023.06)
