@<TRIPOS>MOLECULE
NONAME
53 55 1 0 0 
SMALL
USER_CHARGES


@<TRIPOS>ATOM
  1 S        0.4780     0.2980    -1.0570 S.o2  1 <1>   1.3330 
  2 O       -0.7110     1.1150    -1.1540 O.2   1 <1>  -0.6500 
  3 O        0.7200    -0.7320    -2.0420 O.2   1 <1>  -0.6500 
  4 N        0.4530    -0.4430     0.4720 N.am  1 <1>  -0.8490 
  5 C        1.9190     1.3650    -1.0030 C.3   1 <1>  -0.0550 
  6 C       -0.2360    -1.7370     0.4460 C.3   1 <1>   0.1160 
  7 C       -0.1280     0.4050     1.5190 C.3   1 <1>   0.1160 
  8 C        3.2650     0.6140    -0.9140 C.3   1 <1>  -0.0800 
  9 C        4.4890     1.4980    -1.0890 C.3   1 <1>   0.2200 
 10 C        3.5370    -0.0800     0.4270 C.3   1 <1>   0.1200 
 11 N        4.3260     2.7720    -0.3510 N.am  1 <1>  -0.7300 
 12 C        5.5470     0.6610    -0.3880 C.3   1 <1>   0.1200 
 13 O        4.8950     0.1030     0.7120 O.3   1 <1>  -0.5600 
 14 C        4.1550     3.9960    -0.9260 C.2   1 <1>   0.5440 
 15 O        3.8710     4.0410    -2.1070 O.2   1 <1>  -0.5700 
 16 C        4.3050     5.2030    -0.1410 C.ar  1 <1>   0.0860 
 17 C        5.4880     5.4440     0.5670 C.ar  1 <1>   0.0000 
 18 C        3.2820     6.1560    -0.0540 C.ar  1 <1>   0.1670 
 19 C        6.6150     4.5420     0.5540 C.ar  1 <1>   0.0000 
 20 C        5.5450     6.6170     1.2990 C.ar  1 <1>  -0.1500 
 21 N        3.3470     7.2730     0.6510 N.ar  1 <1>  -0.6200 
 22 C        1.9660     5.9600    -0.7910 C.3   1 <1>  -0.0970 
 23 C        7.3500     4.3280    -0.6090 C.ar  1 <1>  -0.1500 
 24 C        6.9870     3.8490     1.7020 C.ar  1 <1>  -0.1500 
 25 C        4.4730     7.4820     1.3090 C.ar  1 <1>   0.1600 
 26 C        8.4180     3.4500    -0.6260 C.ar  1 <1>  -0.1500 
 27 C        8.0530     2.9680     1.6900 C.ar  1 <1>  -0.1500 
 28 C        8.7710     2.7680     0.5240 C.ar  1 <1>  -0.1500 
 29 H        1.9310     1.9550    -1.9000 H     1 <1>   0.0800 
 30 H        1.8270     2.0440    -0.1790 H     1 <1>   0.0800 
 31 H       -0.2250    -2.1870     1.4240 H     1 <1>   0.0800 
 32 H        0.2610    -2.4070    -0.2370 H     1 <1>   0.0800 
 33 H       -1.2570    -1.6110     0.1230 H     1 <1>   0.0800 
 34 H       -0.0370    -0.0770     2.4770 H     1 <1>   0.0800 
 35 H       -1.1700     0.5920     1.3180 H     1 <1>   0.0800 
 36 H        0.3890     1.3480     1.5640 H     1 <1>   0.0800 
 37 H        3.2900    -0.1380    -1.6830 H     1 <1>   0.0800 
 38 H        4.7300     1.6810    -2.1240 H     1 <1>   0.0800 
 39 H        3.3270    -1.1350     0.3800 H     1 <1>   0.0800 
 40 H        2.9770     0.3660     1.2300 H     1 <1>   0.0800 
 41 H        4.6480     2.7140     0.6190 H     1 <1>   0.3700 
 42 H        6.3900     1.2420    -0.0580 H     1 <1>   0.0800 
 43 H        5.8790    -0.1450    -1.0190 H     1 <1>   0.0800 
 44 H        6.4320     6.8560     1.8580 H     1 <1>   0.1500 
 45 H        1.6110     4.9520    -0.6810 H     1 <1>   0.0800 
 46 H        2.1040     6.1710    -1.8360 H     1 <1>   0.0800 
 47 H        1.2140     6.6250    -0.4050 H     1 <1>   0.0800 
 48 H        7.0780     4.8520    -1.5090 H     1 <1>   0.1500 
 49 H        6.4350     3.9990     2.6140 H     1 <1>   0.1500 
 50 H        4.5390     8.3910     1.8830 H     1 <1>   0.1500 
 51 H        8.9760     3.2980    -1.5340 H     1 <1>   0.1500 
 52 H        8.3260     2.4380     2.5860 H     1 <1>   0.1500 
 53 H        9.6030     2.0840     0.5140 H     1 <1>   0.1500 
@<TRIPOS>BOND
  1   1   2  2   
  2   1   3  2   
  3   1   4  am  
  4   1   5  1   
  5   4   6  1   
  6   4   7  1   
  7   5   8  1   
  8   5  29  1   
  9   5  30  1   
 10   6  31  1   
 11   6  32  1   
 12   6  33  1   
 13   7  34  1   
 14   7  35  1   
 15   7  36  1   
 16   8   9  1   
 17   8  10  1   
 18   8  37  1   
 19   9  11  1   
 20   9  12  1   
 21   9  38  1   
 22  10  13  1   
 23  10  39  1   
 24  10  40  1   
 25  11  14  am  
 26  11  41  1   
 27  12  13  1   
 28  12  42  1   
 29  12  43  1   
 30  14  15  2   
 31  14  16  1   
 32  16  17  ar  
 33  16  18  ar  
 34  17  19  1   
 35  17  20  ar  
 36  18  21  ar  
 37  18  22  1   
 38  19  23  ar  
 39  19  24  ar  
 40  20  25  ar  
 41  20  44  1   
 42  21  25  ar  
 43  22  45  1   
 44  22  46  1   
 45  22  47  1   
 46  23  26  ar  
 47  23  48  1   
 48  24  27  ar  
 49  24  49  1   
 50  25  50  1   
 51  26  28  ar  
 52  26  51  1   
 53  27  28  ar  
 54  27  52  1   
 55  28  53  1   
@<TRIPOS>SUBSTRUCTURE
  1 ****  11 GROUP 4 **** **** 0

# MOE 2024.06 (io_trps.svl 2023.06)
