@<TRIPOS>MOLECULE
NONAME
42 43 1 0 0 
SMALL
USER_CHARGES


@<TRIPOS>ATOM
  1 O       -1.3590    -1.3890     0.0270 O.3   1 <1>  -0.5600 
  2 C       -1.4600    -2.3040    -1.0300 C.3   1 <1>   0.1200 
  3 C       -0.0490    -1.1800     0.4810 C.3   1 <1>   0.1200 
  4 C       -1.0140    -3.7090    -0.5760 C.3   1 <1>   0.3430 
  5 C        0.6900    -2.5120     0.7530 C.3   1 <1>   0.3430 
  6 N       -0.2450    -3.6830     0.7220 N.4   1 <1>  -0.9590 
  7 C        0.4470    -4.9830     1.0450 C.3   1 <1>   0.3430 
  8 C       -0.4380    -6.2500     0.9890 C.3   1 <1>   0.2090 
  9 N       -0.8550    -6.5950    -0.4060 N.pl3 1 <1>  -0.8380 
 10 C       -2.1970    -6.9280    -0.5960 C.ar  1 <1>   0.4100 
 11 C        0.1020    -7.4300    -1.1800 C.3   1 <1>   0.2090 
 12 N       -2.8250    -6.1330    -1.4480 N.ar  1 <1>  -0.6200 
 13 C       -2.8380    -8.0240     0.0560 C.ar  1 <1>   0.3930 
 14 C        0.8130    -6.5450    -2.1960 C.3   1 <1>  -0.2400 
 15 C       -4.0910    -6.4840    -1.6290 C.ar  1 <1>   0.1600 
 16 O       -2.1040    -8.7820     0.9200 O.3   1 <1>  -0.3630 
 17 N       -4.1070    -8.3510    -0.1280 N.ar  1 <1>  -0.6200 
 18 C       -4.7090    -7.5490    -0.9950 C.ar  1 <1>   0.1600 
 19 C       -2.6710    -9.9160     1.5500 C.3   1 <1>   0.0400 
 20 H       -0.8550    -1.9560    -1.8490 H     1 <1>   0.0800 
 21 H       -2.4860    -2.3310    -1.3550 H     1 <1>   0.0800 
 22 H       -0.1100    -0.6000     1.3850 H     1 <1>   0.0800 
 23 H        0.4800    -0.5980    -0.2540 H     1 <1>   0.0800 
 24 H       -0.4350    -4.1760    -1.3550 H     1 <1>   0.0800 
 25 H       -1.8960    -4.3070    -0.4410 H     1 <1>   0.0800 
 26 H        1.1840    -2.4510     1.7090 H     1 <1>   0.0800 
 27 H        1.4520    -2.6420     0.0020 H     1 <1>   0.0800 
 28 H       -0.9690    -3.4870     1.4280 H     1 <1>   0.4500 
 29 H        0.8580    -4.9130     2.0380 H     1 <1>   0.0800 
 30 H        1.2700    -5.1280     0.3670 H     1 <1>   0.0800 
 31 H       -1.3080    -6.1010     1.6070 H     1 <1>   0.0800 
 32 H        0.1080    -7.0790     1.4070 H     1 <1>   0.0800 
 33 H       -0.4310    -8.2090    -1.7030 H     1 <1>   0.0800 
 34 H        0.8170    -7.9020    -0.5270 H     1 <1>   0.0800 
 35 H        0.0900    -6.0870    -2.8480 H     1 <1>   0.0800 
 36 H        1.4730    -7.1470    -2.7950 H     1 <1>   0.0800 
 37 H        1.3940    -5.7870    -1.7080 H     1 <1>   0.0800 
 38 H       -4.6670    -5.8930    -2.3190 H     1 <1>   0.1500 
 39 H       -5.7440    -7.7520    -1.2090 H     1 <1>   0.1500 
 40 H       -1.9220   -10.3720     2.1710 H     1 <1>   0.0800 
 41 H       -2.9950   -10.6100     0.7940 H     1 <1>   0.0800 
 42 H       -3.5070    -9.6010     2.1510 H     1 <1>   0.0800 
@<TRIPOS>BOND
  1   1   2  1   
  2   1   3  1   
  3   2   4  1   
  4   2  20  1   
  5   2  21  1   
  6   3   5  1   
  7   3  22  1   
  8   3  23  1   
  9   4   6  1   
 10   4  24  1   
 11   4  25  1   
 12   5   6  1   
 13   5  26  1   
 14   5  27  1   
 15   6   7  1   
 16   6  28  1   
 17   7   8  1   
 18   7  29  1   
 19   7  30  1   
 20   8   9  1   
 21   8  31  1   
 22   8  32  1   
 23   9  10  1   
 24   9  11  1   
 25  10  12  ar  
 26  10  13  ar  
 27  11  14  1   
 28  11  33  1   
 29  11  34  1   
 30  12  15  ar  
 31  13  16  1   
 32  13  17  ar  
 33  14  35  1   
 34  14  36  1   
 35  14  37  1   
 36  15  18  ar  
 37  15  38  1   
 38  16  19  1   
 39  17  18  ar  
 40  18  39  1   
 41  19  40  1   
 42  19  41  1   
 43  19  42  1   
@<TRIPOS>SUBSTRUCTURE
  1 ****   9 GROUP 4 **** **** 0

# MOE 2024.06 (io_trps.svl 2023.06)
