@<TRIPOS>MOLECULE
NONAME
40 43 1 0 0 
SMALL
USER_CHARGES


@<TRIPOS>ATOM
  1 CL       1.0390    -0.4800    -2.4590 Cl    1 <1>  -0.1770 
  2 C        1.1660    -1.7670    -1.2800 C.ar  1 <1>   0.1770 
  3 C        1.7530    -1.5060    -0.0330 C.ar  1 <1>  -0.1440 
  4 C        0.6790    -3.0100    -1.6210 C.ar  1 <1>  -0.1500 
  5 C        1.8430    -2.5340     0.8890 C.ar  1 <1>  -0.1500 
  6 C        2.2810    -0.1200     0.3070 C.3   1 <1>  -0.0960 
  7 C        0.7730    -4.0420    -0.6880 C.ar  1 <1>   0.0000 
  8 C        1.3500    -3.7870     0.5450 C.ar  1 <1>   0.1400 
  9 C        0.4110    -5.4060    -0.6440 C.2   1 <1>  -0.1810 
 10 O        1.3470    -4.8890     1.2940 O.3   1 <1>  -0.2800 
 11 C        0.7790    -5.8510     0.5740 C.2   1 <1>  -0.0100 
 12 C       -0.2580    -6.1480    -1.7950 C.3   1 <1>   0.0820 
 13 C       -0.4870    -7.6290    -1.5230 C.2   1 <1>   0.5690 
 14 O        0.2230    -8.4170    -2.1080 O.2   1 <1>  -0.5700 
 15 N       -1.4600    -8.0360    -0.6590 N.am  1 <1>  -0.6600 
 16 C       -2.4460    -7.1720     0.0540 C.3   1 <1>   0.2350 
 17 C       -1.8100    -9.4680    -0.4400 C.3   1 <1>   0.2350 
 18 C       -3.6830    -8.0330     0.2180 C.3   1 <1>  -0.2420 
 19 C       -3.2850    -9.4610    -0.0690 C.3   1 <1>  -0.2420 
 20 C       -4.6270    -7.4060     1.2450 C.2   1 <1>   0.9470 
 21 C       -4.2850    -8.7640    -0.9570 C.3   1 <1>  -0.2000 
 22 C       -3.6790   -10.7680     0.6240 C.2   1 <1>   0.9470 
 23 O       -5.7680    -7.0720     0.8960 O.co2 1 <1>  -0.9000 
 24 O       -4.1730    -7.0740     2.3480 O.co2 1 <1>  -0.9000 
 25 O       -4.5840   -11.4660     0.1440 O.co2 1 <1>  -0.9000 
 26 O       -2.9810   -11.1810     1.5600 O.co2 1 <1>  -0.9000 
 27 H        0.2350    -3.1820    -2.5830 H     1 <1>   0.1500 
 28 H        2.2810    -2.3960     1.8600 H     1 <1>   0.1500 
 29 H        2.6970    -0.0980     1.2980 H     1 <1>   0.0800 
 30 H        1.4850     0.6010     0.2540 H     1 <1>   0.0800 
 31 H        3.0500     0.1610    -0.3910 H     1 <1>   0.0800 
 32 H        0.6780    -6.8290     1.0170 H     1 <1>   0.1500 
 33 H        0.3690    -6.0620    -2.6640 H     1 <1>   0.0800 
 34 H       -1.1960    -5.6840    -2.0320 H     1 <1>   0.0800 
 35 H       -2.0540    -6.9060     1.0220 H     1 <1>   0.0800 
 36 H       -2.6870    -6.2820    -0.4970 H     1 <1>   0.0800 
 37 H       -1.6390   -10.0560    -1.3240 H     1 <1>   0.0800 
 38 H       -1.2220    -9.8570     0.3740 H     1 <1>   0.0800 
 39 H       -4.0060    -8.4900    -1.9560 H     1 <1>   0.1000 
 40 H       -5.3150    -9.0700    -0.8840 H     1 <1>   0.1000 
@<TRIPOS>BOND
  1   1   2  1   
  2   2   3  ar  
  3   2   4  ar  
  4   3   5  ar  
  5   3   6  1   
  6   4   7  ar  
  7   4  27  1   
  8   5   8  ar  
  9   5  28  1   
 10   6  29  1   
 11   6  30  1   
 12   6  31  1   
 13   7   8  ar  
 14   7   9  1   
 15   8  10  1   
 16   9  11  2   
 17   9  12  1   
 18  10  11  1   
 19  11  32  1   
 20  12  13  1   
 21  12  33  1   
 22  12  34  1   
 23  13  14  2   
 24  13  15  am  
 25  15  16  1   
 26  15  17  1   
 27  16  18  1   
 28  16  35  1   
 29  16  36  1   
 30  17  19  1   
 31  17  37  1   
 32  17  38  1   
 33  18  19  1   
 34  18  20  1   
 35  18  21  1   
 36  19  21  1   
 37  19  22  1   
 38  20  23  ar  
 39  20  24  ar  
 40  21  39  1   
 41  21  40  1   
 42  22  25  ar  
 43  22  26  ar  
@<TRIPOS>SUBSTRUCTURE
  1 ****  16 GROUP 4 **** **** 0

# MOE 2024.06 (io_trps.svl 2023.06)
