@<TRIPOS>MOLECULE
NONAME
57 60 1 0 0 
SMALL
USER_CHARGES


@<TRIPOS>ATOM
  1 O        0.6360     3.7200     1.1310 O.3   1 <1>  -0.0190 
  2 N       -0.2320     4.5280     0.6080 N.2   1 <1>  -0.4100 
  3 C        1.0870     2.8600     0.2600 C.2   1 <1>  -0.0400 
  4 C       -0.3860     4.1520    -0.6100 C.2   1 <1>   0.1080 
  5 C        0.4450     3.0720    -0.8990 C.2   1 <1>  -0.1500 
  6 C        2.1830     1.8910     0.6680 C.3   1 <1>   0.0200 
  7 C       -1.3440     4.8110    -1.5770 C.3   1 <1>  -0.0590 
  8 C        3.5470     2.5740     0.9360 C.3   1 <1>  -0.0800 
  9 C        3.5500     3.5310     2.1330 C.3   1 <1>   0.2000 
 10 C        3.9950     3.4830    -0.2070 C.3   1 <1>   0.3430 
 11 O        4.8410     3.5180     2.6470 O.3   1 <1>  -0.6800 
 12 C        3.2740     4.9310     1.5500 C.3   1 <1>   0.3430 
 13 N        3.3480     4.7910     0.0630 N.4   1 <1>  -0.9590 
 14 C        3.9750     5.9640    -0.5850 C.3   1 <1>   0.4860 
 15 C        2.9050     7.0240    -0.7250 C.ar  1 <1>  -0.1440 
 16 C        2.8210     8.0070     0.2310 C.ar  1 <1>   0.0820 
 17 C        2.0100     6.9830    -1.8240 C.ar  1 <1>   0.0000 
 18 O        3.7120     7.9770     1.2550 O.3   1 <1>  -0.3620 
 19 C        1.8250     8.9950     0.1310 C.ar  1 <1>  -0.1500 
 20 C        1.0160     7.9850    -1.9130 C.ar  1 <1>   0.0000 
 21 C        2.0490     6.0050    -2.8480 C.ar  1 <1>  -0.1500 
 22 C        3.8290     9.0450     2.1720 C.3   1 <1>   0.1200 
 23 C        0.9500     8.9760    -0.9160 C.ar  1 <1>  -0.1500 
 24 C        0.1190     7.9730    -3.0000 C.ar  1 <1>  -0.1500 
 25 C        1.1670     6.0200    -3.8920 C.ar  1 <1>  -0.1500 
 26 C        4.9930     8.7370     3.1140 C.3   1 <1>  -0.1600 
 27 C        0.1900     7.0150    -3.9710 C.ar  1 <1>  -0.1500 
 28 C        5.1830     9.8550     4.1450 C.3   1 <1>  -0.2400 
 29 H        0.5230     2.5670    -1.8450 H     1 <1>   0.1500 
 30 H        1.8660     1.3530     1.5450 H     1 <1>   0.0800 
 31 H        2.3040     1.1670    -0.1200 H     1 <1>   0.0800 
 32 H       -2.3460     4.4790    -1.3750 H     1 <1>   0.0800 
 33 H       -1.0890     4.5640    -2.5910 H     1 <1>   0.0800 
 34 H       -1.3040     5.8790    -1.4570 H     1 <1>   0.0800 
 35 H        4.2710     1.7910     1.0820 H     1 <1>   0.0800 
 36 H        2.8630     3.2500     2.9130 H     1 <1>   0.0800 
 37 H        3.7150     3.0880    -1.1700 H     1 <1>   0.0800 
 38 H        5.0670     3.5960    -0.1600 H     1 <1>   0.0800 
 39 H        4.8590     3.7980     3.5860 H     1 <1>   0.4000 
 40 H        4.0100     5.6300     1.9120 H     1 <1>   0.0800 
 41 H        2.2920     5.2770     1.8330 H     1 <1>   0.0800 
 42 H        2.3650     4.7580    -0.2580 H     1 <1>   0.4500 
 43 H        4.7940     6.3300     0.0130 H     1 <1>   0.0800 
 44 H        4.3550     5.7050    -1.5580 H     1 <1>   0.0800 
 45 H        1.7380     9.7680     0.8710 H     1 <1>   0.1500 
 46 H        2.7900     5.2300    -2.8250 H     1 <1>   0.1500 
 47 H        4.0170     9.9510     1.6200 H     1 <1>   0.0800 
 48 H        2.9080     9.1280     2.7220 H     1 <1>   0.0800 
 49 H        0.1860     9.7290    -0.9950 H     1 <1>   0.1500 
 50 H       -0.6290     8.7440    -3.0560 H     1 <1>   0.1500 
 51 H        1.2110     5.2760    -4.6700 H     1 <1>   0.1500 
 52 H        4.8010     7.8130     3.6310 H     1 <1>   0.0800 
 53 H        5.8980     8.6330     2.5400 H     1 <1>   0.0800 
 54 H       -0.4960     7.0170    -4.8020 H     1 <1>   0.1500 
 55 H        4.2980     9.9720     4.7460 H     1 <1>   0.0800 
 56 H        5.3950    10.7900     3.6550 H     1 <1>   0.0800 
 57 H        6.0070     9.6200     4.7960 H     1 <1>   0.0800 
@<TRIPOS>BOND
  1   1   2  1   
  2   1   3  1   
  3   2   4  2   
  4   3   5  2   
  5   3   6  1   
  6   4   5  1   
  7   4   7  1   
  8   5  29  1   
  9   6   8  1   
 10   6  30  1   
 11   6  31  1   
 12   7  32  1   
 13   7  33  1   
 14   7  34  1   
 15   8   9  1   
 16   8  10  1   
 17   8  35  1   
 18   9  11  1   
 19   9  12  1   
 20   9  36  1   
 21  10  13  1   
 22  10  37  1   
 23  10  38  1   
 24  11  39  1   
 25  12  13  1   
 26  12  40  1   
 27  12  41  1   
 28  13  14  1   
 29  13  42  1   
 30  14  15  1   
 31  14  43  1   
 32  14  44  1   
 33  15  16  ar  
 34  15  17  ar  
 35  16  18  1   
 36  16  19  ar  
 37  17  20  ar  
 38  17  21  ar  
 39  18  22  1   
 40  19  23  ar  
 41  19  45  1   
 42  20  23  ar  
 43  20  24  ar  
 44  21  25  ar  
 45  21  46  1   
 46  22  26  1   
 47  22  47  1   
 48  22  48  1   
 49  23  49  1   
 50  24  27  ar  
 51  24  50  1   
 52  25  27  ar  
 53  25  51  1   
 54  26  28  1   
 55  26  52  1   
 56  26  53  1   
 57  27  54  1   
 58  28  55  1   
 59  28  56  1   
 60  28  57  1   
@<TRIPOS>SUBSTRUCTURE
  1 ****  15 GROUP 4 **** **** 0

# MOE 2024.06 (io_trps.svl 2023.06)
