@<TRIPOS>MOLECULE
NONAME
40 42 1 0 0 
SMALL
USER_CHARGES


@<TRIPOS>ATOM
  1 O       -1.9590     0.6820    -1.5120 O.2   1 <1>  -0.5700 
  2 C       -1.8570     0.6000    -0.3020 C.2   1 <1>   0.7150 
  3 N       -1.8870    -0.6350     0.2620 N.am  1 <1>  -0.7300 
  4 C       -1.7280     1.7540     0.5510 C.2   1 <1>  -0.2370 
  5 C       -2.0150    -1.9220    -0.4580 C.3   1 <1>   0.2200 
  6 N       -1.6810     3.0580     0.1130 N.pl3 1 <1>   0.0480 
  7 C       -1.6330     1.7830     1.9220 C.2   1 <1>  -0.1500 
  8 C       -3.4210    -2.4910    -0.3250 C.3   1 <1>  -0.0800 
  9 C       -1.2160    -2.9810     0.2890 C.3   1 <1>   0.1200 
 10 C       -1.5610     3.8630     1.1970 C.2   1 <1>  -0.3020 
 11 C       -1.7420     3.5500    -1.2780 C.3   1 <1>   0.0160 
 12 C       -1.5290     3.1090     2.3250 C.2   1 <1>  -0.1500 
 13 C       -3.3740    -3.2170     1.0240 C.3   1 <1>   0.1200 
 14 C       -4.5750    -1.4800    -0.4610 C.3   1 <1>  -0.0170 
 15 O       -2.0240    -3.3550     1.3630 O.3   1 <1>  -0.5600 
 16 C       -5.9230    -2.1810    -0.3850 C.ar  1 <1>  -0.1430 
 17 C       -6.6750    -2.1980     0.7720 C.ar  1 <1>  -0.1500 
 18 C       -6.4610    -2.8380    -1.4720 C.ar  1 <1>  -0.1500 
 19 C       -7.8920    -2.8590     0.7870 C.ar  1 <1>   0.1600 
 20 C       -7.6890    -3.4690    -1.3510 C.ar  1 <1>   0.1600 
 21 N       -8.4160    -3.4980    -0.2460 N.ar  1 <1>  -0.6200 
 22 H       -1.8280    -0.7160     1.2760 H     1 <1>   0.3700 
 23 H       -1.7000    -1.8200    -1.4830 H     1 <1>   0.0800 
 24 H       -1.6340     0.9470     2.6000 H     1 <1>   0.1500 
 25 H       -3.5440    -3.2410    -1.0870 H     1 <1>   0.0800 
 26 H       -0.2720    -2.6140     0.6520 H     1 <1>   0.0800 
 27 H       -1.0610    -3.8490    -0.3270 H     1 <1>   0.0800 
 28 H       -1.5040     4.9340     1.1190 H     1 <1>   0.1500 
 29 H       -1.6680     4.6210    -1.2900 H     1 <1>   0.0800 
 30 H       -2.6750     3.2490    -1.7190 H     1 <1>   0.0800 
 31 H       -0.9300     3.1260    -1.8390 H     1 <1>   0.0800 
 32 H       -1.4390     3.4510     3.3420 H     1 <1>   0.1500 
 33 H       -3.8240    -4.1930     0.9680 H     1 <1>   0.0800 
 34 H       -3.8470    -2.6430     1.8020 H     1 <1>   0.0800 
 35 H       -4.4920    -0.9680    -1.4040 H     1 <1>   0.0800 
 36 H       -4.5180    -0.7360     0.3140 H     1 <1>   0.0800 
 37 H       -6.3290    -1.7040     1.6620 H     1 <1>   0.1500 
 38 H       -5.9390    -2.8650    -2.4100 H     1 <1>   0.1500 
 39 H       -8.4660    -2.8620     1.6990 H     1 <1>   0.1500 
 40 H       -8.0930    -3.9770    -2.2100 H     1 <1>   0.1500 
@<TRIPOS>BOND
  1   1   2  2   
  2   2   3  am  
  3   2   4  1   
  4   3   5  1   
  5   3  22  1   
  6   4   6  1   
  7   4   7  2   
  8   5   8  1   
  9   5   9  1   
 10   5  23  1   
 11   6  10  1   
 12   6  11  1   
 13   7  12  1   
 14   7  24  1   
 15   8  13  1   
 16   8  14  1   
 17   8  25  1   
 18   9  15  1   
 19   9  26  1   
 20   9  27  1   
 21  10  12  2   
 22  10  28  1   
 23  11  29  1   
 24  11  30  1   
 25  11  31  1   
 26  12  32  1   
 27  13  15  1   
 28  13  33  1   
 29  13  34  1   
 30  14  16  1   
 31  14  35  1   
 32  14  36  1   
 33  16  17  ar  
 34  16  18  ar  
 35  17  19  ar  
 36  17  37  1   
 37  18  20  ar  
 38  18  38  1   
 39  19  21  ar  
 40  19  39  1   
 41  20  21  ar  
 42  20  40  1   
@<TRIPOS>SUBSTRUCTURE
  1 ****  14 GROUP 4 **** **** 0

# MOE 2024.06 (io_trps.svl 2023.06)
