@<TRIPOS>MOLECULE
NONAME
31 32 1 0 0 
SMALL
USER_CHARGES


@<TRIPOS>ATOM
  1 O        0.5470     0.1660     0.3410 O.3   1 <1>  -0.5600 
  2 C        1.8270    -0.3970     0.3280 C.3   1 <1>   0.1200 
  3 C        0.4830     1.4760     0.8270 C.3   1 <1>   0.1200 
  4 C        2.7670     0.4380    -0.5640 C.3   1 <1>   0.3430 
  5 C        1.3550     2.4060    -0.0370 C.3   1 <1>   0.3430 
  6 N        2.7640     1.8860    -0.1600 N.4   1 <1>  -0.9590 
  7 C        3.5820     2.7230    -1.0780 C.3   1 <1>   0.4860 
  8 C        3.6760     4.1210    -0.4960 C.ar  1 <1>  -0.1440 
  9 C        2.9340     5.1570    -1.0430 C.ar  1 <1>  -0.1500 
 10 C        4.4990     4.3760     0.5920 C.ar  1 <1>  -0.1500 
 11 C        3.0030     6.4260    -0.4960 C.ar  1 <1>  -0.1500 
 12 C        4.5620     5.6480     1.1320 C.ar  1 <1>  -0.1500 
 13 C        3.8130     6.6880     0.6000 C.ar  1 <1>   0.0730 
 14 C        3.8770     8.0010     1.1660 C.1   1 <1>  -0.0730 
 15 C        3.9280     9.0920     1.6390 C.1   1 <1>  -0.1770 
 16 H        1.7390    -1.3970    -0.0610 H     1 <1>   0.0800 
 17 H        2.1920    -0.4540     1.3380 H     1 <1>   0.0800 
 18 H        0.8030     1.4830     1.8540 H     1 <1>   0.0800 
 19 H       -0.5460     1.7890     0.7870 H     1 <1>   0.0800 
 20 H        2.4330     0.3430    -1.5840 H     1 <1>   0.0800 
 21 H        3.7650     0.0370    -0.5010 H     1 <1>   0.0800 
 22 H        1.3610     3.3920     0.3990 H     1 <1>   0.0800 
 23 H        0.9060     2.4800    -1.0140 H     1 <1>   0.0800 
 24 H        3.1880     1.9680     0.7720 H     1 <1>   0.4500 
 25 H        3.1300     2.7600    -2.0560 H     1 <1>   0.0800 
 26 H        4.5740     2.3110    -1.1750 H     1 <1>   0.0800 
 27 H        2.2970     4.9970    -1.8970 H     1 <1>   0.1500 
 28 H        5.1020     3.5990     1.0300 H     1 <1>   0.1500 
 29 H        2.4260     7.2300    -0.9220 H     1 <1>   0.1500 
 30 H        5.2000     5.8450     1.9770 H     1 <1>   0.1500 
 31 H        3.9760    10.0790     2.0650 H     1 <1>   0.1770 
@<TRIPOS>BOND
  1   1   2  1   
  2   1   3  1   
  3   2   4  1   
  4   2  16  1   
  5   2  17  1   
  6   3   5  1   
  7   3  18  1   
  8   3  19  1   
  9   4   6  1   
 10   4  20  1   
 11   4  21  1   
 12   5   6  1   
 13   5  22  1   
 14   5  23  1   
 15   6   7  1   
 16   6  24  1   
 17   7   8  1   
 18   7  25  1   
 19   7  26  1   
 20   8   9  ar  
 21   8  10  ar  
 22   9  11  ar  
 23   9  27  1   
 24  10  12  ar  
 25  10  28  1   
 26  11  13  ar  
 27  11  29  1   
 28  12  13  ar  
 29  12  30  1   
 30  13  14  1   
 31  14  15  3   
 32  15  31  1   
@<TRIPOS>SUBSTRUCTURE
  1 ****   8 GROUP 4 **** **** 0

# MOE 2024.06 (io_trps.svl 2023.06)
