@<TRIPOS>MOLECULE
NONAME
57 60 1 0 0 
SMALL
USER_CHARGES


@<TRIPOS>ATOM
  1 O        0.9660    -1.0460    -1.8560 O.2   1 <1>  -0.5700 
  2 C        0.7550    -1.3510    -0.7040 C.2   1 <1>   0.5690 
  3 N       -0.2600    -0.7530    -0.0040 N.am  1 <1>  -0.6600 
  4 C        1.6620    -2.4110    -0.0590 C.3   1 <1>  -0.0190 
  5 C       -1.0860     0.3200    -0.5960 C.3   1 <1>   0.1400 
  6 C       -0.6220    -0.9690     1.4170 C.3   1 <1>   0.1400 
  7 C        3.0670    -1.8530     0.2910 C.3   1 <1>  -0.0190 
  8 C        1.7360    -3.6930    -0.9340 C.3   1 <1>  -0.1600 
  9 C       -1.7610     0.9930     0.5920 C.3   1 <1>  -0.1600 
 10 C       -1.8580    -0.1060     1.6450 C.3   1 <1>  -0.1600 
 11 C        3.0160    -0.4300     0.8590 C.2   1 <1>   0.5690 
 12 C        4.0660    -2.1050    -0.8550 C.3   1 <1>  -0.1600 
 13 C        3.0430    -4.4690    -0.7210 C.3   1 <1>  -0.1600 
 14 O        2.6270    -0.3180     1.9990 O.2   1 <1>  -0.5700 
 15 N        3.4130     0.6690     0.1580 N.am  1 <1>  -0.5100 
 16 C        4.2690    -3.6150    -1.0980 C.3   1 <1>  -0.1600 
 17 C        3.1190     2.0950     0.5110 C.3   1 <1>   0.2250 
 18 C        3.3980     1.0280    -1.3010 C.3   1 <1>   0.2250 
 19 C        3.6500     2.4970    -0.8880 C.3   1 <1>   0.2580 
 20 O        5.0380     2.7900    -0.8790 O.3   1 <1>  -0.3400 
 21 C        5.5160     3.9470    -0.3500 C.ar  1 <1>   0.0820 
 22 C        6.8800     4.0160    -0.0790 C.ar  1 <1>  -0.1440 
 23 C        4.7010     5.0430    -0.0750 C.ar  1 <1>  -0.1500 
 24 C        7.4120     5.1740     0.4650 C.ar  1 <1>  -0.1500 
 25 C        7.7870     2.8290    -0.3690 C.3   1 <1>  -0.0970 
 26 C        5.2440     6.1940     0.4680 C.ar  1 <1>  -0.1500 
 27 C        6.5990     6.2590     0.7390 C.ar  1 <1>  -0.1500 
 28 H        1.2230    -2.7060     0.8740 H     1 <1>   0.0800 
 29 H       -0.4780     1.0130    -1.1540 H     1 <1>   0.0800 
 30 H       -1.8180    -0.1240    -1.2490 H     1 <1>   0.0800 
 31 H       -0.8320    -2.0060     1.6130 H     1 <1>   0.0800 
 32 H        0.1820    -0.6320     2.0480 H     1 <1>   0.0800 
 33 H        3.4310    -2.4430     1.1140 H     1 <1>   0.0800 
 34 H        0.8920    -4.3230    -0.7170 H     1 <1>   0.0800 
 35 H        1.6790    -3.4340    -1.9780 H     1 <1>   0.0800 
 36 H       -1.1270     1.7860     0.9500 H     1 <1>   0.0800 
 37 H       -2.7210     1.4000     0.3300 H     1 <1>   0.0800 
 38 H       -2.7370    -0.7020     1.4710 H     1 <1>   0.0800 
 39 H       -1.8920     0.2860     2.6460 H     1 <1>   0.0800 
 40 H        3.6810    -1.6640    -1.7580 H     1 <1>   0.0800 
 41 H        5.0140    -1.6440    -0.6370 H     1 <1>   0.0800 
 42 H        3.1110    -4.7600     0.3140 H     1 <1>   0.0800 
 43 H        3.0370    -5.3690    -1.3110 H     1 <1>   0.0800 
 44 H        4.5020    -3.7630    -2.1390 H     1 <1>   0.0800 
 45 H        5.1150    -3.9600    -0.5280 H     1 <1>   0.0800 
 46 H        2.0610     2.2510     0.6320 H     1 <1>   0.0000 
 47 H        3.7170     2.4470     1.3330 H     1 <1>   0.0000 
 48 H        4.2090     0.5890    -1.8530 H     1 <1>   0.0000 
 49 H        2.4280     0.8880    -1.7370 H     1 <1>   0.0000 
 50 H        3.0850     3.2280    -1.4380 H     1 <1>   0.0000 
 51 H        3.6490     5.0250    -0.2800 H     1 <1>   0.1500 
 52 H        8.4640     5.2380     0.6800 H     1 <1>   0.1500 
 53 H        8.8060     3.0440    -0.1040 H     1 <1>   0.0800 
 54 H        7.7470     2.5880    -1.4160 H     1 <1>   0.0800 
 55 H        7.4580     1.9740     0.1940 H     1 <1>   0.0800 
 56 H        4.6140     7.0400     0.6810 H     1 <1>   0.1500 
 57 H        7.0210     7.1540     1.1620 H     1 <1>   0.1500 
@<TRIPOS>BOND
  1   1   2  2   
  2   2   3  am  
  3   2   4  1   
  4   3   5  1   
  5   3   6  1   
  6   4   7  1   
  7   4   8  1   
  8   4  28  1   
  9   5   9  1   
 10   5  29  1   
 11   5  30  1   
 12   6  10  1   
 13   6  31  1   
 14   6  32  1   
 15   7  11  1   
 16   7  12  1   
 17   7  33  1   
 18   8  13  1   
 19   8  34  1   
 20   8  35  1   
 21   9  10  1   
 22   9  36  1   
 23   9  37  1   
 24  10  38  1   
 25  10  39  1   
 26  11  14  2   
 27  11  15  am  
 28  12  16  1   
 29  12  40  1   
 30  12  41  1   
 31  13  16  1   
 32  13  42  1   
 33  13  43  1   
 34  15  17  1   
 35  15  18  1   
 36  16  44  1   
 37  16  45  1   
 38  17  19  1   
 39  17  46  1   
 40  17  47  1   
 41  18  19  1   
 42  18  48  1   
 43  18  49  1   
 44  19  20  1   
 45  19  50  1   
 46  20  21  1   
 47  21  22  ar  
 48  21  23  ar  
 49  22  24  ar  
 50  22  25  1   
 51  23  26  ar  
 52  23  51  1   
 53  24  27  ar  
 54  24  52  1   
 55  25  53  1   
 56  25  54  1   
 57  25  55  1   
 58  26  27  ar  
 59  26  56  1   
 60  27  57  1   
@<TRIPOS>SUBSTRUCTURE
  1 ****  15 GROUP 4 **** **** 0

# MOE 2024.06 (io_trps.svl 2023.06)
