@<TRIPOS>MOLECULE
NONAME
48 51 1 0 0 
SMALL
USER_CHARGES


@<TRIPOS>ATOM
  1 O       -0.5750    -1.8020     0.3080 O.3   1 <1>  -0.0190 
  2 N       -0.4700    -0.5230     0.1000 N.2   1 <1>  -0.4100 
  3 C       -1.7300    -2.1180     0.8230 C.2   1 <1>  -0.0400 
  4 C       -1.5720     0.0010     0.4920 C.2   1 <1>   0.1080 
  5 C       -2.4420    -0.9860     0.9580 C.2   1 <1>  -0.1810 
  6 C       -2.0130    -3.5750     1.1360 C.3   1 <1>  -0.0600 
  7 C       -1.8250     1.4940     0.4360 C.3   1 <1>  -0.0590 
  8 C       -3.8460    -0.7920     1.4740 C.3   1 <1>   0.5240 
  9 N       -4.7350    -0.4950     0.3180 N.4   1 <1>  -0.9590 
 10 C       -6.1080    -0.0980     0.7810 C.3   1 <1>   0.3430 
 11 C       -4.7900    -1.6440    -0.6380 C.3   1 <1>   0.3430 
 12 C       -7.0240     0.3020    -0.3900 C.3   1 <1>   0.1430 
 13 C       -5.6420    -1.2700    -1.8540 C.3   1 <1>  -0.1600 
 14 C       -8.4100     0.5420     0.1560 C.ar  1 <1>   0.1670 
 15 C       -7.0560    -0.8160    -1.4520 C.3   1 <1>  -0.1600 
 16 C       -6.6670     1.6810    -1.0080 C.3   1 <1>  -0.1600 
 17 N       -9.0250    -0.2570     0.9960 N.ar  1 <1>  -0.6200 
 18 C       -8.9480     1.7010    -0.3130 C.ar  1 <1>  -0.1430 
 19 C       -8.0020     2.4160    -1.2440 C.3   1 <1>  -0.0170 
 20 C      -10.2410     0.1540     1.3400 C.ar  1 <1>   0.4770 
 21 C      -10.2100     2.0330     0.1140 C.ar  1 <1>   0.1600 
 22 N      -10.8670     1.2550     0.9500 N.ar  1 <1>  -0.6200 
 23 C      -11.0060    -0.7310     2.2950 C.3   1 <1>  -0.0970 
 24 H       -1.2850    -3.9390     1.8390 H     1 <1>   0.0800 
 25 H       -1.9400    -4.1620     0.2370 H     1 <1>   0.0800 
 26 H       -2.9930    -3.7000     1.5580 H     1 <1>   0.0800 
 27 H       -0.8840     2.0150     0.4020 H     1 <1>   0.0800 
 28 H       -2.3590     1.8230     1.3080 H     1 <1>   0.0800 
 29 H       -2.3790     1.7440    -0.4490 H     1 <1>   0.0800 
 30 H       -3.8580     0.0240     2.1780 H     1 <1>   0.0800 
 31 H       -4.1780    -1.6840     1.9780 H     1 <1>   0.0800 
 32 H       -4.3130     0.2900    -0.1890 H     1 <1>   0.4500 
 33 H       -6.0490     0.7260     1.4730 H     1 <1>   0.0800 
 34 H       -6.5680    -0.9260     1.2960 H     1 <1>   0.0800 
 35 H       -5.2210    -2.5040    -0.1510 H     1 <1>   0.0800 
 36 H       -3.7950    -1.9030    -0.9670 H     1 <1>   0.0800 
 37 H       -5.7190    -2.1290    -2.4980 H     1 <1>   0.0800 
 38 H       -5.1430    -0.5010    -2.4170 H     1 <1>   0.0800 
 39 H       -7.6010    -0.4870    -2.3210 H     1 <1>   0.0800 
 40 H       -7.5890    -1.6630    -1.0490 H     1 <1>   0.0800 
 41 H       -6.1040     1.6040    -1.9210 H     1 <1>   0.0800 
 42 H       -6.0950     2.2590    -0.3020 H     1 <1>   0.0800 
 43 H       -8.3350     2.2900    -2.2610 H     1 <1>   0.0800 
 44 H       -7.9300     3.4650    -1.0120 H     1 <1>   0.0800 
 45 H      -10.6870     2.9370    -0.2250 H     1 <1>   0.1500 
 46 H      -10.5670    -1.7100     2.3380 H     1 <1>   0.0800 
 47 H      -12.0250    -0.8200     1.9670 H     1 <1>   0.0800 
 48 H      -10.9910    -0.2920     3.2750 H     1 <1>   0.0800 
@<TRIPOS>BOND
  1   1   2  1   
  2   1   3  1   
  3   2   4  2   
  4   3   5  2   
  5   3   6  1   
  6   4   5  1   
  7   4   7  1   
  8   5   8  1   
  9   6  24  1   
 10   6  25  1   
 11   6  26  1   
 12   7  27  1   
 13   7  28  1   
 14   7  29  1   
 15   8   9  1   
 16   8  30  1   
 17   8  31  1   
 18   9  10  1   
 19   9  11  1   
 20   9  32  1   
 21  10  12  1   
 22  10  33  1   
 23  10  34  1   
 24  11  13  1   
 25  11  35  1   
 26  11  36  1   
 27  12  14  1   
 28  12  15  1   
 29  12  16  1   
 30  13  15  1   
 31  13  37  1   
 32  13  38  1   
 33  14  17  ar  
 34  14  18  ar  
 35  15  39  1   
 36  15  40  1   
 37  16  19  1   
 38  16  41  1   
 39  16  42  1   
 40  17  20  ar  
 41  18  19  1   
 42  18  21  ar  
 43  19  43  1   
 44  19  44  1   
 45  20  22  ar  
 46  20  23  1   
 47  21  22  ar  
 48  21  45  1   
 49  23  46  1   
 50  23  47  1   
 51  23  48  1   
@<TRIPOS>SUBSTRUCTURE
  1 ****  10 GROUP 4 **** **** 0

# MOE 2024.06 (io_trps.svl 2023.06)
