@<TRIPOS>MOLECULE
NONAME
50 53 1 0 0 
SMALL
USER_CHARGES


@<TRIPOS>ATOM
  1 F       -1.4590    -0.5540     1.7500 F     1 <1>  -0.1900 
  2 C       -2.0480    -1.0570     0.6940 C.ar  1 <1>   0.1900 
  3 C       -2.5070    -0.2400    -0.3470 C.ar  1 <1>   0.0820 
  4 C       -2.1930    -2.4290     0.6690 C.ar  1 <1>  -0.1500 
  5 O       -2.4210     1.1130    -0.4320 O.3   1 <1>  -0.3630 
  6 C       -3.1170    -0.8690    -1.4220 C.ar  1 <1>  -0.1500 
  7 C       -2.8170    -3.0570    -0.4080 C.ar  1 <1>   0.0860 
  8 C       -1.7500     1.9100     0.5190 C.3   1 <1>   0.0400 
  9 C       -3.2650    -2.2450    -1.4530 C.ar  1 <1>  -0.1500 
 10 C       -2.9760    -4.4980    -0.4370 C.2   1 <1>   0.5440 
 11 O       -2.0340    -5.2040    -0.1300 O.2   1 <1>  -0.5700 
 12 N       -4.1670    -5.0950    -0.7930 N.am  1 <1>  -0.6600 
 13 C       -5.5050    -4.4430    -0.6470 C.3   1 <1>   0.1400 
 14 C       -4.2570    -6.5560    -1.1050 C.3   1 <1>   0.1400 
 15 C       -6.3980    -5.2250     0.3380 C.3   1 <1>   0.1900 
 16 C       -5.1850    -7.2780    -0.1160 C.3   1 <1>   0.1100 
 17 N       -6.5230    -6.6450    -0.0730 N.3   1 <1>  -0.8100 
 18 C       -7.7890    -4.5660     0.4400 C.3   1 <1>   0.1200 
 19 C       -7.4400    -7.3600     0.8490 C.3   1 <1>   0.3330 
 20 O       -8.6010    -5.2720     1.3330 O.3   1 <1>  -0.5600 
 21 C       -7.6940    -8.7890     0.3740 C.ar  1 <1>  -0.1430 
 22 C       -8.7870    -6.6150     0.9680 C.3   1 <1>   0.1200 
 23 C       -8.0140    -9.0530    -0.9510 C.ar  1 <1>  -0.1500 
 24 C       -7.6130    -9.8460     1.2700 C.ar  1 <1>  -0.1500 
 25 C       -8.2500   -10.3500    -1.3740 C.ar  1 <1>  -0.1500 
 26 C       -7.8490   -11.1430     0.8490 C.ar  1 <1>  -0.1500 
 27 C       -8.1680   -11.3960    -0.4730 C.ar  1 <1>  -0.1500 
 28 H       -1.8190    -3.0220     1.4840 H     1 <1>   0.1500 
 29 H       -3.4730    -0.2660    -2.2400 H     1 <1>   0.1500 
 30 H       -1.7910     2.9320     0.1880 H     1 <1>   0.0800 
 31 H       -0.7250     1.5890     0.5860 H     1 <1>   0.0800 
 32 H       -2.2460     1.8160     1.4690 H     1 <1>   0.0800 
 33 H       -3.7310    -2.7080    -2.3060 H     1 <1>   0.1500 
 34 H       -5.3960    -3.4360    -0.2870 H     1 <1>   0.0800 
 35 H       -5.9850    -4.4080    -1.6090 H     1 <1>   0.0800 
 36 H       -4.6440    -6.6790    -2.1010 H     1 <1>   0.0800 
 37 H       -3.2830    -7.0120    -1.0750 H     1 <1>   0.0800 
 38 H       -5.9390    -5.1730     1.3110 H     1 <1>   0.0800 
 39 H       -4.7350    -7.2640     0.8620 H     1 <1>   0.0800 
 40 H       -5.2760    -8.3040    -0.4260 H     1 <1>   0.0800 
 41 H       -8.2710    -4.5460    -0.5220 H     1 <1>   0.0800 
 42 H       -7.7010    -3.5600     0.8090 H     1 <1>   0.0800 
 43 H       -6.9940    -7.3920     1.8290 H     1 <1>   0.0800 
 44 H       -9.3970    -7.0800     1.7200 H     1 <1>   0.0800 
 45 H       -9.3130    -6.6460     0.0310 H     1 <1>   0.0800 
 46 H       -8.0720    -8.2420    -1.6570 H     1 <1>   0.1500 
 47 H       -7.3670    -9.6650     2.3020 H     1 <1>   0.1500 
 48 H       -8.4960   -10.5430    -2.4040 H     1 <1>   0.1500 
 49 H       -7.7850   -11.9570     1.5510 H     1 <1>   0.1500 
 50 H       -8.3520   -12.4050    -0.8010 H     1 <1>   0.1500 
@<TRIPOS>BOND
  1   1   2  1   
  2   2   3  ar  
  3   2   4  ar  
  4   3   5  1   
  5   3   6  ar  
  6   4   7  ar  
  7   4  28  1   
  8   5   8  1   
  9   6   9  ar  
 10   6  29  1   
 11   7   9  ar  
 12   7  10  1   
 13   8  30  1   
 14   8  31  1   
 15   8  32  1   
 16   9  33  1   
 17  10  11  2   
 18  10  12  am  
 19  12  13  1   
 20  12  14  1   
 21  13  15  1   
 22  13  34  1   
 23  13  35  1   
 24  14  16  1   
 25  14  36  1   
 26  14  37  1   
 27  15  17  1   
 28  15  18  1   
 29  15  38  1   
 30  16  17  1   
 31  16  39  1   
 32  16  40  1   
 33  17  19  1   
 34  18  20  1   
 35  18  41  1   
 36  18  42  1   
 37  19  21  1   
 38  19  22  1   
 39  19  43  1   
 40  20  22  1   
 41  21  23  ar  
 42  21  24  ar  
 43  22  44  1   
 44  22  45  1   
 45  23  25  ar  
 46  23  46  1   
 47  24  26  ar  
 48  24  47  1   
 49  25  27  ar  
 50  25  48  1   
 51  26  27  ar  
 52  26  49  1   
 53  27  50  1   
@<TRIPOS>SUBSTRUCTURE
  1 ****  13 GROUP 4 **** **** 0

# MOE 2024.06 (io_trps.svl 2023.06)
