@<TRIPOS>MOLECULE
NONAME
48 51 1 0 0 
SMALL
USER_CHARGES


@<TRIPOS>ATOM
  1 F       -1.0630    -0.2270     1.0660 F     1 <1>  -0.1900 
  2 C       -2.2320     0.2480     0.7180 C.ar  1 <1>   0.1900 
  3 C       -2.4620     0.8020    -0.5470 C.ar  1 <1>   0.0820 
  4 C       -3.2320     0.1750     1.6680 C.ar  1 <1>  -0.1500 
  5 O       -1.5600     0.9330    -1.5620 O.3   1 <1>  -0.3630 
  6 C       -3.7350     1.2740    -0.8190 C.ar  1 <1>  -0.1500 
  7 C       -4.4920     0.6560     1.3640 C.ar  1 <1>  -0.1500 
  8 C       -0.2070     0.5540    -1.4440 C.3   1 <1>   0.0400 
  9 C       -4.7730     1.2110     0.1130 C.ar  1 <1>   0.0530 
 10 C       -6.0860     1.7090    -0.2140 C.2   1 <1>   0.0870 
 11 O       -6.2330     2.7160    -1.0380 O.3   1 <1>  -0.0190 
 12 C       -7.3340     1.3300     0.1640 C.2   1 <1>  -0.0860 
 13 N       -7.4850     3.0440    -1.2250 N.2   1 <1>  -0.4100 
 14 C       -8.1690     2.2290    -0.5010 C.2   1 <1>   0.3720 
 15 C       -7.7810     0.2630     0.9940 C.2   1 <1>   0.7160 
 16 N       -9.5690     2.2430    -0.3960 N.pl3 1 <1>  -0.8210 
 17 O       -7.8070     0.3930     2.2050 O.2   1 <1>  -0.5700 
 18 N       -8.1740    -0.9290     0.4520 N.am  1 <1>  -0.5100 
 19 C      -10.2780     2.8650    -1.5510 C.3   1 <1>   0.1290 
 20 C      -10.0560     2.7910     0.9000 C.3   1 <1>   0.1290 
 21 C       -9.2720    -1.7700     1.0370 C.3   1 <1>   0.2250 
 22 C       -8.7600    -1.1010    -0.9240 C.3   1 <1>   0.2250 
 23 C       -9.5280    -2.3280    -0.3820 C.3   1 <1>   0.2250 
 24 N       -8.9010    -3.6400    -0.6650 N.am  1 <1>  -0.6550 
 25 C      -10.9940    -2.5020    -0.8140 C.3   1 <1>   0.1400 
 26 C       -9.8340    -4.5160    -1.0630 C.2   1 <1>   0.6900 
 27 N      -11.0190    -3.9140    -1.2590 N.am  1 <1>  -0.7300 
 28 O       -9.6580    -5.7100    -1.1400 O.2   1 <1>  -0.5700 
 29 H       -3.0240    -0.2520     2.6330 H     1 <1>   0.1500 
 30 H       -3.9220     1.7020    -1.7880 H     1 <1>   0.1500 
 31 H       -5.2610     0.6070     2.1140 H     1 <1>   0.1500 
 32 H        0.2870     0.7870    -2.3700 H     1 <1>   0.0800 
 33 H       -0.1540    -0.5050    -1.2600 H     1 <1>   0.0800 
 34 H        0.2440     1.1090    -0.6410 H     1 <1>   0.0800 
 35 H       -9.8970     2.4610    -2.4740 H     1 <1>   0.0800 
 36 H      -10.1240     3.9310    -1.5510 H     1 <1>   0.0800 
 37 H      -11.3320     2.6570    -1.4920 H     1 <1>   0.0800 
 38 H       -9.5490     2.3200     1.7240 H     1 <1>   0.0800 
 39 H      -11.1120     2.6110     1.0020 H     1 <1>   0.0800 
 40 H       -9.8720     3.8520     0.9440 H     1 <1>   0.0800 
 41 H      -10.0700    -1.1540     1.4150 H     1 <1>   0.0000 
 42 H       -8.9010    -2.4960     1.7370 H     1 <1>   0.0000 
 43 H       -8.0130    -1.3370    -1.6600 H     1 <1>   0.0000 
 44 H       -9.4010    -0.2810    -1.1880 H     1 <1>   0.0000 
 45 H       -8.0720    -3.9650    -0.1690 H     1 <1>   0.3700 
 46 H      -11.2460    -1.8440    -1.6280 H     1 <1>   0.0800 
 47 H      -11.6700    -2.3480     0.0100 H     1 <1>   0.0800 
 48 H      -11.8700    -4.4750    -1.3140 H     1 <1>   0.3700 
@<TRIPOS>BOND
  1   1   2  1   
  2   2   3  ar  
  3   2   4  ar  
  4   3   5  1   
  5   3   6  ar  
  6   4   7  ar  
  7   4  29  1   
  8   5   8  1   
  9   6   9  ar  
 10   6  30  1   
 11   7   9  ar  
 12   7  31  1   
 13   8  32  1   
 14   8  33  1   
 15   8  34  1   
 16   9  10  1   
 17  10  11  1   
 18  10  12  2   
 19  11  13  1   
 20  12  14  1   
 21  12  15  1   
 22  13  14  2   
 23  14  16  1   
 24  15  17  2   
 25  15  18  am  
 26  16  19  1   
 27  16  20  1   
 28  18  21  1   
 29  18  22  1   
 30  19  35  1   
 31  19  36  1   
 32  19  37  1   
 33  20  38  1   
 34  20  39  1   
 35  20  40  1   
 36  21  23  1   
 37  21  41  1   
 38  21  42  1   
 39  22  23  1   
 40  22  43  1   
 41  22  44  1   
 42  23  24  1   
 43  23  25  1   
 44  24  26  am  
 45  24  45  1   
 46  25  27  1   
 47  25  46  1   
 48  25  47  1   
 49  26  27  am  
 50  26  28  2   
 51  27  48  1   
@<TRIPOS>SUBSTRUCTURE
  1 ****  12 GROUP 4 **** **** 0

# MOE 2024.06 (io_trps.svl 2023.06)
