@<TRIPOS>MOLECULE
NONAME
48 51 1 0 0 
SMALL
USER_CHARGES


@<TRIPOS>ATOM
  1 CL       2.3040    -4.5470    -2.9220 Cl    1 <1>  -0.1770 
  2 C        2.3090    -3.4470    -1.5630 C.ar  1 <1>   0.1770 
  3 C        1.1660    -2.7250    -1.2320 C.ar  1 <1>  -0.1440 
  4 C        3.4820    -3.3230    -0.8420 C.ar  1 <1>  -0.1500 
  5 C        1.2240    -1.8510    -0.1530 C.ar  1 <1>  -0.1500 
  6 C       -0.1390    -2.8770    -2.0140 C.3   1 <1>   0.0450 
  7 C        3.5260    -2.4580     0.2350 C.ar  1 <1>   0.0820 
  8 C        2.3890    -1.7240     0.5840 C.ar  1 <1>   0.0820 
  9 C       -0.7710    -4.2660    -1.9620 C.2   1 <1>   0.5690 
 10 O        4.6820    -2.3350     0.9330 O.3   1 <1>  -0.3630 
 11 O        2.3960    -0.8830     1.6490 O.3   1 <1>  -0.3630 
 12 O       -1.1940    -4.7190    -3.0000 O.2   1 <1>  -0.5700 
 13 N       -0.9000    -4.9690    -0.7920 N.am  1 <1>  -0.6600 
 14 C        4.7920    -1.2210     1.7990 C.3   1 <1>   0.1200 
 15 C        3.4750    -1.0060     2.5580 C.3   1 <1>   0.1200 
 16 C       -0.5630    -4.5180     0.5810 C.3   1 <1>   0.1400 
 17 C       -1.4780    -6.3340    -0.7640 C.3   1 <1>   0.1400 
 18 C       -1.1580    -5.5820     1.5010 C.3   1 <1>   0.2000 
 19 C       -1.2370    -6.8510     0.6550 C.3   1 <1>  -0.0800 
 20 O       -0.3610    -5.7980     2.6140 O.3   1 <1>  -0.6800 
 21 C       -2.3130    -7.8300     1.1480 C.3   1 <1>  -0.0170 
 22 C       -2.3550    -9.0810     0.2840 C.ar  1 <1>  -0.1430 
 23 C       -3.2540    -9.2300    -0.7530 C.ar  1 <1>  -0.1500 
 24 C       -1.4890   -10.1350     0.4950 C.ar  1 <1>  -0.1500 
 25 C       -3.2420   -10.3910    -1.5080 C.ar  1 <1>   0.1600 
 26 C       -1.5600   -11.2540    -0.3180 C.ar  1 <1>   0.1600 
 27 N       -2.4160   -11.4070    -1.3150 N.ar  1 <1>  -0.6200 
 28 H        4.3520    -3.8900    -1.1160 H     1 <1>   0.1500 
 29 H        0.3700    -1.2640     0.1340 H     1 <1>   0.1500 
 30 H        0.0520    -2.6340    -3.0440 H     1 <1>   0.0800 
 31 H       -0.8690    -2.1760    -1.6580 H     1 <1>   0.0800 
 32 H        5.6010    -1.4100     2.4820 H     1 <1>   0.0800 
 33 H        5.0260    -0.3560     1.2040 H     1 <1>   0.0800 
 34 H        3.5150    -0.1080     3.1470 H     1 <1>   0.0800 
 35 H        3.2750    -1.8430     3.2040 H     1 <1>   0.0800 
 36 H        0.5070    -4.4860     0.6910 H     1 <1>   0.0800 
 37 H       -0.9920    -3.5530     0.7820 H     1 <1>   0.0800 
 38 H       -2.5300    -6.2680    -0.9800 H     1 <1>   0.0800 
 39 H       -1.0050    -6.9640    -1.5000 H     1 <1>   0.0800 
 40 H       -2.1330    -5.2710     1.8360 H     1 <1>   0.0800 
 41 H       -0.2790    -7.3410     0.6550 H     1 <1>   0.0800 
 42 H        0.5320    -6.0860     2.3430 H     1 <1>   0.4000 
 43 H       -3.2770    -7.3530     1.1420 H     1 <1>   0.0800 
 44 H       -2.0990    -8.1100     2.1660 H     1 <1>   0.0800 
 45 H       -3.9640    -8.4570    -0.9830 H     1 <1>   0.1500 
 46 H       -0.7600   -10.0970     1.2840 H     1 <1>   0.1500 
 47 H       -3.9490   -10.4890    -2.3140 H     1 <1>   0.1500 
 48 H       -0.8770   -12.0660    -0.1390 H     1 <1>   0.1500 
@<TRIPOS>BOND
  1   1   2  1   
  2   2   3  ar  
  3   2   4  ar  
  4   3   5  ar  
  5   3   6  1   
  6   4   7  ar  
  7   4  28  1   
  8   5   8  ar  
  9   5  29  1   
 10   6   9  1   
 11   6  30  1   
 12   6  31  1   
 13   7   8  ar  
 14   7  10  1   
 15   8  11  1   
 16   9  12  2   
 17   9  13  am  
 18  10  14  1   
 19  11  15  1   
 20  13  16  1   
 21  13  17  1   
 22  14  15  1   
 23  14  32  1   
 24  14  33  1   
 25  15  34  1   
 26  15  35  1   
 27  16  18  1   
 28  16  36  1   
 29  16  37  1   
 30  17  19  1   
 31  17  38  1   
 32  17  39  1   
 33  18  19  1   
 34  18  20  1   
 35  18  40  1   
 36  19  21  1   
 37  19  41  1   
 38  20  42  1   
 39  21  22  1   
 40  21  43  1   
 41  21  44  1   
 42  22  23  ar  
 43  22  24  ar  
 44  23  25  ar  
 45  23  45  1   
 46  24  26  ar  
 47  24  46  1   
 48  25  27  ar  
 49  25  47  1   
 50  26  27  ar  
 51  26  48  1   
@<TRIPOS>SUBSTRUCTURE
  1 ****  16 GROUP 4 **** **** 0

# MOE 2024.06 (io_trps.svl 2023.06)
