@<TRIPOS>MOLECULE
NONAME
37 38 1 0 0 
SMALL
USER_CHARGES


@<TRIPOS>ATOM
  1 S       -0.9280     0.4680    -1.4600 S.o2  1 <1>   1.4470 
  2 O       -0.9000    -0.7430    -2.2500 O.2   1 <1>  -0.6500 
  3 O       -1.4200     1.6800    -2.0830 O.2   1 <1>  -0.6500 
  4 N       -1.9120     0.2050    -0.1020 N.am  1 <1>  -0.8490 
  5 C        0.7190     0.8080    -0.7710 C.ar  1 <1>  -0.0090 
  6 C       -1.4620    -0.8390     0.8390 C.3   1 <1>   0.1960 
  7 C       -3.3500     0.1390    -0.4200 C.3   1 <1>   0.1960 
  8 C        1.6480    -0.2130    -0.5900 C.ar  1 <1>  -0.1500 
  9 C        1.0790     2.0950    -0.3830 C.ar  1 <1>  -0.1500 
 10 C       -1.7280    -2.2600     0.3350 C.3   1 <1>  -0.1860 
 11 C       -4.0010    -1.2100    -0.0810 C.3   1 <1>  -0.1600 
 12 C        2.8970     0.0420    -0.0480 C.ar  1 <1>  -0.1500 
 13 C        2.3260     2.3660     0.1570 C.ar  1 <1>  -0.1500 
 14 C       -1.5770    -3.1420     1.5520 C.2   1 <1>   0.9060 
 15 C       -3.0630    -2.3600    -0.4350 C.3   1 <1>   0.2000 
 16 C        3.2310     1.3310     0.3200 C.ar  1 <1>   0.1010 
 17 O       -0.4330    -3.3810     1.9440 O.co2 1 <1>  -0.9000 
 18 O       -2.5820    -3.5430     2.1550 O.co2 1 <1>  -0.9000 
 19 O       -3.7190    -3.5370    -0.1580 O.3   1 <1>  -0.6800 
 20 S        4.8730     1.5910     1.0110 S.3   1 <1>  -0.3310 
 21 C        5.0050     3.3890     1.4120 C.3   1 <1>  -0.0100 
 22 H       -0.4180    -0.7270     1.0750 H     1 <1>   0.0800 
 23 H       -1.9980    -0.7000     1.7640 H     1 <1>   0.0800 
 24 H       -3.8580     0.9180     0.1220 H     1 <1>   0.0800 
 25 H       -3.4990     0.3330    -1.4700 H     1 <1>   0.0800 
 26 H        1.3900    -1.2220    -0.8700 H     1 <1>   0.1500 
 27 H        0.3690     2.8960    -0.5090 H     1 <1>   0.1500 
 28 H       -0.9410    -2.5400    -0.3360 H     1 <1>   0.0800 
 29 H       -4.9200    -1.3070    -0.6300 H     1 <1>   0.0800 
 30 H       -4.2310    -1.2440     0.9700 H     1 <1>   0.0800 
 31 H        3.6050    -0.7550     0.0910 H     1 <1>   0.1500 
 32 H        2.5680     3.3710     0.4410 H     1 <1>   0.1500 
 33 H       -2.8700    -2.3440    -1.4940 H     1 <1>   0.0800 
 34 H       -3.5130    -3.7480     0.8040 H     1 <1>   0.4000 
 35 H        5.9820     3.5580     1.8280 H     1 <1>   0.0800 
 36 H        4.2390     3.6260     2.1290 H     1 <1>   0.0800 
 37 H        4.8780     3.9430     0.5000 H     1 <1>   0.0800 
@<TRIPOS>BOND
  1   1   2  2   
  2   1   3  2   
  3   1   4  am  
  4   1   5  1   
  5   4   6  1   
  6   4   7  1   
  7   5   8  ar  
  8   5   9  ar  
  9   6  10  1   
 10   6  22  1   
 11   6  23  1   
 12   7  11  1   
 13   7  24  1   
 14   7  25  1   
 15   8  12  ar  
 16   8  26  1   
 17   9  13  ar  
 18   9  27  1   
 19  10  14  1   
 20  10  15  1   
 21  10  28  1   
 22  11  15  1   
 23  11  29  1   
 24  11  30  1   
 25  12  16  ar  
 26  12  31  1   
 27  13  16  ar  
 28  13  32  1   
 29  14  17  ar  
 30  14  18  ar  
 31  15  19  1   
 32  15  33  1   
 33  16  20  1   
 34  19  34  1   
 35  20  21  1   
 36  21  35  1   
 37  21  36  1   
 38  21  37  1   
@<TRIPOS>SUBSTRUCTURE
  1 ****   6 GROUP 4 **** **** 0

# MOE 2024.06 (io_trps.svl 2023.06)
