@<TRIPOS>MOLECULE
NONAME
60 62 1 0 0 
SMALL
USER_CHARGES


@<TRIPOS>ATOM
  1 O       -1.7320     0.4770    -1.6010 O.2   1 <1>  -0.5700 
  2 C       -1.8420     0.8490    -0.4590 C.2   1 <1>   0.5690 
  3 N       -2.1120    -0.0090     0.5510 N.am  1 <1>  -0.7300 
  4 C       -1.6710     2.3230    -0.1480 C.3   1 <1>  -0.0990 
  5 C       -2.3370    -1.4630     0.3810 C.3   1 <1>   0.2200 
  6 C       -0.1940     2.7420     0.0230 C.3   1 <1>  -0.0800 
  7 C       -3.8310    -1.7410     0.4000 C.3   1 <1>  -0.0800 
  8 C       -1.8740    -2.1990     1.6320 C.3   1 <1>   0.1200 
  9 C       -0.1070     4.2250     0.4180 C.3   1 <1>  -0.1600 
 10 C        0.6120     2.5390    -1.2730 C.3   1 <1>  -0.1600 
 11 C       -4.1310    -1.8640     1.9010 C.3   1 <1>   0.1200 
 12 C       -4.1740    -3.0280    -0.3740 C.3   1 <1>  -0.0160 
 13 O       -2.9080    -2.0490     2.5540 O.3   1 <1>  -0.5600 
 14 C        1.3320     4.7530     0.5530 C.3   1 <1>   0.5030 
 15 C        2.0690     3.0220    -1.1900 C.3   1 <1>   0.5030 
 16 C       -5.6720    -3.2910    -0.3800 C.ar  1 <1>  -0.1440 
 17 N        2.1490     4.3710    -0.6090 N.4   1 <1>  -0.9060 
 18 C        1.3160     6.2800     0.5560 C.3   1 <1>  -0.2400 
 19 C        1.9980     4.2830     1.8490 C.3   1 <1>  -0.2400 
 20 C        2.6450     3.1490    -2.5990 C.3   1 <1>  -0.2400 
 21 C        2.9520     2.0510    -0.4020 C.3   1 <1>  -0.2400 
 22 C       -6.5330    -2.5530    -1.1670 C.ar  1 <1>  -0.1500 
 23 C       -6.2500    -4.2770     0.3950 C.ar  1 <1>  -0.1500 
 24 C       -7.8910    -2.8240    -1.1390 C.ar  1 <1>   0.1600 
 25 C       -7.6210    -4.4670     0.3500 C.ar  1 <1>   0.1600 
 26 N       -8.4560    -3.7630    -0.3970 N.ar  1 <1>  -0.6200 
 27 H       -2.2740     0.3200     1.5060 H     1 <1>   0.3700 
 28 H       -2.1230     2.8840    -0.9460 H     1 <1>   0.0800 
 29 H       -2.2180     2.5460     0.7500 H     1 <1>   0.0800 
 30 H       -1.8470    -1.8180    -0.5110 H     1 <1>   0.0800 
 31 H        0.2280     2.1360     0.8070 H     1 <1>   0.0800 
 32 H       -4.3810    -0.9250    -0.0350 H     1 <1>   0.0800 
 33 H       -0.9620    -1.7990     2.0390 H     1 <1>   0.0800 
 34 H       -1.7560    -3.2500     1.4370 H     1 <1>   0.0800 
 35 H       -0.6250     4.3790     1.3500 H     1 <1>   0.0800 
 36 H       -0.6270     4.8090    -0.3230 H     1 <1>   0.0800 
 37 H        0.1110     3.0510    -2.0750 H     1 <1>   0.0800 
 38 H        0.6210     1.4950    -1.5370 H     1 <1>   0.0800 
 39 H       -4.7740    -2.6950     2.1330 H     1 <1>   0.0800 
 40 H       -4.5700    -0.9580     2.2800 H     1 <1>   0.0800 
 41 H       -3.6610    -3.8710     0.0560 H     1 <1>   0.0800 
 42 H       -3.8400    -2.9300    -1.3930 H     1 <1>   0.0800 
 43 H        3.1270     4.5650    -0.3910 H     1 <1>   0.4500 
 44 H        1.8860     5.0110    -1.3600 H     1 <1>   0.4500 
 45 H        0.7240     6.6390     1.3800 H     1 <1>   0.0800 
 46 H        0.8820     6.6710    -0.3470 H     1 <1>   0.0800 
 47 H        2.3090     6.6800     0.6710 H     1 <1>   0.0800 
 48 H        1.5150     4.7470     2.6910 H     1 <1>   0.0800 
 49 H        3.0370     4.5590     1.8770 H     1 <1>   0.0800 
 50 H        1.9070     3.2260     1.9960 H     1 <1>   0.0800 
 51 H        2.6070     2.1950    -3.0960 H     1 <1>   0.0800 
 52 H        3.6740     3.4630    -2.5740 H     1 <1>   0.0800 
 53 H        2.0780     3.8430    -3.1940 H     1 <1>   0.0800 
 54 H        3.0570     1.1330    -0.9550 H     1 <1>   0.0800 
 55 H        2.5230     1.7830     0.5420 H     1 <1>   0.0800 
 56 H        3.9370     2.4530    -0.2480 H     1 <1>   0.0800 
 57 H       -6.1600    -1.7700    -1.8030 H     1 <1>   0.1500 
 58 H       -5.6500    -4.8990     1.0330 H     1 <1>   0.1500 
 59 H       -8.5460    -2.2380    -1.7600 H     1 <1>   0.1500 
 60 H       -8.0550    -5.2400     0.9610 H     1 <1>   0.1500 
@<TRIPOS>BOND
  1   1   2  2   
  2   2   3  am  
  3   2   4  1   
  4   3   5  1   
  5   3  27  1   
  6   4   6  1   
  7   4  28  1   
  8   4  29  1   
  9   5   7  1   
 10   5   8  1   
 11   5  30  1   
 12   6   9  1   
 13   6  10  1   
 14   6  31  1   
 15   7  11  1   
 16   7  12  1   
 17   7  32  1   
 18   8  13  1   
 19   8  33  1   
 20   8  34  1   
 21   9  14  1   
 22   9  35  1   
 23   9  36  1   
 24  10  15  1   
 25  10  37  1   
 26  10  38  1   
 27  11  13  1   
 28  11  39  1   
 29  11  40  1   
 30  12  16  1   
 31  12  41  1   
 32  12  42  1   
 33  14  17  1   
 34  14  18  1   
 35  14  19  1   
 36  15  17  1   
 37  15  20  1   
 38  15  21  1   
 39  16  22  ar  
 40  16  23  ar  
 41  17  43  1   
 42  17  44  1   
 43  18  45  1   
 44  18  46  1   
 45  18  47  1   
 46  19  48  1   
 47  19  49  1   
 48  19  50  1   
 49  20  51  1   
 50  20  52  1   
 51  20  53  1   
 52  21  54  1   
 53  21  55  1   
 54  21  56  1   
 55  22  24  ar  
 56  22  57  1   
 57  23  25  ar  
 58  23  58  1   
 59  24  26  ar  
 60  24  59  1   
 61  25  26  ar  
 62  25  60  1   
@<TRIPOS>SUBSTRUCTURE
  1 ****   3 GROUP 4 **** **** 0

# MOE 2024.06 (io_trps.svl 2023.06)
