@<TRIPOS>MOLECULE
NONAME
38 40 1 0 0 
SMALL
USER_CHARGES


@<TRIPOS>ATOM
  1 CL       0.5420    -0.4660    -0.8460 Cl    1 <1>  -0.1770 
  2 C       -0.4820    -1.8640    -0.6520 C.ar  1 <1>   0.1770 
  3 C        0.0820    -3.1250    -0.6410 C.ar  1 <1>  -0.1500 
  4 C       -1.8460    -1.6980    -0.5120 C.ar  1 <1>  -0.1500 
  5 C       -0.7350    -4.2300    -0.4880 C.ar  1 <1>  -0.1500 
  6 C       -2.6520    -2.8120    -0.3620 C.ar  1 <1>  -0.1500 
  7 C       -2.1220    -4.1060    -0.3450 C.ar  1 <1>   0.0530 
  8 C       -2.9540    -5.2790    -0.1940 C.2   1 <1>   0.0870 
  9 O       -2.4820    -6.4600    -0.5180 O.3   1 <1>  -0.0190 
 10 C       -4.2270    -5.4760     0.2360 C.2   1 <1>  -0.2330 
 11 N       -3.3450    -7.4220    -0.3330 N.2   1 <1>  -0.4100 
 12 C       -4.4130    -6.8560     0.1180 C.2   1 <1>   0.3720 
 13 C       -5.1600    -4.5130     0.7260 C.2   1 <1>   1.0330 
 14 N       -5.5730    -7.5720     0.4570 N.pl3 1 <1>  -0.8210 
 15 O       -4.9480    -3.9140     1.7930 O.co2 1 <1>  -0.9000 
 16 O       -6.1390    -4.1670     0.0380 O.co2 1 <1>  -0.9000 
 17 C       -6.8540    -7.0550    -0.1020 C.3   1 <1>   0.2090 
 18 C       -5.5580    -9.0470     0.3400 C.3   1 <1>   0.2090 
 19 C       -7.6460    -8.2790    -0.5980 C.3   1 <1>   0.0000 
 20 C       -7.0190    -9.4400     0.1740 C.3   1 <1>  -0.1600 
 21 C       -7.4370    -8.4710    -2.1120 C.3   1 <1>  -0.2400 
 22 C       -9.1470    -8.1540    -0.3020 C.3   1 <1>  -0.2400 
 23 H        1.1460    -3.2350    -0.7500 H     1 <1>   0.1500 
 24 H       -2.2740    -0.7120    -0.5170 H     1 <1>   0.1500 
 25 H       -0.2930    -5.2110    -0.4750 H     1 <1>   0.1500 
 26 H       -3.7130    -2.6670    -0.2530 H     1 <1>   0.1500 
 27 H       -6.6770    -6.3630    -0.9080 H     1 <1>   0.0800 
 28 H       -7.3840    -6.5400     0.6800 H     1 <1>   0.0800 
 29 H       -5.1230    -9.4870     1.2210 H     1 <1>   0.0800 
 30 H       -4.9940    -9.3440    -0.5280 H     1 <1>   0.0800 
 31 H       -7.4550    -9.5140     1.1540 H     1 <1>   0.0800 
 32 H       -7.1230   -10.3860    -0.3260 H     1 <1>   0.0800 
 33 H       -6.3880    -8.5330    -2.3450 H     1 <1>   0.0800 
 34 H       -7.8470    -7.6360    -2.6520 H     1 <1>   0.0800 
 35 H       -7.9200    -9.3690    -2.4520 H     1 <1>   0.0800 
 36 H       -9.3120    -8.0120     0.7520 H     1 <1>   0.0800 
 37 H       -9.6690    -9.0410    -0.6150 H     1 <1>   0.0800 
 38 H       -9.5590    -7.3080    -0.8230 H     1 <1>   0.0800 
@<TRIPOS>BOND
  1   1   2  1   
  2   2   3  ar  
  3   2   4  ar  
  4   3   5  ar  
  5   3  23  1   
  6   4   6  ar  
  7   4  24  1   
  8   5   7  ar  
  9   5  25  1   
 10   6   7  ar  
 11   6  26  1   
 12   7   8  1   
 13   8   9  1   
 14   8  10  2   
 15   9  11  1   
 16  10  12  1   
 17  10  13  1   
 18  11  12  2   
 19  12  14  1   
 20  13  15  ar  
 21  13  16  ar  
 22  14  17  1   
 23  14  18  1   
 24  17  19  1   
 25  17  27  1   
 26  17  28  1   
 27  18  20  1   
 28  18  29  1   
 29  18  30  1   
 30  19  20  1   
 31  19  21  1   
 32  19  22  1   
 33  20  31  1   
 34  20  32  1   
 35  21  33  1   
 36  21  34  1   
 37  21  35  1   
 38  22  36  1   
 39  22  37  1   
 40  22  38  1   
@<TRIPOS>SUBSTRUCTURE
  1 ****  10 GROUP 4 **** **** 0

# MOE 2024.06 (io_trps.svl 2023.06)
