@<TRIPOS>MOLECULE
NONAME
53 56 1 0 0 
SMALL
USER_CHARGES


@<TRIPOS>ATOM
  1 O       -0.5150     2.4520     3.1320 O.2   1 <1>  -0.5700 
  2 C       -0.1080     2.9570     2.0990 C.2   1 <1>   0.6160 
  3 N       -1.0290     3.4760     1.2060 N.am  1 <1>  -0.6600 
  4 C        1.3080     3.0680     1.9120 C.2   1 <1>   0.0290 
  5 C       -2.4880     3.1720     1.3230 C.3   1 <1>   0.1400 
  6 C       -0.6780     4.3280     0.0380 C.3   1 <1>   0.1400 
  7 C        1.9450     2.3860     0.8310 C.2   1 <1>   0.4690 
  8 C        2.0720     3.8060     2.7750 C.2   1 <1>  -0.0500 
  9 C       -3.0300     2.4830     0.0470 C.3   1 <1>   0.0000 
 10 C       -1.1850     3.6810    -1.2550 C.3   1 <1>  -0.1600 
 11 O        1.3080     1.6910     0.0470 O.2   1 <1>  -0.5700 
 12 C        3.3720     2.5280     0.6610 C.ar  1 <1>   0.0860 
 13 N        3.4180     3.9370     2.6140 N.pl3 1 <1>  -0.6000 
 14 C       -4.5430     2.2390     0.2240 C.3   1 <1>   0.2000 
 15 C       -2.6860     3.3570    -1.1830 C.3   1 <1>  -0.1600 
 16 C       -2.4680     1.0560    -0.0780 C.3   1 <1>  -0.1600 
 17 C        4.0940     3.3170     1.5700 C.ar  1 <1>   0.1000 
 18 C        4.0730     1.9090    -0.3810 C.ar  1 <1>  -0.1500 
 19 O       -5.1360     2.0160    -1.0230 O.3   1 <1>  -0.5600 
 20 C       -4.6460     0.9490     1.0500 C.3   1 <1>  -0.1600 
 21 C       -3.3360     0.1790     0.8300 C.3   1 <1>  -0.1600 
 22 C        5.4700     3.4720     1.4250 C.ar  1 <1>  -0.1500 
 23 C        5.4420     2.0680    -0.5190 C.ar  1 <1>   0.0830 
 24 C       -6.5020     2.2800    -1.0840 C.3   1 <1>   0.0400 
 25 C        6.1360     2.8550     0.3910 C.ar  1 <1>  -0.1500 
 26 O        6.1780     1.4950    -1.5060 O.3   1 <1>  -0.3620 
 27 C        5.5770     0.6530    -2.4660 C.3   1 <1>   0.0400 
 28 H       -2.6730     2.5470     2.1790 H     1 <1>   0.0800 
 29 H       -3.0130     4.0970     1.4800 H     1 <1>   0.0800 
 30 H       -1.1430     5.2910     0.1620 H     1 <1>   0.0800 
 31 H        0.3840     4.4790    -0.0280 H     1 <1>   0.0800 
 32 H        1.6130     4.3040     3.6150 H     1 <1>   0.1500 
 33 H       -1.0000     4.3460    -2.0800 H     1 <1>   0.0800 
 34 H       -0.6270     2.7790    -1.4370 H     1 <1>   0.0800 
 35 H        3.9710     4.4870     3.2840 H     1 <1>   0.4000 
 36 H       -5.0260     3.0760     0.6990 H     1 <1>   0.0800 
 37 H       -2.9800     2.8540    -2.0880 H     1 <1>   0.0800 
 38 H       -3.2430     4.2760    -1.1280 H     1 <1>   0.0800 
 39 H       -2.5870     0.7170    -1.0930 H     1 <1>   0.0800 
 40 H       -1.4260     0.9910     0.1820 H     1 <1>   0.0800 
 41 H        3.5120     1.3060    -1.0700 H     1 <1>   0.1500 
 42 H       -4.7290     1.2020     2.0920 H     1 <1>   0.0800 
 43 H       -5.4990     0.3580     0.7710 H     1 <1>   0.0800 
 44 H       -2.8390     0.0220     1.7720 H     1 <1>   0.0800 
 45 H       -3.5170    -0.7760     0.3680 H     1 <1>   0.0800 
 46 H        6.0150     4.0790     2.1260 H     1 <1>   0.1500 
 47 H       -6.8420     2.0410    -2.0760 H     1 <1>   0.0800 
 48 H       -6.6700     3.3240    -0.8850 H     1 <1>   0.0800 
 49 H       -7.0200     1.6680    -0.3670 H     1 <1>   0.0800 
 50 H        7.1990     2.9700     0.2720 H     1 <1>   0.1500 
 51 H        6.3450     0.3080    -3.1350 H     1 <1>   0.0800 
 52 H        4.8420     1.2150    -3.0140 H     1 <1>   0.0800 
 53 H        5.1270    -0.1850    -1.9640 H     1 <1>   0.0800 
@<TRIPOS>BOND
  1   1   2  2   
  2   2   3  am  
  3   2   4  1   
  4   3   5  1   
  5   3   6  1   
  6   4   7  1   
  7   4   8  2   
  8   5   9  1   
  9   5  28  1   
 10   5  29  1   
 11   6  10  1   
 12   6  30  1   
 13   6  31  1   
 14   7  11  2   
 15   7  12  1   
 16   8  13  1   
 17   8  32  1   
 18   9  14  1   
 19   9  15  1   
 20   9  16  1   
 21  10  15  1   
 22  10  33  1   
 23  10  34  1   
 24  12  17  ar  
 25  12  18  ar  
 26  13  17  1   
 27  13  35  1   
 28  14  19  1   
 29  14  20  1   
 30  14  36  1   
 31  15  37  1   
 32  15  38  1   
 33  16  21  1   
 34  16  39  1   
 35  16  40  1   
 36  17  22  ar  
 37  18  23  ar  
 38  18  41  1   
 39  19  24  1   
 40  20  21  1   
 41  20  42  1   
 42  20  43  1   
 43  21  44  1   
 44  21  45  1   
 45  22  25  ar  
 46  22  46  1   
 47  23  25  ar  
 48  23  26  1   
 49  24  47  1   
 50  24  48  1   
 51  24  49  1   
 52  25  50  1   
 53  26  27  1   
 54  27  51  1   
 55  27  52  1   
 56  27  53  1   
@<TRIPOS>SUBSTRUCTURE
  1 ****  11 GROUP 4 **** **** 0

# MOE 2024.06 (io_trps.svl 2023.06)
