@<TRIPOS>MOLECULE
NONAME
44 45 1 0 0 
SMALL
USER_CHARGES


@<TRIPOS>ATOM
  1 F       -0.1990    -2.1110    -2.4890 F     1 <1>  -0.1900 
  2 C       -0.1130    -2.9260    -1.4720 C.ar  1 <1>   0.1900 
  3 C       -1.2610    -3.5450    -1.0150 C.ar  1 <1>  -0.1500 
  4 C        1.1230    -3.1360    -0.8900 C.ar  1 <1>  -0.1500 
  5 C       -1.1740    -4.4060     0.0690 C.ar  1 <1>  -0.1440 
  6 C        1.2060    -4.0010     0.1880 C.ar  1 <1>  -0.1500 
  7 C        0.0640    -4.6310     0.6610 C.ar  1 <1>  -0.1500 
  8 C       -2.4280    -5.0960     0.6030 C.3   1 <1>   0.0450 
  9 C       -2.8380    -6.3670    -0.1380 C.2   1 <1>   0.5690 
 10 O       -2.1190    -6.7840    -1.0180 O.2   1 <1>  -0.5700 
 11 N       -4.0040    -7.0090     0.2010 N.am  1 <1>  -0.6600 
 12 C       -4.4690    -8.2310    -0.5300 C.3   1 <1>   0.1400 
 13 C       -4.9500    -6.5950     1.2760 C.3   1 <1>   0.1400 
 14 C       -5.8590    -7.9800    -1.1380 C.3   1 <1>   0.2000 
 15 C       -6.3310    -6.3210     0.6660 C.3   1 <1>  -0.1600 
 16 O       -6.2690    -9.1270    -1.7970 O.3   1 <1>  -0.6800 
 17 C       -6.9090    -7.5660    -0.0700 C.3   1 <1>  -0.1060 
 18 C       -7.1320    -8.7350     0.9200 C.2   1 <1>   0.9060 
 19 C       -8.2420    -7.1920    -0.7830 C.3   1 <1>  -0.1600 
 20 O       -7.1880    -9.8950     0.4830 O.co2 1 <1>  -0.9000 
 21 O       -7.2370    -8.5050     2.1310 O.co2 1 <1>  -0.9000 
 22 C       -9.3680    -6.7140     0.1500 C.3   1 <1>  -0.1600 
 23 C      -10.6620    -6.4710    -0.6320 C.3   1 <1>  -0.2400 
 24 H       -2.1980    -3.3570    -1.5060 H     1 <1>   0.1500 
 25 H        1.9930    -2.6370    -1.2750 H     1 <1>   0.1500 
 26 H        2.1560    -4.1870     0.6570 H     1 <1>   0.1500 
 27 H        0.1450    -5.3070     1.4950 H     1 <1>   0.1500 
 28 H       -3.2430    -4.4000     0.5480 H     1 <1>   0.0800 
 29 H       -2.2780    -5.3470     1.6350 H     1 <1>   0.0800 
 30 H       -3.7840    -8.4860    -1.3190 H     1 <1>   0.0800 
 31 H       -4.5180    -9.0560     0.1600 H     1 <1>   0.0800 
 32 H       -5.0200    -7.3860     2.0040 H     1 <1>   0.0800 
 33 H       -4.6100    -5.7170     1.7910 H     1 <1>   0.0800 
 34 H       -5.7650    -7.2110    -1.8840 H     1 <1>   0.0800 
 35 H       -6.9890    -6.0360     1.4670 H     1 <1>   0.0800 
 36 H       -6.2590    -5.4890    -0.0110 H     1 <1>   0.0800 
 37 H       -6.6660    -9.7110    -1.0800 H     1 <1>   0.4000 
 38 H       -8.0500    -6.4320    -1.5190 H     1 <1>   0.0800 
 39 H       -8.5960    -8.0630    -1.3080 H     1 <1>   0.0800 
 40 H       -9.5500    -7.4580     0.9080 H     1 <1>   0.0800 
 41 H       -9.0840    -5.8020     0.6430 H     1 <1>   0.0800 
 42 H      -10.9850    -7.3810    -1.1060 H     1 <1>   0.0800 
 43 H      -10.5100    -5.7190    -1.3860 H     1 <1>   0.0800 
 44 H      -11.4370    -6.1390     0.0360 H     1 <1>   0.0800 
@<TRIPOS>BOND
  1   1   2  1   
  2   2   3  ar  
  3   2   4  ar  
  4   3   5  ar  
  5   3  24  1   
  6   4   6  ar  
  7   4  25  1   
  8   5   7  ar  
  9   5   8  1   
 10   6   7  ar  
 11   6  26  1   
 12   7  27  1   
 13   8   9  1   
 14   8  28  1   
 15   8  29  1   
 16   9  10  2   
 17   9  11  am  
 18  11  12  1   
 19  11  13  1   
 20  12  14  1   
 21  12  30  1   
 22  12  31  1   
 23  13  15  1   
 24  13  32  1   
 25  13  33  1   
 26  14  16  1   
 27  14  17  1   
 28  14  34  1   
 29  15  17  1   
 30  15  35  1   
 31  15  36  1   
 32  16  37  1   
 33  17  18  1   
 34  17  19  1   
 35  18  20  ar  
 36  18  21  ar  
 37  19  22  1   
 38  19  38  1   
 39  19  39  1   
 40  22  23  1   
 41  22  40  1   
 42  22  41  1   
 43  23  42  1   
 44  23  43  1   
 45  23  44  1   
@<TRIPOS>SUBSTRUCTURE
  1 ****  11 GROUP 4 **** **** 0

# MOE 2024.06 (io_trps.svl 2023.06)
