@<TRIPOS>MOLECULE
NONAME
54 56 1 0 0 
SMALL
USER_CHARGES


@<TRIPOS>ATOM
  1 O       -0.1710    -0.8590    -0.2350 O.2   1 <1>  -0.5700 
  2 C       -0.9530    -0.0040    -0.5830 C.2   1 <1>   0.5690 
  3 N       -2.2570     0.0000    -0.1290 N.am  1 <1>  -0.6600 
  4 C       -0.4180     1.0410    -1.5590 C.3   1 <1>   0.0440 
  5 C       -3.2610     1.0330    -0.5280 C.3   1 <1>   0.2200 
  6 C       -2.6890    -1.0530     0.8450 C.3   1 <1>   0.0600 
  7 C       -0.4490     2.4710    -1.0220 C.ar  1 <1>  -0.1440 
  8 C       -3.5430     2.0400     0.5850 C.3   1 <1>  -0.1600 
  9 C       -4.6370     0.4780    -0.8990 C.3   1 <1>  -0.1600 
 10 C       -0.9520     3.5030    -1.8000 C.ar  1 <1>  -0.1500 
 11 C        0.0250     2.7490     0.2500 C.ar  1 <1>  -0.1500 
 12 C       -4.8910     2.6620     0.2050 C.3   1 <1>  -0.0800 
 13 C       -5.5780     1.6840    -0.7550 C.3   1 <1>  -0.0800 
 14 C       -0.9970     4.8000    -1.3130 C.ar  1 <1>  -0.1430 
 15 C       -0.0150     4.0420     0.7420 C.ar  1 <1>  -0.1500 
 16 C       -5.8710     2.8650     1.3690 C.3   1 <1>  -0.1600 
 17 C       -6.9500     1.3810    -0.1330 C.3   1 <1>  -0.1600 
 18 C       -0.5260     5.0640    -0.0380 C.ar  1 <1>  -0.1500 
 19 C       -1.5400     5.9250    -2.1750 C.3   1 <1>  -0.0970 
 20 C       -7.2560     2.5700     0.7850 C.3   1 <1>   0.4230 
 21 N       -7.7580     3.7400    -0.0070 N.4   1 <1>  -0.9590 
 22 C       -7.9410     4.9690     0.8310 C.3   1 <1>   0.2630 
 23 C       -9.0490     3.4520    -0.7120 C.3   1 <1>   0.2630 
 24 H        0.6020     0.7960    -1.7930 H     1 <1>   0.0800 
 25 H       -0.9770     0.9670    -2.4720 H     1 <1>   0.0800 
 26 H       -2.9090     1.5800    -1.3840 H     1 <1>   0.0800 
 27 H       -3.3910    -0.6550     1.5550 H     1 <1>   0.0800 
 28 H       -1.8440    -1.4330     1.3930 H     1 <1>   0.0800 
 29 H       -3.1450    -1.8690     0.3130 H     1 <1>   0.0800 
 30 H       -3.6030     1.5380     1.5320 H     1 <1>   0.0800 
 31 H       -2.7730     2.7890     0.6360 H     1 <1>   0.0800 
 32 H       -4.6410     0.0900    -1.9020 H     1 <1>   0.0800 
 33 H       -4.9290    -0.2990    -0.2190 H     1 <1>   0.0800 
 34 H       -1.3080     3.3010    -2.7950 H     1 <1>   0.1500 
 35 H        0.4270     1.9610     0.8640 H     1 <1>   0.1500 
 36 H       -4.7200     3.5950    -0.3080 H     1 <1>   0.0800 
 37 H       -5.6970     2.1620    -1.7130 H     1 <1>   0.0800 
 38 H        0.3550     4.2510     1.7300 H     1 <1>   0.1500 
 39 H       -5.7650     3.8280     1.8310 H     1 <1>   0.0800 
 40 H       -5.6820     2.1250     2.1280 H     1 <1>   0.0800 
 41 H       -6.8760     0.5090     0.4940 H     1 <1>   0.0800 
 42 H       -7.6990     1.1740    -0.8740 H     1 <1>   0.0800 
 43 H       -0.5480     6.0670     0.3520 H     1 <1>   0.1500 
 44 H       -1.9900     6.6850    -1.5620 H     1 <1>   0.0800 
 45 H       -2.2810     5.5540    -2.8590 H     1 <1>   0.0800 
 46 H       -0.7380     6.3670    -2.7390 H     1 <1>   0.0800 
 47 H       -7.9630     2.3040     1.5560 H     1 <1>   0.0800 
 48 H       -7.0350     3.9320    -0.7140 H     1 <1>   0.4500 
 49 H       -8.6220     4.7720     1.6430 H     1 <1>   0.0800 
 50 H       -8.3420     5.7720     0.2320 H     1 <1>   0.0800 
 51 H       -7.0000     5.2970     1.2400 H     1 <1>   0.0800 
 52 H       -9.8050     3.1540    -0.0030 H     1 <1>   0.0800 
 53 H       -8.9230     2.6640    -1.4350 H     1 <1>   0.0800 
 54 H       -9.3930     4.3310    -1.2320 H     1 <1>   0.0800 
@<TRIPOS>BOND
  1   1   2  2   
  2   2   3  am  
  3   2   4  1   
  4   3   5  1   
  5   3   6  1   
  6   4   7  1   
  7   4  24  1   
  8   4  25  1   
  9   5   8  1   
 10   5   9  1   
 11   5  26  1   
 12   6  27  1   
 13   6  28  1   
 14   6  29  1   
 15   7  10  ar  
 16   7  11  ar  
 17   8  12  1   
 18   8  30  1   
 19   8  31  1   
 20   9  13  1   
 21   9  32  1   
 22   9  33  1   
 23  10  14  ar  
 24  10  34  1   
 25  11  15  ar  
 26  11  35  1   
 27  12  13  1   
 28  12  16  1   
 29  12  36  1   
 30  13  17  1   
 31  13  37  1   
 32  14  18  ar  
 33  14  19  1   
 34  15  18  ar  
 35  15  38  1   
 36  16  20  1   
 37  16  39  1   
 38  16  40  1   
 39  17  20  1   
 40  17  41  1   
 41  17  42  1   
 42  18  43  1   
 43  19  44  1   
 44  19  45  1   
 45  19  46  1   
 46  20  21  1   
 47  20  47  1   
 48  21  22  1   
 49  21  23  1   
 50  21  48  1   
 51  22  49  1   
 52  22  50  1   
 53  22  51  1   
 54  23  52  1   
 55  23  53  1   
 56  23  54  1   
@<TRIPOS>SUBSTRUCTURE
  1 ****   8 GROUP 4 **** **** 0

# MOE 2024.06 (io_trps.svl 2023.06)
