@<TRIPOS>MOLECULE
NONAME
50 52 1 0 0 
SMALL
USER_CHARGES


@<TRIPOS>ATOM
  1 O        0.0560     1.1930    -1.8450 O.2   1 <1>  -0.5700 
  2 C       -0.0290     2.2490    -1.2640 C.2   1 <1>   0.5690 
  3 N       -1.1880     2.6640    -0.6610 N.am  1 <1>  -0.6600 
  4 C        1.2070     3.1510    -1.2390 C.3   1 <1>   0.1810 
  5 C       -1.2680     3.9820     0.0540 C.3   1 <1>   0.3640 
  6 C       -2.3950     1.7910    -0.5770 C.3   1 <1>   0.0600 
  7 O        1.1710     4.1160    -0.2170 O.3   1 <1>  -0.5600 
  8 C       -2.5370     4.7250    -0.3970 C.ar  1 <1>  -0.1440 
  9 C       -0.0210     4.8750    -0.1850 C.3   1 <1>   0.2610 
 10 C       -3.5430     5.1130     0.4890 C.ar  1 <1>  -0.1440 
 11 C       -2.6870     5.0140    -1.7500 C.ar  1 <1>  -0.1500 
 12 C        0.0950     5.9880     0.8630 C.2   1 <1>   0.5690 
 13 C       -4.6490     5.7990     0.0100 C.ar  1 <1>  -0.1500 
 14 C       -3.4920     4.8100     1.9820 C.3   1 <1>  -0.0960 
 15 C       -3.7940     5.6950    -2.2180 C.ar  1 <1>  -0.1500 
 16 O       -0.2820     5.8080     1.9980 O.2   1 <1>  -0.5700 
 17 N        0.6480     7.1740     0.4960 N.am  1 <1>  -0.7300 
 18 C       -4.7770     6.0930    -1.3350 C.ar  1 <1>  -0.1500 
 19 C        0.9500     8.2740     1.4220 C.3   1 <1>   0.3210 
 20 C        2.2220     8.9320     0.9380 C.2   1 <1>  -0.1810 
 21 C        3.4820     8.3440     0.9240 C.2   1 <1>   0.1390 
 22 C        2.4180    10.1670     0.4270 C.2   1 <1>  -0.3020 
 23 N        4.3880     9.1390     0.4430 N.2   1 <1>  -0.7070 
 24 N        3.7310    10.2720     0.1390 N.pl3 1 <1>   0.3140 
 25 C        4.4190    11.4430    -0.4410 C.3   1 <1>   0.0960 
 26 C        4.6810    12.5160     0.6230 C.3   1 <1>  -0.2400 
 27 H        1.3020     3.6550    -2.1820 H     1 <1>   0.0800 
 28 H        2.0820     2.5460    -1.0810 H     1 <1>   0.0800 
 29 H       -1.3170     3.7640     1.1040 H     1 <1>   0.0800 
 30 H       -2.7240     1.7180     0.4440 H     1 <1>   0.0800 
 31 H       -2.1760     0.8010    -0.9390 H     1 <1>   0.0800 
 32 H       -3.1890     2.2050    -1.1740 H     1 <1>   0.0800 
 33 H       -0.1130     5.3490    -1.1430 H     1 <1>   0.0800 
 34 H       -1.9390     4.7000    -2.4570 H     1 <1>   0.1500 
 35 H       -5.4280     6.1120     0.6840 H     1 <1>   0.1500 
 36 H       -4.4340     5.0300     2.4510 H     1 <1>   0.0800 
 37 H       -2.7380     5.4080     2.4590 H     1 <1>   0.0800 
 38 H       -3.2800     3.7700     2.1510 H     1 <1>   0.0800 
 39 H       -3.8930     5.9120    -3.2680 H     1 <1>   0.1500 
 40 H        1.0730     7.2910    -0.4250 H     1 <1>   0.3700 
 41 H       -5.6410     6.6260    -1.6910 H     1 <1>   0.1500 
 42 H        0.1390     8.9810     1.4170 H     1 <1>   0.0800 
 43 H        1.0820     7.8990     2.4230 H     1 <1>   0.0800 
 44 H        3.6910     7.3440     1.2680 H     1 <1>   0.1500 
 45 H        1.7150    10.9610     0.2550 H     1 <1>   0.1500 
 46 H        5.3510    11.1090    -0.8610 H     1 <1>   0.0800 
 47 H        3.8100    11.8400    -1.2320 H     1 <1>   0.0800 
 48 H        5.2920    12.1100     1.4100 H     1 <1>   0.0800 
 49 H        3.7540    12.8690     1.0390 H     1 <1>   0.0800 
 50 H        5.1990    13.3490     0.1830 H     1 <1>   0.0800 
@<TRIPOS>BOND
  1   1   2  2   
  2   2   3  am  
  3   2   4  1   
  4   3   5  1   
  5   3   6  1   
  6   4   7  1   
  7   4  27  1   
  8   4  28  1   
  9   5   8  1   
 10   5   9  1   
 11   5  29  1   
 12   6  30  1   
 13   6  31  1   
 14   6  32  1   
 15   7   9  1   
 16   8  10  ar  
 17   8  11  ar  
 18   9  12  1   
 19   9  33  1   
 20  10  13  ar  
 21  10  14  1   
 22  11  15  ar  
 23  11  34  1   
 24  12  16  2   
 25  12  17  am  
 26  13  18  ar  
 27  13  35  1   
 28  14  36  1   
 29  14  37  1   
 30  14  38  1   
 31  15  18  ar  
 32  15  39  1   
 33  17  19  1   
 34  17  40  1   
 35  18  41  1   
 36  19  20  1   
 37  19  42  1   
 38  19  43  1   
 39  20  21  1   
 40  20  22  2   
 41  21  23  2   
 42  21  44  1   
 43  22  24  1   
 44  22  45  1   
 45  23  24  1   
 46  24  25  1   
 47  25  26  1   
 48  25  46  1   
 49  25  47  1   
 50  26  48  1   
 51  26  49  1   
 52  26  50  1   
@<TRIPOS>SUBSTRUCTURE
  1 ****  12 GROUP 4 **** **** 0

# MOE 2024.06 (io_trps.svl 2023.06)
