@<TRIPOS>MOLECULE
NONAME
45 47 1 0 0 
SMALL
USER_CHARGES


@<TRIPOS>ATOM
  1 O       -4.0230     2.6420    -1.6930 O.2   1 <1>  -0.5700 
  2 C       -2.9310     2.2890    -1.3210 C.2   1 <1>   0.5690 
  3 N       -2.5380     0.9930    -1.3880 N.am  1 <1>  -0.7300 
  4 C       -1.9700     3.3260    -0.7600 C.3   1 <1>   0.0440 
  5 C       -3.3590    -0.1420    -1.8600 C.3   1 <1>   0.2200 
  6 C       -0.7840     2.6910    -0.0390 C.ar  1 <1>  -0.1440 
  7 C       -3.6520    -1.0600    -0.6860 C.3   1 <1>  -0.0800 
  8 C       -2.5250    -1.0400    -2.7730 C.3   1 <1>   0.1200 
  9 C        0.4030     2.4530    -0.7130 C.ar  1 <1>  -0.1500 
 10 C       -0.8950     2.3200     1.2920 C.ar  1 <1>  -0.1500 
 11 C       -2.3810    -1.9100    -0.6410 C.3   1 <1>   0.1200 
 12 C       -4.9130    -1.9080    -0.9330 C.3   1 <1>  -0.0160 
 13 O       -1.9180    -2.0010    -1.9550 O.3   1 <1>  -0.5600 
 14 C        1.4640     1.8460    -0.0650 C.ar  1 <1>  -0.1500 
 15 C        0.1670     1.7140     1.9390 C.ar  1 <1>  -0.1500 
 16 C       -5.2130    -2.8190     0.2470 C.ar  1 <1>  -0.1440 
 17 C        1.3510     1.4700     1.2630 C.ar  1 <1>  -0.1440 
 18 C       -5.7730    -2.3370     1.4130 C.ar  1 <1>  -0.1500 
 19 C       -4.9420    -4.1720     0.2160 C.ar  1 <1>  -0.1500 
 20 C        2.5180     0.8050     1.9710 C.3   1 <1>  -0.0970 
 21 C       -6.0240    -3.2050     2.4620 C.ar  1 <1>   0.1600 
 22 C       -5.2320    -4.9540     1.3220 C.ar  1 <1>   0.1600 
 23 N       -5.7650    -4.5030     2.4460 N.ar  1 <1>  -0.6200 
 24 H       -1.6080     0.7470    -1.0300 H     1 <1>   0.3700 
 25 H       -1.6240     3.9400    -1.5710 H     1 <1>   0.0800 
 26 H       -2.5110     3.9590    -0.0810 H     1 <1>   0.0800 
 27 H       -4.2470     0.2200    -2.3500 H     1 <1>   0.0800 
 28 H       -3.7780    -0.5020     0.2250 H     1 <1>   0.0800 
 29 H       -1.7680    -0.4940    -3.3080 H     1 <1>   0.0800 
 30 H       -3.1570    -1.5620    -3.4690 H     1 <1>   0.0800 
 31 H        0.5090     2.7350    -1.7460 H     1 <1>   0.1500 
 32 H       -1.8090     2.4980     1.8310 H     1 <1>   0.1500 
 33 H       -2.5400    -2.9000    -0.2510 H     1 <1>   0.0800 
 34 H       -1.6170    -1.4190    -0.0620 H     1 <1>   0.0800 
 35 H       -4.7960    -2.5010    -1.8240 H     1 <1>   0.0800 
 36 H       -5.7560    -1.2560    -1.0870 H     1 <1>   0.0800 
 37 H        2.3810     1.6670    -0.5990 H     1 <1>   0.1500 
 38 H        0.0670     1.4320     2.9730 H     1 <1>   0.1500 
 39 H       -6.0170    -1.2950     1.5140 H     1 <1>   0.1500 
 40 H       -4.5070    -4.6260    -0.6560 H     1 <1>   0.1500 
 41 H        3.0720     0.1900     1.2840 H     1 <1>   0.0800 
 42 H        2.1670     0.1830     2.7750 H     1 <1>   0.0800 
 43 H        3.1740     1.5560     2.3730 H     1 <1>   0.0800 
 44 H       -6.4620    -2.8110     3.3640 H     1 <1>   0.1500 
 45 H       -5.0130    -6.0080     1.2800 H     1 <1>   0.1500 
@<TRIPOS>BOND
  1   1   2  2   
  2   2   3  am  
  3   2   4  1   
  4   3   5  1   
  5   3  24  1   
  6   4   6  1   
  7   4  25  1   
  8   4  26  1   
  9   5   7  1   
 10   5   8  1   
 11   5  27  1   
 12   6   9  ar  
 13   6  10  ar  
 14   7  11  1   
 15   7  12  1   
 16   7  28  1   
 17   8  13  1   
 18   8  29  1   
 19   8  30  1   
 20   9  14  ar  
 21   9  31  1   
 22  10  15  ar  
 23  10  32  1   
 24  11  13  1   
 25  11  33  1   
 26  11  34  1   
 27  12  16  1   
 28  12  35  1   
 29  12  36  1   
 30  14  17  ar  
 31  14  37  1   
 32  15  17  ar  
 33  15  38  1   
 34  16  18  ar  
 35  16  19  ar  
 36  17  20  1   
 37  18  21  ar  
 38  18  39  1   
 39  19  22  ar  
 40  19  40  1   
 41  20  41  1   
 42  20  42  1   
 43  20  43  1   
 44  21  23  ar  
 45  21  44  1   
 46  22  23  ar  
 47  22  45  1   
@<TRIPOS>SUBSTRUCTURE
  1 ****   7 GROUP 4 **** **** 0

# MOE 2024.06 (io_trps.svl 2023.06)
