@<TRIPOS>MOLECULE
NONAME
50 52 1 0 0 
SMALL
USER_CHARGES


@<TRIPOS>ATOM
  1 O        0.6560     0.5490     0.4580 O.2   1 <1>  -0.5700 
  2 C        0.0690     1.5440     0.0790 C.2   1 <1>   0.5440 
  3 N       -1.2540     1.6590     0.3960 N.am  1 <1>  -0.7300 
  4 C        0.7520     2.5740    -0.6850 C.ar  1 <1>   0.0860 
  5 C       -2.0170     0.7370     1.2770 C.3   1 <1>   0.2200 
  6 C        0.0780     3.3870    -1.6000 C.ar  1 <1>  -0.1500 
  7 C        2.1220     2.7870    -0.5290 C.ar  1 <1>  -0.1500 
  8 C       -2.4380    -0.5500     0.5300 C.3   1 <1>   0.2000 
  9 C       -3.2340     1.4920     1.8180 C.3   1 <1>  -0.1600 
 10 C        0.7380     4.3740    -2.3100 C.ar  1 <1>  -0.1500 
 11 C        2.7870     3.7720    -1.2360 C.ar  1 <1>  -0.1500 
 12 O       -1.3160    -1.3050     0.2190 O.3   1 <1>  -0.6800 
 13 C       -3.3770    -1.4250     1.3700 C.3   1 <1>   0.1400 
 14 C       -4.0920     0.5850     2.7000 C.3   1 <1>   0.1400 
 15 C        2.0940     4.5700    -2.1280 C.ar  1 <1>  -0.1500 
 16 N       -4.5070    -0.6150     1.9230 N.am  1 <1>  -0.6600 
 17 C       -5.8300    -0.8610     1.6260 C.2   1 <1>   0.7150 
 18 O       -6.6170     0.0660     1.6770 O.2   1 <1>  -0.5700 
 19 C       -6.2910    -2.1730     1.2650 C.2   1 <1>  -0.2370 
 20 N       -7.2940    -2.4260     0.3790 N.pl3 1 <1>   0.3140 
 21 C       -5.8850    -3.3960     1.7080 C.2   1 <1>  -0.1500 
 22 N       -7.5210    -3.7480     0.2480 N.2   1 <1>  -0.7070 
 23 C       -8.0870    -1.4080    -0.3690 C.3   1 <1>   0.0960 
 24 C       -6.6720    -4.3170     1.0480 C.2   1 <1>   0.1390 
 25 C       -8.7780    -1.9680    -1.6250 C.3   1 <1>  -0.1600 
 26 C       -9.5250    -0.8680    -2.3880 C.3   1 <1>  -0.2400 
 27 H       -1.7540     2.5030     0.1170 H     1 <1>   0.3700 
 28 H       -1.3950     0.4540     2.1110 H     1 <1>   0.0800 
 29 H       -0.9730     3.2440    -1.7690 H     1 <1>   0.1500 
 30 H        2.6700     2.1680     0.1610 H     1 <1>   0.1500 
 31 H       -2.9260    -0.2900    -0.3930 H     1 <1>   0.0800 
 32 H       -2.9060     2.3320     2.4030 H     1 <1>   0.0800 
 33 H       -3.8420     1.8540     1.0070 H     1 <1>   0.0800 
 34 H        0.1980     4.9910    -3.0100 H     1 <1>   0.1500 
 35 H        3.8450     3.9160    -1.0940 H     1 <1>   0.1500 
 36 H       -0.5210    -0.7080     0.1930 H     1 <1>   0.4000 
 37 H       -2.8280    -1.8570     2.1880 H     1 <1>   0.0800 
 38 H       -3.7450    -2.2170     0.7430 H     1 <1>   0.0800 
 39 H       -4.9540     1.1270     3.0520 H     1 <1>   0.0800 
 40 H       -3.5300     0.2670     3.5620 H     1 <1>   0.0800 
 41 H        2.6100     5.3370    -2.6800 H     1 <1>   0.1500 
 42 H       -5.1190    -3.6220     2.4280 H     1 <1>   0.1500 
 43 H       -8.8220    -1.0050     0.3030 H     1 <1>   0.0800 
 44 H       -7.4240    -0.6140    -0.6600 H     1 <1>   0.0800 
 45 H       -6.6060    -5.3850     1.1710 H     1 <1>   0.1500 
 46 H       -8.0390    -2.4100    -2.2710 H     1 <1>   0.0800 
 47 H       -9.4780    -2.7340    -1.3360 H     1 <1>   0.0800 
 48 H       -8.8440    -0.0990    -2.7070 H     1 <1>   0.0800 
 49 H      -10.2830    -0.4260    -1.7650 H     1 <1>   0.0800 
 50 H      -10.0000    -1.2850    -3.2590 H     1 <1>   0.0800 
@<TRIPOS>BOND
  1   1   2  2   
  2   2   3  am  
  3   2   4  1   
  4   3   5  1   
  5   3  27  1   
  6   4   6  ar  
  7   4   7  ar  
  8   5   8  1   
  9   5   9  1   
 10   5  28  1   
 11   6  10  ar  
 12   6  29  1   
 13   7  11  ar  
 14   7  30  1   
 15   8  12  1   
 16   8  13  1   
 17   8  31  1   
 18   9  14  1   
 19   9  32  1   
 20   9  33  1   
 21  10  15  ar  
 22  10  34  1   
 23  11  15  ar  
 24  11  35  1   
 25  12  36  1   
 26  13  16  1   
 27  13  37  1   
 28  13  38  1   
 29  14  16  1   
 30  14  39  1   
 31  14  40  1   
 32  15  41  1   
 33  16  17  am  
 34  17  18  2   
 35  17  19  1   
 36  19  20  1   
 37  19  21  2   
 38  20  22  1   
 39  20  23  1   
 40  21  24  1   
 41  21  42  1   
 42  22  24  2   
 43  23  25  1   
 44  23  43  1   
 45  23  44  1   
 46  24  45  1   
 47  25  26  1   
 48  25  46  1   
 49  25  47  1   
 50  26  48  1   
 51  26  49  1   
 52  26  50  1   
@<TRIPOS>SUBSTRUCTURE
  1 ****   8 GROUP 4 **** **** 0

# MOE 2024.06 (io_trps.svl 2023.06)
