@<TRIPOS>MOLECULE
NONAME
36 37 1 0 0 
SMALL
USER_CHARGES


@<TRIPOS>ATOM
  1 S       -0.0950     0.3000     1.2050 S.3   1 <1>  -0.0800 
  2 C        1.4180    -0.1030     0.4260 C.2   1 <1>   0.1980 
  3 C       -0.5190    -1.3860     1.2070 C.2   1 <1>  -0.1100 
  4 N        1.5660    -1.3500     0.2030 N.2   1 <1>  -0.5650 
  5 C        2.3530     1.0560     0.1160 C.3   1 <1>   0.0200 
  6 C        0.4780    -2.0880     0.6390 C.2   1 <1>   0.0460 
  7 C        3.6500     0.6150    -0.5760 C.3   1 <1>  -0.2400 
  8 C        0.5760    -3.5940     0.4140 C.3   1 <1>   0.5240 
  9 N       -0.7010    -4.3040     0.7100 N.4   1 <1>  -0.9590 
 10 C       -0.4700    -5.7950     0.8440 C.3   1 <1>   0.3430 
 11 C       -1.7430    -4.0050    -0.3190 C.3   1 <1>   0.3430 
 12 C       -1.7110    -6.6510     0.5180 C.3   1 <1>   0.2000 
 13 C       -3.0970    -4.5330     0.1640 C.3   1 <1>  -0.1600 
 14 O       -1.7240    -6.8910    -0.8450 O.3   1 <1>  -0.6800 
 15 C       -2.9980    -5.9040     0.8840 C.3   1 <1>  -0.1860 
 16 C       -4.1930    -6.7890     0.6100 C.2   1 <1>   0.9060 
 17 O       -4.9880    -6.9890     1.5250 O.co2 1 <1>  -0.9000 
 18 O       -4.2940    -7.2860    -0.5180 O.co2 1 <1>  -0.9000 
 19 H       -1.4680    -1.6470     1.6380 H     1 <1>   0.1500 
 20 H        1.8360     1.7550    -0.5160 H     1 <1>   0.0800 
 21 H        2.5960     1.5570     1.0360 H     1 <1>   0.0800 
 22 H        3.4260     0.1260    -1.5070 H     1 <1>   0.0800 
 23 H        4.1910    -0.0710     0.0530 H     1 <1>   0.0800 
 24 H        4.2740     1.4680    -0.7740 H     1 <1>   0.0800 
 25 H        1.3610    -3.9730     1.0450 H     1 <1>   0.0800 
 26 H        0.8600    -3.7730    -0.6100 H     1 <1>   0.0800 
 27 H       -1.0660    -3.9660     1.6050 H     1 <1>   0.4500 
 28 H        0.3230    -6.1130     0.1870 H     1 <1>   0.0800 
 29 H       -0.1680    -6.0090     1.8550 H     1 <1>   0.0800 
 30 H       -1.8110    -2.9460    -0.5080 H     1 <1>   0.0800 
 31 H       -1.4840    -4.4990    -1.2430 H     1 <1>   0.0800 
 32 H       -1.6630    -7.6070     1.0130 H     1 <1>   0.0800 
 33 H       -3.5700    -3.8190     0.8140 H     1 <1>   0.0800 
 34 H       -3.7310    -4.6330    -0.7010 H     1 <1>   0.0800 
 35 H       -2.6580    -7.2070    -1.0550 H     1 <1>   0.4000 
 36 H       -2.9850    -5.7330     1.9450 H     1 <1>   0.0800 
@<TRIPOS>BOND
  1   1   2  1   
  2   1   3  1   
  3   2   4  2   
  4   2   5  1   
  5   3   6  2   
  6   3  19  1   
  7   4   6  1   
  8   5   7  1   
  9   5  20  1   
 10   5  21  1   
 11   6   8  1   
 12   7  22  1   
 13   7  23  1   
 14   7  24  1   
 15   8   9  1   
 16   8  25  1   
 17   8  26  1   
 18   9  10  1   
 19   9  11  1   
 20   9  27  1   
 21  10  12  1   
 22  10  28  1   
 23  10  29  1   
 24  11  13  1   
 25  11  30  1   
 26  11  31  1   
 27  12  14  1   
 28  12  15  1   
 29  12  32  1   
 30  13  15  1   
 31  13  33  1   
 32  13  34  1   
 33  14  35  1   
 34  15  16  1   
 35  15  36  1   
 36  16  17  ar  
 37  16  18  ar  
@<TRIPOS>SUBSTRUCTURE
  1 ****   9 GROUP 4 **** **** 0

# MOE 2024.06 (io_trps.svl 2023.06)
