@<TRIPOS>MOLECULE
NONAME
46 48 1 0 0 
SMALL
USER_CHARGES


@<TRIPOS>ATOM
  1 O       -3.1090     1.6670    -2.4970 O.2   1 <1>  -0.5700 
  2 C       -2.2080     1.4870    -1.6990 C.2   1 <1>   0.5440 
  3 N       -1.6340     0.2510    -1.6700 N.am  1 <1>  -0.7300 
  4 C       -1.7620     2.5570    -0.8200 C.ar  1 <1>   0.0860 
  5 C       -2.0670    -0.9390    -2.4330 C.3   1 <1>   0.2200 
  6 C       -1.1190     2.3420     0.4150 C.ar  1 <1>   0.0820 
  7 C       -1.9710     3.8820    -1.2100 C.ar  1 <1>  -0.1500 
  8 C       -2.9230    -1.8640    -1.5770 C.3   1 <1>  -0.0800 
  9 C       -0.8570    -1.8270    -2.6870 C.3   1 <1>   0.1200 
 10 O       -0.9200     1.0650     0.8360 O.3   1 <1>  -0.3630 
 11 C       -0.7050     3.4250     1.1900 C.ar  1 <1>  -0.1500 
 12 C       -1.5610     4.9500    -0.4370 C.ar  1 <1>  -0.1500 
 13 C       -1.8860    -2.7230    -0.8460 C.3   1 <1>   0.1200 
 14 C       -3.9370    -1.1760    -0.6420 C.3   1 <1>  -0.0170 
 15 O       -0.6660    -2.5430    -1.5050 O.3   1 <1>  -0.5600 
 16 C       -0.1410     0.7320     1.9610 C.3   1 <1>   0.1200 
 17 C       -0.9240     4.7210     0.7670 C.ar  1 <1>  -0.1500 
 18 C       -4.7720    -2.2040     0.1050 C.ar  1 <1>  -0.1430 
 19 C       -0.0710    -0.7900     2.0430 C.3   1 <1>  -0.2400 
 20 C       -5.8420    -2.8400    -0.4890 C.ar  1 <1>  -0.1500 
 21 C       -4.5030    -2.5550     1.4130 C.ar  1 <1>  -0.1500 
 22 C       -6.5680    -3.7750     0.2300 C.ar  1 <1>   0.1600 
 23 C       -5.2920    -3.5030     2.0430 C.ar  1 <1>   0.1600 
 24 N       -6.3170    -4.1240     1.4820 N.ar  1 <1>  -0.6200 
 25 H       -0.9870     0.0510    -0.8980 H     1 <1>   0.3700 
 26 H       -2.5560    -0.6430    -3.3460 H     1 <1>   0.0800 
 27 H       -2.4670     4.0750    -2.1460 H     1 <1>   0.1500 
 28 H       -3.4660    -2.5130    -2.2410 H     1 <1>   0.0800 
 29 H        0.0300    -1.2640    -2.9190 H     1 <1>   0.0800 
 30 H       -1.0610    -2.5330    -3.4720 H     1 <1>   0.0800 
 31 H       -0.2130     3.2830     2.1330 H     1 <1>   0.1500 
 32 H       -1.7380     5.9580    -0.7710 H     1 <1>   0.1500 
 33 H       -2.1470    -3.7670    -0.8680 H     1 <1>   0.0800 
 34 H       -1.7540    -2.4040     0.1730 H     1 <1>   0.0800 
 35 H       -4.5850    -0.5420    -1.2230 H     1 <1>   0.0800 
 36 H       -3.4280    -0.5500     0.0690 H     1 <1>   0.0800 
 37 H        0.8420     1.1520     1.8330 H     1 <1>   0.0800 
 38 H       -0.6120     1.1390     2.8390 H     1 <1>   0.0800 
 39 H       -0.6020     5.5510     1.3710 H     1 <1>   0.1500 
 40 H        0.3660    -1.1920     1.1460 H     1 <1>   0.0800 
 41 H       -1.0550    -1.1980     2.1800 H     1 <1>   0.0800 
 42 H        0.5390    -1.0810     2.8790 H     1 <1>   0.0800 
 43 H       -6.1180    -2.6160    -1.5030 H     1 <1>   0.1500 
 44 H       -3.6900    -2.1000     1.9480 H     1 <1>   0.1500 
 45 H       -7.4000    -4.2610    -0.2500 H     1 <1>   0.1500 
 46 H       -5.0680    -3.7650     3.0630 H     1 <1>   0.1500 
@<TRIPOS>BOND
  1   1   2  2   
  2   2   3  am  
  3   2   4  1   
  4   3   5  1   
  5   3  25  1   
  6   4   6  ar  
  7   4   7  ar  
  8   5   8  1   
  9   5   9  1   
 10   5  26  1   
 11   6  10  1   
 12   6  11  ar  
 13   7  12  ar  
 14   7  27  1   
 15   8  13  1   
 16   8  14  1   
 17   8  28  1   
 18   9  15  1   
 19   9  29  1   
 20   9  30  1   
 21  10  16  1   
 22  11  17  ar  
 23  11  31  1   
 24  12  17  ar  
 25  12  32  1   
 26  13  15  1   
 27  13  33  1   
 28  13  34  1   
 29  14  18  1   
 30  14  35  1   
 31  14  36  1   
 32  16  19  1   
 33  16  37  1   
 34  16  38  1   
 35  17  39  1   
 36  18  20  ar  
 37  18  21  ar  
 38  19  40  1   
 39  19  41  1   
 40  19  42  1   
 41  20  22  ar  
 42  20  43  1   
 43  21  23  ar  
 44  21  44  1   
 45  22  24  ar  
 46  22  45  1   
 47  23  24  ar  
 48  23  46  1   
@<TRIPOS>SUBSTRUCTURE
  1 ****  14 GROUP 4 **** **** 0

# MOE 2024.06 (io_trps.svl 2023.06)
