@<TRIPOS>MOLECULE
NONAME
46 48 1 0 0 
SMALL
USER_CHARGES


@<TRIPOS>ATOM
  1 S        0.9660     1.1680     0.0610 S.o2  1 <1>   1.3330 
  2 O        2.1380     1.8080     0.6200 O.2   1 <1>  -0.6500 
  3 O        0.5130     1.5740    -1.2510 O.2   1 <1>  -0.6500 
  4 N        1.2440    -0.5050     0.0220 N.am  1 <1>  -0.8490 
  5 C       -0.3880     1.3200     1.2340 C.3   1 <1>  -0.0550 
  6 C        0.3270    -1.2290    -0.8670 C.3   1 <1>   0.1160 
  7 C        2.6300    -0.8350    -0.3240 C.3   1 <1>   0.1160 
  8 C       -0.8740     2.7480     1.5800 C.3   1 <1>  -0.0800 
  9 C       -1.2870     3.5720     0.3600 C.3   1 <1>   0.2000 
 10 C        0.1900     3.6030     2.2880 C.3   1 <1>   0.1100 
 11 O       -2.3330     4.3890     0.7450 O.3   1 <1>  -0.6800 
 12 C       -0.0810     4.4660     0.0950 C.3   1 <1>   0.1100 
 13 N        0.4820     4.7660     1.4260 N.3   1 <1>  -0.8100 
 14 C        1.9320     5.0520     1.3710 C.3   1 <1>   0.2780 
 15 C        2.1960     6.3650     0.6410 C.2   1 <1>   0.1820 
 16 N        1.4070     7.4690     0.8270 N.pl3 1 <1>  -0.7000 
 17 C        3.1450     6.6940    -0.2570 C.2   1 <1>   0.2000 
 18 C        1.8670     8.4590     0.0510 C.cat 1 <1>   0.7910 
 19 N        2.9520     8.0120    -0.6280 N.pl3 1 <1>  -0.6290 
 20 C        1.4030     9.7720    -0.1290 C.2   1 <1>  -0.1410 
 21 C        3.6190     8.8420    -1.5020 C.2   1 <1>   0.2290 
 22 C        2.0560    10.6080    -0.9950 C.2   1 <1>  -0.1500 
 23 C        3.1850    10.1230    -1.6880 C.2   1 <1>  -0.1500 
 24 H       -1.2280     0.7740     0.8500 H     1 <1>   0.0800 
 25 H       -0.0970     0.8370     2.1470 H     1 <1>   0.0800 
 26 H        0.4930    -2.2900    -0.7840 H     1 <1>   0.0800 
 27 H        0.4800    -0.9310    -1.8920 H     1 <1>   0.0800 
 28 H       -0.6940    -1.0250    -0.5970 H     1 <1>   0.0800 
 29 H        2.7720    -1.9030    -0.3210 H     1 <1>   0.0800 
 30 H        3.3040    -0.4070     0.4000 H     1 <1>   0.0800 
 31 H        2.8760    -0.4470    -1.2980 H     1 <1>   0.0800 
 32 H       -1.7180     2.6280     2.2380 H     1 <1>   0.0800 
 33 H       -1.5990     2.9940    -0.4950 H     1 <1>   0.0800 
 34 H        1.0780     3.0260     2.4900 H     1 <1>   0.0800 
 35 H       -0.1920     3.9570     3.2310 H     1 <1>   0.0800 
 36 H       -1.9980     4.9920     1.4380 H     1 <1>   0.4000 
 37 H       -0.3670     5.3630    -0.4270 H     1 <1>   0.0800 
 38 H        0.6380     3.9370    -0.5040 H     1 <1>   0.0800 
 39 H        2.3060     5.1430     2.3770 H     1 <1>   0.0800 
 40 H        2.4610     4.2480     0.8890 H     1 <1>   0.0800 
 41 H        0.5690     7.4660     1.4150 H     1 <1>   0.4500 
 42 H        3.9400     6.0840    -0.6570 H     1 <1>   0.1500 
 43 H        0.5380    10.0910     0.4220 H     1 <1>   0.1500 
 44 H        4.4790     8.4490    -2.0230 H     1 <1>   0.1500 
 45 H        1.7300    11.6230    -1.1590 H     1 <1>   0.1500 
 46 H        3.6960    10.7850    -2.3670 H     1 <1>   0.1500 
@<TRIPOS>BOND
  1   1   2  2   
  2   1   3  2   
  3   1   4  am  
  4   1   5  1   
  5   4   6  1   
  6   4   7  1   
  7   5   8  1   
  8   5  24  1   
  9   5  25  1   
 10   6  26  1   
 11   6  27  1   
 12   6  28  1   
 13   7  29  1   
 14   7  30  1   
 15   7  31  1   
 16   8   9  1   
 17   8  10  1   
 18   8  32  1   
 19   9  11  1   
 20   9  12  1   
 21   9  33  1   
 22  10  13  1   
 23  10  34  1   
 24  10  35  1   
 25  11  36  1   
 26  12  13  1   
 27  12  37  1   
 28  12  38  1   
 29  13  14  1   
 30  14  15  1   
 31  14  39  1   
 32  14  40  1   
 33  15  16  1   
 34  15  17  2   
 35  16  18  ar  
 36  16  41  1   
 37  17  19  1   
 38  17  42  1   
 39  18  19  ar  
 40  18  20  1   
 41  19  21  1   
 42  20  22  2   
 43  20  43  1   
 44  21  23  2   
 45  21  44  1   
 46  22  23  1   
 47  22  45  1   
 48  23  46  1   
@<TRIPOS>SUBSTRUCTURE
  1 ****  12 GROUP 4 **** **** 0

# MOE 2024.06 (io_trps.svl 2023.06)
