@<TRIPOS>MOLECULE
NONAME
30 31 1 0 0 
SMALL
USER_CHARGES


@<TRIPOS>ATOM
  1 CL       0.3630     0.0900     1.2370 Cl    1 <1>  -0.1770 
  2 C        1.3960    -1.0710     0.4190 C.ar  1 <1>   0.1770 
  3 C        1.0950    -2.4270     0.4260 C.ar  1 <1>   0.4100 
  4 C        2.5190    -0.6570    -0.2420 C.ar  1 <1>   0.1600 
  5 N        1.8840    -3.2870    -0.1930 N.ar  1 <1>  -0.6200 
  6 N       -0.0220    -2.9270     1.0590 N.pl3 1 <1>  -0.8690 
  7 N        3.3130    -1.5120    -0.8660 N.ar  1 <1>  -0.6200 
  8 C        2.9420    -2.7810    -0.8010 C.ar  1 <1>   0.4770 
  9 C       -0.3190    -4.3740     1.2330 C.3   1 <1>   0.2090 
 10 C        3.8300    -3.7750    -1.5090 C.3   1 <1>  -0.0960 
 11 C       -0.9670    -4.9360    -0.0320 C.3   1 <1>   0.1200 
 12 O       -1.2970    -6.2950     0.1870 O.3   1 <1>  -0.3420 
 13 C       -1.8690    -6.9720    -0.8480 C.2   1 <1>   0.3510 
 14 N       -2.1750    -6.4950    -1.9880 N.2   1 <1>  -0.4100 
 15 C       -2.2100    -8.2950    -0.8230 C.2   1 <1>   0.1080 
 16 O       -2.7000    -7.4790    -2.6850 O.3   1 <1>   0.2420 
 17 N       -2.7140    -8.5740    -1.9570 N.2   1 <1>  -0.4100 
 18 C       -2.0350    -9.2700     0.3220 C.3   1 <1>  -0.0590 
 19 H        2.7760     0.3870    -0.2640 H     1 <1>   0.1500 
 20 H       -0.6100    -2.2710     1.5830 H     1 <1>   0.4000 
 21 H       -0.9850    -4.4990     2.0680 H     1 <1>   0.0800 
 22 H        0.5960    -4.9050     1.4340 H     1 <1>   0.0800 
 23 H        3.9950    -4.6280    -0.8780 H     1 <1>   0.0800 
 24 H        4.7790    -3.3290    -1.7470 H     1 <1>   0.0800 
 25 H        3.3540    -4.0930    -2.4160 H     1 <1>   0.0800 
 26 H       -0.2810    -4.8810    -0.8590 H     1 <1>   0.0800 
 27 H       -1.8710    -4.4000    -0.2620 H     1 <1>   0.0800 
 28 H       -1.1110    -9.0730     0.8360 H     1 <1>   0.0800 
 29 H       -2.0180   -10.2770    -0.0530 H     1 <1>   0.0800 
 30 H       -2.8510    -9.1670     1.0130 H     1 <1>   0.0800 
@<TRIPOS>BOND
  1   1   2  1   
  2   2   3  ar  
  3   2   4  ar  
  4   3   5  ar  
  5   3   6  1   
  6   4   7  ar  
  7   4  19  1   
  8   5   8  ar  
  9   6   9  1   
 10   6  20  1   
 11   7   8  ar  
 12   8  10  1   
 13   9  11  1   
 14   9  21  1   
 15   9  22  1   
 16  10  23  1   
 17  10  24  1   
 18  10  25  1   
 19  11  12  1   
 20  11  26  1   
 21  11  27  1   
 22  12  13  1   
 23  13  14  2   
 24  13  15  1   
 25  14  16  1   
 26  15  17  2   
 27  15  18  1   
 28  16  17  1   
 29  18  28  1   
 30  18  29  1   
 31  18  30  1   
@<TRIPOS>SUBSTRUCTURE
  1 ****  11 GROUP 4 **** **** 0

# MOE 2024.06 (io_trps.svl 2023.06)
