@<TRIPOS>MOLECULE
NONAME
57 58 1 0 0 
SMALL
USER_CHARGES


@<TRIPOS>ATOM
  1 S        0.5560     0.2070    -0.4490 S.o2  1 <1>   1.3330 
  2 O        0.2340    -0.0100    -1.8390 O.2   1 <1>  -0.6500 
  3 O        1.8960     0.6140    -0.0880 O.2   1 <1>  -0.6500 
  4 N        0.1070    -1.1450     0.4660 N.am  1 <1>  -0.8490 
  5 C       -0.5110     1.5120     0.1570 C.3   1 <1>  -0.0550 
  6 C       -1.0560    -1.8570    -0.0770 C.3   1 <1>   0.1160 
  7 C        1.2170    -2.0860     0.6540 C.3   1 <1>   0.1160 
  8 C       -0.2810     2.8450    -0.5930 C.3   1 <1>  -0.0800 
  9 C       -1.0730     4.0370    -0.0650 C.3   1 <1>   0.2000 
 10 C        1.1690     3.3370    -0.5710 C.3   1 <1>   0.3430 
 11 O       -1.0460     4.0510     1.3250 O.3   1 <1>  -0.6800 
 12 C       -0.3080     5.2530    -0.5990 C.3   1 <1>   0.3430 
 13 N        1.1200     4.8160    -0.7950 N.4   1 <1>  -0.9590 
 14 C        2.1020     5.5260     0.0930 C.3   1 <1>   0.3430 
 15 C        2.2560     7.0090    -0.2580 C.3   1 <1>   0.1200 
 16 O        3.1830     7.5510     0.6490 O.3   1 <1>  -0.3630 
 17 C        3.5620     8.8540     0.5770 C.ar  1 <1>   0.0820 
 18 C        4.4980     9.2790     1.5070 C.ar  1 <1>  -0.1500 
 19 C        3.0690     9.7580    -0.3610 C.ar  1 <1>  -0.1500 
 20 C        4.9400    10.5890     1.5030 C.ar  1 <1>  -0.1500 
 21 C        3.5140    11.0690    -0.3630 C.ar  1 <1>  -0.1500 
 22 C        4.4560    11.4930     0.5720 C.ar  1 <1>   0.0820 
 23 O        4.9500    12.7580     0.6470 O.3   1 <1>  -0.3620 
 24 C        4.6260    13.7710    -0.2780 C.3   1 <1>   0.2000 
 25 C        5.4530    13.5660    -1.5500 C.3   1 <1>  -0.2400 
 26 C        4.9630    15.1040     0.3850 C.3   1 <1>  -0.2400 
 27 H       -1.5360     1.2170     0.0400 H     1 <1>   0.0800 
 28 H       -0.3290     1.6360     1.2070 H     1 <1>   0.0800 
 29 H       -1.3440    -2.6560     0.5850 H     1 <1>   0.0800 
 30 H       -0.8270    -2.2710    -1.0460 H     1 <1>   0.0800 
 31 H       -1.8910    -1.1850    -0.1780 H     1 <1>   0.0800 
 32 H        0.9030    -2.9180     1.2620 H     1 <1>   0.0800 
 33 H        2.0360    -1.5970     1.1540 H     1 <1>   0.0800 
 34 H        1.5630    -2.4550    -0.2980 H     1 <1>   0.0800 
 35 H       -0.5500     2.6930    -1.6260 H     1 <1>   0.0800 
 36 H       -2.1040     4.0330    -0.3770 H     1 <1>   0.0800 
 37 H        1.7630     2.8410    -1.3240 H     1 <1>   0.0800 
 38 H        1.6000     3.1250     0.3950 H     1 <1>   0.0800 
 39 H       -0.1460     3.9920     1.6990 H     1 <1>   0.4000 
 40 H       -0.3950     6.0820     0.0840 H     1 <1>   0.0800 
 41 H       -0.7270     5.5370    -1.5510 H     1 <1>   0.0800 
 42 H        1.3860     4.9860    -1.7770 H     1 <1>   0.4500 
 43 H        1.7860     5.4450     1.1200 H     1 <1>   0.0800 
 44 H        3.0690     5.0590    -0.0010 H     1 <1>   0.0800 
 45 H        1.3290     7.5410    -0.1390 H     1 <1>   0.0800 
 46 H        2.6500     7.1310    -1.2510 H     1 <1>   0.0800 
 47 H        4.8790     8.5830     2.2320 H     1 <1>   0.1500 
 48 H        2.3440     9.4690    -1.0960 H     1 <1>   0.1500 
 49 H        5.6670    10.9200     2.2230 H     1 <1>   0.1500 
 50 H        3.1190    11.7450    -1.0960 H     1 <1>   0.1500 
 51 H        3.5700    13.7370    -0.4800 H     1 <1>   0.0800 
 52 H        6.5030    13.5910    -1.3180 H     1 <1>   0.0800 
 53 H        5.2390    14.3470    -2.2560 H     1 <1>   0.0800 
 54 H        5.2180    12.6240    -2.0090 H     1 <1>   0.0800 
 55 H        6.0090    15.1480     0.6280 H     1 <1>   0.0800 
 56 H        4.3840    15.2220     1.2830 H     1 <1>   0.0800 
 57 H        4.7290    15.9160    -0.2800 H     1 <1>   0.0800 
@<TRIPOS>BOND
  1   1   2  2   
  2   1   3  2   
  3   1   4  am  
  4   1   5  1   
  5   4   6  1   
  6   4   7  1   
  7   5   8  1   
  8   5  27  1   
  9   5  28  1   
 10   6  29  1   
 11   6  30  1   
 12   6  31  1   
 13   7  32  1   
 14   7  33  1   
 15   7  34  1   
 16   8   9  1   
 17   8  10  1   
 18   8  35  1   
 19   9  11  1   
 20   9  12  1   
 21   9  36  1   
 22  10  13  1   
 23  10  37  1   
 24  10  38  1   
 25  11  39  1   
 26  12  13  1   
 27  12  40  1   
 28  12  41  1   
 29  13  14  1   
 30  13  42  1   
 31  14  15  1   
 32  14  43  1   
 33  14  44  1   
 34  15  16  1   
 35  15  45  1   
 36  15  46  1   
 37  16  17  1   
 38  17  18  ar  
 39  17  19  ar  
 40  18  20  ar  
 41  18  47  1   
 42  19  21  ar  
 43  19  48  1   
 44  20  22  ar  
 45  20  49  1   
 46  21  22  ar  
 47  21  50  1   
 48  22  23  1   
 49  23  24  1   
 50  24  25  1   
 51  24  26  1   
 52  24  51  1   
 53  25  52  1   
 54  25  53  1   
 55  25  54  1   
 56  26  55  1   
 57  26  56  1   
 58  26  57  1   
@<TRIPOS>SUBSTRUCTURE
  1 ****  14 GROUP 4 **** **** 0

# MOE 2024.06 (io_trps.svl 2023.06)
