@<TRIPOS>MOLECULE
Untitled Document
43 46 1 0 0 
SMALL
USER_CHARGES


@<TRIPOS>ATOM
  1 O        0.4940     0.4580     0.1930 O.2   1 <1>  -0.5700 
  2 C        0.4200     1.6530     0.0320 C.2   1 <1>   0.5690 
  3 N        1.5280     2.4500    -0.0910 N.am  1 <1>  -0.6600 
  4 C       -0.9700     2.2590    -0.0330 C.3   1 <1>  -0.0990 
  5 C        1.5070     3.9300    -0.2680 C.3   1 <1>   0.2200 
  6 C        2.8670     1.8620    -0.3390 C.3   1 <1>   0.1400 
  7 C       -0.9850     3.6180    -0.7380 C.3   1 <1>  -0.1600 
  8 C        2.4950     4.5900     0.7250 C.3   1 <1>  -0.0800 
  9 C        0.0850     4.5100    -0.1070 C.3   1 <1>  -0.1600 
 10 C        3.8510     2.3800     0.7120 C.3   1 <1>  -0.0800 
 11 C        3.9010     3.9270     0.7370 C.3   1 <1>   0.1760 
 12 C        2.5820     6.1180     0.4900 C.3   1 <1>  -0.1600 
 13 C        5.2360     1.7220     0.5340 C.3   1 <1>  -0.1600 
 14 N        4.8450     4.5320    -0.2780 N.4   1 <1>  -0.0180 
 15 C        3.9730     6.6660     0.8190 C.3   1 <1>  -0.1600 
 16 C        6.3760     2.7350     0.6580 C.3   1 <1>  -0.1600 
 17 O        4.3070     4.4080    -1.5150 O.2   1 <1>  -0.7500 
 18 C        5.0450     5.9970    -0.0630 C.3   1 <1>   0.0960 
 19 C        6.1780     3.8650    -0.3630 C.3   1 <1>   0.0960 
 20 H       -1.6200     1.5770    -0.5500 H     1 <1>   0.0800 
 21 H       -1.3310     2.3640     0.9730 H     1 <1>   0.0800 
 22 H        1.8380     4.1340    -1.2730 H     1 <1>   0.0800 
 23 H        2.8210     0.7870    -0.2960 H     1 <1>   0.0800 
 24 H        3.1970     2.1420    -1.3250 H     1 <1>   0.0800 
 25 H       -0.7710     3.4850    -1.7860 H     1 <1>   0.0800 
 26 H       -1.9560     4.0720    -0.6420 H     1 <1>   0.0800 
 27 H        2.0930     4.4360     1.7110 H     1 <1>   0.0800 
 28 H       -0.1380     4.6380     0.9380 H     1 <1>   0.0800 
 29 H        0.0490     5.4810    -0.5660 H     1 <1>   0.0800 
 30 H        3.4660     2.0660     1.6670 H     1 <1>   0.0800 
 31 H        4.3310     4.1780     1.6880 H     1 <1>   0.0800 
 32 H        2.3910     6.3310    -0.5490 H     1 <1>   0.0800 
 33 H        1.8330     6.6260     1.0740 H     1 <1>   0.0800 
 34 H        5.3620     0.9350     1.2580 H     1 <1>   0.0800 
 35 H        5.3010     1.2720    -0.4440 H     1 <1>   0.0800 
 36 H        4.1990     6.4990     1.8570 H     1 <1>   0.0800 
 37 H        3.9960     7.7280     0.6490 H     1 <1>   0.0800 
 38 H        7.3140     2.2460     0.4600 H     1 <1>   0.0800 
 39 H        6.4210     3.1390     1.6540 H     1 <1>   0.0800 
 40 H        6.0060     6.1590     0.3890 H     1 <1>   0.0800 
 41 H        5.0490     6.4610    -1.0330 H     1 <1>   0.0800 
 42 H        6.2680     3.4570    -1.3550 H     1 <1>   0.0800 
 43 H        6.9510     4.5990    -0.2360 H     1 <1>   0.0800 
@<TRIPOS>BOND
  1   1   2  2   
  2   2   3  am  
  3   2   4  1   
  4   3   5  1   
  5   3   6  1   
  6   4   7  1   
  7   4  20  1   
  8   4  21  1   
  9   5   8  1   
 10   5   9  1   
 11   5  22  1   
 12   6  10  1   
 13   6  23  1   
 14   6  24  1   
 15   7   9  1   
 16   7  25  1   
 17   7  26  1   
 18   8  11  1   
 19   8  12  1   
 20   8  27  1   
 21   9  28  1   
 22   9  29  1   
 23  10  11  1   
 24  10  13  1   
 25  10  30  1   
 26  11  14  1   
 27  11  31  1   
 28  12  15  1   
 29  12  32  1   
 30  12  33  1   
 31  13  16  1   
 32  13  34  1   
 33  13  35  1   
 34  14  17  2   
 35  14  18  1   
 36  14  19  1   
 37  15  18  1   
 38  15  36  1   
 39  15  37  1   
 40  16  19  1   
 41  16  38  1   
 42  16  39  1   
 43  18  40  1   
 44  18  41  1   
 45  19  42  1   
 46  19  43  1   
@<TRIPOS>SUBSTRUCTURE
  1 ****   8 GROUP 4 **** **** 0

# MOE 2024.06 (io_trps.svl 2023.06)
