@<TRIPOS>MOLECULE
NONAME
50 52 1 0 0 
SMALL
USER_CHARGES


@<TRIPOS>ATOM
  1 O        0.0940     1.5850     1.2640 O.2   1 <1>  -0.5700 
  2 C       -0.1770     2.6910     0.8580 C.2   1 <1>   0.5690 
  3 N       -1.3480     3.3250     1.1730 N.am  1 <1>  -0.6600 
  4 C        0.8230     3.3850    -0.0640 C.3   1 <1>   0.1810 
  5 C       -1.6860     4.6730     0.6040 C.3   1 <1>   0.3640 
  6 C       -2.3480     2.7370     2.1100 C.3   1 <1>   0.0600 
  7 O        0.7090     4.7840    -0.0210 O.3   1 <1>  -0.5600 
  8 C       -3.0580     4.6310    -0.0950 C.ar  1 <1>  -0.1430 
  9 C       -0.5900     5.2870    -0.3130 C.3   1 <1>   0.2610 
 10 C       -3.4230     3.7170    -1.0910 C.ar  1 <1>  -0.1430 
 11 C       -3.9900     5.5790     0.3100 C.ar  1 <1>  -0.1500 
 12 C       -0.5850     6.8190    -0.1910 C.2   1 <1>   0.5690 
 13 C       -4.6970     3.7770    -1.6390 C.ar  1 <1>  -0.1500 
 14 C       -2.5000     2.6250    -1.6200 C.3   1 <1>  -0.0960 
 15 C       -5.2550     5.6310    -0.2440 C.ar  1 <1>  -0.1500 
 16 O       -1.6110     7.4450    -0.3090 O.2   1 <1>  -0.5700 
 17 N        0.5880     7.4570     0.0470 N.am  1 <1>  -0.7300 
 18 C       -5.6100     4.7260    -1.2220 C.ar  1 <1>  -0.1500 
 19 C        0.7920     8.9110     0.0660 C.3   1 <1>   0.3210 
 20 C        2.1400     9.1940    -0.5620 C.2   1 <1>  -0.1810 
 21 C        3.3170     9.5640    -0.0080 C.2   1 <1>  -0.3320 
 22 C        2.4030     9.1030    -1.9230 C.2   1 <1>   0.1390 
 23 N        4.2020     9.6800    -1.0250 N.pl3 1 <1>   0.3140 
 24 C        3.6630     9.8170     1.4520 C.3   1 <1>  -0.0600 
 25 N        3.6350     9.3920    -2.2070 N.2   1 <1>  -0.7070 
 26 C        5.6170    10.0610    -0.9380 C.3   1 <1>   0.0160 
 27 H        0.6780     3.0570    -1.0770 H     1 <1>   0.0800 
 28 H        1.8210     3.1300     0.2430 H     1 <1>   0.0800 
 29 H       -1.7710     5.3330     1.4500 H     1 <1>   0.0800 
 30 H       -2.5810     3.4420     2.8870 H     1 <1>   0.0800 
 31 H       -1.9630     1.8400     2.5640 H     1 <1>   0.0800 
 32 H       -3.2500     2.4900     1.5760 H     1 <1>   0.0800 
 33 H       -0.8060     5.0500    -1.3380 H     1 <1>   0.0800 
 34 H       -3.7360     6.3050     1.0640 H     1 <1>   0.1500 
 35 H       -4.9950     3.0790    -2.4020 H     1 <1>   0.1500 
 36 H       -2.9170     2.1610    -2.4960 H     1 <1>   0.0800 
 37 H       -2.3680     1.8610    -0.8760 H     1 <1>   0.0800 
 38 H       -1.5450     3.0260    -1.8920 H     1 <1>   0.0800 
 39 H       -5.9580     6.3770     0.0840 H     1 <1>   0.1500 
 40 H        1.4420     6.8930     0.1120 H     1 <1>   0.3700 
 41 H       -6.5930     4.7600    -1.6580 H     1 <1>   0.1500 
 42 H        0.0120     9.4050    -0.4890 H     1 <1>   0.0800 
 43 H        0.7670     9.2620     1.0810 H     1 <1>   0.0800 
 44 H        1.6750     8.8240    -2.6660 H     1 <1>   0.1500 
 45 H        2.8110     9.6410     2.0820 H     1 <1>   0.0800 
 46 H        3.9810    10.8350     1.5860 H     1 <1>   0.0800 
 47 H        4.4540     9.1590     1.7640 H     1 <1>   0.0800 
 48 H        6.1400     9.3430    -0.3350 H     1 <1>   0.0800 
 49 H        5.6930    11.0380    -0.5000 H     1 <1>   0.0800 
 50 H        6.0380    10.0760    -1.9260 H     1 <1>   0.0800 
@<TRIPOS>BOND
  1   1   2  2   
  2   2   3  am  
  3   2   4  1   
  4   3   5  1   
  5   3   6  1   
  6   4   7  1   
  7   4  27  1   
  8   4  28  1   
  9   5   8  1   
 10   5   9  1   
 11   5  29  1   
 12   6  30  1   
 13   6  31  1   
 14   6  32  1   
 15   7   9  1   
 16   8  10  ar  
 17   8  11  ar  
 18   9  12  1   
 19   9  33  1   
 20  10  13  ar  
 21  10  14  1   
 22  11  15  ar  
 23  11  34  1   
 24  12  16  2   
 25  12  17  am  
 26  13  18  ar  
 27  13  35  1   
 28  14  36  1   
 29  14  37  1   
 30  14  38  1   
 31  15  18  ar  
 32  15  39  1   
 33  17  19  1   
 34  17  40  1   
 35  18  41  1   
 36  19  20  1   
 37  19  42  1   
 38  19  43  1   
 39  20  21  2   
 40  20  22  1   
 41  21  23  1   
 42  21  24  1   
 43  22  25  2   
 44  22  44  1   
 45  23  25  1   
 46  23  26  1   
 47  24  45  1   
 48  24  46  1   
 49  24  47  1   
 50  26  48  1   
 51  26  49  1   
 52  26  50  1   
@<TRIPOS>SUBSTRUCTURE
  1 ****   9 GROUP 4 **** **** 0

# MOE 2024.06 (io_trps.svl 2023.06)
