@<TRIPOS>MOLECULE
NONAME
48 50 1 0 0 
SMALL
USER_CHARGES


@<TRIPOS>ATOM
  1 S       -0.8110     0.0250    -1.3720 S.3   1 <1>  -0.3320 
  2 C       -0.4840     1.7710    -1.5150 C.ar  1 <1>   0.7220 
  3 C       -0.7990    -0.2870     0.4600 C.3   1 <1>   0.1310 
  4 N       -0.3310     2.4240    -0.3730 N.ar  1 <1>  -0.6200 
  5 N       -0.4390     2.2260    -2.7550 N.ar  1 <1>  -0.6200 
  6 C       -1.2860    -1.6950     0.7740 C.2   1 <1>   0.5690 
  7 C       -0.0890     3.7080    -0.5040 C.ar  1 <1>   0.1660 
  8 C       -0.1970     3.5130    -2.8500 C.ar  1 <1>   0.1600 
  9 O       -0.4480    -2.4870     1.1430 O.2   1 <1>  -0.5700 
 10 N       -2.6150    -2.0510     0.6770 N.am  1 <1>  -0.6600 
 11 C       -0.0120     4.3070    -1.7410 C.ar  1 <1>  -0.1500 
 12 C        0.1020     4.5040     0.7690 C.3   1 <1>  -0.0970 
 13 C       -3.6820    -1.1200     0.1930 C.3   1 <1>   0.2200 
 14 C       -3.0110    -3.4570     1.0060 C.3   1 <1>   0.0600 
 15 C       -4.5460    -1.6890    -0.9290 C.3   1 <1>  -0.1600 
 16 C       -4.6720    -0.7350     1.2860 C.3   1 <1>  -0.1600 
 17 C       -5.8130    -0.8240    -0.9080 C.3   1 <1>  -0.0800 
 18 C       -5.9150    -0.2510     0.5260 C.3   1 <1>  -0.0800 
 19 C       -7.0610    -1.5820    -1.4020 C.3   1 <1>   0.1400 
 20 C       -7.2330    -0.6030     1.2390 C.3   1 <1>  -0.0990 
 21 N       -8.2970    -0.8820    -0.9690 N.am  1 <1>  -0.6600 
 22 C       -8.4090    -0.4000     0.3060 C.2   1 <1>   0.5690 
 23 C       -9.3950    -0.7770    -1.9660 C.3   1 <1>   0.0600 
 24 O       -9.3900     0.1700     0.7180 O.2   1 <1>  -0.5700 
 25 H        0.2140    -0.1580     0.7910 H     1 <1>   0.0800 
 26 H       -1.4290     0.4450     0.9290 H     1 <1>   0.0800 
 27 H       -0.1450     3.9440    -3.8360 H     1 <1>   0.1500 
 28 H        0.1850     5.3570    -1.8460 H     1 <1>   0.1500 
 29 H        0.3000     5.5380     0.5540 H     1 <1>   0.0800 
 30 H        0.9290     4.1010     1.3250 H     1 <1>   0.0800 
 31 H       -0.7840     4.4380     1.3730 H     1 <1>   0.0800 
 32 H       -3.2500    -0.2080    -0.1790 H     1 <1>   0.0800 
 33 H       -4.0190    -3.5010     1.3750 H     1 <1>   0.0800 
 34 H       -2.3600    -3.8630     1.7610 H     1 <1>   0.0800 
 35 H       -2.9310    -4.0660     0.1230 H     1 <1>   0.0800 
 36 H       -4.0400    -1.6300    -1.8760 H     1 <1>   0.0800 
 37 H       -4.8090    -2.7100    -0.7260 H     1 <1>   0.0800 
 38 H       -4.9170    -1.5900     1.8880 H     1 <1>   0.0800 
 39 H       -4.2740     0.0380     1.9180 H     1 <1>   0.0800 
 40 H       -5.6550     0.0060    -1.5760 H     1 <1>   0.0800 
 41 H       -5.8660     0.8220     0.4430 H     1 <1>   0.0800 
 42 H       -7.0790    -2.5770    -0.9910 H     1 <1>   0.0800 
 43 H       -7.0340    -1.6610    -2.4760 H     1 <1>   0.0800 
 44 H       -7.3560     0.0100     2.1120 H     1 <1>   0.0800 
 45 H       -7.2350    -1.6330     1.5460 H     1 <1>   0.0800 
 46 H       -9.6940    -1.7610    -2.2840 H     1 <1>   0.0800 
 47 H       -9.0610    -0.2120    -2.8180 H     1 <1>   0.0800 
 48 H      -10.2480    -0.2800    -1.5370 H     1 <1>   0.0800 
@<TRIPOS>BOND
  1   1   2  1   
  2   1   3  1   
  3   2   4  ar  
  4   2   5  ar  
  5   3   6  1   
  6   3  25  1   
  7   3  26  1   
  8   4   7  ar  
  9   5   8  ar  
 10   6   9  2   
 11   6  10  am  
 12   7  11  ar  
 13   7  12  1   
 14   8  11  ar  
 15   8  27  1   
 16  10  13  1   
 17  10  14  1   
 18  11  28  1   
 19  12  29  1   
 20  12  30  1   
 21  12  31  1   
 22  13  15  1   
 23  13  16  1   
 24  13  32  1   
 25  14  33  1   
 26  14  34  1   
 27  14  35  1   
 28  15  17  1   
 29  15  36  1   
 30  15  37  1   
 31  16  18  1   
 32  16  38  1   
 33  16  39  1   
 34  17  18  1   
 35  17  19  1   
 36  17  40  1   
 37  18  20  1   
 38  18  41  1   
 39  19  21  1   
 40  19  42  1   
 41  19  43  1   
 42  20  22  1   
 43  20  44  1   
 44  20  45  1   
 45  21  22  am  
 46  21  23  1   
 47  22  24  2   
 48  23  46  1   
 49  23  47  1   
 50  23  48  1   
@<TRIPOS>SUBSTRUCTURE
  1 ****  13 GROUP 4 **** **** 0

# MOE 2024.06 (io_trps.svl 2023.06)
