@<TRIPOS>MOLECULE
NONAME
46 48 1 0 0 
SMALL
USER_CHARGES


@<TRIPOS>ATOM
  1 S        0.2640     0.1730     0.1450 S.o2  1 <1>   1.3330 
  2 O        0.6320    -0.2240    -1.1960 O.2   1 <1>  -0.6500 
  3 O        1.1370    -0.1040     1.2600 O.2   1 <1>  -0.6500 
  4 N       -1.1310    -0.6740     0.5350 N.am  1 <1>  -0.9140 
  5 C       -0.2820     1.8860     0.1640 C.3   1 <1>   0.0890 
  6 C       -1.2280    -1.9870    -0.0950 C.3   1 <1>   0.2760 
  7 C        0.8210     2.8940    -0.1330 C.ar  1 <1>  -0.1440 
  8 C       -2.5970    -2.5690     0.2220 C.3   1 <1>  -0.0800 
  9 C       -0.3110    -2.9970     0.5980 C.3   1 <1>   0.1200 
 10 C        1.3000     3.0360    -1.4260 C.ar  1 <1>  -0.1500 
 11 C        1.3550     3.6730     0.8810 C.ar  1 <1>  -0.1500 
 12 C       -2.3740    -3.2170     1.5950 C.3   1 <1>   0.1200 
 13 C       -3.0370    -3.5950    -0.8420 C.3   1 <1>  -0.0160 
 14 O       -0.9960    -3.3960     1.7470 O.3   1 <1>  -0.5600 
 15 C        2.3010     3.9490    -1.7120 C.ar  1 <1>  -0.1440 
 16 C        2.3530     4.5900     0.6000 C.ar  1 <1>  -0.1500 
 17 C       -4.4080    -4.1740    -0.5290 C.ar  1 <1>  -0.1440 
 18 C        2.8230     4.7280    -0.6930 C.ar  1 <1>  -0.1500 
 19 C        2.8180     4.0920    -3.1320 C.3   1 <1>  -0.0970 
 20 C       -4.5680    -5.4560    -0.0420 C.ar  1 <1>  -0.1500 
 21 C       -5.5660    -3.4460    -0.7200 C.ar  1 <1>  -0.1500 
 22 C       -5.8410    -5.9310     0.2290 C.ar  1 <1>   0.1600 
 23 C       -6.7910    -4.0170    -0.4180 C.ar  1 <1>   0.1600 
 24 N       -6.9560    -5.2410     0.0540 N.ar  1 <1>  -0.6200 
 25 H       -1.0040    -0.8880     1.5290 H     1 <1>   0.4200 
 26 H       -1.0580     2.0110    -0.5650 H     1 <1>   0.0800 
 27 H       -0.7060     2.1070     1.1240 H     1 <1>   0.0800 
 28 H       -1.0550    -1.9250    -1.1570 H     1 <1>   0.0800 
 29 H       -3.3440    -1.7970     0.2810 H     1 <1>   0.0800 
 30 H        0.6490    -2.5970     0.8690 H     1 <1>   0.0800 
 31 H       -0.1710    -3.8670    -0.0180 H     1 <1>   0.0800 
 32 H        0.8980     2.4280    -2.2200 H     1 <1>   0.1500 
 33 H        1.0040     3.5740     1.8930 H     1 <1>   0.1500 
 34 H       -2.8610    -4.1710     1.6980 H     1 <1>   0.0800 
 35 H       -2.7050    -2.5640     2.3840 H     1 <1>   0.0800 
 36 H       -2.3190    -4.3940    -0.9110 H     1 <1>   0.0800 
 37 H       -3.0800    -3.1160    -1.8040 H     1 <1>   0.0800 
 38 H        2.7660     5.1940     1.3880 H     1 <1>   0.1500 
 39 H        3.5990     5.4440    -0.9020 H     1 <1>   0.1500 
 40 H        3.8210     4.4780    -3.1330 H     1 <1>   0.0800 
 41 H        2.1860     4.7640    -3.6840 H     1 <1>   0.0800 
 42 H        2.8240     3.1360    -3.6240 H     1 <1>   0.0800 
 43 H       -3.7190    -6.0900     0.1320 H     1 <1>   0.1500 
 44 H       -5.5280    -2.4420    -1.1010 H     1 <1>   0.1500 
 45 H       -5.9460    -6.9330     0.6100 H     1 <1>   0.1500 
 46 H       -7.6840    -3.4350    -0.5730 H     1 <1>   0.1500 
@<TRIPOS>BOND
  1   1   2  2   
  2   1   3  2   
  3   1   4  am  
  4   1   5  1   
  5   4   6  1   
  6   4  25  1   
  7   5   7  1   
  8   5  26  1   
  9   5  27  1   
 10   6   8  1   
 11   6   9  1   
 12   6  28  1   
 13   7  10  ar  
 14   7  11  ar  
 15   8  12  1   
 16   8  13  1   
 17   8  29  1   
 18   9  14  1   
 19   9  30  1   
 20   9  31  1   
 21  10  15  ar  
 22  10  32  1   
 23  11  16  ar  
 24  11  33  1   
 25  12  14  1   
 26  12  34  1   
 27  12  35  1   
 28  13  17  1   
 29  13  36  1   
 30  13  37  1   
 31  15  18  ar  
 32  15  19  1   
 33  16  18  ar  
 34  16  38  1   
 35  17  20  ar  
 36  17  21  ar  
 37  18  39  1   
 38  19  40  1   
 39  19  41  1   
 40  19  42  1   
 41  20  22  ar  
 42  20  43  1   
 43  21  23  ar  
 44  21  44  1   
 45  22  24  ar  
 46  22  45  1   
 47  23  24  ar  
 48  23  46  1   
@<TRIPOS>SUBSTRUCTURE
  1 ****   4 GROUP 4 **** **** 0

# MOE 2024.06 (io_trps.svl 2023.06)
