@<TRIPOS>MOLECULE
NONAME
49 52 1 0 0 
SMALL
USER_CHARGES


@<TRIPOS>ATOM
  1 O       -0.5990     0.1370    -2.1220 O.2   1 <1>  -0.5700 
  2 C       -1.4740     0.8770    -1.7350 C.2   1 <1>   0.5690 
  3 N       -2.7130     0.3940    -1.3690 N.am  1 <1>  -0.6600 
  4 C       -1.1340     2.3650    -1.6880 C.3   1 <1>   0.0440 
  5 C       -3.7700     1.2510    -0.7460 C.3   1 <1>   0.2200 
  6 C       -2.9660    -1.0790    -1.4300 C.3   1 <1>   0.0600 
  7 C       -1.0850     2.9370    -0.2620 C.ar  1 <1>  -0.1440 
  8 C       -4.1590     0.8240     0.6650 C.3   1 <1>  -0.1600 
  9 C       -5.0890     1.2960    -1.5070 C.3   1 <1>  -0.1600 
 10 C       -1.7370     4.1510     0.0990 C.ar  1 <1>   0.0000 
 11 C       -0.4010     2.2140     0.6820 C.ar  1 <1>  -0.1500 
 12 C       -5.4970     1.5340     0.9110 C.3   1 <1>  -0.0800 
 13 C       -6.0770     1.8630    -0.4790 C.3   1 <1>  -0.0800 
 14 C       -1.7030     4.5490     1.4570 C.ar  1 <1>   0.0000 
 15 C       -2.4300     5.0000    -0.8010 C.ar  1 <1>  -0.1500 
 16 C       -0.3520     2.6280     2.0140 C.ar  1 <1>  -0.1500 
 17 C       -5.3430     2.8730     1.6490 C.3   1 <1>  -0.1600 
 18 C       -6.2030     3.3930    -0.5390 C.3   1 <1>  -0.1600 
 19 C       -0.9960     3.7690     2.3910 C.ar  1 <1>  -0.1500 
 20 C       -2.3770     5.7210     1.8580 C.ar  1 <1>  -0.1500 
 21 C       -3.0700     6.1340    -0.3870 C.ar  1 <1>  -0.1500 
 22 C       -6.2700     3.8280     0.9150 C.3   1 <1>   0.2000 
 23 C       -3.0480     6.4990     0.9610 C.ar  1 <1>  -0.1500 
 24 O       -5.8210     5.1220     1.0480 O.3   1 <1>  -0.6800 
 25 H       -0.1720     2.5130    -2.1430 H     1 <1>   0.0800 
 26 H       -1.8520     2.8550    -2.3080 H     1 <1>   0.0800 
 27 H       -3.4370     2.2660    -0.6800 H     1 <1>   0.0800 
 28 H       -4.0000    -1.2900    -1.6250 H     1 <1>   0.0800 
 29 H       -2.6830    -1.5300    -0.4950 H     1 <1>   0.0800 
 30 H       -2.3800    -1.5260    -2.2150 H     1 <1>   0.0800 
 31 H       -4.3240    -0.2370     0.7080 H     1 <1>   0.0800 
 32 H       -3.4050     1.0970     1.3830 H     1 <1>   0.0800 
 33 H       -5.0200     1.9050    -2.3910 H     1 <1>   0.0800 
 34 H       -5.4070     0.3080    -1.7810 H     1 <1>   0.0800 
 35 H        0.1100     1.3010     0.4210 H     1 <1>   0.1500 
 36 H       -6.1720     0.8940     1.4550 H     1 <1>   0.0800 
 37 H       -7.0500     1.4140    -0.5940 H     1 <1>   0.0800 
 38 H       -2.4580     4.7690    -1.8460 H     1 <1>   0.1500 
 39 H        0.1940     2.0350     2.7270 H     1 <1>   0.1500 
 40 H       -4.3290     3.2240     1.5740 H     1 <1>   0.0800 
 41 H       -5.6160     2.7840     2.6850 H     1 <1>   0.0800 
 42 H       -7.0830     3.6950    -1.0780 H     1 <1>   0.0800 
 43 H       -5.3310     3.8220    -1.0020 H     1 <1>   0.0800 
 44 H       -0.9690     4.0920     3.4160 H     1 <1>   0.1500 
 45 H       -2.3520     5.9970     2.8970 H     1 <1>   0.1500 
 46 H       -3.5940     6.7630    -1.0870 H     1 <1>   0.1500 
 47 H       -7.2780     3.7630     1.2930 H     1 <1>   0.0800 
 48 H       -3.5610     7.3940     1.2730 H     1 <1>   0.1500 
 49 H       -4.8660     5.1660     0.8320 H     1 <1>   0.4000 
@<TRIPOS>BOND
  1   1   2  2   
  2   2   3  am  
  3   2   4  1   
  4   3   5  1   
  5   3   6  1   
  6   4   7  1   
  7   4  25  1   
  8   4  26  1   
  9   5   8  1   
 10   5   9  1   
 11   5  27  1   
 12   6  28  1   
 13   6  29  1   
 14   6  30  1   
 15   7  10  ar  
 16   7  11  ar  
 17   8  12  1   
 18   8  31  1   
 19   8  32  1   
 20   9  13  1   
 21   9  33  1   
 22   9  34  1   
 23  10  14  ar  
 24  10  15  ar  
 25  11  16  ar  
 26  11  35  1   
 27  12  13  1   
 28  12  17  1   
 29  12  36  1   
 30  13  18  1   
 31  13  37  1   
 32  14  19  ar  
 33  14  20  ar  
 34  15  21  ar  
 35  15  38  1   
 36  16  19  ar  
 37  16  39  1   
 38  17  22  1   
 39  17  40  1   
 40  17  41  1   
 41  18  22  1   
 42  18  42  1   
 43  18  43  1   
 44  19  44  1   
 45  20  23  ar  
 46  20  45  1   
 47  21  23  ar  
 48  21  46  1   
 49  22  24  1   
 50  22  47  1   
 51  23  48  1   
 52  24  49  1   
@<TRIPOS>SUBSTRUCTURE
  1 ****  10 GROUP 4 **** **** 0

# MOE 2024.06 (io_trps.svl 2023.06)
