@<TRIPOS>MOLECULE
NONAME
46 48 1 0 0 
SMALL
USER_CHARGES


@<TRIPOS>ATOM
  1 S       -1.3920     1.5870     1.0580 S.3   1 <1>  -0.3320 
  2 C        0.1830     2.3550     0.6380 C.ar  1 <1>   0.1020 
  3 C       -1.7310     0.3230    -0.2370 C.3   1 <1>   0.0700 
  4 C        0.6610     3.3160     1.5110 C.ar  1 <1>  -0.1500 
  5 C        0.8970     2.0120    -0.5010 C.ar  1 <1>  -0.1500 
  6 C       -3.0580    -0.3370     0.1450 C.3   1 <1>   0.3430 
  7 C        1.8670     3.9420     1.2470 C.ar  1 <1>  -0.1500 
  8 C        2.1020     2.6420    -0.7600 C.ar  1 <1>  -0.1500 
  9 N       -3.4940    -1.3840    -0.8450 N.4   1 <1>  -0.9590 
 10 C        2.5860     3.6040     0.1120 C.ar  1 <1>  -0.1500 
 11 C       -4.9170    -1.8220    -0.6990 C.3   1 <1>   0.4230 
 12 C       -2.5880    -2.5780    -0.8080 C.3   1 <1>   0.2630 
 13 C       -5.3100    -2.2810     0.7050 C.3   1 <1>  -0.1600 
 14 C       -5.9160    -0.7190    -1.0300 C.3   1 <1>  -0.1600 
 15 C       -6.8440    -2.2310     0.6970 C.3   1 <1>  -0.0800 
 16 C       -7.2270    -1.1760    -0.3730 C.3   1 <1>  -0.0800 
 17 C       -7.4560    -2.0240     2.1000 C.3   1 <1>   0.1400 
 18 C       -8.0750    -0.0070     0.1660 C.3   1 <1>  -0.0990 
 19 N       -8.8210    -1.4800     1.9710 N.am  1 <1>  -0.7300 
 20 C       -9.1610    -0.5220     1.0850 C.2   1 <1>   0.5690 
 21 O      -10.2790    -0.0830     1.0250 O.2   1 <1>  -0.5700 
 22 H       -1.7950     0.8440    -1.1760 H     1 <1>   0.0800 
 23 H       -0.9080    -0.3670    -0.2210 H     1 <1>   0.0800 
 24 H        0.0960     3.5720     2.3900 H     1 <1>   0.1500 
 25 H        0.5420     1.2730    -1.1900 H     1 <1>   0.1500 
 26 H       -3.8030     0.4370     0.2130 H     1 <1>   0.0800 
 27 H       -2.9550    -0.7810     1.1220 H     1 <1>   0.0800 
 28 H        2.2450     4.6900     1.9220 H     1 <1>   0.1500 
 29 H        2.6690     2.3880    -1.6390 H     1 <1>   0.1500 
 30 H       -3.4290    -0.9660    -1.7850 H     1 <1>   0.4500 
 31 H        3.5240     4.0920    -0.0930 H     1 <1>   0.1500 
 32 H       -5.1070    -2.6400    -1.3770 H     1 <1>   0.0800 
 33 H       -2.6120    -3.0360     0.1680 H     1 <1>   0.0800 
 34 H       -1.5720    -2.2920    -1.0280 H     1 <1>   0.0800 
 35 H       -2.9000    -3.3090    -1.5380 H     1 <1>   0.0800 
 36 H       -4.9590    -3.2760     0.9160 H     1 <1>   0.0800 
 37 H       -4.9440    -1.6000     1.4520 H     1 <1>   0.0800 
 38 H       -5.6140     0.2200    -0.6060 H     1 <1>   0.0800 
 39 H       -6.0420    -0.6060    -2.0930 H     1 <1>   0.0800 
 40 H       -7.2020    -3.1850     0.3410 H     1 <1>   0.0800 
 41 H       -7.8240    -1.6830    -1.1160 H     1 <1>   0.0800 
 42 H       -6.8700    -1.3230     2.6710 H     1 <1>   0.0800 
 43 H       -7.4850    -2.9580     2.6340 H     1 <1>   0.0800 
 44 H       -8.5260     0.5340    -0.6470 H     1 <1>   0.0800 
 45 H       -7.4730     0.6770     0.7340 H     1 <1>   0.0800 
 46 H       -9.5460    -1.7970     2.6200 H     1 <1>   0.3700 
@<TRIPOS>BOND
  1   1   2  1   
  2   1   3  1   
  3   2   4  ar  
  4   2   5  ar  
  5   3   6  1   
  6   3  22  1   
  7   3  23  1   
  8   4   7  ar  
  9   4  24  1   
 10   5   8  ar  
 11   5  25  1   
 12   6   9  1   
 13   6  26  1   
 14   6  27  1   
 15   7  10  ar  
 16   7  28  1   
 17   8  10  ar  
 18   8  29  1   
 19   9  11  1   
 20   9  12  1   
 21   9  30  1   
 22  10  31  1   
 23  11  13  1   
 24  11  14  1   
 25  11  32  1   
 26  12  33  1   
 27  12  34  1   
 28  12  35  1   
 29  13  15  1   
 30  13  36  1   
 31  13  37  1   
 32  14  16  1   
 33  14  38  1   
 34  14  39  1   
 35  15  16  1   
 36  15  17  1   
 37  15  40  1   
 38  16  18  1   
 39  16  41  1   
 40  17  19  1   
 41  17  42  1   
 42  17  43  1   
 43  18  20  1   
 44  18  44  1   
 45  18  45  1   
 46  19  20  am  
 47  19  46  1   
 48  20  21  2   
@<TRIPOS>SUBSTRUCTURE
  1 ****   6 GROUP 4 **** **** 0

# MOE 2024.06 (io_trps.svl 2023.06)
