@<TRIPOS>MOLECULE
NONAME
40 42 1 0 0 
SMALL
USER_CHARGES


@<TRIPOS>ATOM
  1 CL       0.8730    -2.2630    -2.5660 Cl    1 <1>  -0.1770 
  2 C        0.4420    -3.5150    -1.4330 C.ar  1 <1>   0.1770 
  3 C        0.7370    -4.8320    -1.7310 C.ar  1 <1>  -0.1500 
  4 C       -0.1900    -3.1740    -0.2520 C.ar  1 <1>  -0.1500 
  5 C        0.3910    -5.8260    -0.8310 C.ar  1 <1>  -0.1500 
  6 C       -0.5350    -4.1700     0.6460 C.ar  1 <1>  -0.1500 
  7 C       -0.2490    -5.4990     0.3600 C.ar  1 <1>  -0.1430 
  8 C       -0.6410    -6.5900     1.3400 C.3   1 <1>   0.4870 
  9 N       -1.7370    -7.3850     0.7350 N.4   1 <1>  -0.9590 
 10 C       -2.9790    -6.6110     0.4090 C.3   1 <1>   0.3430 
 11 C       -2.1610    -8.5810     1.4960 C.3   1 <1>   0.3430 
 12 C       -4.1570    -7.5470     0.7340 C.3   1 <1>   0.2000 
 13 C       -3.5190    -8.9310     0.8820 C.3   1 <1>  -0.0800 
 14 O       -4.7290    -7.1810     1.9470 O.3   1 <1>  -0.6800 
 15 C       -3.4250    -9.6250    -0.5060 C.3   1 <1>  -0.0170 
 16 C       -2.1070   -10.3380    -0.7820 C.ar  1 <1>   0.1670 
 17 N       -1.0790    -9.5650    -1.1200 N.ar  1 <1>  -0.6200 
 18 C       -2.0310   -11.7260    -0.6830 C.ar  1 <1>   0.1600 
 19 C        0.0080   -10.2810    -1.3790 C.ar  1 <1>   0.1600 
 20 N       -0.9360   -12.4280    -0.9100 N.ar  1 <1>  -0.6200 
 21 C        0.0780   -11.6650    -1.2740 C.ar  1 <1>   0.1600 
 22 H        1.2330    -5.0660    -2.6570 H     1 <1>   0.1500 
 23 H       -0.4030    -2.1390    -0.0460 H     1 <1>   0.1500 
 24 H        0.6290    -6.8480    -1.0710 H     1 <1>   0.1500 
 25 H       -1.0240    -3.8910     1.5650 H     1 <1>   0.1500 
 26 H       -0.9640    -6.1520     2.2690 H     1 <1>   0.0800 
 27 H        0.2120    -7.2210     1.5330 H     1 <1>   0.0800 
 28 H       -1.3720    -7.7680    -0.1610 H     1 <1>   0.4500 
 29 H       -3.0530    -5.7080     0.9920 H     1 <1>   0.0800 
 30 H       -2.9800    -6.3560    -0.6390 H     1 <1>   0.0800 
 31 H       -1.4500    -9.3870     1.4030 H     1 <1>   0.0800 
 32 H       -2.2840    -8.3330     2.5380 H     1 <1>   0.0800 
 33 H       -4.9310    -7.5040    -0.0140 H     1 <1>   0.0800 
 34 H       -4.0820    -9.5610     1.5490 H     1 <1>   0.0800 
 35 H       -4.1310    -7.2750     2.7120 H     1 <1>   0.4000 
 36 H       -3.5600    -8.9090    -1.2990 H     1 <1>   0.0800 
 37 H       -4.2380   -10.3240    -0.5980 H     1 <1>   0.0800 
 38 H       -2.9080   -12.2840    -0.4040 H     1 <1>   0.1500 
 39 H        0.8930    -9.7530    -1.6900 H     1 <1>   0.1500 
 40 H        1.0070   -12.1590    -1.5000 H     1 <1>   0.1500 
@<TRIPOS>BOND
  1   1   2  1   
  2   2   3  ar  
  3   2   4  ar  
  4   3   5  ar  
  5   3  22  1   
  6   4   6  ar  
  7   4  23  1   
  8   5   7  ar  
  9   5  24  1   
 10   6   7  ar  
 11   6  25  1   
 12   7   8  1   
 13   8   9  1   
 14   8  26  1   
 15   8  27  1   
 16   9  10  1   
 17   9  11  1   
 18   9  28  1   
 19  10  12  1   
 20  10  29  1   
 21  10  30  1   
 22  11  13  1   
 23  11  31  1   
 24  11  32  1   
 25  12  13  1   
 26  12  14  1   
 27  12  33  1   
 28  13  15  1   
 29  13  34  1   
 30  14  35  1   
 31  15  16  1   
 32  15  36  1   
 33  15  37  1   
 34  16  17  ar  
 35  16  18  ar  
 36  17  19  ar  
 37  18  20  ar  
 38  18  38  1   
 39  19  21  ar  
 40  19  39  1   
 41  20  21  ar  
 42  21  40  1   
@<TRIPOS>SUBSTRUCTURE
  1 ****   9 GROUP 4 **** **** 0

# MOE 2024.06 (io_trps.svl 2023.06)
