@<TRIPOS>MOLECULE
NONAME
42 45 1 0 0 
SMALL
USER_CHARGES


@<TRIPOS>ATOM
  1 S        0.1630    -0.6360    -2.0860 S.3   1 <1>  -0.0800 
  2 C        1.0330    -1.1520    -0.6640 C.2   1 <1>  -0.1400 
  3 C        0.8810     0.9480    -1.9150 C.2   1 <1>   0.2280 
  4 C        1.7690    -0.1230    -0.2130 C.2   1 <1>   0.0460 
  5 C        0.8550    -2.5810    -0.2080 C.3   1 <1>   0.5230 
  6 N        1.6660     1.0580    -0.9200 N.2   1 <1>  -0.5650 
  7 C        2.7050    -0.0930     0.9780 C.3   1 <1>  -0.0590 
  8 N       -0.2380    -2.6490     0.8100 N.4   1 <1>  -0.9590 
  9 C       -0.2680    -3.9640     1.5230 C.3   1 <1>   0.3430 
 10 C       -1.5910    -2.2980     0.2670 C.3   1 <1>   0.3430 
 11 C       -0.7640    -5.0750     0.6020 C.3   1 <1>  -0.1600 
 12 C       -2.1130    -3.3850    -0.6690 C.3   1 <1>  -0.1600 
 13 C       -2.1480    -4.7300     0.0550 C.3   1 <1>   0.4600 
 14 O       -2.9820    -4.6010     1.1860 O.3   1 <1>  -0.5600 
 15 C       -2.6640    -5.8450    -0.8360 C.2   1 <1>  -0.1400 
 16 C       -4.3710    -4.8050     1.0170 C.3   1 <1>   0.1200 
 17 S       -1.8070    -6.3860    -2.2710 S.3   1 <1>  -0.0800 
 18 C       -3.7910    -6.5450    -0.6610 C.2   1 <1>  -0.1810 
 19 C       -4.6890    -6.2280     0.5120 C.3   1 <1>   0.0210 
 20 C       -3.0430    -7.5960    -2.5870 C.2   1 <1>  -0.1100 
 21 C       -4.0130    -7.5510    -1.6530 C.2   1 <1>  -0.1500 
 22 H        0.6150     1.6960    -2.6430 H     1 <1>   0.1500 
 23 H        1.7780    -2.9190     0.2330 H     1 <1>   0.0800 
 24 H        0.6340    -3.2120    -1.0530 H     1 <1>   0.0800 
 25 H        2.7430    -1.0440     1.4750 H     1 <1>   0.0800 
 26 H        2.3790     0.6560     1.6760 H     1 <1>   0.0800 
 27 H        3.6960     0.1640     0.6470 H     1 <1>   0.0800 
 28 H       -0.0110    -1.9210     1.5010 H     1 <1>   0.4500 
 29 H       -0.9380    -3.8970     2.3660 H     1 <1>   0.0800 
 30 H        0.7130    -4.2110     1.8970 H     1 <1>   0.0800 
 31 H       -1.5560    -1.3530    -0.2490 H     1 <1>   0.0800 
 32 H       -2.2840    -2.1970     1.0880 H     1 <1>   0.0800 
 33 H       -0.8320    -5.9960     1.1530 H     1 <1>   0.0800 
 34 H       -0.0710    -5.2370    -0.2020 H     1 <1>   0.0800 
 35 H       -1.4960    -3.4510    -1.5460 H     1 <1>   0.0800 
 36 H       -3.1020    -3.1310    -1.0050 H     1 <1>   0.0800 
 37 H       -4.7400    -4.0760     0.3160 H     1 <1>   0.0800 
 38 H       -4.8480    -4.6380     1.9670 H     1 <1>   0.0800 
 39 H       -5.7200    -6.2770     0.2120 H     1 <1>   0.0800 
 40 H       -4.5300    -6.9430     1.2990 H     1 <1>   0.0800 
 41 H       -2.9120    -8.2230    -3.4520 H     1 <1>   0.1500 
 42 H       -4.8800    -8.1880    -1.6200 H     1 <1>   0.1500 
@<TRIPOS>BOND
  1   1   2  1   
  2   1   3  1   
  3   2   4  2   
  4   2   5  1   
  5   3   6  2   
  6   3  22  1   
  7   4   6  1   
  8   4   7  1   
  9   5   8  1   
 10   5  23  1   
 11   5  24  1   
 12   7  25  1   
 13   7  26  1   
 14   7  27  1   
 15   8   9  1   
 16   8  10  1   
 17   8  28  1   
 18   9  11  1   
 19   9  29  1   
 20   9  30  1   
 21  10  12  1   
 22  10  31  1   
 23  10  32  1   
 24  11  13  1   
 25  11  33  1   
 26  11  34  1   
 27  12  13  1   
 28  12  35  1   
 29  12  36  1   
 30  13  14  1   
 31  13  15  1   
 32  14  16  1   
 33  15  17  1   
 34  15  18  2   
 35  16  19  1   
 36  16  37  1   
 37  16  38  1   
 38  17  20  1   
 39  18  19  1   
 40  18  21  1   
 41  19  39  1   
 42  19  40  1   
 43  20  21  2   
 44  20  41  1   
 45  21  42  1   
@<TRIPOS>SUBSTRUCTURE
  1 ****  12 GROUP 4 **** **** 0

# MOE 2024.06 (io_trps.svl 2023.06)
