@<TRIPOS>MOLECULE
NONAME
23 23 1 0 0 
SMALL
USER_CHARGES


@<TRIPOS>ATOM
  1 P       -0.2360    -0.3430     0.2200 P.3   1 <1>   0.8930 
  2 O       -0.6380    -1.2660     1.2720 O.2   1 <1>  -0.7000 
  3 C       -1.0670     1.2150     0.2720 C.2   1 <1>  -0.1930 
  4 C       -0.5300    -0.9660    -1.4050 C.3   1 <1>  -0.2400 
  5 C        1.4890     0.0380     0.2630 C.3   1 <1>  -0.2400 
  6 C       -2.4380     1.3390     0.4580 C.2   1 <1>   0.3720 
  7 C       -0.6710     2.5070     0.1450 C.2   1 <1>  -0.3020 
  8 N       -2.8660     2.5500     0.4700 N.2   1 <1>  -0.7070 
  9 N       -3.3220     0.3100     0.6450 N.pl3 1 <1>  -0.8830 
 10 N       -1.7610     3.2870     0.2680 N.pl3 1 <1>   0.3140 
 11 C       -1.8260     4.7510     0.2040 C.3   1 <1>   0.0160 
 12 H       -1.5760    -1.1610    -1.5520 H     1 <1>   0.0800 
 13 H       -0.0070    -1.8870    -1.5730 H     1 <1>   0.0800 
 14 H       -0.2250    -0.2690    -2.1620 H     1 <1>   0.0800 
 15 H        1.7550     0.5030     1.1940 H     1 <1>   0.0800 
 16 H        1.7720     0.7060    -0.5270 H     1 <1>   0.0800 
 17 H        2.0850    -0.8500     0.1700 H     1 <1>   0.0800 
 18 H        0.3120     2.9070    -0.0200 H     1 <1>   0.1500 
 19 H       -4.1500     0.7250     1.0740 H     1 <1>   0.4000 
 20 H       -2.9090    -0.3700     1.2930 H     1 <1>   0.4000 
 21 H       -0.8460     5.1500     0.0250 H     1 <1>   0.0800 
 22 H       -2.2080     5.1220     1.1360 H     1 <1>   0.0800 
 23 H       -2.4870     5.0340    -0.5930 H     1 <1>   0.0800 
@<TRIPOS>BOND
  1   1   2  2   
  2   1   3  1   
  3   1   4  1   
  4   1   5  1   
  5   3   6  1   
  6   3   7  2   
  7   4  12  1   
  8   4  13  1   
  9   4  14  1   
 10   5  15  1   
 11   5  16  1   
 12   5  17  1   
 13   6   8  2   
 14   6   9  1   
 15   7  10  1   
 16   7  18  1   
 17   8  10  1   
 18   9  19  1   
 19   9  20  1   
 20  10  11  1   
 21  11  21  1   
 22  11  22  1   
 23  11  23  1   
@<TRIPOS>SUBSTRUCTURE
  1 ****   3 GROUP 4 **** **** 0

# MOE 2024.06 (io_trps.svl 2023.06)
