@<TRIPOS>MOLECULE
NONAME
51 53 1 0 0 
SMALL
USER_CHARGES


@<TRIPOS>ATOM
  1 O       -1.0950     0.2880    -1.7270 O.2   1 <1>  -0.5700 
  2 C       -1.4650     0.7390    -0.6610 C.2   1 <1>   0.7150 
  3 N       -1.7980    -0.1330     0.3250 N.am  1 <1>  -0.7300 
  4 C       -1.5840     2.1450    -0.4100 C.2   1 <1>  -0.2370 
  5 C       -1.7140    -1.6090     0.2540 C.3   1 <1>   0.2200 
  6 N       -1.1150     3.1440    -1.2100 N.pl3 1 <1>   0.3140 
  7 C       -2.1690     2.7820     0.6440 C.2   1 <1>  -0.1500 
  8 C       -3.0970    -2.2340     0.1240 C.3   1 <1>  -0.0800 
  9 C       -1.2990    -2.1380     1.6200 C.3   1 <1>   0.1200 
 10 N       -1.3830     4.3600    -0.7030 N.2   1 <1>  -0.7070 
 11 C       -0.3690     3.0410    -2.4870 C.3   1 <1>   0.0960 
 12 C       -2.0140     4.1350     0.4070 C.2   1 <1>   0.1080 
 13 C       -3.5820    -2.3060     1.5760 C.3   1 <1>   0.1200 
 14 C       -4.0710    -1.5240    -0.8350 C.3   1 <1>  -0.0160 
 15 O       -2.4620    -2.0970     2.3880 O.3   1 <1>  -0.5600 
 16 C        1.1140     2.7300    -2.2450 C.3   1 <1>  -0.2400 
 17 C       -2.5090     5.2570     1.3120 C.3   1 <1>   0.1010 
 18 C       -5.3780    -2.2940    -0.9450 C.ar  1 <1>  -0.1430 
 19 C       -1.8450     5.1810     2.6920 C.3   1 <1>  -0.2400 
 20 C       -4.0360     5.2200     1.4430 C.3   1 <1>  -0.2400 
 21 C       -5.5010    -3.4010    -1.7610 C.ar  1 <1>  -0.1500 
 22 C       -6.5060    -1.9320    -0.2370 C.ar  1 <1>  -0.1500 
 23 C       -6.7090    -4.0760    -1.8230 C.ar  1 <1>   0.1600 
 24 C       -7.6670    -2.6760    -0.3700 C.ar  1 <1>   0.1600 
 25 N       -7.7950    -3.7410    -1.1440 N.ar  1 <1>  -0.6200 
 26 H       -2.1040     0.2300     1.2280 H     1 <1>   0.3700 
 27 H       -1.0400    -1.9190    -0.5270 H     1 <1>   0.0800 
 28 H       -2.6600     2.3540     1.4980 H     1 <1>   0.1500 
 29 H       -2.9670    -3.2450    -0.2200 H     1 <1>   0.0800 
 30 H       -0.5330    -1.5430     2.0850 H     1 <1>   0.0800 
 31 H       -0.9810    -3.1640     1.5540 H     1 <1>   0.0800 
 32 H       -0.8210     2.2860    -3.1020 H     1 <1>   0.0800 
 33 H       -0.4580     3.9820    -2.9990 H     1 <1>   0.0800 
 34 H       -4.0080    -3.2680     1.8060 H     1 <1>   0.0800 
 35 H       -4.2950    -1.5310     1.8000 H     1 <1>   0.0800 
 36 H       -3.6200    -1.4460    -1.8100 H     1 <1>   0.0800 
 37 H       -4.2760    -0.5240    -0.4950 H     1 <1>   0.0800 
 38 H        1.2250     1.7790    -1.7560 H     1 <1>   0.0800 
 39 H        1.5570     3.4990    -1.6360 H     1 <1>   0.0800 
 40 H        1.6350     2.6930    -3.1840 H     1 <1>   0.0800 
 41 H       -2.2320     6.1920     0.8550 H     1 <1>   0.0800 
 42 H       -2.1120     4.2690     3.1940 H     1 <1>   0.0800 
 43 H       -2.1490     6.0150     3.2990 H     1 <1>   0.0800 
 44 H       -0.7760     5.2120     2.5790 H     1 <1>   0.0800 
 45 H       -4.3560     4.3080     1.9130 H     1 <1>   0.0800 
 46 H       -4.4840     5.2810     0.4670 H     1 <1>   0.0800 
 47 H       -4.3800     6.0530     2.0300 H     1 <1>   0.0800 
 48 H       -4.6700    -3.7430    -2.3500 H     1 <1>   0.1500 
 49 H       -6.4960    -1.0790     0.4160 H     1 <1>   0.1500 
 50 H       -6.7860    -4.9360    -2.4640 H     1 <1>   0.1500 
 51 H       -8.5370    -2.3790     0.1910 H     1 <1>   0.1500 
@<TRIPOS>BOND
  1   1   2  2   
  2   2   3  am  
  3   2   4  1   
  4   3   5  1   
  5   3  26  1   
  6   4   6  1   
  7   4   7  2   
  8   5   8  1   
  9   5   9  1   
 10   5  27  1   
 11   6  10  1   
 12   6  11  1   
 13   7  12  1   
 14   7  28  1   
 15   8  13  1   
 16   8  14  1   
 17   8  29  1   
 18   9  15  1   
 19   9  30  1   
 20   9  31  1   
 21  10  12  2   
 22  11  16  1   
 23  11  32  1   
 24  11  33  1   
 25  12  17  1   
 26  13  15  1   
 27  13  34  1   
 28  13  35  1   
 29  14  18  1   
 30  14  36  1   
 31  14  37  1   
 32  16  38  1   
 33  16  39  1   
 34  16  40  1   
 35  17  19  1   
 36  17  20  1   
 37  17  41  1   
 38  18  21  ar  
 39  18  22  ar  
 40  19  42  1   
 41  19  43  1   
 42  19  44  1   
 43  20  45  1   
 44  20  46  1   
 45  20  47  1   
 46  21  23  ar  
 47  21  48  1   
 48  22  24  ar  
 49  22  49  1   
 50  23  25  ar  
 51  23  50  1   
 52  24  25  ar  
 53  24  51  1   
@<TRIPOS>SUBSTRUCTURE
  1 ****   3 GROUP 4 **** **** 0

# MOE 2024.06 (io_trps.svl 2023.06)
