@<TRIPOS>MOLECULE
NONAME
49 51 1 0 0 
SMALL
USER_CHARGES


@<TRIPOS>ATOM
  1 O       -0.6630     0.3100     1.0440 O.3   1 <1>  -0.6800 
  2 C       -1.6390     0.8740     0.2580 C.3   1 <1>   0.2800 
  3 C       -1.6500     0.1180    -1.0680 C.3   1 <1>  -0.1600 
  4 C       -2.9870     0.5220     0.8790 C.3   1 <1>  -0.1600 
  5 C       -1.3700     2.3810     0.1580 C.3   1 <1>  -0.1600 
  6 C       -2.4250    -1.1790    -0.8000 C.3   1 <1>  -0.1600 
  7 C       -3.2790    -0.9210     0.4490 C.3   1 <1>  -0.1600 
  8 C        0.0410     2.6920    -0.3430 C.3   1 <1>   0.2090 
  9 N        0.2120     4.1680    -0.4220 N.pl3 1 <1>  -0.8690 
 10 C        1.3470     4.8590    -0.2280 C.ar  1 <1>   0.4610 
 11 N        1.3080     6.1910    -0.2650 N.ar  1 <1>  -0.1790 
 12 C        2.6080     4.2600     0.0150 C.ar  1 <1>  -0.1500 
 13 C        2.3980     7.0250    -0.0780 C.ar  1 <1>   0.3610 
 14 C        3.7310     5.0040     0.2100 C.ar  1 <1>  -0.1430 
 15 C        3.6510     6.4310     0.1680 C.ar  1 <1>   0.0000 
 16 C        2.2550     8.4250    -0.1310 C.ar  1 <1>  -0.1430 
 17 C        5.0670     4.3160     0.4690 C.3   1 <1>  -0.0970 
 18 C        4.7470     7.2810     0.3580 C.ar  1 <1>  -0.1500 
 19 C        3.3640     9.2310     0.0610 C.ar  1 <1>  -0.1430 
 20 C        0.8690     9.0270    -0.4010 C.3   1 <1>  -0.0970 
 21 C        4.6040     8.6430     0.3050 C.ar  1 <1>  -0.1500 
 22 C        3.3150    10.7550     0.0220 C.3   1 <1>  -0.0970 
 23 H       -0.8850    -0.6330     1.1700 H     1 <1>   0.4000 
 24 H       -0.6600    -0.0690    -1.4460 H     1 <1>   0.0800 
 25 H       -2.1940     0.6940    -1.7960 H     1 <1>   0.0800 
 26 H       -3.7430     1.1620     0.4600 H     1 <1>   0.0800 
 27 H       -2.9900     0.6450     1.9480 H     1 <1>   0.0800 
 28 H       -1.5040     2.8130     1.1330 H     1 <1>   0.0800 
 29 H       -2.0930     2.8150    -0.5080 H     1 <1>   0.0800 
 30 H       -1.7380    -1.9860    -0.6100 H     1 <1>   0.0800 
 31 H       -3.0370    -1.4420    -1.6460 H     1 <1>   0.0800 
 32 H       -4.3280    -1.0540     0.2420 H     1 <1>   0.0800 
 33 H       -2.9950    -1.6040     1.2320 H     1 <1>   0.0800 
 34 H        0.1920     2.2600    -1.3190 H     1 <1>   0.0800 
 35 H        0.7580     2.2640     0.3370 H     1 <1>   0.0800 
 36 H       -0.6810     4.6200    -0.6410 H     1 <1>   0.4000 
 37 H        0.4150     6.6350    -0.4330 H     1 <1>   0.4570 
 38 H        2.6600     3.1880     0.0380 H     1 <1>   0.1500 
 39 H        4.9600     3.2450     0.4690 H     1 <1>   0.0800 
 40 H        5.4580     4.6100     1.4270 H     1 <1>   0.0800 
 41 H        5.7770     4.5800    -0.2950 H     1 <1>   0.0800 
 42 H        5.7230     6.8710     0.5490 H     1 <1>   0.1500 
 43 H        0.5010     8.7060    -1.3600 H     1 <1>   0.0800 
 44 H        0.8790    10.1010    -0.4160 H     1 <1>   0.0800 
 45 H        0.1760     8.7330     0.3670 H     1 <1>   0.0800 
 46 H        5.4700     9.2670     0.4550 H     1 <1>   0.1500 
 47 H        2.6540    11.1260     0.7850 H     1 <1>   0.0800 
 48 H        2.9720    11.0920    -0.9400 H     1 <1>   0.0800 
 49 H        4.2860    11.1830     0.1930 H     1 <1>   0.0800 
@<TRIPOS>BOND
  1   1   2  1   
  2   1  23  1   
  3   2   3  1   
  4   2   4  1   
  5   2   5  1   
  6   3   6  1   
  7   3  24  1   
  8   3  25  1   
  9   4   7  1   
 10   4  26  1   
 11   4  27  1   
 12   5   8  1   
 13   5  28  1   
 14   5  29  1   
 15   6   7  1   
 16   6  30  1   
 17   6  31  1   
 18   7  32  1   
 19   7  33  1   
 20   8   9  1   
 21   8  34  1   
 22   8  35  1   
 23   9  10  1   
 24   9  36  1   
 25  10  11  ar  
 26  10  12  ar  
 27  11  13  ar  
 28  11  37  1   
 29  12  14  ar  
 30  12  38  1   
 31  13  15  ar  
 32  13  16  ar  
 33  14  15  ar  
 34  14  17  1   
 35  15  18  ar  
 36  16  19  ar  
 37  16  20  1   
 38  17  39  1   
 39  17  40  1   
 40  17  41  1   
 41  18  21  ar  
 42  18  42  1   
 43  19  21  ar  
 44  19  22  1   
 45  20  43  1   
 46  20  44  1   
 47  20  45  1   
 48  21  46  1   
 49  22  47  1   
 50  22  48  1   
 51  22  49  1   
@<TRIPOS>SUBSTRUCTURE
  1 ****  10 GROUP 4 **** **** 0

# MOE 2024.06 (io_trps.svl 2023.06)
