@<TRIPOS>MOLECULE
NONAME
58 61 1 0 0 
SMALL
USER_CHARGES


@<TRIPOS>ATOM
  1 O        0.1180     1.6760     2.4900 O.2   1 <1>  -0.5700 
  2 C        0.0470     2.6170     1.7320 C.2   1 <1>   0.5690 
  3 N       -0.7010     2.5720     0.5750 N.am  1 <1>  -0.6600 
  4 C        0.8110     3.8920     2.1270 C.3   1 <1>   0.2700 
  5 C       -1.4590     1.3410     0.2010 C.3   1 <1>   0.2200 
  6 C       -0.6840     3.7130    -0.4000 C.3   1 <1>   0.1400 
  7 N        0.9580     4.9230     1.0300 N.pl3 1 <1>  -0.8380 
  8 C       -1.0650     0.8350    -1.1960 C.3   1 <1>  -0.1600 
  9 C       -2.9700     1.5890     0.3020 C.3   1 <1>  -0.1600 
 10 C       -0.2920     5.0600     0.2340 C.3   1 <1>   0.2090 
 11 C        2.1650     5.1460     0.4610 C.ar  1 <1>   0.4100 
 12 C       -1.8490    -0.4360    -1.5540 C.3   1 <1>  -0.1600 
 13 C       -3.7580     0.3210    -0.0630 C.3   1 <1>  -0.1600 
 14 N        2.8640     4.0760     0.1480 N.ar  1 <1>  -0.6200 
 15 C        2.6410     6.4550     0.2130 C.ar  1 <1>  -0.1430 
 16 C       -3.3630    -0.2000    -1.4520 C.3   1 <1>  -0.1600 
 17 C        4.0420     4.2380    -0.4300 C.ar  1 <1>   0.7710 
 18 C        3.8530     6.5910    -0.3880 C.ar  1 <1>   0.2180 
 19 C        1.8150     7.6730     0.6340 C.3   1 <1>  -0.0160 
 20 N        4.5310     5.4590    -0.6950 N.ar  1 <1>  -0.1790 
 21 N        4.7780     3.1410    -0.7650 N.pl3 1 <1>  -0.8380 
 22 C        4.4970     7.9360    -0.7130 C.3   1 <1>  -0.0170 
 23 C        2.6480     8.9620     0.6670 C.3   1 <1>  -0.1600 
 24 C        4.3320     1.7630    -0.3600 C.3   1 <1>   0.1290 
 25 C        6.0280     3.1050    -1.5880 C.3   1 <1>   0.1290 
 26 C        3.5000     9.0980    -0.6000 C.3   1 <1>  -0.1600 
 27 H        1.7820     3.5990     2.4830 H     1 <1>   0.0800 
 28 H        0.2900     4.3410     2.9530 H     1 <1>   0.0800 
 29 H       -1.2180     0.5570     0.8990 H     1 <1>   0.0800 
 30 H       -1.6530     3.8200    -0.8540 H     1 <1>   0.0800 
 31 H        0.0220     3.4860    -1.1790 H     1 <1>   0.0800 
 32 H       -0.0120     0.6210    -1.2110 H     1 <1>   0.0800 
 33 H       -1.2780     1.5820    -1.9380 H     1 <1>   0.0800 
 34 H       -3.2630     2.3790    -0.3640 H     1 <1>   0.0800 
 35 H       -3.2130     1.8790     1.3090 H     1 <1>   0.0800 
 36 H       -1.0880     5.4020     0.8730 H     1 <1>   0.0800 
 37 H       -0.1560     5.7880    -0.5460 H     1 <1>   0.0800 
 38 H       -1.5660    -1.2300    -0.8830 H     1 <1>   0.0800 
 39 H       -1.5970    -0.7450    -2.5540 H     1 <1>   0.0800 
 40 H       -4.8130     0.5330    -0.0430 H     1 <1>   0.0800 
 41 H       -3.5620    -0.4420     0.6710 H     1 <1>   0.0800 
 42 H       -3.8840    -1.1210    -1.6520 H     1 <1>   0.0800 
 43 H       -3.6630     0.5140    -2.2000 H     1 <1>   0.0800 
 44 H        1.3920     7.5100     1.6110 H     1 <1>   0.0800 
 45 H        1.0010     7.7970    -0.0590 H     1 <1>   0.0800 
 46 H        5.4510     5.4740    -1.1100 H     1 <1>   0.4570 
 47 H        4.9010     7.9260    -1.7110 H     1 <1>   0.0800 
 48 H        5.3070     8.1050    -0.0250 H     1 <1>   0.0800 
 49 H        3.2870     8.9540     1.5330 H     1 <1>   0.0800 
 50 H        1.9890     9.8090     0.7560 H     1 <1>   0.0800 
 51 H        3.7080     1.7900     0.5180 H     1 <1>   0.0800 
 52 H        5.1850     1.1450    -0.1340 H     1 <1>   0.0800 
 53 H        3.7750     1.3090    -1.1620 H     1 <1>   0.0800 
 54 H        6.1670     4.0110    -2.1510 H     1 <1>   0.0800 
 55 H        5.9760     2.2900    -2.2910 H     1 <1>   0.0800 
 56 H        6.8820     2.9470    -0.9500 H     1 <1>   0.0800 
 57 H        2.8530     9.1060    -1.4610 H     1 <1>   0.0800 
 58 H        4.0340    10.0330    -0.5830 H     1 <1>   0.0800 
@<TRIPOS>BOND
  1   1   2  2   
  2   2   3  am  
  3   2   4  1   
  4   3   5  1   
  5   3   6  1   
  6   4   7  1   
  7   4  27  1   
  8   4  28  1   
  9   5   8  1   
 10   5   9  1   
 11   5  29  1   
 12   6  10  1   
 13   6  30  1   
 14   6  31  1   
 15   7  10  1   
 16   7  11  1   
 17   8  12  1   
 18   8  32  1   
 19   8  33  1   
 20   9  13  1   
 21   9  34  1   
 22   9  35  1   
 23  10  36  1   
 24  10  37  1   
 25  11  14  ar  
 26  11  15  ar  
 27  12  16  1   
 28  12  38  1   
 29  12  39  1   
 30  13  16  1   
 31  13  40  1   
 32  13  41  1   
 33  14  17  ar  
 34  15  18  ar  
 35  15  19  1   
 36  16  42  1   
 37  16  43  1   
 38  17  20  ar  
 39  17  21  1   
 40  18  20  ar  
 41  18  22  1   
 42  19  23  1   
 43  19  44  1   
 44  19  45  1   
 45  20  46  1   
 46  21  24  1   
 47  21  25  1   
 48  22  26  1   
 49  22  47  1   
 50  22  48  1   
 51  23  26  1   
 52  23  49  1   
 53  23  50  1   
 54  24  51  1   
 55  24  52  1   
 56  24  53  1   
 57  25  54  1   
 58  25  55  1   
 59  25  56  1   
 60  26  57  1   
 61  26  58  1   
@<TRIPOS>SUBSTRUCTURE
  1 ****   7 GROUP 4 **** **** 0

# MOE 2024.06 (io_trps.svl 2023.06)
