@<TRIPOS>MOLECULE
NONAME
48 49 1 0 0 
SMALL
USER_CHARGES


@<TRIPOS>ATOM
  1 O        2.7650    -1.6510     1.5390 O.2   1 <1>  -0.5700 
  2 C        2.3970    -1.4100     0.4140 C.2   1 <1>   0.5690 
  3 N        2.1640    -0.1390    -0.0320 N.am  1 <1>  -0.4940 
  4 C        2.1920    -2.5780    -0.5600 C.3   1 <1>   0.1710 
  5 C        2.2110     1.0580     0.7150 C.2   1 <1>  -0.0880 
  6 N        0.7830    -2.9770    -0.8340 N.3   1 <1>  -0.8100 
  7 N        3.3060     1.8410     0.9460 N.pl3 1 <1>   0.3140 
  8 C        1.1690     1.6640     1.3280 C.2   1 <1>  -0.1500 
  9 C        0.0690    -3.3320     0.4220 C.3   1 <1>   0.2530 
 10 C        0.0250    -1.9910    -1.6190 C.3   1 <1>   0.0300 
 11 N        2.9700     2.9360     1.6740 N.2   1 <1>  -0.7070 
 12 C        4.7170     1.6580     0.4900 C.3   1 <1>   0.1760 
 13 C        1.6990     2.8110     1.9010 C.2   1 <1>   0.1390 
 14 C       -1.2770    -4.0110     0.1680 C.ar  1 <1>   0.1670 
 15 C        4.7850     1.4120    -1.0370 C.3   1 <1>  -0.1600 
 16 C        5.4050     0.5670     1.3400 C.3   1 <1>  -0.1600 
 17 N       -2.3410    -3.4880     0.7670 N.ar  1 <1>  -0.6200 
 18 C       -1.3280    -5.1240    -0.6590 C.ar  1 <1>  -0.1500 
 19 C        5.9510     2.1480    -1.7150 C.3   1 <1>  -0.2400 
 20 C        6.9220     0.4640     1.1330 C.3   1 <1>  -0.2400 
 21 C       -3.4900    -4.1010     0.5330 C.ar  1 <1>   0.1600 
 22 C       -2.5320    -5.7510    -0.8950 C.ar  1 <1>  -0.1500 
 23 C       -3.6400    -5.2160    -0.2750 C.ar  1 <1>  -0.1500 
 24 H        1.7290    -0.0720    -0.9520 H     1 <1>   0.3700 
 25 H        2.7090    -3.4300    -0.1550 H     1 <1>   0.0800 
 26 H        2.6740    -2.3380    -1.4910 H     1 <1>   0.0800 
 27 H        0.1450     1.3440     1.3780 H     1 <1>   0.1500 
 28 H       -0.0900    -2.4480     1.0160 H     1 <1>   0.0800 
 29 H        0.6760    -4.0070     1.0000 H     1 <1>   0.0800 
 30 H        0.5770    -1.7150    -2.5010 H     1 <1>   0.0800 
 31 H       -0.1860    -1.1140    -1.0320 H     1 <1>   0.0800 
 32 H       -0.9120    -2.4190    -1.9340 H     1 <1>   0.0800 
 33 H        5.2100     2.5910     0.6980 H     1 <1>   0.0800 
 34 H        1.1290     3.5250     2.4710 H     1 <1>   0.1500 
 35 H        3.8780     1.7710    -1.4940 H     1 <1>   0.0800 
 36 H        4.8590     0.3570    -1.2350 H     1 <1>   0.0800 
 37 H        4.9660    -0.3900     1.1310 H     1 <1>   0.0800 
 38 H        5.2240     0.7880     2.3790 H     1 <1>   0.0800 
 39 H       -0.4250    -5.4880    -1.1170 H     1 <1>   0.1500 
 40 H        5.8600     3.2100    -1.5640 H     1 <1>   0.0800 
 41 H        5.9380     1.9560    -2.7740 H     1 <1>   0.0800 
 42 H        6.8990     1.8280    -1.3270 H     1 <1>   0.0800 
 43 H        7.1490     0.0910     0.1510 H     1 <1>   0.0800 
 44 H        7.3400    -0.2180     1.8530 H     1 <1>   0.0800 
 45 H        7.3880     1.4250     1.2650 H     1 <1>   0.0800 
 46 H       -4.3630    -3.6920     1.0120 H     1 <1>   0.1500 
 47 H       -2.6020    -6.6160    -1.5320 H     1 <1>   0.1500 
 48 H       -4.6100    -5.6560    -0.4140 H     1 <1>   0.1500 
@<TRIPOS>BOND
  1   1   2  2   
  2   2   3  am  
  3   2   4  1   
  4   3   5  1   
  5   3  24  1   
  6   4   6  1   
  7   4  25  1   
  8   4  26  1   
  9   5   7  1   
 10   5   8  2   
 11   6   9  1   
 12   6  10  1   
 13   7  11  1   
 14   7  12  1   
 15   8  13  1   
 16   8  27  1   
 17   9  14  1   
 18   9  28  1   
 19   9  29  1   
 20  10  30  1   
 21  10  31  1   
 22  10  32  1   
 23  11  13  2   
 24  12  15  1   
 25  12  16  1   
 26  12  33  1   
 27  13  34  1   
 28  14  17  ar  
 29  14  18  ar  
 30  15  19  1   
 31  15  35  1   
 32  15  36  1   
 33  16  20  1   
 34  16  37  1   
 35  16  38  1   
 36  17  21  ar  
 37  18  22  ar  
 38  18  39  1   
 39  19  40  1   
 40  19  41  1   
 41  19  42  1   
 42  20  43  1   
 43  20  44  1   
 44  20  45  1   
 45  21  23  ar  
 46  21  46  1   
 47  22  23  ar  
 48  22  47  1   
 49  23  48  1   
@<TRIPOS>SUBSTRUCTURE
  1 ****   2 GROUP 4 **** **** 0

# MOE 2024.06 (io_trps.svl 2023.06)
