@<TRIPOS>MOLECULE
NONAME
59 63 1 0 0 
SMALL
USER_CHARGES


@<TRIPOS>ATOM
  1 O        1.3330    -0.2660    -0.8190 O.2   1 <1>  -0.5700 
  2 C        2.3340     0.1780    -0.3210 C.2   1 <1>   0.5690 
  3 N        3.5350    -0.0120    -0.9120 N.am  1 <1>  -0.7300 
  4 C        2.2380     0.9660     0.9720 C.3   1 <1>  -0.0990 
  5 C        4.8520     0.3970    -0.3660 C.3   1 <1>   0.1400 
  6 C        3.5980     1.1510     1.6760 C.3   1 <1>  -0.1600 
  7 C        4.7230     1.5290     0.6830 C.3   1 <1>   0.0000 
  8 C        4.3790     2.8750    -0.0120 C.3   1 <1>  -0.1600 
  9 C        6.0690     1.6390     1.4440 C.3   1 <1>  -0.1600 
 10 C        5.6180     3.6930    -0.3800 C.3   1 <1>   0.1400 
 11 C        6.3360     3.0490     1.9790 C.3   1 <1>   0.1400 
 12 N        6.3870     4.0290     0.8560 N.am  1 <1>  -0.6600 
 13 C        7.0360     5.2360     1.0120 C.2   1 <1>   0.7160 
 14 O        7.5260     5.5070     2.0950 O.2   1 <1>  -0.5700 
 15 C        7.1600     6.1650    -0.0630 C.2   1 <1>  -0.0860 
 16 C        6.1760     7.0660    -0.4740 C.2   1 <1>   0.3720 
 17 C        8.1720     6.3700    -0.9460 C.2   1 <1>   0.0870 
 18 N        6.5590     7.7280    -1.5090 N.2   1 <1>  -0.4100 
 19 N        4.9230     7.2090     0.1340 N.pl3 1 <1>  -0.8210 
 20 O        7.7650     7.2990    -1.7750 O.3   1 <1>  -0.0190 
 21 C        9.4690     5.7620    -1.1030 C.ar  1 <1>   0.0530 
 22 C        4.9640     7.8160     1.4990 C.3   1 <1>   0.2090 
 23 C        3.8690     7.8750    -0.6930 C.3   1 <1>   0.2090 
 24 C       10.1980     5.2840    -0.0140 C.ar  1 <1>  -0.1500 
 25 C       10.0440     5.6290    -2.3680 C.ar  1 <1>  -0.1500 
 26 C        3.5640     7.8140     2.1400 C.3   1 <1>   0.1200 
 27 C        2.5160     7.8670     0.0400 C.3   1 <1>   0.1200 
 28 C       11.4350     4.6900    -0.1790 C.ar  1 <1>  -0.1500 
 29 C       11.2820     5.0370    -2.5400 C.ar  1 <1>  -0.1500 
 30 O        2.6290     8.4490     1.3100 O.3   1 <1>  -0.5600 
 31 C       11.9800     4.5640    -1.4440 C.ar  1 <1>  -0.1500 
 32 H        3.5300    -0.5800    -1.7620 H     1 <1>   0.3700 
 33 H        1.5560     0.4620     1.6320 H     1 <1>   0.0800 
 34 H        1.8120     1.9240     0.7380 H     1 <1>   0.0800 
 35 H        5.4860     0.7210    -1.1750 H     1 <1>   0.0800 
 36 H        5.3080    -0.4660     0.0890 H     1 <1>   0.0800 
 37 H        3.8520     0.2220     2.1570 H     1 <1>   0.0800 
 38 H        3.5040     1.8990     2.4440 H     1 <1>   0.0800 
 39 H        3.7810     3.4900     0.6380 H     1 <1>   0.0800 
 40 H        3.7970     2.7050    -0.9000 H     1 <1>   0.0800 
 41 H        6.8880     1.3890     0.7920 H     1 <1>   0.0800 
 42 H        6.0990     0.9390     2.2600 H     1 <1>   0.0800 
 43 H        5.3010     4.5890    -0.8840 H     1 <1>   0.0800 
 44 H        6.2490     3.1340    -1.0500 H     1 <1>   0.0800 
 45 H        7.2740     3.0590     2.5100 H     1 <1>   0.0800 
 46 H        5.5590     3.3400     2.6650 H     1 <1>   0.0800 
 47 H        5.3250     8.8280     1.4340 H     1 <1>   0.0800 
 48 H        5.6370     7.2650     2.1310 H     1 <1>   0.0800 
 49 H        3.7720     7.3570    -1.6310 H     1 <1>   0.0800 
 50 H        4.1560     8.8920    -0.9000 H     1 <1>   0.0800 
 51 H        9.8000     5.3830     0.9800 H     1 <1>   0.1500 
 52 H        9.5110     5.9930    -3.2290 H     1 <1>   0.1500 
 53 H        3.5850     8.3430     3.0750 H     1 <1>   0.0800 
 54 H        3.2380     6.8050     2.3180 H     1 <1>   0.0800 
 55 H        2.1590     6.8580     0.1550 H     1 <1>   0.0800 
 56 H        1.7900     8.4320    -0.5160 H     1 <1>   0.0800 
 57 H       11.9770     4.3290     0.6780 H     1 <1>   0.1500 
 58 H       11.7030     4.9450    -3.5260 H     1 <1>   0.1500 
 59 H       12.9440     4.1020    -1.5750 H     1 <1>   0.1500 
@<TRIPOS>BOND
  1   1   2  2   
  2   2   3  am  
  3   2   4  1   
  4   3   5  1   
  5   3  32  1   
  6   4   6  1   
  7   4  33  1   
  8   4  34  1   
  9   5   7  1   
 10   5  35  1   
 11   5  36  1   
 12   6   7  1   
 13   6  37  1   
 14   6  38  1   
 15   7   8  1   
 16   7   9  1   
 17   8  10  1   
 18   8  39  1   
 19   8  40  1   
 20   9  11  1   
 21   9  41  1   
 22   9  42  1   
 23  10  12  1   
 24  10  43  1   
 25  10  44  1   
 26  11  12  1   
 27  11  45  1   
 28  11  46  1   
 29  12  13  am  
 30  13  14  2   
 31  13  15  1   
 32  15  16  1   
 33  15  17  2   
 34  16  18  2   
 35  16  19  1   
 36  17  20  1   
 37  17  21  1   
 38  18  20  1   
 39  19  22  1   
 40  19  23  1   
 41  21  24  ar  
 42  21  25  ar  
 43  22  26  1   
 44  22  47  1   
 45  22  48  1   
 46  23  27  1   
 47  23  49  1   
 48  23  50  1   
 49  24  28  ar  
 50  24  51  1   
 51  25  29  ar  
 52  25  52  1   
 53  26  30  1   
 54  26  53  1   
 55  26  54  1   
 56  27  30  1   
 57  27  55  1   
 58  27  56  1   
 59  28  31  ar  
 60  28  57  1   
 61  29  31  ar  
 62  29  58  1   
 63  31  59  1   
@<TRIPOS>SUBSTRUCTURE
  1 ****  12 GROUP 4 **** **** 0

# MOE 2024.06 (io_trps.svl 2023.06)
