@<TRIPOS>MOLECULE
NONAME
54 57 1 0 0 
SMALL
USER_CHARGES


@<TRIPOS>ATOM
  1 O        0.2560    -0.2450    -0.2540 O.2   1 <1>  -0.5700 
  2 C       -0.6730     0.4940    -0.4740 C.2   1 <1>   0.5690 
  3 N       -1.9510     0.0240    -0.5840 N.am  1 <1>  -0.6600 
  4 C       -0.3870     1.9730    -0.6120 C.3   1 <1>  -0.0990 
  5 C       -3.1850     0.8250    -0.8040 C.3   1 <1>   0.1400 
  6 C       -2.2830    -1.4180    -0.4840 C.3   1 <1>   0.1400 
  7 C       -0.5160     2.6790     0.7400 C.3   1 <1>   0.0210 
  8 C       -4.3180    -0.1160    -0.4010 C.3   1 <1>   0.2000 
  9 C       -3.7870    -1.5050    -0.7780 C.3   1 <1>  -0.0800 
 10 C       -0.5020     4.1800     0.5450 C.2   1 <1>   0.1080 
 11 O       -4.4760    -0.0350     0.9750 O.3   1 <1>  -0.6800 
 12 C       -4.5010    -2.6770    -0.0720 C.3   1 <1>  -0.0170 
 13 N       -1.5650     4.8220     0.1740 N.2   1 <1>  -0.7070 
 14 C        0.5950     5.0240     0.7170 C.2   1 <1>  -0.1810 
 15 C       -4.1200    -4.0930    -0.5240 C.ar  1 <1>  -0.1440 
 16 N       -1.1750     6.1070     0.1060 N.pl3 1 <1>   0.3000 
 17 C        0.1270     6.2580     0.4280 C.2   1 <1>  -0.3320 
 18 C        1.9910     4.5970     1.1370 C.3   1 <1>  -0.0590 
 19 C       -4.5980    -5.2120     0.2030 C.ar  1 <1>   0.0000 
 20 C       -3.3390    -4.3540    -1.6160 C.ar  1 <1>  -0.1500 
 21 C        0.8190     7.6110     0.4280 C.3   1 <1>  -0.0600 
 22 C       -4.2160    -6.5040    -0.2360 C.ar  1 <1>   0.3100 
 23 C       -5.4410    -5.1270     1.3370 C.ar  1 <1>  -0.1500 
 24 C       -3.0230    -5.6720    -1.9660 C.ar  1 <1>   0.1600 
 25 N       -3.4290    -6.7170    -1.3190 N.ar  1 <1>  -0.6200 
 26 C       -4.6690    -7.6280     0.4730 C.ar  1 <1>  -0.1500 
 27 C       -5.8670    -6.2430     2.0050 C.ar  1 <1>  -0.1500 
 28 C       -5.4770    -7.5110     1.5710 C.ar  1 <1>  -0.1500 
 29 H        0.6090     2.1070    -0.9900 H     1 <1>   0.0800 
 30 H       -1.0630     2.4120    -1.3220 H     1 <1>   0.0800 
 31 H       -3.1960     1.7330    -0.2260 H     1 <1>   0.0800 
 32 H       -3.2630     1.0650    -1.8500 H     1 <1>   0.0800 
 33 H       -1.6970    -1.9870    -1.1850 H     1 <1>   0.0800 
 34 H       -2.0630    -1.7580     0.5140 H     1 <1>   0.0800 
 35 H        0.2830     2.3750     1.3910 H     1 <1>   0.0800 
 36 H       -1.4440     2.4110     1.2120 H     1 <1>   0.0800 
 37 H       -5.2570     0.1270    -0.8680 H     1 <1>   0.0800 
 38 H       -3.9170    -1.6080    -1.8400 H     1 <1>   0.0800 
 39 H       -3.5920    -0.0690     1.3940 H     1 <1>   0.4000 
 40 H       -5.5620    -2.5590    -0.2090 H     1 <1>   0.0800 
 41 H       -4.3040    -2.6000     0.9830 H     1 <1>   0.0800 
 42 H       -1.8200     6.8590    -0.1630 H     1 <1>   0.2700 
 43 H        2.3520     3.8310     0.4750 H     1 <1>   0.0800 
 44 H        1.9670     4.2110     2.1400 H     1 <1>   0.0800 
 45 H        2.6730     5.4250     1.1030 H     1 <1>   0.0800 
 46 H       -2.9400    -3.5840    -2.2460 H     1 <1>   0.1500 
 47 H        1.8450     7.5180     0.7330 H     1 <1>   0.0800 
 48 H        0.3230     8.2790     1.1100 H     1 <1>   0.0800 
 49 H        0.7950     8.0380    -0.5590 H     1 <1>   0.0800 
 50 H       -5.7610    -4.1650     1.6900 H     1 <1>   0.1500 
 51 H       -2.4010    -5.8270    -2.8310 H     1 <1>   0.1500 
 52 H       -4.3580    -8.5940     0.1190 H     1 <1>   0.1500 
 53 H       -6.5070    -6.1590     2.8670 H     1 <1>   0.1500 
 54 H       -5.8180    -8.3820     2.1040 H     1 <1>   0.1500 
@<TRIPOS>BOND
  1   1   2  2   
  2   2   3  am  
  3   2   4  1   
  4   3   5  1   
  5   3   6  1   
  6   4   7  1   
  7   4  29  1   
  8   4  30  1   
  9   5   8  1   
 10   5  31  1   
 11   5  32  1   
 12   6   9  1   
 13   6  33  1   
 14   6  34  1   
 15   7  10  1   
 16   7  35  1   
 17   7  36  1   
 18   8   9  1   
 19   8  11  1   
 20   8  37  1   
 21   9  12  1   
 22   9  38  1   
 23  10  13  2   
 24  10  14  1   
 25  11  39  1   
 26  12  15  1   
 27  12  40  1   
 28  12  41  1   
 29  13  16  1   
 30  14  17  2   
 31  14  18  1   
 32  15  19  ar  
 33  15  20  ar  
 34  16  17  1   
 35  16  42  1   
 36  17  21  1   
 37  18  43  1   
 38  18  44  1   
 39  18  45  1   
 40  19  22  ar  
 41  19  23  ar  
 42  20  24  ar  
 43  20  46  1   
 44  21  47  1   
 45  21  48  1   
 46  21  49  1   
 47  22  25  ar  
 48  22  26  ar  
 49  23  27  ar  
 50  23  50  1   
 51  24  25  ar  
 52  24  51  1   
 53  26  28  ar  
 54  26  52  1   
 55  27  28  ar  
 56  27  53  1   
 57  28  54  1   
@<TRIPOS>SUBSTRUCTURE
  1 ****   6 GROUP 4 **** **** 0

# MOE 2024.06 (io_trps.svl 2023.06)
