@<TRIPOS>MOLECULE
NONAME
44 45 1 0 0 
SMALL
USER_CHARGES


@<TRIPOS>ATOM
  1 F       -0.5410     0.3310    -0.3510 F     1 <1>  -0.1900 
  2 C       -1.7930     0.6710    -0.1800 C.ar  1 <1>   0.1900 
  3 C       -2.3190     1.8580    -0.7020 C.ar  1 <1>   0.0830 
  4 C       -2.5740    -0.2070     0.5470 C.ar  1 <1>  -0.1500 
  5 O       -1.6540     2.8010    -1.4300 O.3   1 <1>  -0.3630 
  6 C       -3.6580     2.1250    -0.4690 C.ar  1 <1>  -0.1500 
  7 C       -3.9070     0.0900     0.7620 C.ar  1 <1>  -0.1500 
  8 C       -0.2820     2.7050    -1.7430 C.3   1 <1>   0.0400 
  9 C       -4.4800     1.2580     0.2540 C.ar  1 <1>   0.0530 
 10 C       -5.8720     1.5720     0.4600 C.2   1 <1>   0.0870 
 11 O       -6.2510     2.8130     0.6320 O.3   1 <1>  -0.0190 
 12 C       -6.9970     0.8110     0.4960 C.2   1 <1>  -0.0860 
 13 N       -7.5440     2.9350     0.7860 N.2   1 <1>  -0.4100 
 14 C       -8.0170     1.7400     0.7170 C.2   1 <1>   0.3720 
 15 C       -7.1870    -0.5910     0.3110 C.2   1 <1>   0.7160 
 16 N       -9.3800     1.4250     0.8410 N.pl3 1 <1>  -0.8210 
 17 O       -6.8510    -1.3610     1.1940 O.2   1 <1>  -0.5700 
 18 N       -7.7540    -1.0980    -0.8420 N.am  1 <1>  -0.6600 
 19 C       -9.7230     0.6800     2.0840 C.3   1 <1>   0.1290 
 20 C      -10.3240     2.5500     0.5910 C.3   1 <1>   0.1290 
 21 C       -8.1210    -2.5400    -0.9490 C.3   1 <1>   0.1400 
 22 C       -8.2390    -0.2220    -1.9460 C.3   1 <1>   0.0600 
 23 C       -9.4910    -2.7830    -0.3080 C.3   1 <1>   0.1200 
 24 O       -9.9140    -4.0780    -0.5800 O.3   1 <1>  -0.6800 
 25 H       -2.1420    -1.1100     0.9400 H     1 <1>   0.1500 
 26 H       -4.0730     3.0340    -0.8650 H     1 <1>   0.1500 
 27 H       -4.5050    -0.5920     1.3400 H     1 <1>   0.1500 
 28 H       -0.0060     3.5770    -2.3080 H     1 <1>   0.0800 
 29 H       -0.1180     1.8220    -2.3340 H     1 <1>   0.0800 
 30 H        0.2840     2.6690    -0.8290 H     1 <1>   0.0800 
 31 H       -9.0150    -0.1110     2.2610 H     1 <1>   0.0800 
 32 H      -10.7030     0.2450     1.9910 H     1 <1>   0.0800 
 33 H       -9.7100     1.3480     2.9280 H     1 <1>   0.0800 
 34 H      -10.0600     3.0510    -0.3250 H     1 <1>   0.0800 
 35 H      -10.2760     3.2600     1.3990 H     1 <1>   0.0800 
 36 H      -11.3290     2.1760     0.5020 H     1 <1>   0.0800 
 37 H       -7.3830    -3.1400    -0.4440 H     1 <1>   0.0800 
 38 H       -8.1400    -2.8250    -1.9850 H     1 <1>   0.0800 
 39 H       -7.6500     0.6770    -2.0060 H     1 <1>   0.0800 
 40 H       -9.2650     0.0490    -1.7680 H     1 <1>   0.0800 
 41 H       -8.1640    -0.7350    -2.8890 H     1 <1>   0.0800 
 42 H      -10.2280    -2.1010    -0.6960 H     1 <1>   0.0800 
 43 H       -9.4240    -2.6750     0.7610 H     1 <1>   0.0800 
 44 H      -10.1040    -4.1930    -1.5310 H     1 <1>   0.4000 
@<TRIPOS>BOND
  1   1   2  1   
  2   2   3  ar  
  3   2   4  ar  
  4   3   5  1   
  5   3   6  ar  
  6   4   7  ar  
  7   4  25  1   
  8   5   8  1   
  9   6   9  ar  
 10   6  26  1   
 11   7   9  ar  
 12   7  27  1   
 13   8  28  1   
 14   8  29  1   
 15   8  30  1   
 16   9  10  1   
 17  10  11  1   
 18  10  12  2   
 19  11  13  1   
 20  12  14  1   
 21  12  15  1   
 22  13  14  2   
 23  14  16  1   
 24  15  17  2   
 25  15  18  am  
 26  16  19  1   
 27  16  20  1   
 28  18  21  1   
 29  18  22  1   
 30  19  31  1   
 31  19  32  1   
 32  19  33  1   
 33  20  34  1   
 34  20  35  1   
 35  20  36  1   
 36  21  23  1   
 37  21  37  1   
 38  21  38  1   
 39  22  39  1   
 40  22  40  1   
 41  22  41  1   
 42  23  24  1   
 43  23  42  1   
 44  23  43  1   
 45  24  44  1   
@<TRIPOS>SUBSTRUCTURE
  1 ****  10 GROUP 4 **** **** 0

# MOE 2024.06 (io_trps.svl 2023.06)
