@<TRIPOS>MOLECULE
NONAME
45 47 1 0 0 
SMALL
USER_CHARGES


@<TRIPOS>ATOM
  1 O       -0.3430     0.1910     2.5700 O.3   1 <1>  -0.5600 
  2 C        0.7370     0.2780     1.6930 C.3   1 <1>   0.1200 
  3 C       -1.5390     0.4020     1.8770 C.3   1 <1>   0.1200 
  4 C        0.3100     1.2970     0.6440 C.3   1 <1>   0.2890 
  5 C       -1.1590     0.9260     0.4860 C.3   1 <1>  -0.0800 
  6 N        0.4620     2.6600     1.2210 N.pl3 1 <1>  -0.8690 
  7 C       -2.0810     2.0390    -0.0440 C.3   1 <1>  -0.0170 
  8 C        0.8910     3.7650     0.6030 C.ar  1 <1>   0.4100 
  9 C       -3.4960     1.5200    -0.2510 C.ar  1 <1>  -0.1430 
 10 N        1.1590     3.6940    -0.7050 N.ar  1 <1>  -0.6200 
 11 C        1.0520     4.9620     1.3050 C.ar  1 <1>  -0.1500 
 12 C       -4.5000     1.7400     0.6710 C.ar  1 <1>  -0.1500 
 13 C       -3.8470     0.7990    -1.3740 C.ar  1 <1>  -0.1500 
 14 C        1.5780     4.7690    -1.3010 C.ar  1 <1>   0.5280 
 15 C        1.4940     6.0720     0.6480 C.ar  1 <1>   0.2180 
 16 C       -5.7690     1.2390     0.4330 C.ar  1 <1>   0.1600 
 17 C       -5.1470     0.3420    -1.5150 C.ar  1 <1>   0.1600 
 18 N        1.7550     5.9490    -0.6700 N.ar  1 <1>  -0.1790 
 19 C        1.8840     4.6940    -2.7830 C.3   1 <1>  -0.0970 
 20 C        1.7030     7.4170     1.3340 C.3   1 <1>  -0.0170 
 21 N       -6.1160     0.5430    -0.6370 N.ar  1 <1>  -0.6200 
 22 C        0.7790     8.5050     0.7720 C.3   1 <1>  -0.2400 
 23 H        1.6210     0.5760     2.2290 H     1 <1>   0.0800 
 24 H        0.8840    -0.6920     1.2500 H     1 <1>   0.0800 
 25 H       -2.0780    -0.5290     1.8180 H     1 <1>   0.0800 
 26 H       -2.1160     1.1200     2.4330 H     1 <1>   0.0800 
 27 H        0.8670     1.1920    -0.2710 H     1 <1>   0.0800 
 28 H       -1.2140     0.0940    -0.1930 H     1 <1>   0.0800 
 29 H        0.2220     2.6580     2.2190 H     1 <1>   0.4000 
 30 H       -1.6970     2.4040    -0.9800 H     1 <1>   0.0800 
 31 H       -2.1030     2.8660     0.6430 H     1 <1>   0.0800 
 32 H        0.8210     4.9760     2.3540 H     1 <1>   0.1500 
 33 H       -4.3120     2.2960     1.5710 H     1 <1>   0.1500 
 34 H       -3.1250     0.5870    -2.1400 H     1 <1>   0.1500 
 35 H       -6.5400     1.4200     1.1620 H     1 <1>   0.1500 
 36 H       -5.4030    -0.2190    -2.3980 H     1 <1>   0.1500 
 37 H        2.0850     6.7540    -1.2030 H     1 <1>   0.4570 
 38 H        1.6830     3.7030    -3.1510 H     1 <1>   0.0800 
 39 H        2.9200     4.9140    -2.9640 H     1 <1>   0.0800 
 40 H        1.2680     5.3850    -3.3300 H     1 <1>   0.0800 
 41 H        1.5100     7.3140     2.3890 H     1 <1>   0.0800 
 42 H        2.7300     7.7230     1.2280 H     1 <1>   0.0800 
 43 H       -0.2530     8.2130     0.8730 H     1 <1>   0.0800 
 44 H        0.9850     8.7060    -0.2640 H     1 <1>   0.0800 
 45 H        0.9200     9.4210     1.3220 H     1 <1>   0.0800 
@<TRIPOS>BOND
  1   1   2  1   
  2   1   3  1   
  3   2   4  1   
  4   2  23  1   
  5   2  24  1   
  6   3   5  1   
  7   3  25  1   
  8   3  26  1   
  9   4   5  1   
 10   4   6  1   
 11   4  27  1   
 12   5   7  1   
 13   5  28  1   
 14   6   8  1   
 15   6  29  1   
 16   7   9  1   
 17   7  30  1   
 18   7  31  1   
 19   8  10  ar  
 20   8  11  ar  
 21   9  12  ar  
 22   9  13  ar  
 23  10  14  ar  
 24  11  15  ar  
 25  11  32  1   
 26  12  16  ar  
 27  12  33  1   
 28  13  17  ar  
 29  13  34  1   
 30  14  18  ar  
 31  14  19  1   
 32  15  18  ar  
 33  15  20  1   
 34  16  21  ar  
 35  16  35  1   
 36  17  21  ar  
 37  17  36  1   
 38  18  37  1   
 39  19  38  1   
 40  19  39  1   
 41  19  40  1   
 42  20  22  1   
 43  20  41  1   
 44  20  42  1   
 45  22  43  1   
 46  22  44  1   
 47  22  45  1   
@<TRIPOS>SUBSTRUCTURE
  1 ****   7 GROUP 4 **** **** 0

# MOE 2024.06 (io_trps.svl 2023.06)
