@<TRIPOS>MOLECULE
NONAME
46 48 1 0 0 
SMALL
USER_CHARGES


@<TRIPOS>ATOM
  1 N        0.0840     1.0450    -0.7900 N.ar  1 <1>  -0.6200 
  2 C       -0.4520     2.1690    -1.2250 C.ar  1 <1>   0.4100 
  3 C       -0.7410     0.2350    -0.1460 C.ar  1 <1>   0.1600 
  4 N        0.4290     2.9810    -1.8720 N.pl3 1 <1>  -0.8690 
  5 C       -1.7880     2.5100    -1.0450 C.ar  1 <1>  -0.1500 
  6 C       -2.0930     0.4630     0.1100 C.ar  1 <1>   0.0280 
  7 C        0.6390     4.3740    -1.4320 C.3   1 <1>   0.2090 
  8 C       -2.6240     1.6550    -0.3680 C.ar  1 <1>  -0.1500 
  9 C       -2.8870    -0.5050     0.8360 C.2   1 <1>  -0.1780 
 10 C        2.0750     4.5680    -0.9080 C.3   1 <1>  -0.0800 
 11 C       -4.1770    -0.4210     1.2020 C.2   1 <1>  -0.3000 
 12 C        2.4450     6.0560    -0.6330 C.3   1 <1>   0.4230 
 13 C        2.3770     3.6670     0.3120 C.3   1 <1>  -0.1600 
 14 N        3.4510     6.1750     0.4720 N.4   1 <1>  -0.9590 
 15 C        1.2690     6.9810    -0.2660 C.3   1 <1>  -0.1600 
 16 C        3.8580     3.7740     0.7260 C.3   1 <1>  -0.1600 
 17 C        4.4990     5.1280     0.4010 C.3   1 <1>   0.3430 
 18 C        4.0200     7.5440     0.5680 C.3   1 <1>   0.3430 
 19 C        1.7290     8.4340    -0.0630 C.3   1 <1>  -0.1600 
 20 C        2.8960     8.5160     0.9290 C.3   1 <1>  -0.1600 
 21 H       -0.3150    -0.6860     0.2100 H     1 <1>   0.1500 
 22 H        1.2940     2.4630    -2.0500 H     1 <1>   0.4000 
 23 H       -2.1520     3.4350    -1.4470 H     1 <1>   0.1500 
 24 H        0.4610     5.0170    -2.2770 H     1 <1>   0.0800 
 25 H       -0.0740     4.6170    -0.6610 H     1 <1>   0.0800 
 26 H       -3.6590     1.9030    -0.2210 H     1 <1>   0.1500 
 27 H       -2.3420    -1.3960     1.1010 H     1 <1>   0.1500 
 28 H        2.7200     4.2500    -1.7090 H     1 <1>   0.0800 
 29 H       -4.6910    -1.1960     1.7440 H     1 <1>   0.1500 
 30 H       -4.8220     0.4140     0.9960 H     1 <1>   0.1500 
 31 H        2.8840     6.4440    -1.5390 H     1 <1>   0.0800 
 32 H        1.7450     3.9600     1.1330 H     1 <1>   0.0800 
 33 H        2.1560     2.6350     0.0980 H     1 <1>   0.0800 
 34 H        2.9300     6.0020     1.3400 H     1 <1>   0.4500 
 35 H        0.5390     6.9860    -1.0560 H     1 <1>   0.0800 
 36 H        0.7850     6.6200     0.6250 H     1 <1>   0.0800 
 37 H        4.4250     3.0110     0.2220 H     1 <1>   0.0800 
 38 H        3.9460     3.5780     1.7810 H     1 <1>   0.0800 
 39 H        4.9180     5.1050    -0.5920 H     1 <1>   0.0800 
 40 H        5.2920     5.3300     1.1030 H     1 <1>   0.0800 
 41 H        4.7840     7.5790     1.3290 H     1 <1>   0.0800 
 42 H        4.4620     7.8270    -0.3750 H     1 <1>   0.0800 
 43 H        2.0390     8.8440    -1.0100 H     1 <1>   0.0800 
 44 H        0.9050     9.0320     0.2940 H     1 <1>   0.0800 
 45 H        2.5470     8.3010     1.9240 H     1 <1>   0.0800 
 46 H        3.2870     9.5190     0.9380 H     1 <1>   0.0800 
@<TRIPOS>BOND
  1   1   2  ar  
  2   1   3  ar  
  3   2   4  1   
  4   2   5  ar  
  5   3   6  ar  
  6   3  21  1   
  7   4   7  1   
  8   4  22  1   
  9   5   8  ar  
 10   5  23  1   
 11   6   8  ar  
 12   6   9  1   
 13   7  10  1   
 14   7  24  1   
 15   7  25  1   
 16   8  26  1   
 17   9  11  2   
 18   9  27  1   
 19  10  12  1   
 20  10  13  1   
 21  10  28  1   
 22  11  29  1   
 23  11  30  1   
 24  12  14  1   
 25  12  15  1   
 26  12  31  1   
 27  13  16  1   
 28  13  32  1   
 29  13  33  1   
 30  14  17  1   
 31  14  18  1   
 32  14  34  1   
 33  15  19  1   
 34  15  35  1   
 35  15  36  1   
 36  16  17  1   
 37  16  37  1   
 38  16  38  1   
 39  17  39  1   
 40  17  40  1   
 41  18  20  1   
 42  18  41  1   
 43  18  42  1   
 44  19  20  1   
 45  19  43  1   
 46  19  44  1   
 47  20  45  1   
 48  20  46  1   
@<TRIPOS>SUBSTRUCTURE
  1 ****   7 GROUP 4 **** **** 0

# MOE 2024.06 (io_trps.svl 2023.06)
