@<TRIPOS>MOLECULE
NONAME
43 45 1 0 0 
SMALL
USER_CHARGES


@<TRIPOS>ATOM
  1 CL      -4.6060     3.2130     2.6500 Cl    1 <1>  -0.1770 
  2 C       -3.9990     1.9500     1.6040 C.ar  1 <1>   0.1770 
  3 C       -2.7810     1.3420     1.8590 C.ar  1 <1>   0.1770 
  4 C       -4.7600     1.5660     0.5150 C.ar  1 <1>  -0.1500 
  5 CL      -1.8110     1.8170     3.2340 Cl    1 <1>  -0.1770 
  6 C       -2.3130     0.3440     1.0250 C.ar  1 <1>  -0.1500 
  7 C       -4.3010     0.5590    -0.3240 C.ar  1 <1>  -0.1440 
  8 C       -3.0760    -0.0440    -0.0650 C.ar  1 <1>  -0.1500 
  9 C       -5.1300     0.1080    -1.5240 C.3   1 <1>   0.0440 
 10 C       -5.3630    -1.3960    -1.5430 C.2   1 <1>   0.5690 
 11 O       -4.8140    -2.0410    -2.4050 O.2   1 <1>  -0.5700 
 12 N       -6.1700    -1.9910    -0.6110 N.am  1 <1>  -0.6600 
 13 C       -6.8540    -1.3240     0.5250 C.3   1 <1>   0.1400 
 14 C       -6.3420    -3.4630    -0.5320 C.3   1 <1>   0.1400 
 15 C       -7.6360    -2.4370     1.2190 C.3   1 <1>   0.2000 
 16 C       -6.8940    -3.7230     0.8700 C.3   1 <1>  -0.0800 
 17 O       -7.6710    -2.2570     2.5920 O.3   1 <1>  -0.6800 
 18 C       -7.7690    -4.9810     0.9650 C.3   1 <1>   0.0210 
 19 C       -7.0090    -6.2080     0.4990 C.2   1 <1>   0.1080 
 20 N       -5.8790    -6.5740     1.0190 N.2   1 <1>  -0.7070 
 21 C       -7.4170    -7.0570    -0.5240 C.2   1 <1>  -0.1500 
 22 N       -5.5310    -7.6790     0.3330 N.pl3 1 <1>   0.3000 
 23 C       -6.4470    -7.9920    -0.6080 C.2   1 <1>  -0.3320 
 24 C       -6.3360    -9.1810    -1.5440 C.3   1 <1>  -0.0600 
 25 H       -5.7010     2.0550     0.3380 H     1 <1>   0.1500 
 26 H       -1.3650    -0.1230     1.2270 H     1 <1>   0.1500 
 27 H       -2.7110    -0.8250    -0.7150 H     1 <1>   0.1500 
 28 H       -4.6140     0.3860    -2.4250 H     1 <1>   0.0800 
 29 H       -6.0830     0.6020    -1.5360 H     1 <1>   0.0800 
 30 H       -6.1160    -0.9120     1.1910 H     1 <1>   0.0800 
 31 H       -7.5170    -0.5540     0.1720 H     1 <1>   0.0800 
 32 H       -7.0420    -3.7740    -1.2890 H     1 <1>   0.0800 
 33 H       -5.4050    -3.9730    -0.6850 H     1 <1>   0.0800 
 34 H       -8.6480    -2.4530     0.8520 H     1 <1>   0.0800 
 35 H       -6.0450    -3.8370     1.5220 H     1 <1>   0.0800 
 36 H       -6.7860    -2.4120     2.9760 H     1 <1>   0.4000 
 37 H       -8.6550    -4.8630     0.3680 H     1 <1>   0.0800 
 38 H       -8.0710    -5.1320     1.9860 H     1 <1>   0.0800 
 39 H       -8.3160    -6.9650    -1.1070 H     1 <1>   0.1500 
 40 H       -4.6650    -8.1940     0.5300 H     1 <1>   0.2700 
 41 H       -7.1880    -9.2160    -2.2000 H     1 <1>   0.0800 
 42 H       -6.3000   -10.0960    -0.9800 H     1 <1>   0.0800 
 43 H       -5.4460    -9.1010    -2.1430 H     1 <1>   0.0800 
@<TRIPOS>BOND
  1   1   2  1   
  2   2   3  ar  
  3   2   4  ar  
  4   3   5  1   
  5   3   6  ar  
  6   4   7  ar  
  7   4  25  1   
  8   6   8  ar  
  9   6  26  1   
 10   7   8  ar  
 11   7   9  1   
 12   8  27  1   
 13   9  10  1   
 14   9  28  1   
 15   9  29  1   
 16  10  11  2   
 17  10  12  am  
 18  12  13  1   
 19  12  14  1   
 20  13  15  1   
 21  13  30  1   
 22  13  31  1   
 23  14  16  1   
 24  14  32  1   
 25  14  33  1   
 26  15  16  1   
 27  15  17  1   
 28  15  34  1   
 29  16  18  1   
 30  16  35  1   
 31  17  36  1   
 32  18  19  1   
 33  18  37  1   
 34  18  38  1   
 35  19  20  2   
 36  19  21  1   
 37  20  22  1   
 38  21  23  2   
 39  21  39  1   
 40  22  23  1   
 41  22  40  1   
 42  23  24  1   
 43  24  41  1   
 44  24  42  1   
 45  24  43  1   
@<TRIPOS>SUBSTRUCTURE
  1 ****  12 GROUP 4 **** **** 0

# MOE 2024.06 (io_trps.svl 2023.06)
