@<TRIPOS>MOLECULE
NONAME
53 55 1 0 0 
SMALL
USER_CHARGES


@<TRIPOS>ATOM
  1 O       -0.5630     0.3110    -0.2890 O.2   1 <1>  -0.5700 
  2 C       -1.5100     0.8740     0.2110 C.2   1 <1>   0.5690 
  3 N       -2.6220     0.1670     0.6030 N.am  1 <1>  -0.6600 
  4 C       -1.4390     2.3990     0.3760 C.3   1 <1>  -0.0190 
  5 C       -2.6610    -1.3290     0.5140 C.3   1 <1>   0.1400 
  6 C       -3.9480     0.7410     0.9900 C.3   1 <1>   0.1400 
  7 C       -2.0290     3.1120    -0.8590 C.3   1 <1>  -0.1600 
  8 C       -0.0020     2.9020     0.6420 C.3   1 <1>  -0.1600 
  9 C       -3.8480    -1.8010    -0.3420 C.3   1 <1>   0.3440 
 10 C       -5.0740     0.1720     0.0960 C.3   1 <1>   0.2000 
 11 C       -1.9870     4.6410    -0.7070 C.3   1 <1>  -0.1600 
 12 C        0.0440     4.4300     0.8020 C.3   1 <1>  -0.1600 
 13 O       -5.0390    -1.2280     0.1350 O.3   1 <1>  -0.5600 
 14 C       -3.9640    -3.3230    -0.3130 C.ar  1 <1>  -0.1440 
 15 C       -6.4870     0.6310     0.5270 C.3   1 <1>  -0.0800 
 16 C       -0.5620     5.1220    -0.4220 C.3   1 <1>   0.2000 
 17 C       -4.7100    -3.9760     0.6600 C.ar  1 <1>  -0.1500 
 18 C       -3.3000    -4.0780    -1.2690 C.ar  1 <1>  -0.1500 
 19 C       -7.5750     0.0090    -0.3660 C.3   1 <1>  -0.2400 
 20 C       -6.6400     2.1620     0.4920 C.3   1 <1>  -0.2400 
 21 O       -0.6030     6.4760    -0.1790 O.3   1 <1>  -0.6800 
 22 C       -4.7900    -5.3570     0.6770 C.ar  1 <1>  -0.1500 
 23 C       -3.3790    -5.4600    -1.2540 C.ar  1 <1>  -0.1500 
 24 C       -4.1240    -6.1010    -0.2800 C.ar  1 <1>  -0.1500 
 25 H       -2.0160     2.6670     1.2410 H     1 <1>   0.0800 
 26 H       -1.7510    -1.7150     0.0890 H     1 <1>   0.0800 
 27 H       -2.7570    -1.7410     1.5030 H     1 <1>   0.0800 
 28 H       -4.1530     0.4950     2.0170 H     1 <1>   0.0800 
 29 H       -3.9400     1.8090     0.9010 H     1 <1>   0.0800 
 30 H       -1.4620     2.8270    -1.7300 H     1 <1>   0.0800 
 31 H       -3.0450     2.7970    -1.0190 H     1 <1>   0.0800 
 32 H        0.3840     2.4340     1.5310 H     1 <1>   0.0800 
 33 H        0.6360     2.6160    -0.1780 H     1 <1>   0.0800 
 34 H       -3.7100    -1.4770    -1.3590 H     1 <1>   0.0800 
 35 H       -4.9060     0.4780    -0.9220 H     1 <1>   0.0800 
 36 H       -2.6370     4.9310     0.1000 H     1 <1>   0.0800 
 37 H       -2.3400     5.0990    -1.6140 H     1 <1>   0.0800 
 38 H        1.0670     4.7440     0.9170 H     1 <1>   0.0800 
 39 H       -0.5020     4.7060     1.6870 H     1 <1>   0.0800 
 40 H       -6.6520     0.3010     1.5390 H     1 <1>   0.0800 
 41 H        0.0630     4.9620    -1.2850 H     1 <1>   0.0800 
 42 H       -5.2340    -3.4060     1.4080 H     1 <1>   0.1500 
 43 H       -2.7150    -3.5940    -2.0320 H     1 <1>   0.1500 
 44 H       -7.4350     0.2960    -1.3930 H     1 <1>   0.0800 
 45 H       -8.5520     0.3290    -0.0480 H     1 <1>   0.0800 
 46 H       -7.5440    -1.0650    -0.3050 H     1 <1>   0.0800 
 47 H       -6.4120     2.5430    -0.4880 H     1 <1>   0.0800 
 48 H       -5.9960     2.6350     1.2100 H     1 <1>   0.0800 
 49 H       -7.6520     2.4380     0.7350 H     1 <1>   0.0800 
 50 H       -1.1320     6.6560     0.6190 H     1 <1>   0.4000 
 51 H       -5.3720    -5.8520     1.4350 H     1 <1>   0.1500 
 52 H       -2.8610    -6.0370    -2.0000 H     1 <1>   0.1500 
 53 H       -4.1860    -7.1750    -0.2680 H     1 <1>   0.1500 
@<TRIPOS>BOND
  1   1   2  2   
  2   2   3  am  
  3   2   4  1   
  4   3   5  1   
  5   3   6  1   
  6   4   7  1   
  7   4   8  1   
  8   4  25  1   
  9   5   9  1   
 10   5  26  1   
 11   5  27  1   
 12   6  10  1   
 13   6  28  1   
 14   6  29  1   
 15   7  11  1   
 16   7  30  1   
 17   7  31  1   
 18   8  12  1   
 19   8  32  1   
 20   8  33  1   
 21   9  13  1   
 22   9  14  1   
 23   9  34  1   
 24  10  13  1   
 25  10  15  1   
 26  10  35  1   
 27  11  16  1   
 28  11  36  1   
 29  11  37  1   
 30  12  16  1   
 31  12  38  1   
 32  12  39  1   
 33  14  17  ar  
 34  14  18  ar  
 35  15  19  1   
 36  15  20  1   
 37  15  40  1   
 38  16  21  1   
 39  16  41  1   
 40  17  22  ar  
 41  17  42  1   
 42  18  23  ar  
 43  18  43  1   
 44  19  44  1   
 45  19  45  1   
 46  19  46  1   
 47  20  47  1   
 48  20  48  1   
 49  20  49  1   
 50  21  50  1   
 51  22  24  ar  
 52  22  51  1   
 53  23  24  ar  
 54  23  52  1   
 55  24  53  1   
@<TRIPOS>SUBSTRUCTURE
  1 ****   3 GROUP 4 **** **** 0

# MOE 2024.06 (io_trps.svl 2023.06)
