@<TRIPOS>MOLECULE
NONAME
47 49 1 0 0 
SMALL
USER_CHARGES


@<TRIPOS>ATOM
  1 O       -0.5510     0.3500     1.3460 O.2   1 <1>  -0.5700 
  2 C       -1.7380     0.3650     1.1380 C.2   1 <1>   0.5950 
  3 C       -2.4530     1.5260     0.6800 C.2   1 <1>  -0.0860 
  4 C       -2.5100    -0.9130     1.3840 C.3   1 <1>  -0.1790 
  5 C       -3.7920     1.7100     0.4490 C.2   1 <1>  -0.3020 
  6 C       -1.8640     2.7650     0.3670 C.2   1 <1>  -0.1500 
  7 N       -4.0350     2.9690     0.0260 N.pl3 1 <1>   0.0480 
  8 C       -2.8410     3.6310    -0.0220 C.2   1 <1>  -0.3320 
  9 C       -5.3680     3.4980    -0.3190 C.3   1 <1>   0.0160 
 10 C       -2.7970     5.0930    -0.4690 C.3   1 <1>   0.2900 
 11 N       -1.4810     5.7570    -0.3850 N.3   1 <1>  -0.8100 
 12 C       -0.9700     5.8300     1.0090 C.3   1 <1>   0.1100 
 13 C       -0.5170     5.2140    -1.3630 C.3   1 <1>   0.1100 
 14 C        0.2790     6.7260     1.2440 C.3   1 <1>   0.4230 
 15 C        0.6850     6.1560    -1.5750 C.3   1 <1>  -0.0800 
 16 N        0.4180     7.9090     0.3040 N.4   1 <1>  -0.9590 
 17 C        1.5880     5.9090     1.3380 C.3   1 <1>   0.1200 
 18 C        2.0000     5.6230    -0.9870 C.3   1 <1>   0.1200 
 19 C        0.3600     7.5980    -1.1680 C.3   1 <1>   0.3430 
 20 C       -0.6380     8.9180     0.6090 C.3   1 <1>   0.2630 
 21 O        1.7960     5.0510     0.2620 O.3   1 <1>  -0.5600 
 22 H       -3.0190    -1.2050     0.4850 H     1 <1>   0.0800 
 23 H       -3.2250    -0.7560     2.1690 H     1 <1>   0.0800 
 24 H       -1.8360    -1.6970     1.6740 H     1 <1>   0.0800 
 25 H       -4.5790     0.9880     0.5720 H     1 <1>   0.1500 
 26 H       -0.8030     2.9170     0.4490 H     1 <1>   0.1500 
 27 H       -6.1040     2.7230    -0.2030 H     1 <1>   0.0800 
 28 H       -5.3650     3.8330    -1.3400 H     1 <1>   0.0800 
 29 H       -5.6080     4.3160     0.3340 H     1 <1>   0.0800 
 30 H       -3.4910     5.6520     0.1350 H     1 <1>   0.0800 
 31 H       -3.1480     5.1520    -1.4850 H     1 <1>   0.0800 
 32 H       -1.7590     6.2140     1.6310 H     1 <1>   0.0800 
 33 H       -0.7530     4.8450     1.3790 H     1 <1>   0.0800 
 34 H       -0.1790     4.2350    -1.0740 H     1 <1>   0.0800 
 35 H       -1.0230     5.1010    -2.3080 H     1 <1>   0.0800 
 36 H        0.1550     7.1320     2.2330 H     1 <1>   0.0800 
 37 H        0.8440     6.1870    -2.6380 H     1 <1>   0.0800 
 38 H        1.3370     8.3250     0.4890 H     1 <1>   0.4500 
 39 H        1.5390     5.2830     2.2110 H     1 <1>   0.0800 
 40 H        2.4440     6.5510     1.4410 H     1 <1>   0.0800 
 41 H        2.7580     6.3850    -0.9150 H     1 <1>   0.0800 
 42 H        2.3760     4.8350    -1.6190 H     1 <1>   0.0800 
 43 H       -0.6350     7.8060    -1.5280 H     1 <1>   0.0800 
 44 H        1.0300     8.2620    -1.6880 H     1 <1>   0.0800 
 45 H       -1.6120     8.4990     0.4110 H     1 <1>   0.0800 
 46 H       -0.5100     9.7950    -0.0050 H     1 <1>   0.0800 
 47 H       -0.5920     9.2130     1.6440 H     1 <1>   0.0800 
@<TRIPOS>BOND
  1   1   2  2   
  2   2   3  1   
  3   2   4  1   
  4   3   5  2   
  5   3   6  1   
  6   4  22  1   
  7   4  23  1   
  8   4  24  1   
  9   5   7  1   
 10   5  25  1   
 11   6   8  2   
 12   6  26  1   
 13   7   8  1   
 14   7   9  1   
 15   8  10  1   
 16   9  27  1   
 17   9  28  1   
 18   9  29  1   
 19  10  11  1   
 20  10  30  1   
 21  10  31  1   
 22  11  12  1   
 23  11  13  1   
 24  12  14  1   
 25  12  32  1   
 26  12  33  1   
 27  13  15  1   
 28  13  34  1   
 29  13  35  1   
 30  14  16  1   
 31  14  17  1   
 32  14  36  1   
 33  15  18  1   
 34  15  19  1   
 35  15  37  1   
 36  16  19  1   
 37  16  20  1   
 38  16  38  1   
 39  17  21  1   
 40  17  39  1   
 41  17  40  1   
 42  18  21  1   
 43  18  41  1   
 44  18  42  1   
 45  19  43  1   
 46  19  44  1   
 47  20  45  1   
 48  20  46  1   
 49  20  47  1   
@<TRIPOS>SUBSTRUCTURE
  1 ****  11 GROUP 4 **** **** 0

# MOE 2024.06 (io_trps.svl 2023.06)
