@<TRIPOS>MOLECULE
NONAME
38 39 1 0 0 
SMALL
USER_CHARGES


@<TRIPOS>ATOM
  1 CL      -0.2290    -1.0420     1.8300 Cl    1 <1>  -0.1770 
  2 C       -1.8210    -1.5580     1.3260 C.ar  1 <1>   0.1770 
  3 C       -2.1900    -2.8870     1.4350 C.ar  1 <1>   0.1600 
  4 C       -2.7050    -0.6320     0.8210 C.ar  1 <1>  -0.1500 
  5 N       -3.3740    -3.3720     1.0780 N.ar  1 <1>  -0.6200 
  6 C       -3.9300    -1.1320     0.4520 C.ar  1 <1>   0.1900 
  7 C       -4.2580    -2.5010     0.5820 C.ar  1 <1>   0.4100 
  8 F       -4.7880    -0.2660    -0.0340 F     1 <1>  -0.1900 
  9 N       -5.4910    -3.0670     0.2370 N.pl3 1 <1>  -0.8380 
 10 C       -6.6190    -2.3450    -0.4120 C.3   1 <1>   0.2090 
 11 C       -5.6090    -4.5240    -0.0660 C.3   1 <1>   0.2090 
 12 C       -7.6920    -3.4160    -0.5890 C.3   1 <1>   0.2000 
 13 C       -6.8840    -4.6750    -0.9070 C.3   1 <1>  -0.0800 
 14 O       -8.3280    -3.5890     0.6310 O.3   1 <1>  -0.6800 
 15 C       -7.6570    -5.9920    -0.6750 C.3   1 <1>  -0.0550 
 16 S       -6.8120    -7.4590    -1.2700 S.o2  1 <1>   1.3330 
 17 O       -7.6410    -8.6160    -1.0230 O.2   1 <1>  -0.6500 
 18 O       -6.3450    -7.1850    -2.6100 O.2   1 <1>  -0.6500 
 19 N       -5.4540    -7.5830    -0.2580 N.am  1 <1>  -0.8490 
 20 C       -5.7440    -8.2080     1.0370 C.3   1 <1>   0.1160 
 21 C       -4.3380    -8.2770    -0.9070 C.3   1 <1>   0.1160 
 22 H       -1.4740    -3.5840     1.8350 H     1 <1>   0.1500 
 23 H       -2.4520     0.4070     0.7230 H     1 <1>   0.1500 
 24 H       -6.9750    -1.5290     0.1940 H     1 <1>   0.0800 
 25 H       -6.3020    -1.9770    -1.3730 H     1 <1>   0.0800 
 26 H       -4.7460    -4.8780    -0.6060 H     1 <1>   0.0800 
 27 H       -5.6880    -5.0630     0.8620 H     1 <1>   0.0800 
 28 H       -8.4270    -3.1700    -1.3360 H     1 <1>   0.0800 
 29 H       -6.5950    -4.6230    -1.9420 H     1 <1>   0.0800 
 30 H       -7.6380    -3.5480     1.3280 H     1 <1>   0.4000 
 31 H       -8.5970    -5.9180    -1.1880 H     1 <1>   0.0800 
 32 H       -7.8750    -6.1050     0.3690 H     1 <1>   0.0800 
 33 H       -4.8720    -8.1740     1.6680 H     1 <1>   0.0800 
 34 H       -6.0400    -9.2360     0.9020 H     1 <1>   0.0800 
 35 H       -6.5420    -7.6830     1.5340 H     1 <1>   0.0800 
 36 H       -3.4900    -8.3210    -0.2450 H     1 <1>   0.0800 
 37 H       -4.0410    -7.7470    -1.7970 H     1 <1>   0.0800 
 38 H       -4.6280    -9.2780    -1.1810 H     1 <1>   0.0800 
@<TRIPOS>BOND
  1   1   2  1   
  2   2   3  ar  
  3   2   4  ar  
  4   3   5  ar  
  5   3  22  1   
  6   4   6  ar  
  7   4  23  1   
  8   5   7  ar  
  9   6   7  ar  
 10   6   8  1   
 11   7   9  1   
 12   9  10  1   
 13   9  11  1   
 14  10  12  1   
 15  10  24  1   
 16  10  25  1   
 17  11  13  1   
 18  11  26  1   
 19  11  27  1   
 20  12  13  1   
 21  12  14  1   
 22  12  28  1   
 23  13  15  1   
 24  13  29  1   
 25  14  30  1   
 26  15  16  1   
 27  15  31  1   
 28  15  32  1   
 29  16  17  2   
 30  16  18  2   
 31  16  19  am  
 32  19  20  1   
 33  19  21  1   
 34  20  33  1   
 35  20  34  1   
 36  20  35  1   
 37  21  36  1   
 38  21  37  1   
 39  21  38  1   
@<TRIPOS>SUBSTRUCTURE
  1 ****  11 GROUP 4 **** **** 0

# MOE 2024.06 (io_trps.svl 2023.06)
