@<TRIPOS>MOLECULE
NONAME
53 56 1 0 0 
SMALL
USER_CHARGES


@<TRIPOS>ATOM
  1 F        2.6620    -1.0100     3.0110 F     1 <1>  -0.1900 
  2 C        2.8780    -1.4820     1.8140 C.ar  1 <1>   0.1900 
  3 C        2.3500    -2.6950     1.4660 C.ar  1 <1>  -0.1500 
  4 C        3.6500    -0.7240     0.9410 C.ar  1 <1>  -0.1500 
  5 C        2.5430    -3.2200     0.1710 C.ar  1 <1>   0.0000 
  6 C        3.9120    -1.2390    -0.3040 C.ar  1 <1>  -0.1500 
  7 C        3.4030    -2.4930    -0.6870 C.ar  1 <1>   0.3610 
  8 C        1.9720    -4.4550    -0.2940 C.ar  1 <1>   0.1000 
  9 N        3.7780    -3.0510    -1.8860 N.ar  1 <1>  -0.1790 
 10 N        0.9460    -5.0950     0.3390 N.pl3 1 <1>  -0.8380 
 11 C        2.4870    -4.9700    -1.4890 C.ar  1 <1>  -0.1500 
 12 C        3.3690    -4.2700    -2.2720 C.ar  1 <1>   0.2180 
 13 C        0.7010    -6.5700     0.2590 C.3   1 <1>   0.2090 
 14 C       -0.1810    -4.3710     0.9930 C.3   1 <1>   0.2090 
 15 C        3.8900    -4.8260    -3.5870 C.3   1 <1>  -0.0970 
 16 C       -0.6140    -6.9550     0.9950 C.3   1 <1>   0.4230 
 17 C       -1.5430    -4.9440     0.5130 C.3   1 <1>  -0.1600 
 18 N       -0.5730    -8.3400     1.6200 N.4   1 <1>  -0.9590 
 19 C       -1.8720    -6.4880     0.1230 C.3   1 <1>   0.0000 
 20 C       -0.3150    -9.3920     0.6170 C.3   1 <1>   0.3430 
 21 C        0.3720    -8.4350     2.7770 C.3   1 <1>   0.2630 
 22 C       -2.2280    -7.9970    -0.3580 C.3   1 <1>  -0.1600 
 23 C       -3.1610    -5.9670    -0.6780 C.3   1 <1>   0.1200 
 24 C       -1.1210    -9.0470    -0.6210 C.3   1 <1>  -0.1600 
 25 O       -2.8170    -5.7300    -2.0090 O.3   1 <1>  -0.6800 
 26 H        1.7980    -3.2440     2.2040 H     1 <1>   0.1500 
 27 H        4.0280     0.2320     1.2640 H     1 <1>   0.1500 
 28 H        4.5250    -0.6730    -0.9840 H     1 <1>   0.1500 
 29 H        4.4170    -2.5170    -2.4790 H     1 <1>   0.4570 
 30 H        2.1570    -5.9280    -1.8360 H     1 <1>   0.1500 
 31 H        0.6100    -6.8570    -0.7710 H     1 <1>   0.0800 
 32 H        1.5440    -7.0750     0.6940 H     1 <1>   0.0800 
 33 H       -0.0940    -4.4660     2.0630 H     1 <1>   0.0800 
 34 H       -0.1400    -3.3200     0.7560 H     1 <1>   0.0800 
 35 H        3.4810    -5.8030    -3.7770 H     1 <1>   0.0800 
 36 H        4.9620    -4.9130    -3.5620 H     1 <1>   0.0800 
 37 H        3.6080    -4.1850    -4.4040 H     1 <1>   0.0800 
 38 H       -0.6360    -6.3470     1.8800 H     1 <1>   0.0800 
 39 H       -2.2560    -4.6220     1.2550 H     1 <1>   0.0800 
 40 H       -1.6870    -4.2980    -0.3420 H     1 <1>   0.0800 
 41 H       -1.5260    -8.5070     1.9730 H     1 <1>   0.4500 
 42 H        0.7340    -9.4400     0.3700 H     1 <1>   0.0800 
 43 H       -0.6220   -10.3510     1.0050 H     1 <1>   0.0800 
 44 H        1.3880    -8.2840     2.4510 H     1 <1>   0.0800 
 45 H        0.3010    -9.4070     3.2380 H     1 <1>   0.0800 
 46 H        0.1340    -7.6880     3.5180 H     1 <1>   0.0800 
 47 H       -2.9250    -8.4160     0.3510 H     1 <1>   0.0800 
 48 H       -2.7350    -8.0620    -1.3110 H     1 <1>   0.0800 
 49 H       -3.6130    -5.0600    -0.3060 H     1 <1>   0.0800 
 50 H       -4.0030    -6.6440    -0.6680 H     1 <1>   0.0800 
 51 H       -0.4650    -8.6980    -1.3990 H     1 <1>   0.0800 
 52 H       -1.5670    -9.9540    -0.9920 H     1 <1>   0.0800 
 53 H       -3.5900    -5.4220    -2.5260 H     1 <1>   0.4000 
@<TRIPOS>BOND
  1   1   2  1   
  2   2   3  ar  
  3   2   4  ar  
  4   3   5  ar  
  5   3  26  1   
  6   4   6  ar  
  7   4  27  1   
  8   5   7  ar  
  9   5   8  ar  
 10   6   7  ar  
 11   6  28  1   
 12   7   9  ar  
 13   8  10  1   
 14   8  11  ar  
 15   9  12  ar  
 16   9  29  1   
 17  10  13  1   
 18  10  14  1   
 19  11  12  ar  
 20  11  30  1   
 21  12  15  1   
 22  13  16  1   
 23  13  31  1   
 24  13  32  1   
 25  14  17  1   
 26  14  33  1   
 27  14  34  1   
 28  15  35  1   
 29  15  36  1   
 30  15  37  1   
 31  16  18  1   
 32  16  19  1   
 33  16  38  1   
 34  17  19  1   
 35  17  39  1   
 36  17  40  1   
 37  18  20  1   
 38  18  21  1   
 39  18  41  1   
 40  19  22  1   
 41  19  23  1   
 42  20  24  1   
 43  20  42  1   
 44  20  43  1   
 45  21  44  1   
 46  21  45  1   
 47  21  46  1   
 48  22  24  1   
 49  22  47  1   
 50  22  48  1   
 51  23  25  1   
 52  23  49  1   
 53  23  50  1   
 54  24  51  1   
 55  24  52  1   
 56  25  53  1   
@<TRIPOS>SUBSTRUCTURE
  1 ****  10 GROUP 4 **** **** 0

# MOE 2024.06 (io_trps.svl 2023.06)
