@<TRIPOS>MOLECULE
NONAME
48 52 1 0 0 
SMALL
USER_CHARGES


@<TRIPOS>ATOM
  1 O        0.2620    -0.8660     1.0250 O.3   1 <1>  -0.0190 
  2 N       -0.0360    -2.1120     1.2320 N.2   1 <1>  -0.4100 
  3 C        0.8130    -0.8630    -0.1650 C.2   1 <1>   0.3930 
  4 C        0.3310    -2.7610     0.1970 C.2   1 <1>   0.3350 
  5 N        0.8910    -1.9990    -0.7340 N.2   1 <1>  -0.5650 
  6 C        1.2910     0.4620    -0.7370 C.3   1 <1>  -0.0150 
  7 C        0.1550    -4.2720     0.0350 C.3   1 <1>   0.2910 
  8 C        2.4280     0.5320    -1.7120 C.3   1 <1>  -0.2000 
  9 C        2.6060     1.0410    -0.3130 C.3   1 <1>  -0.2000 
 10 N       -1.0610    -4.7000    -0.7200 N.3   1 <1>  -0.8100 
 11 C       -2.2990    -3.9870    -0.3580 C.3   1 <1>   0.1100 
 12 C       -1.3730    -6.1000    -0.4210 C.3   1 <1>   0.1100 
 13 C       -2.8660    -4.6910     0.8760 C.3   1 <1>   0.2000 
 14 C       -2.2180    -6.0800     0.8610 C.3   1 <1>  -0.0800 
 15 O       -2.4840    -4.0170     2.0270 O.3   1 <1>  -0.6800 
 16 C       -3.2470    -7.2190     0.9460 C.3   1 <1>  -0.0170 
 17 C       -2.5530    -8.5800     0.9530 C.ar  1 <1>  -0.1440 
 18 C       -2.3950    -9.3930    -0.1970 C.ar  1 <1>   0.0000 
 19 C       -2.0380    -9.0440     2.1270 C.ar  1 <1>  -0.1500 
 20 C       -1.6900   -10.6130    -0.0430 C.ar  1 <1>   0.3100 
 21 C       -2.8870    -9.0790    -1.4870 C.ar  1 <1>  -0.1500 
 22 C       -1.3680   -10.2720     2.1720 C.ar  1 <1>   0.1600 
 23 N       -1.1850   -11.0360     1.1430 N.ar  1 <1>  -0.6200 
 24 C       -1.4980   -11.4370    -1.1630 C.ar  1 <1>  -0.1500 
 25 C       -2.6850    -9.9050    -2.5580 C.ar  1 <1>  -0.1500 
 26 C       -1.9800   -11.1000    -2.3980 C.ar  1 <1>  -0.1500 
 27 H        0.4740     1.1440    -0.8890 H     1 <1>   0.1000 
 28 H        0.1410    -4.6970     1.0230 H     1 <1>   0.0800 
 29 H        1.0230    -4.6590    -0.4680 H     1 <1>   0.0800 
 30 H        2.9130    -0.3850    -2.0000 H     1 <1>   0.1000 
 31 H        2.3650     1.2370    -2.5230 H     1 <1>   0.1000 
 32 H        2.6730     2.1030    -0.1490 H     1 <1>   0.1000 
 33 H        3.2280     0.4780     0.3620 H     1 <1>   0.1000 
 34 H       -2.1640    -2.9300    -0.2140 H     1 <1>   0.0800 
 35 H       -2.9950    -4.1160    -1.1680 H     1 <1>   0.0800 
 36 H       -1.9510    -6.4910    -1.2400 H     1 <1>   0.0800 
 37 H       -0.4850    -6.7020    -0.3150 H     1 <1>   0.0800 
 38 H       -3.9420    -4.7240     0.8510 H     1 <1>   0.0800 
 39 H       -1.5490    -6.1740     1.6990 H     1 <1>   0.0800 
 40 H       -1.6730    -3.4900     1.8550 H     1 <1>   0.4000 
 41 H       -3.9650    -7.1440     0.1520 H     1 <1>   0.0800 
 42 H       -3.7960    -7.1100     1.8650 H     1 <1>   0.0800 
 43 H       -2.1260    -8.4840     3.0400 H     1 <1>   0.1500 
 44 H       -3.4370    -8.1710    -1.6420 H     1 <1>   0.1500 
 45 H       -0.9790   -10.5990     3.1210 H     1 <1>   0.1500 
 46 H       -0.9560   -12.3530    -1.0150 H     1 <1>   0.1500 
 47 H       -3.0640    -9.6510    -3.5330 H     1 <1>   0.1500 
 48 H       -1.8250   -11.7420    -3.2480 H     1 <1>   0.1500 
@<TRIPOS>BOND
  1   1   2  1   
  2   1   3  1   
  3   2   4  2   
  4   3   5  2   
  5   3   6  1   
  6   4   5  1   
  7   4   7  1   
  8   6   8  1   
  9   6   9  1   
 10   6  27  1   
 11   7  10  1   
 12   7  28  1   
 13   7  29  1   
 14   8   9  1   
 15   8  30  1   
 16   8  31  1   
 17   9  32  1   
 18   9  33  1   
 19  10  11  1   
 20  10  12  1   
 21  11  13  1   
 22  11  34  1   
 23  11  35  1   
 24  12  14  1   
 25  12  36  1   
 26  12  37  1   
 27  13  14  1   
 28  13  15  1   
 29  13  38  1   
 30  14  16  1   
 31  14  39  1   
 32  15  40  1   
 33  16  17  1   
 34  16  41  1   
 35  16  42  1   
 36  17  18  ar  
 37  17  19  ar  
 38  18  20  ar  
 39  18  21  ar  
 40  19  22  ar  
 41  19  43  1   
 42  20  23  ar  
 43  20  24  ar  
 44  21  25  ar  
 45  21  44  1   
 46  22  23  ar  
 47  22  45  1   
 48  24  26  ar  
 49  24  46  1   
 50  25  26  ar  
 51  25  47  1   
 52  26  48  1   
@<TRIPOS>SUBSTRUCTURE
  1 ****  12 GROUP 4 **** **** 0

# MOE 2024.06 (io_trps.svl 2023.06)
