@<TRIPOS>MOLECULE
NONAME
38 40 1 0 0 
SMALL
USER_CHARGES


@<TRIPOS>ATOM
  1 CL      -0.3340    -0.1390     1.4110 Cl    1 <1>  -0.1770 
  2 C       -0.9880    -1.6790     0.9170 C.ar  1 <1>   0.1770 
  3 C       -2.3080    -1.9790     1.1890 C.ar  1 <1>  -0.1500 
  4 C       -0.1750    -2.5840     0.2610 C.ar  1 <1>  -0.1500 
  5 C       -2.8170    -3.2050     0.7980 C.ar  1 <1>  -0.1500 
  6 C       -0.6980    -3.8040    -0.1270 C.ar  1 <1>  -0.1500 
  7 C       -2.0300    -4.1450     0.1300 C.ar  1 <1>   0.0530 
  8 C       -2.5430    -5.4350    -0.2680 C.2   1 <1>   0.0870 
  9 O       -1.7390    -6.4730    -0.2260 O.3   1 <1>  -0.0190 
 10 C       -3.7510    -5.8910    -0.6960 C.2   1 <1>  -0.2330 
 11 N       -2.3210    -7.5850    -0.5850 N.2   1 <1>  -0.4100 
 12 C       -3.5290    -7.2550    -0.8750 C.2   1 <1>   0.3720 
 13 C       -5.0040    -5.2390    -0.9410 C.2   1 <1>   1.0330 
 14 N       -4.4960    -8.1490    -1.3050 N.pl3 1 <1>  -0.8520 
 15 O       -5.0820    -4.0040    -1.0240 O.co2 1 <1>  -0.9000 
 16 O       -6.0530    -5.9030    -1.0600 O.co2 1 <1>  -0.9000 
 17 C       -4.7970    -9.2390    -0.3720 C.3   1 <1>   0.2890 
 18 C       -4.3530   -10.5630    -1.0010 C.3   1 <1>  -0.1600 
 19 C       -6.3020    -9.2360    -0.0910 C.3   1 <1>  -0.1600 
 20 C       -4.7540   -11.7610    -0.1260 C.3   1 <1>  -0.1600 
 21 C       -6.7100   -10.4280     0.7880 C.3   1 <1>  -0.1600 
 22 C       -6.2630   -11.7560     0.1610 C.3   1 <1>  -0.1600 
 23 H       -2.9320    -1.2650     1.6940 H     1 <1>   0.1500 
 24 H        0.8490    -2.3310     0.0570 H     1 <1>   0.1500 
 25 H       -3.8480    -3.4380     1.0060 H     1 <1>   0.1500 
 26 H       -0.0720    -4.5110    -0.6420 H     1 <1>   0.1500 
 27 H       -5.3610    -7.5790    -1.4170 H     1 <1>   0.4000 
 28 H       -4.2660    -9.0910     0.5550 H     1 <1>   0.0800 
 29 H       -3.2850   -10.5460    -1.1270 H     1 <1>   0.0800 
 30 H       -4.8080   -10.6590    -1.9710 H     1 <1>   0.0800 
 31 H       -6.8360    -9.2840    -1.0240 H     1 <1>   0.0800 
 32 H       -6.5670    -8.3150     0.4010 H     1 <1>   0.0800 
 33 H       -4.2140   -11.7170     0.8040 H     1 <1>   0.0800 
 34 H       -4.4830   -12.6750    -0.6240 H     1 <1>   0.0800 
 35 H       -7.7780   -10.4290     0.9170 H     1 <1>   0.0800 
 36 H       -6.2590   -10.3210     1.7600 H     1 <1>   0.0800 
 37 H       -6.5070   -12.5690     0.8230 H     1 <1>   0.0800 
 38 H       -6.7980   -11.9090    -0.7610 H     1 <1>   0.0800 
@<TRIPOS>BOND
  1   1   2  1   
  2   2   3  ar  
  3   2   4  ar  
  4   3   5  ar  
  5   3  23  1   
  6   4   6  ar  
  7   4  24  1   
  8   5   7  ar  
  9   5  25  1   
 10   6   7  ar  
 11   6  26  1   
 12   7   8  1   
 13   8   9  1   
 14   8  10  2   
 15   9  11  1   
 16  10  12  1   
 17  10  13  1   
 18  11  12  2   
 19  12  14  1   
 20  13  15  ar  
 21  13  16  ar  
 22  14  17  1   
 23  14  27  1   
 24  17  18  1   
 25  17  19  1   
 26  17  28  1   
 27  18  20  1   
 28  18  29  1   
 29  18  30  1   
 30  19  21  1   
 31  19  31  1   
 32  19  32  1   
 33  20  22  1   
 34  20  33  1   
 35  20  34  1   
 36  21  22  1   
 37  21  35  1   
 38  21  36  1   
 39  22  37  1   
 40  22  38  1   
@<TRIPOS>SUBSTRUCTURE
  1 ****  10 GROUP 4 **** **** 0

# MOE 2024.06 (io_trps.svl 2023.06)
