@<TRIPOS>MOLECULE
NONAME
56 59 1 0 0 
SMALL
USER_CHARGES


@<TRIPOS>ATOM
  1 O        1.4960     0.0690    -1.6910 O.2   1 <1>  -0.5700 
  2 C        2.0210    -0.8420    -1.0960 C.2   1 <1>   0.5690 
  3 N        1.6060    -1.2740     0.1330 N.am  1 <1>  -0.6600 
  4 C        3.2120    -1.5400    -1.7200 C.3   1 <1>  -0.0990 
  5 C        2.3230    -2.3820     0.8120 C.3   1 <1>   0.1400 
  6 C        0.4630    -0.6640     0.8610 C.3   1 <1>   0.0600 
  7 C        3.1030    -3.0710    -1.5700 C.3   1 <1>  -0.0800 
  8 C        2.5930    -3.5270    -0.1830 C.3   1 <1>  -0.0800 
  9 C        4.4380    -3.7810    -1.8280 C.3   1 <1>  -0.1600 
 10 C        3.6090    -4.5360     0.3690 C.3   1 <1>  -0.1600 
 11 C        4.5260    -4.9040    -0.7930 C.3   1 <1>   0.2200 
 12 N        5.9030    -5.2470    -0.3270 N.am  1 <1>  -0.6600 
 13 C        6.9710    -4.3720    -0.1200 C.2   1 <1>   0.7160 
 14 C        6.1180    -6.7190    -0.1940 C.3   1 <1>   0.0600 
 15 O        8.0940    -4.8500    -0.2100 O.2   1 <1>  -0.5700 
 16 C        6.8670    -2.9400     0.1770 C.2   1 <1>   0.2030 
 17 N        5.8970    -2.2930     0.8060 N.2   1 <1>  -0.7070 
 18 C        7.8610    -2.0310    -0.1990 C.2   1 <1>  -0.1500 
 19 N        6.2770    -1.0080     0.8180 N.pl3 1 <1>   0.3000 
 20 C        7.4640    -0.8020     0.2080 C.2   1 <1>  -0.2050 
 21 C        8.0990     0.4840     0.0780 C.ar  1 <1>   0.0530 
 22 C        9.4780     0.6080     0.2130 C.ar  1 <1>  -0.1500 
 23 C        7.3660     1.6390    -0.1840 C.ar  1 <1>  -0.1500 
 24 C       10.1020     1.8370     0.0990 C.ar  1 <1>  -0.1500 
 25 C        7.9860     2.8700    -0.2980 C.ar  1 <1>  -0.1500 
 26 C        9.3600     2.9780    -0.1570 C.ar  1 <1>  -0.1440 
 27 C       10.0440     4.3300    -0.2830 C.3   1 <1>  -0.0170 
 28 C       10.1260     5.0210     1.0800 C.3   1 <1>  -0.2400 
 29 H        3.2820    -1.2760    -2.7590 H     1 <1>   0.0800 
 30 H        4.0910    -1.1770    -1.2220 H     1 <1>   0.0800 
 31 H        3.2530    -2.0000     1.1960 H     1 <1>   0.0800 
 32 H        1.7430    -2.7510     1.6400 H     1 <1>   0.0800 
 33 H        0.7990    -0.2740     1.8050 H     1 <1>   0.0800 
 34 H       -0.2980    -1.4050     1.0290 H     1 <1>   0.0800 
 35 H        0.0370     0.1420     0.2870 H     1 <1>   0.0800 
 36 H        2.3890    -3.4180    -2.2980 H     1 <1>   0.0800 
 37 H        1.6610    -4.0440    -0.3340 H     1 <1>   0.0800 
 38 H        5.2460    -3.0850    -1.7410 H     1 <1>   0.0800 
 39 H        4.4610    -4.1890    -2.8230 H     1 <1>   0.0800 
 40 H        3.1110    -5.4120     0.7440 H     1 <1>   0.0800 
 41 H        4.1790    -4.1080     1.1710 H     1 <1>   0.0800 
 42 H        4.0990    -5.7740    -1.2650 H     1 <1>   0.0800 
 43 H        5.2810    -7.1690     0.3100 H     1 <1>   0.0800 
 44 H        7.0060    -6.9250     0.3800 H     1 <1>   0.0800 
 45 H        6.2270    -7.1580    -1.1700 H     1 <1>   0.0800 
 46 H        8.7660    -2.2940    -0.7190 H     1 <1>   0.1500 
 47 H        5.7220    -0.2680     1.2620 H     1 <1>   0.2700 
 48 H       10.0650    -0.2690     0.4150 H     1 <1>   0.1500 
 49 H        6.3010     1.5780    -0.3120 H     1 <1>   0.1500 
 50 H       11.1700     1.9020     0.2120 H     1 <1>   0.1500 
 51 H        7.3960     3.7470    -0.4990 H     1 <1>   0.1500 
 52 H       11.0360     4.1990    -0.6810 H     1 <1>   0.0800 
 53 H        9.4970     4.9510    -0.9710 H     1 <1>   0.0800 
 54 H       10.6850     4.4140     1.7700 H     1 <1>   0.0800 
 55 H        9.1380     5.1740     1.4780 H     1 <1>   0.0800 
 56 H       10.6120     5.9750     0.9840 H     1 <1>   0.0800 
@<TRIPOS>BOND
  1   1   2  2   
  2   2   3  am  
  3   2   4  1   
  4   3   5  1   
  5   3   6  1   
  6   4   7  1   
  7   4  29  1   
  8   4  30  1   
  9   5   8  1   
 10   5  31  1   
 11   5  32  1   
 12   6  33  1   
 13   6  34  1   
 14   6  35  1   
 15   7   8  1   
 16   7   9  1   
 17   7  36  1   
 18   8  10  1   
 19   8  37  1   
 20   9  11  1   
 21   9  38  1   
 22   9  39  1   
 23  10  11  1   
 24  10  40  1   
 25  10  41  1   
 26  11  12  1   
 27  11  42  1   
 28  12  13  am  
 29  12  14  1   
 30  13  15  2   
 31  13  16  1   
 32  14  43  1   
 33  14  44  1   
 34  14  45  1   
 35  16  17  2   
 36  16  18  1   
 37  17  19  1   
 38  18  20  2   
 39  18  46  1   
 40  19  20  1   
 41  19  47  1   
 42  20  21  1   
 43  21  22  ar  
 44  21  23  ar  
 45  22  24  ar  
 46  22  48  1   
 47  23  25  ar  
 48  23  49  1   
 49  24  26  ar  
 50  24  50  1   
 51  25  26  ar  
 52  25  51  1   
 53  26  27  1   
 54  27  28  1   
 55  27  52  1   
 56  27  53  1   
 57  28  54  1   
 58  28  55  1   
 59  28  56  1   
@<TRIPOS>SUBSTRUCTURE
  1 ****  19 GROUP 4 **** **** 0

# MOE 2024.06 (io_trps.svl 2023.06)
