@<TRIPOS>MOLECULE
NONAME
44 46 1 0 0 
SMALL
USER_CHARGES


@<TRIPOS>ATOM
  1 F       -0.7960    -0.2590     1.5040 F     1 <1>  -0.1900 
  2 C       -1.5100     0.6700     0.9270 C.ar  1 <1>   0.1900 
  3 C       -1.3270     1.9830     1.3070 C.ar  1 <1>  -0.1500 
  4 C       -2.4180     0.2970    -0.0470 C.ar  1 <1>  -0.1500 
  5 C       -2.0750     2.9920     0.7000 C.ar  1 <1>   0.0860 
  6 C       -3.1720     1.2860    -0.6520 C.ar  1 <1>  -0.1500 
  7 C       -3.0100     2.6140    -0.2760 C.ar  1 <1>   0.0830 
  8 C       -1.8590     4.3710     1.0780 C.2   1 <1>   0.5440 
  9 O       -3.7710     3.5330    -0.9020 O.3   1 <1>  -0.3630 
 10 O       -2.0810     4.7030     2.2280 O.2   1 <1>  -0.5700 
 11 N       -1.3740     5.3270     0.1990 N.am  1 <1>  -0.6600 
 12 C       -4.8720     4.0460    -0.1820 C.3   1 <1>   0.0400 
 13 C       -1.1380     6.7230     0.6910 C.3   1 <1>   0.1400 
 14 C       -0.8080     4.9490    -1.1350 C.3   1 <1>   0.1400 
 15 C        0.3480     7.0230     1.0250 C.3   1 <1>   0.4230 
 16 C        0.6630     5.3670    -1.3500 C.3   1 <1>  -0.0800 
 17 N        1.1300     7.5490    -0.1540 N.4   1 <1>  -0.9590 
 18 C        1.1140     5.8470     1.6910 C.3   1 <1>   0.1200 
 19 C        1.6890     4.7140    -0.3960 C.3   1 <1>   0.1200 
 20 C        0.8040     6.8870    -1.4520 C.3   1 <1>   0.3430 
 21 C        1.0060     9.0350    -0.2770 C.3   1 <1>   0.2630 
 22 O        1.2490     4.6740     0.9250 O.3   1 <1>  -0.5600 
 23 H       -0.6080     2.2310     2.0670 H     1 <1>   0.1500 
 24 H       -2.5270    -0.7380    -0.3170 H     1 <1>   0.1500 
 25 H       -3.8880     1.0360    -1.4140 H     1 <1>   0.1500 
 26 H       -5.4120     4.7180    -0.8250 H     1 <1>   0.0800 
 27 H       -4.5190     4.5740     0.6860 H     1 <1>   0.0800 
 28 H       -5.5070     3.2290     0.1120 H     1 <1>   0.0800 
 29 H       -1.5120     7.4250    -0.0310 H     1 <1>   0.0800 
 30 H       -1.7110     6.8870     1.5860 H     1 <1>   0.0800 
 31 H       -0.8620     3.8830    -1.2710 H     1 <1>   0.0800 
 32 H       -1.4270     5.3870    -1.8990 H     1 <1>   0.0800 
 33 H        0.3270     7.8080     1.7620 H     1 <1>   0.0800 
 34 H        0.9110     5.0060    -2.3320 H     1 <1>   0.0800 
 35 H        2.1120     7.3230     0.0540 H     1 <1>   0.4500 
 36 H        0.5870     5.5600     2.5860 H     1 <1>   0.0800 
 37 H        2.0990     6.1640     1.9840 H     1 <1>   0.0800 
 38 H        2.6490     5.1990    -0.4320 H     1 <1>   0.0800 
 39 H        1.8300     3.6870    -0.6900 H     1 <1>   0.0800 
 40 H       -0.1140     7.2910    -1.8470 H     1 <1>   0.0800 
 41 H        1.5870     7.1130    -2.1590 H     1 <1>   0.0800 
 42 H       -0.0150     9.3110    -0.4880 H     1 <1>   0.0800 
 43 H        1.6330     9.3980    -1.0760 H     1 <1>   0.0800 
 44 H        1.3110     9.5150     0.6400 H     1 <1>   0.0800 
@<TRIPOS>BOND
  1   1   2  1   
  2   2   3  ar  
  3   2   4  ar  
  4   3   5  ar  
  5   3  23  1   
  6   4   6  ar  
  7   4  24  1   
  8   5   7  ar  
  9   5   8  1   
 10   6   7  ar  
 11   6  25  1   
 12   7   9  1   
 13   8  10  2   
 14   8  11  am  
 15   9  12  1   
 16  11  13  1   
 17  11  14  1   
 18  12  26  1   
 19  12  27  1   
 20  12  28  1   
 21  13  15  1   
 22  13  29  1   
 23  13  30  1   
 24  14  16  1   
 25  14  31  1   
 26  14  32  1   
 27  15  17  1   
 28  15  18  1   
 29  15  33  1   
 30  16  19  1   
 31  16  20  1   
 32  16  34  1   
 33  17  20  1   
 34  17  21  1   
 35  17  35  1   
 36  18  22  1   
 37  18  36  1   
 38  18  37  1   
 39  19  22  1   
 40  19  38  1   
 41  19  39  1   
 42  20  40  1   
 43  20  41  1   
 44  21  42  1   
 45  21  43  1   
 46  21  44  1   
@<TRIPOS>SUBSTRUCTURE
  1 ****  11 GROUP 4 **** **** 0

# MOE 2024.06 (io_trps.svl 2023.06)
