@<TRIPOS>MOLECULE
NONAME
53 55 1 0 0 
SMALL
USER_CHARGES


@<TRIPOS>ATOM
  1 O        0.7800     0.0730     0.3710 O.3   1 <1>  -0.6800 
  2 C        1.3420    -0.1520    -0.8830 C.3   1 <1>   0.2000 
  3 C        2.1390    -1.4600    -0.8670 C.3   1 <1>  -0.0800 
  4 C        2.4390     0.8910    -1.0900 C.3   1 <1>   0.3430 
  5 C        3.5070    -1.0800    -0.2810 C.3   1 <1>   0.3430 
  6 C        1.4870    -2.6560    -0.1460 C.3   1 <1>  -0.0160 
  7 N        3.5480     0.4110    -0.2150 N.4   1 <1>  -0.9590 
  8 C        2.4400    -3.8410    -0.1340 C.ar  1 <1>  -0.1430 
  9 C        4.8890     0.9910    -0.4910 C.3   1 <1>   0.3430 
 10 C        3.0960    -4.2390     1.0140 C.ar  1 <1>  -0.1500 
 11 C        2.7030    -4.5760    -1.2730 C.ar  1 <1>  -0.1500 
 12 C        4.9060     2.4800    -0.1380 C.3   1 <1>  -0.1600 
 13 C        3.9740    -5.3090     0.9640 C.ar  1 <1>   0.1600 
 14 C        3.6000    -5.6300    -1.2160 C.ar  1 <1>   0.1600 
 15 C        6.2840     3.1290    -0.3820 C.3   1 <1>  -0.0800 
 16 N        4.2480    -6.0040    -0.1260 N.ar  1 <1>  -0.6200 
 17 C        7.3450     2.5760     0.5970 C.3   1 <1>  -0.1600 
 18 C        6.1220     4.6600    -0.2970 C.3   1 <1>  -0.1600 
 19 C        8.7820     2.9100     0.1700 C.3   1 <1>  -0.1600 
 20 C        7.4050     5.4800    -0.5070 C.3   1 <1>  -0.1600 
 21 C        9.3220     4.2430     0.7070 C.3   1 <1>  -0.1600 
 22 C        8.3430     5.4250     0.7060 C.3   1 <1>  -0.1600 
 23 H       -0.0770    -0.3940     0.4670 H     1 <1>   0.4000 
 24 H        0.5710    -0.1090    -1.6340 H     1 <1>   0.0800 
 25 H        2.3110    -1.7480    -1.8900 H     1 <1>   0.0800 
 26 H        2.0990     1.8750    -0.8130 H     1 <1>   0.0800 
 27 H        2.7530     0.8900    -2.1200 H     1 <1>   0.0800 
 28 H        4.2930    -1.4640    -0.9130 H     1 <1>   0.0800 
 29 H        3.6230    -1.4950     0.7070 H     1 <1>   0.0800 
 30 H        0.5770    -2.9370    -0.6470 H     1 <1>   0.0800 
 31 H        1.2360    -2.4000     0.8690 H     1 <1>   0.0800 
 32 H        3.2540     0.6640     0.7420 H     1 <1>   0.4500 
 33 H        5.6250     0.4760     0.1030 H     1 <1>   0.0800 
 34 H        5.1430     0.8590    -1.5310 H     1 <1>   0.0800 
 35 H        2.9350    -3.7380     1.9510 H     1 <1>   0.1500 
 36 H        2.2210    -4.3480    -2.2070 H     1 <1>   0.1500 
 37 H        4.1800     2.9890    -0.7460 H     1 <1>   0.0800 
 38 H        4.6370     2.6130     0.8950 H     1 <1>   0.0800 
 39 H        4.4770    -5.6110     1.8680 H     1 <1>   0.1500 
 40 H        3.7950    -6.1950    -2.1120 H     1 <1>   0.1500 
 41 H        6.5900     2.8920    -1.3890 H     1 <1>   0.0800 
 42 H        7.1610     2.9320     1.5970 H     1 <1>   0.0800 
 43 H        7.2820     1.5050     0.6300 H     1 <1>   0.0800 
 44 H        5.4220     4.9680    -1.0540 H     1 <1>   0.0800 
 45 H        5.6910     4.9260     0.6530 H     1 <1>   0.0800 
 46 H        9.4380     2.1320     0.5230 H     1 <1>   0.0800 
 47 H        8.8530     2.9040    -0.9040 H     1 <1>   0.0800 
 48 H        7.9180     5.1750    -1.4030 H     1 <1>   0.0800 
 49 H        7.1130     6.5070    -0.6450 H     1 <1>   0.0800 
 50 H        9.6660     4.0980     1.7170 H     1 <1>   0.0800 
 51 H       10.1850     4.5090     0.1200 H     1 <1>   0.0800 
 52 H        8.9250     6.3310     0.7330 H     1 <1>   0.0800 
 53 H        7.7600     5.4080     1.6110 H     1 <1>   0.0800 
@<TRIPOS>BOND
  1   1   2  1   
  2   1  23  1   
  3   2   3  1   
  4   2   4  1   
  5   2  24  1   
  6   3   5  1   
  7   3   6  1   
  8   3  25  1   
  9   4   7  1   
 10   4  26  1   
 11   4  27  1   
 12   5   7  1   
 13   5  28  1   
 14   5  29  1   
 15   6   8  1   
 16   6  30  1   
 17   6  31  1   
 18   7   9  1   
 19   7  32  1   
 20   8  10  ar  
 21   8  11  ar  
 22   9  12  1   
 23   9  33  1   
 24   9  34  1   
 25  10  13  ar  
 26  10  35  1   
 27  11  14  ar  
 28  11  36  1   
 29  12  15  1   
 30  12  37  1   
 31  12  38  1   
 32  13  16  ar  
 33  13  39  1   
 34  14  16  ar  
 35  14  40  1   
 36  15  17  1   
 37  15  18  1   
 38  15  41  1   
 39  17  19  1   
 40  17  42  1   
 41  17  43  1   
 42  18  20  1   
 43  18  44  1   
 44  18  45  1   
 45  19  21  1   
 46  19  46  1   
 47  19  47  1   
 48  20  22  1   
 49  20  48  1   
 50  20  49  1   
 51  21  22  1   
 52  21  50  1   
 53  21  51  1   
 54  22  52  1   
 55  22  53  1   
@<TRIPOS>SUBSTRUCTURE
  1 ****   7 GROUP 4 **** **** 0

# MOE 2024.06 (io_trps.svl 2023.06)
