@<TRIPOS>MOLECULE
NONAME
42 44 1 0 0 
SMALL
USER_CHARGES


@<TRIPOS>ATOM
  1 O        0.1310    -0.3510    -0.7230 O.3   1 <1>  -0.6800 
  2 C        1.5170    -0.2640    -0.7840 C.3   1 <1>   0.2000 
  3 C        2.1610    -1.4290    -0.0410 C.3   1 <1>  -0.0800 
  4 C        2.0290     0.9790    -0.0680 C.3   1 <1>   0.2090 
  5 C        3.4800    -0.8660     0.4990 C.3   1 <1>   0.2090 
  6 C        2.3620    -2.6650    -0.9310 C.3   1 <1>   0.0210 
  7 N        3.3900     0.6160     0.4060 N.pl3 1 <1>  -0.8380 
  8 C        3.0420    -3.7830    -0.1680 C.2   1 <1>   0.1080 
  9 C        4.4470     1.2720    -0.1830 C.ar  1 <1>   0.4100 
 10 N        2.4520    -4.4430     0.7790 N.2   1 <1>  -0.7070 
 11 C        4.3460    -4.2170    -0.3790 C.2   1 <1>  -0.1500 
 12 N        4.6240     1.0550    -1.4720 N.ar  1 <1>  -0.6200 
 13 C        5.2780     2.1210     0.5400 C.ar  1 <1>  -0.1430 
 14 N        3.3740    -5.3290     1.2010 N.pl3 1 <1>   0.3000 
 15 C        4.5310    -5.2100     0.5150 C.2   1 <1>  -0.3320 
 16 C        5.6320     1.7040    -2.0160 C.ar  1 <1>   0.4700 
 17 C        6.2890     2.7460    -0.1560 C.ar  1 <1>   0.1670 
 18 C        5.0360     2.3240     2.0370 C.3   1 <1>  -0.0970 
 19 C        5.7600    -6.0660     0.7610 C.3   1 <1>  -0.0600 
 20 N        6.4780     2.5390    -1.4440 N.ar  1 <1>  -0.6200 
 21 C        7.2580     3.7180     0.4920 C.3   1 <1>  -0.0970 
 22 H       -0.1690    -1.2210    -1.0450 H     1 <1>   0.4000 
 23 H        1.8240    -0.2330    -1.8160 H     1 <1>   0.0800 
 24 H        1.5550    -1.6920     0.8090 H     1 <1>   0.0800 
 25 H        1.4110     1.2040     0.7830 H     1 <1>   0.0800 
 26 H        2.0600     1.8230    -0.7360 H     1 <1>   0.0800 
 27 H        4.3160    -1.2170    -0.0840 H     1 <1>   0.0800 
 28 H        3.6260    -1.1650     1.5230 H     1 <1>   0.0800 
 29 H        2.9550    -2.4080    -1.7900 H     1 <1>   0.0800 
 30 H        1.4090    -3.0220    -1.2770 H     1 <1>   0.0800 
 31 H        5.0360    -3.8260    -1.1060 H     1 <1>   0.1500 
 32 H        3.1830    -5.9980     1.9560 H     1 <1>   0.2700 
 33 H        5.7850     1.5320    -3.0670 H     1 <1>   0.1500 
 34 H        5.8930     2.7320     2.5380 H     1 <1>   0.0800 
 35 H        4.8070     1.3820     2.5040 H     1 <1>   0.0800 
 36 H        4.1990     2.9830     2.1790 H     1 <1>   0.0800 
 37 H        6.5520    -5.7740     0.0940 H     1 <1>   0.0800 
 38 H        5.5320    -7.1030     0.5890 H     1 <1>   0.0800 
 39 H        6.1030    -5.9440     1.7730 H     1 <1>   0.0800 
 40 H        6.7280     4.4210     1.1070 H     1 <1>   0.0800 
 41 H        7.7940     4.2690    -0.2600 H     1 <1>   0.0800 
 42 H        7.9660     3.1770     1.0910 H     1 <1>   0.0800 
@<TRIPOS>BOND
  1   1   2  1   
  2   1  22  1   
  3   2   3  1   
  4   2   4  1   
  5   2  23  1   
  6   3   5  1   
  7   3   6  1   
  8   3  24  1   
  9   4   7  1   
 10   4  25  1   
 11   4  26  1   
 12   5   7  1   
 13   5  27  1   
 14   5  28  1   
 15   6   8  1   
 16   6  29  1   
 17   6  30  1   
 18   7   9  1   
 19   8  10  2   
 20   8  11  1   
 21   9  12  ar  
 22   9  13  ar  
 23  10  14  1   
 24  11  15  2   
 25  11  31  1   
 26  12  16  ar  
 27  13  17  ar  
 28  13  18  1   
 29  14  15  1   
 30  14  32  1   
 31  15  19  1   
 32  16  20  ar  
 33  16  33  1   
 34  17  20  ar  
 35  17  21  1   
 36  18  34  1   
 37  18  35  1   
 38  18  36  1   
 39  19  37  1   
 40  19  38  1   
 41  19  39  1   
 42  21  40  1   
 43  21  41  1   
 44  21  42  1   
@<TRIPOS>SUBSTRUCTURE
  1 ****   5 GROUP 4 **** **** 0

# MOE 2024.06 (io_trps.svl 2023.06)
