@<TRIPOS>MOLECULE
NONAME
46 49 1 0 0 
SMALL
USER_CHARGES


@<TRIPOS>ATOM
  1 S       -1.3750     1.8170    -1.7310 S.3   1 <1>  -0.0800 
  2 C       -0.4680     3.0540    -0.8880 C.2   1 <1>  -0.1400 
  3 C        0.1170     1.0090    -2.1900 C.2   1 <1>  -0.1100 
  4 C        0.8520     2.8410    -0.9560 C.2   1 <1>  -0.1810 
  5 C       -1.1350     4.2050    -0.1870 C.3   1 <1>   0.0200 
  6 C        1.1910     1.6670    -1.7100 C.2   1 <1>  -0.1500 
  7 C        1.8340     3.7870    -0.2680 C.3   1 <1>   0.4610 
  8 C       -0.0640     5.2870     0.0210 C.3   1 <1>   0.1200 
  9 O        1.1370     4.7370     0.5250 O.3   1 <1>  -0.5600 
 10 C        2.7290     3.0140     0.7030 C.3   1 <1>  -0.1600 
 11 C        2.7170     4.5380    -1.2770 C.3   1 <1>  -0.1600 
 12 C        3.6860     3.9230     1.4800 C.3   1 <1>   0.3430 
 13 C        3.9680     5.1690    -0.6530 C.3   1 <1>   0.3430 
 14 N        3.8230     5.2560     0.8270 N.4   1 <1>  -0.9590 
 15 C        4.8650     6.1220     1.4630 C.3   1 <1>   0.5240 
 16 C        4.6880     7.5800     1.0550 C.2   1 <1>   0.1080 
 17 N        4.9960     8.0400    -0.1220 N.2   1 <1>  -0.7070 
 18 C        4.1820     8.5750     1.8850 C.2   1 <1>  -0.1500 
 19 N        4.7050     9.3560    -0.0720 N.pl3 1 <1>   0.3140 
 20 C        4.2080     9.6940     1.1330 C.2   1 <1>  -0.3020 
 21 C        4.9340    10.2650    -1.2160 C.3   1 <1>   0.0960 
 22 C        6.2780    10.9910    -1.0840 C.3   1 <1>  -0.2400 
 23 H        0.0270     0.1130    -2.7790 H     1 <1>   0.1500 
 24 H       -1.5340     3.8810     0.7570 H     1 <1>   0.0800 
 25 H       -1.9380     4.5950    -0.7870 H     1 <1>   0.0800 
 26 H        2.2100     1.3620    -1.8630 H     1 <1>   0.1500 
 27 H       -0.4160     6.0210     0.7250 H     1 <1>   0.0800 
 28 H        0.1470     5.7800    -0.9110 H     1 <1>   0.0800 
 29 H        3.3090     2.2940     0.1540 H     1 <1>   0.0800 
 30 H        2.1170     2.4590     1.3910 H     1 <1>   0.0800 
 31 H        2.1430     5.2910    -1.7840 H     1 <1>   0.0800 
 32 H        3.0470     3.8520    -2.0350 H     1 <1>   0.0800 
 33 H        4.6490     3.4440     1.5570 H     1 <1>   0.0800 
 34 H        3.2980     4.0610     2.4770 H     1 <1>   0.0800 
 35 H        4.1100     6.1490    -1.0800 H     1 <1>   0.0800 
 36 H        4.8330     4.5740    -0.8940 H     1 <1>   0.0800 
 37 H        2.9110     5.7270     0.9670 H     1 <1>   0.4500 
 38 H        5.8470     5.7940     1.1680 H     1 <1>   0.0800 
 39 H        4.7900     6.0550     2.5350 H     1 <1>   0.0800 
 40 H        3.8500     8.4700     2.9040 H     1 <1>   0.1500 
 41 H        3.9100    10.6960     1.3840 H     1 <1>   0.1500 
 42 H        4.1290    10.9760    -1.2560 H     1 <1>   0.0800 
 43 H        4.9200     9.6810    -2.1190 H     1 <1>   0.0800 
 44 H        6.2960    11.5900    -0.1910 H     1 <1>   0.0800 
 45 H        6.4280    11.6360    -1.9310 H     1 <1>   0.0800 
 46 H        7.0830    10.2780    -1.0510 H     1 <1>   0.0800 
@<TRIPOS>BOND
  1   1   2  1   
  2   1   3  1   
  3   2   4  2   
  4   2   5  1   
  5   3   6  2   
  6   3  23  1   
  7   4   6  1   
  8   4   7  1   
  9   5   8  1   
 10   5  24  1   
 11   5  25  1   
 12   6  26  1   
 13   7   9  1   
 14   7  10  1   
 15   7  11  1   
 16   8   9  1   
 17   8  27  1   
 18   8  28  1   
 19  10  12  1   
 20  10  29  1   
 21  10  30  1   
 22  11  13  1   
 23  11  31  1   
 24  11  32  1   
 25  12  14  1   
 26  12  33  1   
 27  12  34  1   
 28  13  14  1   
 29  13  35  1   
 30  13  36  1   
 31  14  15  1   
 32  14  37  1   
 33  15  16  1   
 34  15  38  1   
 35  15  39  1   
 36  16  17  2   
 37  16  18  1   
 38  17  19  1   
 39  18  20  2   
 40  18  40  1   
 41  19  20  1   
 42  19  21  1   
 43  20  41  1   
 44  21  22  1   
 45  21  42  1   
 46  21  43  1   
 47  22  44  1   
 48  22  45  1   
 49  22  46  1   
@<TRIPOS>SUBSTRUCTURE
  1 ****  13 GROUP 4 **** **** 0

# MOE 2024.06 (io_trps.svl 2023.06)
