@<TRIPOS>MOLECULE
NONAME
49 51 1 0 0 
SMALL
USER_CHARGES


@<TRIPOS>ATOM
  1 F        1.9430    -0.0120    -1.7180 F     1 <1>  -0.1900 
  2 C        2.5150    -0.4030    -0.6100 C.ar  1 <1>   0.1900 
  3 C        2.9400     0.5300     0.3360 C.ar  1 <1>  -0.1440 
  4 C        2.6860    -1.7670    -0.4590 C.ar  1 <1>  -0.1500 
  5 C        3.6020     0.0160     1.4510 C.ar  1 <1>  -0.1500 
  6 C        2.7430     2.0550     0.1500 C.3   1 <1>   0.1440 
  7 C        3.3230    -2.2440     0.6700 C.ar  1 <1>  -0.1500 
  8 C        3.7840    -1.3480     1.6190 C.ar  1 <1>  -0.1500 
  9 C        2.8010     2.8300     1.4850 C.3   1 <1>  -0.1600 
 10 C        1.3280     2.4140    -0.3540 C.3   1 <1>  -0.1600 
 11 C        3.8530     2.5110    -0.8370 C.3   1 <1>   0.2090 
 12 C        1.9350     4.0830     1.3400 C.3   1 <1>  -0.1600 
 13 C        0.9440     3.7850     0.2160 C.3   1 <1>  -0.1600 
 14 N        3.8460     3.9690    -1.1600 N.pl3 1 <1>  -0.8690 
 15 C        4.7750     4.8740    -0.7160 C.ar  1 <1>   0.4100 
 16 N        5.8300     4.4160    -0.0540 N.ar  1 <1>  -0.6200 
 17 C        4.5740     6.2290    -0.9620 C.ar  1 <1>  -0.1500 
 18 C        6.6970     5.3210     0.3650 C.ar  1 <1>   0.1600 
 19 C        5.4880     7.1560    -0.5230 C.ar  1 <1>  -0.1500 
 20 C        6.6090     6.6950     0.1610 C.ar  1 <1>   0.0860 
 21 C        7.6430     7.5730     0.6560 C.2   1 <1>   0.5440 
 22 O        8.0710     7.4050     1.7830 O.2   1 <1>  -0.5700 
 23 N        8.1760     8.5930    -0.1120 N.am  1 <1>  -0.6600 
 24 C        9.0430     9.6440     0.4910 C.3   1 <1>   0.0600 
 25 C        8.1190     8.6210    -1.6000 C.3   1 <1>   0.0600 
 26 H        2.3280    -2.4390    -1.2170 H     1 <1>   0.1500 
 27 H        3.9980     0.6660     2.2100 H     1 <1>   0.1500 
 28 H        3.4650    -3.3020     0.8080 H     1 <1>   0.1500 
 29 H        4.2920    -1.7140     2.4950 H     1 <1>   0.1500 
 30 H        3.8100     3.0790     1.7650 H     1 <1>   0.0800 
 31 H        2.3580     2.2330     2.2630 H     1 <1>   0.0800 
 32 H        0.6310     1.6880     0.0270 H     1 <1>   0.0800 
 33 H        1.2660     2.4120    -1.4280 H     1 <1>   0.0800 
 34 H        3.7380     1.9700    -1.7600 H     1 <1>   0.0800 
 35 H        4.8080     2.2260    -0.4320 H     1 <1>   0.0800 
 36 H        2.5510     4.9240     1.0760 H     1 <1>   0.0800 
 37 H        1.4280     4.3100     2.2630 H     1 <1>   0.0800 
 38 H       -0.0650     3.7630     0.5920 H     1 <1>   0.0800 
 39 H        1.0100     4.5440    -0.5430 H     1 <1>   0.0800 
 40 H        2.9150     4.3270    -1.3710 H     1 <1>   0.4000 
 41 H        3.6960     6.5350    -1.4980 H     1 <1>   0.1500 
 42 H        7.5500     4.9570     0.9120 H     1 <1>   0.1500 
 43 H        5.3500     8.2080    -0.6940 H     1 <1>   0.1500 
 44 H        8.8890     9.6950     1.5560 H     1 <1>   0.0800 
 45 H        8.8070    10.6030     0.0670 H     1 <1>   0.0800 
 46 H       10.0760     9.4120     0.3020 H     1 <1>   0.0800 
 47 H        7.7750     7.6790    -1.9900 H     1 <1>   0.0800 
 48 H        9.1000     8.8110    -1.9980 H     1 <1>   0.0800 
 49 H        7.4520     9.4020    -1.9230 H     1 <1>   0.0800 
@<TRIPOS>BOND
  1   1   2  1   
  2   2   3  ar  
  3   2   4  ar  
  4   3   5  ar  
  5   3   6  1   
  6   4   7  ar  
  7   4  26  1   
  8   5   8  ar  
  9   5  27  1   
 10   6   9  1   
 11   6  10  1   
 12   6  11  1   
 13   7   8  ar  
 14   7  28  1   
 15   8  29  1   
 16   9  12  1   
 17   9  30  1   
 18   9  31  1   
 19  10  13  1   
 20  10  32  1   
 21  10  33  1   
 22  11  14  1   
 23  11  34  1   
 24  11  35  1   
 25  12  13  1   
 26  12  36  1   
 27  12  37  1   
 28  13  38  1   
 29  13  39  1   
 30  14  15  1   
 31  14  40  1   
 32  15  16  ar  
 33  15  17  ar  
 34  16  18  ar  
 35  17  19  ar  
 36  17  41  1   
 37  18  20  ar  
 38  18  42  1   
 39  19  20  ar  
 40  19  43  1   
 41  20  21  1   
 42  21  22  2   
 43  21  23  am  
 44  23  24  1   
 45  23  25  1   
 46  24  44  1   
 47  24  45  1   
 48  24  46  1   
 49  25  47  1   
 50  25  48  1   
 51  25  49  1   
@<TRIPOS>SUBSTRUCTURE
  1 ****  15 GROUP 4 **** **** 0

# MOE 2024.06 (io_trps.svl 2023.06)
