@<TRIPOS>MOLECULE
NONAME
44 47 1 0 0 
SMALL
USER_CHARGES


@<TRIPOS>ATOM
  1 O       -0.6820     0.3310     1.5820 O.2   1 <1>  -0.5700 
  2 C       -1.6020     0.9430     1.0740 C.2   1 <1>   0.5440 
  3 N       -2.7050     0.2360     0.6510 N.am  1 <1>  -0.6600 
  4 C       -1.5070     2.3800     0.9070 C.ar  1 <1>   0.0860 
  5 C       -3.6850     0.7260    -0.3550 C.3   1 <1>   0.1400 
  6 C       -2.7940    -1.2430     0.7700 C.3   1 <1>   0.1400 
  7 C       -0.3890     2.9470     0.2870 C.ar  1 <1>  -0.1500 
  8 C       -2.5170     3.2400     1.3600 C.ar  1 <1>  -0.1500 
  9 C       -4.6470    -0.4440    -0.5570 C.3   1 <1>   0.2000 
 10 C       -3.7690    -1.6790    -0.3300 C.3   1 <1>  -0.0800 
 11 C       -0.3120     4.3140     0.1160 C.ar  1 <1>  -0.1440 
 12 C       -2.4370     4.6120     1.1850 C.ar  1 <1>  -0.1500 
 13 O       -5.6170    -0.3780     0.4320 O.3   1 <1>  -0.6800 
 14 C       -4.5380    -2.9740    -0.0070 C.3   1 <1>   0.0200 
 15 C       -1.3210     5.1290     0.5540 C.ar  1 <1>   0.0830 
 16 C        0.7530     5.1670    -0.5070 C.3   1 <1>  -0.0170 
 17 C       -3.6410    -4.1980     0.0720 C.2   1 <1>  -0.0400 
 18 O       -1.0920     6.4240     0.3100 O.3   1 <1>  -0.3630 
 19 C        0.1660     6.5810    -0.3330 C.3   1 <1>   0.1200 
 20 O       -4.1620    -5.3310     0.4620 O.3   1 <1>  -0.0190 
 21 C       -2.3410    -4.4160    -0.1850 C.2   1 <1>  -0.1500 
 22 N       -3.2830    -6.2910     0.4840 N.2   1 <1>  -0.4100 
 23 C       -2.1760    -5.7680     0.0990 C.2   1 <1>   0.1080 
 24 C       -0.8740    -6.5280    -0.0250 C.3   1 <1>  -0.0590 
 25 H       -4.2050     1.6070    -0.0230 H     1 <1>   0.0800 
 26 H       -3.1660     0.9380    -1.2740 H     1 <1>   0.0800 
 27 H       -1.8260    -1.6980     0.6450 H     1 <1>   0.0800 
 28 H       -3.1750    -1.4910     1.7470 H     1 <1>   0.0800 
 29 H        0.4080     2.3070    -0.0500 H     1 <1>   0.1500 
 30 H       -3.3710     2.8210     1.8610 H     1 <1>   0.1500 
 31 H       -5.1340    -0.4330    -1.5170 H     1 <1>   0.0800 
 32 H       -3.1980    -1.8380    -1.2280 H     1 <1>   0.0800 
 33 H       -3.2100     5.2740     1.5290 H     1 <1>   0.1500 
 34 H       -5.1780    -0.2400     1.2950 H     1 <1>   0.4000 
 35 H       -5.2800    -3.1460    -0.7660 H     1 <1>   0.0800 
 36 H       -5.0540    -2.8720     0.9320 H     1 <1>   0.0800 
 37 H        0.8860     4.9310    -1.5470 H     1 <1>   0.0800 
 38 H        1.6870     5.0710     0.0150 H     1 <1>   0.0800 
 39 H        0.0020     7.0630    -1.2800 H     1 <1>   0.0800 
 40 H        0.7880     7.1930     0.2960 H     1 <1>   0.0800 
 41 H       -1.5740    -3.7470    -0.5290 H     1 <1>   0.1500 
 42 H       -0.5270    -6.4950    -1.0410 H     1 <1>   0.0800 
 43 H       -1.0200    -7.5540     0.2600 H     1 <1>   0.0800 
 44 H       -0.1330    -6.0900     0.6180 H     1 <1>   0.0800 
@<TRIPOS>BOND
  1   1   2  2   
  2   2   3  am  
  3   2   4  1   
  4   3   5  1   
  5   3   6  1   
  6   4   7  ar  
  7   4   8  ar  
  8   5   9  1   
  9   5  25  1   
 10   5  26  1   
 11   6  10  1   
 12   6  27  1   
 13   6  28  1   
 14   7  11  ar  
 15   7  29  1   
 16   8  12  ar  
 17   8  30  1   
 18   9  10  1   
 19   9  13  1   
 20   9  31  1   
 21  10  14  1   
 22  10  32  1   
 23  11  15  ar  
 24  11  16  1   
 25  12  15  ar  
 26  12  33  1   
 27  13  34  1   
 28  14  17  1   
 29  14  35  1   
 30  14  36  1   
 31  15  18  1   
 32  16  19  1   
 33  16  37  1   
 34  16  38  1   
 35  17  20  1   
 36  17  21  2   
 37  18  19  1   
 38  19  39  1   
 39  19  40  1   
 40  20  22  1   
 41  21  23  1   
 42  21  41  1   
 43  22  23  2   
 44  23  24  1   
 45  24  42  1   
 46  24  43  1   
 47  24  44  1   
@<TRIPOS>SUBSTRUCTURE
  1 ****   3 GROUP 4 **** **** 0

# MOE 2024.06 (io_trps.svl 2023.06)
