@<TRIPOS>MOLECULE
NONAME
54 57 1 0 0 
SMALL
USER_CHARGES


@<TRIPOS>ATOM
  1 O       -1.0120     0.9990     1.8410 O.2   1 <1>  -0.5700 
  2 C       -0.8330     2.0460     1.2460 C.2   1 <1>   0.5440 
  3 N        0.4090     2.2890     0.7010 N.am  1 <1>  -0.6600 
  4 C       -1.9220     2.9850     1.1160 C.ar  1 <1>   0.0860 
  5 C        0.6790     3.2420    -0.4000 C.3   1 <1>   0.1400 
  6 C        1.5320     1.3360     0.8570 C.3   1 <1>   0.1400 
  7 C       -3.1970     2.5410     0.7830 C.ar  1 <1>   0.1600 
  8 C       -1.7730     4.3530     1.3200 C.ar  1 <1>  -0.1500 
  9 C        1.8810     2.6580    -1.1320 C.3   1 <1>  -0.1600 
 10 C        2.6260     1.8590    -0.0660 C.3   1 <1>  -0.1600 
 11 N       -4.2650     3.2990     0.6090 N.ar  1 <1>  -0.6200 
 12 C       -2.8740     5.1570     1.1510 C.ar  1 <1>  -0.1500 
 13 C       -4.1040     4.6080     0.7830 C.ar  1 <1>   0.4100 
 14 N       -5.2100     5.4120     0.5920 N.pl3 1 <1>  -0.8380 
 15 C       -6.5930     4.9390     0.9280 C.3   1 <1>   0.2090 
 16 C       -5.1440     6.7720    -0.0030 C.3   1 <1>   0.2090 
 17 C       -7.5280     4.9910    -0.3070 C.3   1 <1>   0.0000 
 18 C       -6.0570     6.8540    -1.2310 C.3   1 <1>  -0.1600 
 19 C       -8.9600     4.5650     0.0610 C.3   1 <1>   0.2000 
 20 C       -7.4960     6.4090    -0.9180 C.3   1 <1>  -0.1600 
 21 C       -7.1380     3.9080    -1.3280 C.3   1 <1>  -0.1600 
 22 O       -9.3490     5.0810     1.2990 O.3   1 <1>  -0.5600 
 23 C       -8.9500     3.0330     0.0720 C.3   1 <1>  -0.1600 
 24 C       -7.7700     2.6110    -0.8140 C.3   1 <1>  -0.1600 
 25 C      -10.7140     5.0050     1.5650 C.3   1 <1>   0.0400 
 26 H       -0.1720     3.3380    -1.0540 H     1 <1>   0.0800 
 27 H        0.9310     4.2010     0.0180 H     1 <1>   0.0800 
 28 H        1.8570     1.2970     1.8830 H     1 <1>   0.0800 
 29 H        1.2080     0.3570     0.5460 H     1 <1>   0.0800 
 30 H       -3.3320     1.4810     0.6500 H     1 <1>   0.1500 
 31 H       -0.8220     4.7600     1.6130 H     1 <1>   0.1500 
 32 H        1.5310     1.9960    -1.9050 H     1 <1>   0.0800 
 33 H        2.4920     3.4240    -1.5750 H     1 <1>   0.0800 
 34 H        3.2740     2.5100     0.4950 H     1 <1>   0.0800 
 35 H        3.2100     1.0590    -0.4850 H     1 <1>   0.0800 
 36 H       -2.8020     6.2130     1.3140 H     1 <1>   0.1500 
 37 H       -6.5640     3.9430     1.3330 H     1 <1>   0.0800 
 38 H       -6.9820     5.5810     1.6980 H     1 <1>   0.0800 
 39 H       -5.4590     7.4900     0.7350 H     1 <1>   0.0800 
 40 H       -4.1370     7.0040    -0.3000 H     1 <1>   0.0800 
 41 H       -6.0660     7.8660    -1.5950 H     1 <1>   0.0800 
 42 H       -5.6430     6.2340    -2.0060 H     1 <1>   0.0800 
 43 H       -9.6370     4.9210    -0.6970 H     1 <1>   0.0800 
 44 H       -8.0880     6.4420    -1.8150 H     1 <1>   0.0800 
 45 H       -7.9290     7.0980    -0.2130 H     1 <1>   0.0800 
 46 H       -7.5600     4.1440    -2.2890 H     1 <1>   0.0800 
 47 H       -6.0720     3.8110    -1.4390 H     1 <1>   0.0800 
 48 H       -8.7930     2.6690     1.0720 H     1 <1>   0.0800 
 49 H       -9.8750     2.6470    -0.3150 H     1 <1>   0.0800 
 50 H       -7.0480     2.0730    -0.2220 H     1 <1>   0.0800 
 51 H       -8.0850     1.9840    -1.6300 H     1 <1>   0.0800 
 52 H      -10.8910     5.4490     2.5280 H     1 <1>   0.0800 
 53 H      -11.0200     3.9740     1.5810 H     1 <1>   0.0800 
 54 H      -11.2540     5.5510     0.8100 H     1 <1>   0.0800 
@<TRIPOS>BOND
  1   1   2  2   
  2   2   3  am  
  3   2   4  1   
  4   3   5  1   
  5   3   6  1   
  6   4   7  ar  
  7   4   8  ar  
  8   5   9  1   
  9   5  26  1   
 10   5  27  1   
 11   6  10  1   
 12   6  28  1   
 13   6  29  1   
 14   7  11  ar  
 15   7  30  1   
 16   8  12  ar  
 17   8  31  1   
 18   9  10  1   
 19   9  32  1   
 20   9  33  1   
 21  10  34  1   
 22  10  35  1   
 23  11  13  ar  
 24  12  13  ar  
 25  12  36  1   
 26  13  14  1   
 27  14  15  1   
 28  14  16  1   
 29  15  17  1   
 30  15  37  1   
 31  15  38  1   
 32  16  18  1   
 33  16  39  1   
 34  16  40  1   
 35  17  19  1   
 36  17  20  1   
 37  17  21  1   
 38  18  20  1   
 39  18  41  1   
 40  18  42  1   
 41  19  22  1   
 42  19  23  1   
 43  19  43  1   
 44  20  44  1   
 45  20  45  1   
 46  21  24  1   
 47  21  46  1   
 48  21  47  1   
 49  22  25  1   
 50  23  24  1   
 51  23  48  1   
 52  23  49  1   
 53  24  50  1   
 54  24  51  1   
 55  25  52  1   
 56  25  53  1   
 57  25  54  1   
@<TRIPOS>SUBSTRUCTURE
  1 ****  11 GROUP 4 **** **** 0

# MOE 2024.06 (io_trps.svl 2023.06)
