@<TRIPOS>MOLECULE
NONAME
48 50 1 0 0 
SMALL
USER_CHARGES


@<TRIPOS>ATOM
  1 O       -0.4640    -0.2390    -0.2170 O.2   1 <1>  -0.5700 
  2 C       -1.3630     0.4250     0.2610 C.2   1 <1>   0.7160 
  3 N       -2.3460    -0.2160     0.9520 N.am  1 <1>  -0.7300 
  4 C       -1.4160     1.8480     0.1030 C.2   1 <1>  -0.0860 
  5 C       -2.4990    -1.6690     1.1480 C.3   1 <1>   0.1400 
  6 C       -2.5610     2.6450     0.2440 C.2   1 <1>   0.3720 
  7 C       -0.4470     2.7510    -0.2150 C.2   1 <1>   0.0870 
  8 C       -3.7280    -2.1400     0.3720 C.3   1 <1>  -0.1600 
  9 N       -2.2940     3.8850     0.0330 N.2   1 <1>  -0.4100 
 10 N       -3.8510     2.1790     0.5460 N.pl3 1 <1>  -0.8210 
 11 O       -1.0200     3.9270    -0.2450 O.3   1 <1>  -0.0190 
 12 C        0.9670     2.6520    -0.4830 C.ar  1 <1>   0.0530 
 13 C       -3.9430    -3.6500     0.5380 C.3   1 <1>  -0.1600 
 14 C       -4.6070     1.6810    -0.6490 C.3   1 <1>   0.2090 
 15 C       -4.6950     3.0910     1.3910 C.3   1 <1>   0.2090 
 16 C        1.7940     1.7640     0.2050 C.ar  1 <1>  -0.1500 
 17 C        1.5640     3.4700    -1.4430 C.ar  1 <1>  -0.1500 
 18 C       -5.1690    -4.1180    -0.2450 C.3   1 <1>   0.1200 
 19 C       -5.3640     2.8120    -1.3690 C.3   1 <1>   0.1200 
 20 C       -5.4840     4.1210     0.5570 C.3   1 <1>   0.1200 
 21 C        3.1490     1.6890    -0.0570 C.ar  1 <1>  -0.1500 
 22 C        2.9200     3.4020    -1.7090 C.ar  1 <1>  -0.1500 
 23 O       -5.3340    -5.4700    -0.0240 O.3   1 <1>  -0.6800 
 24 O       -6.1940     3.4930    -0.4730 O.3   1 <1>  -0.5600 
 25 C        3.7160     2.5090    -1.0160 C.ar  1 <1>  -0.1500 
 26 H       -3.1400     0.3820     1.2240 H     1 <1>   0.3700 
 27 H       -2.6160    -1.8740     2.1980 H     1 <1>   0.0800 
 28 H       -1.6190    -2.1830     0.7960 H     1 <1>   0.0800 
 29 H       -3.5890    -1.9130    -0.6710 H     1 <1>   0.0800 
 30 H       -4.5970    -1.6150     0.7310 H     1 <1>   0.0800 
 31 H       -4.0870    -3.8770     1.5810 H     1 <1>   0.0800 
 32 H       -3.0720    -4.1740     0.1850 H     1 <1>   0.0800 
 33 H       -5.3140     0.9340    -0.3340 H     1 <1>   0.0800 
 34 H       -3.9270     1.2170    -1.3430 H     1 <1>   0.0800 
 35 H       -4.0700     3.6130     2.0950 H     1 <1>   0.0800 
 36 H       -5.3920     2.4970     1.9560 H     1 <1>   0.0800 
 37 H        1.3720     1.1220     0.9560 H     1 <1>   0.1500 
 38 H        0.9560     4.1690    -1.9890 H     1 <1>   0.1500 
 39 H       -5.0470    -3.9570    -1.3030 H     1 <1>   0.0800 
 40 H       -6.0610    -3.6180     0.0950 H     1 <1>   0.0800 
 41 H       -5.9850     2.4070    -2.1480 H     1 <1>   0.0800 
 42 H       -4.6730     3.5130    -1.8050 H     1 <1>   0.0800 
 43 H       -4.8190     4.8480     0.1240 H     1 <1>   0.0800 
 44 H       -6.1940     4.6350     1.1790 H     1 <1>   0.0800 
 45 H        3.7630     0.9900     0.4850 H     1 <1>   0.1500 
 46 H        3.3560     4.0430    -2.4550 H     1 <1>   0.1500 
 47 H       -4.5480    -5.9660    -0.3250 H     1 <1>   0.4000 
 48 H        4.7710     2.4510    -1.2220 H     1 <1>   0.1500 
@<TRIPOS>BOND
  1   1   2  2   
  2   2   3  am  
  3   2   4  1   
  4   3   5  1   
  5   3  26  1   
  6   4   6  1   
  7   4   7  2   
  8   5   8  1   
  9   5  27  1   
 10   5  28  1   
 11   6   9  2   
 12   6  10  1   
 13   7  11  1   
 14   7  12  1   
 15   8  13  1   
 16   8  29  1   
 17   8  30  1   
 18   9  11  1   
 19  10  14  1   
 20  10  15  1   
 21  12  16  ar  
 22  12  17  ar  
 23  13  18  1   
 24  13  31  1   
 25  13  32  1   
 26  14  19  1   
 27  14  33  1   
 28  14  34  1   
 29  15  20  1   
 30  15  35  1   
 31  15  36  1   
 32  16  21  ar  
 33  16  37  1   
 34  17  22  ar  
 35  17  38  1   
 36  18  23  1   
 37  18  39  1   
 38  18  40  1   
 39  19  24  1   
 40  19  41  1   
 41  19  42  1   
 42  20  24  1   
 43  20  43  1   
 44  20  44  1   
 45  21  25  ar  
 46  21  45  1   
 47  22  25  ar  
 48  22  46  1   
 49  23  47  1   
 50  25  48  1   
@<TRIPOS>SUBSTRUCTURE
  1 ****   4 GROUP 4 **** **** 0

# MOE 2024.06 (io_trps.svl 2023.06)
