@<TRIPOS>MOLECULE
NONAME
44 46 1 0 0 
SMALL
USER_CHARGES


@<TRIPOS>ATOM
  1 S       -0.4160     0.6950    -1.3920 S.o2  1 <1>   1.3330 
  2 O       -1.2110     1.7820    -1.9200 O.2   1 <1>  -0.6500 
  3 O        0.5990     0.0800    -2.2190 O.2   1 <1>  -0.6500 
  4 N       -1.4700    -0.5310    -0.8930 N.am  1 <1>  -0.8490 
  5 C        0.3120     1.2300     0.1590 C.3   1 <1>  -0.0550 
  6 C       -0.8480    -1.8460    -0.7810 C.3   1 <1>   0.1960 
  7 C       -2.7310    -0.5410    -1.6490 C.3   1 <1>   0.1960 
  8 C        1.3400     2.3630     0.0020 C.3   1 <1>  -0.1600 
  9 C       -1.7440    -2.7920     0.0290 C.3   1 <1>  -0.1600 
 10 C       -3.4920    -1.8690    -1.5360 C.3   1 <1>  -0.1600 
 11 C        1.9280     2.7740     1.3580 C.3   1 <1>  -0.1600 
 12 C       -3.2520    -2.5700    -0.1940 C.3   1 <1>   0.4610 
 13 C        2.9510     3.9010     1.1910 C.3   1 <1>  -0.2400 
 14 O       -3.6880    -1.7220     0.8550 O.3   1 <1>  -0.5600 
 15 C       -4.0180    -3.8970    -0.1320 C.2   1 <1>  -0.1810 
 16 C       -5.0620    -1.6530     1.1470 C.3   1 <1>   0.1200 
 17 C       -5.0490    -4.0590     0.7080 C.2   1 <1>  -0.1400 
 18 C       -3.7560    -5.0660    -0.9240 C.2   1 <1>  -0.1500 
 19 C       -5.5880    -3.0100     1.6410 C.3   1 <1>   0.0200 
 20 S       -5.7390    -5.6640     0.5970 S.3   1 <1>  -0.0800 
 21 C       -4.5830    -6.0960    -0.6540 C.2   1 <1>  -0.1100 
 22 H        0.7890     0.3920     0.6270 H     1 <1>   0.0800 
 23 H       -0.4750     1.5620     0.8090 H     1 <1>   0.0800 
 24 H        0.1090    -1.7650    -0.2930 H     1 <1>   0.0800 
 25 H       -0.6820    -2.2430    -1.7690 H     1 <1>   0.0800 
 26 H       -2.5380    -0.3400    -2.6910 H     1 <1>   0.0800 
 27 H       -3.3490     0.2560    -1.2700 H     1 <1>   0.0800 
 28 H        0.8610     3.2110    -0.4580 H     1 <1>   0.0800 
 29 H        2.1310     2.0340    -0.6510 H     1 <1>   0.0800 
 30 H       -1.5260    -2.6880     1.0760 H     1 <1>   0.0800 
 31 H       -1.4720    -3.7940    -0.2430 H     1 <1>   0.0800 
 32 H       -3.1560    -2.5180    -2.3240 H     1 <1>   0.0800 
 33 H       -4.5400    -1.7090    -1.7000 H     1 <1>   0.0800 
 34 H        2.4080     1.9270     1.8190 H     1 <1>   0.0800 
 35 H        1.1390     3.1080     2.0100 H     1 <1>   0.0800 
 36 H        3.7620     3.5830     0.5590 H     1 <1>   0.0800 
 37 H        3.3530     4.1780     2.1500 H     1 <1>   0.0800 
 38 H        2.4890     4.7670     0.7510 H     1 <1>   0.0800 
 39 H       -5.5850    -1.3470     0.2590 H     1 <1>   0.0800 
 40 H       -5.2000    -0.9020     1.9040 H     1 <1>   0.0800 
 41 H       -2.9670    -5.0840    -1.6540 H     1 <1>   0.1500 
 42 H       -6.6630    -3.0110     1.6300 H     1 <1>   0.0800 
 43 H       -5.2490    -3.1990     2.6430 H     1 <1>   0.0800 
 44 H       -4.6490    -7.0890    -1.0620 H     1 <1>   0.1500 
@<TRIPOS>BOND
  1   1   2  2   
  2   1   3  2   
  3   1   4  am  
  4   1   5  1   
  5   4   6  1   
  6   4   7  1   
  7   5   8  1   
  8   5  22  1   
  9   5  23  1   
 10   6   9  1   
 11   6  24  1   
 12   6  25  1   
 13   7  10  1   
 14   7  26  1   
 15   7  27  1   
 16   8  11  1   
 17   8  28  1   
 18   8  29  1   
 19   9  12  1   
 20   9  30  1   
 21   9  31  1   
 22  10  12  1   
 23  10  32  1   
 24  10  33  1   
 25  11  13  1   
 26  11  34  1   
 27  11  35  1   
 28  12  14  1   
 29  12  15  1   
 30  13  36  1   
 31  13  37  1   
 32  13  38  1   
 33  14  16  1   
 34  15  17  2   
 35  15  18  1   
 36  16  19  1   
 37  16  39  1   
 38  16  40  1   
 39  17  19  1   
 40  17  20  1   
 41  18  21  2   
 42  18  41  1   
 43  19  42  1   
 44  19  43  1   
 45  20  21  1   
 46  21  44  1   
@<TRIPOS>SUBSTRUCTURE
  1 ****   4 GROUP 4 **** **** 0

# MOE 2024.06 (io_trps.svl 2023.06)
