@<TRIPOS>MOLECULE
NONAME
43 44 1 0 0 
SMALL
USER_CHARGES


@<TRIPOS>ATOM
  1 CL      -0.4020     0.0240     1.4480 Cl    1 <1>  -0.1770 
  2 C       -1.7890     0.8750     0.8090 C.ar  1 <1>   0.1770 
  3 C       -1.6140     1.9560    -0.0420 C.ar  1 <1>  -0.1440 
  4 C       -3.0490     0.4370     1.1730 C.ar  1 <1>  -0.1500 
  5 C       -2.7440     2.5950    -0.5220 C.ar  1 <1>  -0.1500 
  6 C       -0.2260     2.4300    -0.4450 C.3   1 <1>  -0.0960 
  7 C       -4.1900     1.0740     0.6980 C.ar  1 <1>  -0.0090 
  8 C       -4.0110     2.1630    -0.1520 C.ar  1 <1>   0.0830 
  9 S       -5.8410     0.5020     1.1800 S.o2  1 <1>   1.4470 
 10 O       -5.0760     2.8150    -0.6560 O.3   1 <1>  -0.3630 
 11 O       -5.6760    -0.6770     2.0050 O.2   1 <1>  -0.6500 
 12 O       -6.5830     1.6210     1.7260 O.2   1 <1>  -0.6500 
 13 N       -6.5490     0.0270    -0.2870 N.am  1 <1>  -0.8490 
 14 C       -5.4090     4.0450    -0.0580 C.3   1 <1>   0.1200 
 15 C       -6.1350    -1.3080    -0.7920 C.3   1 <1>   0.1960 
 16 C       -7.9970     0.2350    -0.3640 C.3   1 <1>   0.1960 
 17 C       -6.7450     4.5000    -0.6350 C.3   1 <1>  -0.2400 
 18 C       -7.2250    -2.4080    -0.7440 C.3   1 <1>   0.2000 
 19 C       -8.7750    -0.7870     0.4830 C.3   1 <1>  -0.1600 
 20 O       -7.9660    -2.3730    -1.9170 O.3   1 <1>  -0.6800 
 21 C       -8.1810    -2.2190     0.4390 C.3   1 <1>  -0.1860 
 22 C       -9.2420    -3.3040     0.4420 C.2   1 <1>   0.9060 
 23 O       -9.3690    -4.0180     1.4380 O.co2 1 <1>  -0.9000 
 24 O       -9.9310    -3.4560    -0.5780 O.co2 1 <1>  -0.9000 
 25 H       -3.1360    -0.4070     1.8360 H     1 <1>   0.1500 
 26 H       -2.6560     3.4320    -1.1930 H     1 <1>   0.1500 
 27 H       -0.2830     3.2760    -1.1060 H     1 <1>   0.0800 
 28 H        0.3020     1.6390    -0.9470 H     1 <1>   0.0800 
 29 H        0.3320     2.7180     0.4290 H     1 <1>   0.0800 
 30 H       -5.4860     3.9000     1.0070 H     1 <1>   0.0800 
 31 H       -4.6300     4.7550    -0.2750 H     1 <1>   0.0800 
 32 H       -5.8100    -1.2040    -1.8130 H     1 <1>   0.0800 
 33 H       -5.2870    -1.6560    -0.2300 H     1 <1>   0.0800 
 34 H       -8.2510     1.2370    -0.0620 H     1 <1>   0.0800 
 35 H       -8.2970     0.1310    -1.3940 H     1 <1>   0.0800 
 36 H       -7.5050     3.7730    -0.4070 H     1 <1>   0.0800 
 37 H       -6.6670     4.6190    -1.7010 H     1 <1>   0.0800 
 38 H       -7.0280     5.4400    -0.2000 H     1 <1>   0.0800 
 39 H       -6.7670    -3.3810    -0.6950 H     1 <1>   0.0800 
 40 H       -8.8180    -0.4550     1.5050 H     1 <1>   0.0800 
 41 H       -9.7870    -0.8110     0.1170 H     1 <1>   0.0800 
 42 H       -8.8410    -2.8180    -1.6960 H     1 <1>   0.4000 
 43 H       -7.6040    -2.3590     1.3330 H     1 <1>   0.0800 
@<TRIPOS>BOND
  1   1   2  1   
  2   2   3  ar  
  3   2   4  ar  
  4   3   5  ar  
  5   3   6  1   
  6   4   7  ar  
  7   4  25  1   
  8   5   8  ar  
  9   5  26  1   
 10   6  27  1   
 11   6  28  1   
 12   6  29  1   
 13   7   8  ar  
 14   7   9  1   
 15   8  10  1   
 16   9  11  2   
 17   9  12  2   
 18   9  13  am  
 19  10  14  1   
 20  13  15  1   
 21  13  16  1   
 22  14  17  1   
 23  14  30  1   
 24  14  31  1   
 25  15  18  1   
 26  15  32  1   
 27  15  33  1   
 28  16  19  1   
 29  16  34  1   
 30  16  35  1   
 31  17  36  1   
 32  17  37  1   
 33  17  38  1   
 34  18  20  1   
 35  18  21  1   
 36  18  39  1   
 37  19  21  1   
 38  19  40  1   
 39  19  41  1   
 40  20  42  1   
 41  21  22  1   
 42  21  43  1   
 43  22  23  ar  
 44  22  24  ar  
@<TRIPOS>SUBSTRUCTURE
  1 ****   9 GROUP 4 **** **** 0

# MOE 2024.06 (io_trps.svl 2023.06)
