@<TRIPOS>MOLECULE
NONAME
43 45 1 0 0 
SMALL
USER_CHARGES


@<TRIPOS>ATOM
  1 CL       0.7450     0.7070     2.1370 Cl    1 <1>  -0.1770 
  2 C        2.0730     1.2720     1.1550 C.ar  1 <1>   0.1770 
  3 C        2.4150     2.6210     1.0900 C.ar  1 <1>  -0.1790 
  4 C        2.7950     0.3150     0.4670 C.ar  1 <1>  -0.1500 
  5 C        1.7810     3.6730     1.8490 C.2   1 <1>   0.9790 
  6 C        3.4950     2.9720     0.2810 C.ar  1 <1>  -0.1500 
  7 C        3.8940     0.7170    -0.2690 C.ar  1 <1>   0.1900 
  8 O        2.5220     4.5280     2.3710 O.co2 1 <1>  -0.9000 
  9 O        0.5520     3.7840     1.9340 O.co2 1 <1>  -0.9000 
 10 C        4.2920     2.0380    -0.3610 C.ar  1 <1>  -0.0090 
 11 F        4.5870    -0.2000    -0.8850 F     1 <1>  -0.1900 
 12 S        5.7980     2.5130    -1.2370 S.o2  1 <1>   1.4470 
 13 O        6.9560     1.7470    -0.8200 O.2   1 <1>  -0.6500 
 14 O        5.5440     2.6730    -2.6490 O.2   1 <1>  -0.6500 
 15 N        6.1670     4.0630    -0.6450 N.am  1 <1>  -0.8490 
 16 C        6.4490     4.1580     0.8220 C.3   1 <1>   0.2760 
 17 C        6.9070     4.9050    -1.6020 C.3   1 <1>   0.1960 
 18 C        6.1750     5.5680     1.3710 C.3   1 <1>   0.1200 
 19 C        7.8640     3.6840     1.2490 C.3   1 <1>   0.3430 
 20 C        8.0170     5.7870    -1.0110 C.3   1 <1>  -0.0800 
 21 O        7.2970     6.3870     1.2070 O.3   1 <1>  -0.5600 
 22 N        8.8620     3.6480     0.1270 N.4   1 <1>  -0.9590 
 23 C        7.4800     6.8810    -0.0760 C.3   1 <1>   0.1200 
 24 C        9.2020     5.0060    -0.4080 C.3   1 <1>   0.3430 
 25 C       10.0830     2.8900     0.5210 C.3   1 <1>   0.2630 
 26 H        2.5130    -0.7200     0.5170 H     1 <1>   0.1500 
 27 H        3.7140     4.0240     0.1930 H     1 <1>   0.1500 
 28 H        5.7520     3.5260     1.3420 H     1 <1>   0.0800 
 29 H        7.3590     4.2830    -2.3580 H     1 <1>   0.0800 
 30 H        6.1910     5.5300    -2.1110 H     1 <1>   0.0800 
 31 H        5.9860     5.5070     2.4290 H     1 <1>   0.0800 
 32 H        5.3090     6.0150     0.9100 H     1 <1>   0.0800 
 33 H        7.7620     2.6900     1.6520 H     1 <1>   0.0800 
 34 H        8.2230     4.3170     2.0440 H     1 <1>   0.0800 
 35 H        8.4230     6.3260    -1.8480 H     1 <1>   0.0800 
 36 H        8.3750     3.1000    -0.6110 H     1 <1>   0.4500 
 37 H        6.5540     7.3000    -0.4340 H     1 <1>   0.0800 
 38 H        8.1990     7.6790     0.0010 H     1 <1>   0.0800 
 39 H        9.6460     5.6010     0.3750 H     1 <1>   0.0800 
 40 H        9.9440     4.8860    -1.1810 H     1 <1>   0.0800 
 41 H       10.5930     3.3930     1.3270 H     1 <1>   0.0800 
 42 H       10.7560     2.8050    -0.3170 H     1 <1>   0.0800 
 43 H        9.8150     1.8970     0.8440 H     1 <1>   0.0800 
@<TRIPOS>BOND
  1   1   2  1   
  2   2   3  ar  
  3   2   4  ar  
  4   3   5  1   
  5   3   6  ar  
  6   4   7  ar  
  7   4  26  1   
  8   5   8  ar  
  9   5   9  ar  
 10   6  10  ar  
 11   6  27  1   
 12   7  10  ar  
 13   7  11  1   
 14  10  12  1   
 15  12  13  2   
 16  12  14  2   
 17  12  15  am  
 18  15  16  1   
 19  15  17  1   
 20  16  18  1   
 21  16  19  1   
 22  16  28  1   
 23  17  20  1   
 24  17  29  1   
 25  17  30  1   
 26  18  21  1   
 27  18  31  1   
 28  18  32  1   
 29  19  22  1   
 30  19  33  1   
 31  19  34  1   
 32  20  23  1   
 33  20  24  1   
 34  20  35  1   
 35  21  23  1   
 36  22  24  1   
 37  22  25  1   
 38  22  36  1   
 39  23  37  1   
 40  23  38  1   
 41  24  39  1   
 42  24  40  1   
 43  25  41  1   
 44  25  42  1   
 45  25  43  1   
@<TRIPOS>SUBSTRUCTURE
  1 ****  15 GROUP 4 **** **** 0

# MOE 2024.06 (io_trps.svl 2023.06)
