@<TRIPOS>MOLECULE
NONAME
34 36 1 0 0 
SMALL
USER_CHARGES


@<TRIPOS>ATOM
  1 F        0.8540    -0.5380    -1.6940 F     1 <1>  -0.1900 
  2 C        1.1450    -1.3920    -0.7430 C.ar  1 <1>   0.1900 
  3 C        1.8720    -0.9630     0.3560 C.ar  1 <1>   0.1900 
  4 C        0.7200    -2.7080    -0.8590 C.ar  1 <1>  -0.1440 
  5 F        2.2670     0.2820     0.4440 F     1 <1>  -0.1900 
  6 C        2.1950    -1.8340     1.3780 C.ar  1 <1>  -0.1500 
  7 C        1.0550    -3.5830     0.1720 C.ar  1 <1>  -0.1500 
  8 C       -0.0910    -3.1390    -2.0870 C.3   1 <1>   0.0450 
  9 C        1.7790    -3.1520     1.2770 C.ar  1 <1>  -0.1500 
 10 C       -0.5690    -4.5850    -2.0850 C.2   1 <1>   0.5690 
 11 O        0.0000    -5.3640    -2.8160 O.2   1 <1>  -0.5700 
 12 N       -1.6020    -4.9680    -1.2820 N.am  1 <1>  -0.6600 
 13 C       -2.3320    -4.1000    -0.3130 C.3   1 <1>   0.2350 
 14 C       -1.9930    -6.3920    -1.0980 C.3   1 <1>   0.2350 
 15 C       -3.4800    -4.9420     0.2070 C.3   1 <1>  -0.2420 
 16 C       -3.2640    -6.3600    -0.2660 C.3   1 <1>  -0.2420 
 17 C       -4.0060    -4.3660     1.5240 C.2   1 <1>   0.9470 
 18 C       -4.4600    -5.5800    -0.7450 C.3   1 <1>  -0.2000 
 19 C       -3.4740    -7.6930     0.4540 C.2   1 <1>   0.9470 
 20 O       -5.1940    -4.0260     1.6110 O.co2 1 <1>  -0.9000 
 21 O       -3.1950    -4.0800     2.4160 O.co2 1 <1>  -0.9000 
 22 O       -4.4870    -8.3640     0.2080 O.co2 1 <1>  -0.9000 
 23 O       -2.5540    -8.1520     1.1440 O.co2 1 <1>  -0.9000 
 24 H        2.7530    -1.4900     2.2300 H     1 <1>   0.1500 
 25 H        0.7500    -4.6180     0.1410 H     1 <1>   0.1500 
 26 H        0.5170    -2.9960    -2.9620 H     1 <1>   0.0800 
 27 H       -0.9480    -2.5010    -2.1920 H     1 <1>   0.0800 
 28 H        2.0080    -3.8530     2.0620 H     1 <1>   0.1500 
 29 H       -1.6750    -3.8350     0.4980 H     1 <1>   0.0800 
 30 H       -2.7080    -3.2110    -0.7840 H     1 <1>   0.0800 
 31 H       -2.1650    -6.8720    -2.0450 H     1 <1>   0.0800 
 32 H       -1.2110    -6.9090    -0.5680 H     1 <1>   0.0800 
 33 H       -4.5030    -5.2480    -1.7650 H     1 <1>   0.1000 
 34 H       -5.4260    -5.8620    -0.3600 H     1 <1>   0.1000 
@<TRIPOS>BOND
  1   1   2  1   
  2   2   3  ar  
  3   2   4  ar  
  4   3   5  1   
  5   3   6  ar  
  6   4   7  ar  
  7   4   8  1   
  8   6   9  ar  
  9   6  24  1   
 10   7   9  ar  
 11   7  25  1   
 12   8  10  1   
 13   8  26  1   
 14   8  27  1   
 15   9  28  1   
 16  10  11  2   
 17  10  12  am  
 18  12  13  1   
 19  12  14  1   
 20  13  15  1   
 21  13  29  1   
 22  13  30  1   
 23  14  16  1   
 24  14  31  1   
 25  14  32  1   
 26  15  16  1   
 27  15  17  1   
 28  15  18  1   
 29  16  18  1   
 30  16  19  1   
 31  17  20  ar  
 32  17  21  ar  
 33  18  33  1   
 34  18  34  1   
 35  19  22  ar  
 36  19  23  ar  
@<TRIPOS>SUBSTRUCTURE
  1 ****  13 GROUP 4 **** **** 0

# MOE 2024.06 (io_trps.svl 2023.06)
