@<TRIPOS>MOLECULE
NONAME
50 52 1 0 0 
SMALL
USER_CHARGES


@<TRIPOS>ATOM
  1 O        1.7210    -0.5340    -2.3310 O.2   1 <1>  -0.5700 
  2 C        2.2210    -0.8860    -1.2820 C.2   1 <1>   0.5440 
  3 N        3.0350     0.0010    -0.6050 N.am  1 <1>  -0.6600 
  4 C        1.9490    -2.2130    -0.7660 C.ar  1 <1>   0.0860 
  5 C        3.2790    -0.1230     0.8810 C.3   1 <1>   0.2200 
  6 C        3.5780     1.1780    -1.3600 C.3   1 <1>   0.1400 
  7 C        2.9880    -3.0860    -0.4540 C.ar  1 <1>  -0.1500 
  8 C        0.6480    -2.6510    -0.5440 C.ar  1 <1>  -0.1500 
  9 C        2.7810     1.1080     1.6550 C.3   1 <1>   0.1200 
 10 C        4.7550    -0.4480     1.2130 C.3   1 <1>   0.3430 
 11 C        4.5460     2.0910    -0.5830 C.3   1 <1>  -0.0800 
 12 C        2.7470    -4.3310     0.0980 C.ar  1 <1>   0.0830 
 13 C        0.3860    -3.8980    -0.0030 C.ar  1 <1>   0.0830 
 14 O        3.7450     2.1140     1.6940 O.3   1 <1>  -0.5600 
 15 N        5.7030    -0.0530     0.1300 N.4   1 <1>  -0.9590 
 16 C        3.8540     2.8770     0.5380 C.3   1 <1>   0.1200 
 17 C        5.8420     1.4140    -0.1070 C.3   1 <1>   0.3430 
 18 O        3.8390    -5.0790     0.3900 O.3   1 <1>  -0.3630 
 19 C        1.4390    -4.7440     0.3260 C.ar  1 <1>  -0.1500 
 20 O       -0.9200    -4.2150     0.1790 O.3   1 <1>  -0.3630 
 21 C        7.0740    -0.7010     0.2270 C.3   1 <1>   0.2370 
 22 C        3.7210    -6.4360     0.7590 C.3   1 <1>   0.0400 
 23 C       -1.3180    -5.4970     0.6120 C.3   1 <1>   0.0400 
 24 C        7.8670    -0.6130    -1.0830 C.2   1 <1>   0.9060 
 25 O        9.0950    -0.6670    -1.0480 O.co2 1 <1>  -0.9000 
 26 O        7.2100    -0.4190    -2.1150 O.co2 1 <1>  -0.9000 
 27 H        2.6890    -0.9380     1.2580 H     1 <1>   0.0800 
 28 H        4.0840     0.8080    -2.2380 H     1 <1>   0.0800 
 29 H        2.7460     1.7680    -1.7070 H     1 <1>   0.0800 
 30 H        4.0040    -2.7960    -0.6530 H     1 <1>   0.1500 
 31 H       -0.1760    -2.0080    -0.7990 H     1 <1>   0.1500 
 32 H        2.5960     0.8280     2.6780 H     1 <1>   0.0800 
 33 H        1.8630     1.4890     1.2410 H     1 <1>   0.0800 
 34 H        4.8320    -1.5110     1.3680 H     1 <1>   0.0800 
 35 H        5.0290     0.0360     2.1350 H     1 <1>   0.0800 
 36 H        4.8560     2.8390    -1.2900 H     1 <1>   0.0800 
 37 H        5.3380    -0.4050    -0.7770 H     1 <1>   0.4500 
 38 H        2.8760     3.2200     0.2420 H     1 <1>   0.0800 
 39 H        4.4470     3.7390     0.7930 H     1 <1>   0.0800 
 40 H        6.1960     1.8980     0.7880 H     1 <1>   0.0800 
 41 H        6.5860     1.5610    -0.8750 H     1 <1>   0.0800 
 42 H        1.2440    -5.7050     0.7550 H     1 <1>   0.1500 
 43 H        7.6580    -0.2330     0.9980 H     1 <1>   0.0800 
 44 H        6.9720    -1.7440     0.4590 H     1 <1>   0.0800 
 45 H        4.7120    -6.8430     0.8570 H     1 <1>   0.0800 
 46 H        3.1870    -6.9630    -0.0130 H     1 <1>   0.0800 
 47 H        3.2050    -6.5010     1.7000 H     1 <1>   0.0800 
 48 H       -2.3930    -5.5220     0.6330 H     1 <1>   0.0800 
 49 H       -0.9310    -5.6690     1.6000 H     1 <1>   0.0800 
 50 H       -0.9500    -6.2310    -0.0830 H     1 <1>   0.0800 
@<TRIPOS>BOND
  1   1   2  2   
  2   2   3  am  
  3   2   4  1   
  4   3   5  1   
  5   3   6  1   
  6   4   7  ar  
  7   4   8  ar  
  8   5   9  1   
  9   5  10  1   
 10   5  27  1   
 11   6  11  1   
 12   6  28  1   
 13   6  29  1   
 14   7  12  ar  
 15   7  30  1   
 16   8  13  ar  
 17   8  31  1   
 18   9  14  1   
 19   9  32  1   
 20   9  33  1   
 21  10  15  1   
 22  10  34  1   
 23  10  35  1   
 24  11  16  1   
 25  11  17  1   
 26  11  36  1   
 27  12  18  1   
 28  12  19  ar  
 29  13  19  ar  
 30  13  20  1   
 31  14  16  1   
 32  15  17  1   
 33  15  21  1   
 34  15  37  1   
 35  16  38  1   
 36  16  39  1   
 37  17  40  1   
 38  17  41  1   
 39  18  22  1   
 40  19  42  1   
 41  20  23  1   
 42  21  24  1   
 43  21  43  1   
 44  21  44  1   
 45  22  45  1   
 46  22  46  1   
 47  22  47  1   
 48  23  48  1   
 49  23  49  1   
 50  23  50  1   
 51  24  25  ar  
 52  24  26  ar  
@<TRIPOS>SUBSTRUCTURE
  1 ****   3 GROUP 4 **** **** 0

# MOE 2024.06 (io_trps.svl 2023.06)
