@<TRIPOS>MOLECULE
NONAME
36 38 1 0 0 
SMALL
USER_CHARGES


@<TRIPOS>ATOM
  1 S       -1.4920    -0.4180    -1.6700 S.3   1 <1>  -0.0800 
  2 C       -1.6140    -0.8750     0.0270 C.2   1 <1>  -0.1400 
  3 C       -1.5090     1.2870    -1.2610 C.2   1 <1>  -0.1100 
  4 C       -1.6580     0.2250     0.8030 C.2   1 <1>  -0.1500 
  5 C       -1.6510    -2.3550     0.3770 C.3   1 <1>   0.3800 
  6 C       -1.6000     1.4540     0.0710 C.2   1 <1>  -0.1500 
  7 O       -0.4750    -2.9060    -0.0870 O.3   1 <1>  -0.6800 
  8 C       -2.8520    -3.1040    -0.2430 C.3   1 <1>  -0.0800 
  9 C       -4.1930    -2.4740     0.1890 C.3   1 <1>  -0.1600 
 10 C       -2.8510    -4.6000     0.1410 C.3   1 <1>  -0.1600 
 11 C       -5.3940    -3.2200    -0.3950 C.3   1 <1>   0.2090 
 12 C       -4.0570    -5.3460    -0.4340 C.3   1 <1>   0.2090 
 13 N       -5.3100    -4.6560    -0.0390 N.pl3 1 <1>  -0.8220 
 14 C       -6.4670    -5.4090     0.0820 C.2   1 <1>   0.5620 
 15 O       -7.6240    -4.8090     0.2810 O.3   1 <1>  -0.2800 
 16 N       -6.5510    -6.6930     0.0070 N.2   1 <1>  -0.5650 
 17 C       -8.5080    -5.7700     0.3390 C.2   1 <1>  -0.0100 
 18 C       -7.8930    -6.9570     0.1730 C.2   1 <1>  -0.0060 
 19 C       -8.5770    -8.2520     0.1740 C.2   1 <1>   1.0330 
 20 O       -7.9850    -9.3360     0.0050 O.co2 1 <1>  -0.9000 
 21 O       -9.8130    -8.2830     0.3480 O.co2 1 <1>  -0.9000 
 22 H       -1.4480     1.9920    -2.0700 H     1 <1>   0.1500 
 23 H       -1.7300     0.2300     1.8770 H     1 <1>   0.1500 
 24 H       -1.6630    -2.4760     1.4460 H     1 <1>   0.0800 
 25 H       -1.6270     2.4020     0.5810 H     1 <1>   0.1500 
 26 H       -0.2530    -2.4680    -0.9310 H     1 <1>   0.4000 
 27 H       -2.7830    -3.0290    -1.3140 H     1 <1>   0.0800 
 28 H       -4.2440    -1.4490    -0.1340 H     1 <1>   0.0800 
 29 H       -4.2760    -2.4850     1.2620 H     1 <1>   0.0800 
 30 H       -2.8680    -4.7050     1.2110 H     1 <1>   0.0800 
 31 H       -1.9550    -5.0740    -0.2180 H     1 <1>   0.0800 
 32 H       -5.4030    -3.1250    -1.4670 H     1 <1>   0.0800 
 33 H       -6.3020    -2.7900    -0.0080 H     1 <1>   0.0800 
 34 H       -4.0570    -6.3580    -0.0640 H     1 <1>   0.0800 
 35 H       -3.9980    -5.3810    -1.5080 H     1 <1>   0.0800 
 36 H       -9.5480    -5.5520     0.4980 H     1 <1>   0.1500 
@<TRIPOS>BOND
  1   1   2  1   
  2   1   3  1   
  3   2   4  2   
  4   2   5  1   
  5   3   6  2   
  6   3  22  1   
  7   4   6  1   
  8   4  23  1   
  9   5   7  1   
 10   5   8  1   
 11   5  24  1   
 12   6  25  1   
 13   7  26  1   
 14   8   9  1   
 15   8  10  1   
 16   8  27  1   
 17   9  11  1   
 18   9  28  1   
 19   9  29  1   
 20  10  12  1   
 21  10  30  1   
 22  10  31  1   
 23  11  13  1   
 24  11  32  1   
 25  11  33  1   
 26  12  13  1   
 27  12  34  1   
 28  12  35  1   
 29  13  14  1   
 30  14  15  1   
 31  14  16  2   
 32  15  17  1   
 33  16  18  1   
 34  17  18  2   
 35  17  36  1   
 36  18  19  1   
 37  19  20  ar  
 38  19  21  ar  
@<TRIPOS>SUBSTRUCTURE
  1 ****  13 GROUP 4 **** **** 0

# MOE 2024.06 (io_trps.svl 2023.06)
