@<TRIPOS>MOLECULE
NONAME
44 47 1 0 0 
SMALL
USER_CHARGES


@<TRIPOS>ATOM
  1 F        0.0280    -0.5790    -0.5710 F     1 <1>  -0.1900 
  2 C       -0.6090    -1.6990    -0.3400 C.ar  1 <1>   0.1900 
  3 C        0.0350    -2.9410    -0.3760 C.ar  1 <1>   0.0820 
  4 C       -1.9550    -1.5920    -0.0510 C.ar  1 <1>  -0.1500 
  5 O        1.3530    -3.1750    -0.6470 O.3   1 <1>  -0.3630 
  6 C       -0.7280    -4.0670    -0.1130 C.ar  1 <1>  -0.1500 
  7 C       -2.6850    -2.7370     0.2080 C.ar  1 <1>  -0.1500 
  8 C        2.2570    -2.1530    -1.0030 C.3   1 <1>   0.0400 
  9 C       -2.0920    -4.0010     0.1800 C.ar  1 <1>   0.0530 
 10 C       -2.8470    -5.2030     0.4490 C.2   1 <1>   0.0870 
 11 O       -2.2420    -6.2640     0.9260 O.3   1 <1>  -0.0190 
 12 C       -4.1560    -5.5330     0.3050 C.2   1 <1>  -0.2330 
 13 N       -3.0550    -7.2680     1.1160 N.2   1 <1>  -0.4100 
 14 C       -4.2240    -6.8570     0.7560 C.2   1 <1>   0.3720 
 15 C       -5.2150    -4.7390    -0.2190 C.2   1 <1>   1.0330 
 16 N       -5.3480    -7.7020     0.8570 N.pl3 1 <1>  -0.8210 
 17 O       -5.8290    -3.9420     0.5110 O.co2 1 <1>  -0.9000 
 18 O       -5.5600    -4.8450    -1.4070 O.co2 1 <1>  -0.9000 
 19 C       -5.1410    -9.1440     0.4990 C.3   1 <1>   0.2090 
 20 C       -6.7020    -7.1840     0.4890 C.3   1 <1>   0.2090 
 21 C       -6.2510    -9.6990    -0.4220 C.3   1 <1>   0.2950 
 22 C       -7.7890    -8.2500     0.7300 C.3   1 <1>   0.1200 
 23 O       -7.5270    -9.5060     0.1430 O.3   1 <1>  -0.5600 
 24 C       -6.0370   -11.1980    -0.7110 C.3   1 <1>  -0.1950 
 25 C       -7.1510   -12.1090    -1.1290 C.3   1 <1>  -0.2000 
 26 C       -6.5100   -12.2700     0.2220 C.3   1 <1>  -0.2000 
 27 H       -2.4300    -0.6280    -0.0290 H     1 <1>   0.1500 
 28 H       -0.2460    -5.0280    -0.1420 H     1 <1>   0.1500 
 29 H       -3.7320    -2.6430     0.4400 H     1 <1>   0.1500 
 30 H        3.2130    -2.6050    -1.1970 H     1 <1>   0.0800 
 31 H        2.3410    -1.4600    -0.1840 H     1 <1>   0.0800 
 32 H        1.8980    -1.6620    -1.8900 H     1 <1>   0.0800 
 33 H       -5.1120    -9.7250     1.4030 H     1 <1>   0.0800 
 34 H       -4.1960    -9.2640     0.0000 H     1 <1>   0.0800 
 35 H       -6.7180    -6.8990    -0.5490 H     1 <1>   0.0800 
 36 H       -6.9260    -6.3120     1.0800 H     1 <1>   0.0800 
 37 H       -6.2270    -9.1620    -1.3550 H     1 <1>   0.0800 
 38 H       -8.7310    -7.9000     0.3480 H     1 <1>   0.0800 
 39 H       -7.8920    -8.4070     1.7890 H     1 <1>   0.0800 
 40 H       -5.0890   -11.3640    -1.1930 H     1 <1>   0.1000 
 41 H       -6.9610   -12.8480    -1.8860 H     1 <1>   0.1000 
 42 H       -8.1540   -11.7180    -1.1750 H     1 <1>   0.1000 
 43 H       -7.0790   -11.9900     1.0920 H     1 <1>   0.1000 
 44 H       -5.8760   -13.1220     0.3980 H     1 <1>   0.1000 
@<TRIPOS>BOND
  1   1   2  1   
  2   2   3  ar  
  3   2   4  ar  
  4   3   5  1   
  5   3   6  ar  
  6   4   7  ar  
  7   4  27  1   
  8   5   8  1   
  9   6   9  ar  
 10   6  28  1   
 11   7   9  ar  
 12   7  29  1   
 13   8  30  1   
 14   8  31  1   
 15   8  32  1   
 16   9  10  1   
 17  10  11  1   
 18  10  12  2   
 19  11  13  1   
 20  12  14  1   
 21  12  15  1   
 22  13  14  2   
 23  14  16  1   
 24  15  17  ar  
 25  15  18  ar  
 26  16  19  1   
 27  16  20  1   
 28  19  21  1   
 29  19  33  1   
 30  19  34  1   
 31  20  22  1   
 32  20  35  1   
 33  20  36  1   
 34  21  23  1   
 35  21  24  1   
 36  21  37  1   
 37  22  23  1   
 38  22  38  1   
 39  22  39  1   
 40  24  25  1   
 41  24  26  1   
 42  24  40  1   
 43  25  26  1   
 44  25  41  1   
 45  25  42  1   
 46  26  43  1   
 47  26  44  1   
@<TRIPOS>SUBSTRUCTURE
  1 ****  12 GROUP 4 **** **** 0

# MOE 2024.06 (io_trps.svl 2023.06)
