@<TRIPOS>MOLECULE
NONAME
49 51 1 0 0 
SMALL
USER_CHARGES


@<TRIPOS>ATOM
  1 N       -0.4810     1.9860     2.2510 N.2   1 <1>  -0.3380 
  2 N        0.0640     2.8290     1.3800 N.2   1 <1>  -0.3380 
  3 C       -1.3430     1.2780     1.6090 C.2   1 <1>   0.0070 
  4 C       -0.4860     2.6020     0.2370 C.2   1 <1>   0.0060 
  5 N       -1.3920     1.6230     0.3240 N.pl3 1 <1>   0.0330 
  6 C       -2.1960     0.1900     2.2300 C.3   1 <1>  -0.0600 
  7 C       -0.1350     3.3620    -1.0330 C.3   1 <1>   0.5230 
  8 N        0.9300     4.3600    -0.7220 N.4   1 <1>  -0.9590 
  9 C        0.4510     5.7770    -0.7890 C.3   1 <1>   0.4230 
 10 C        2.1880     4.0270    -1.4490 C.3   1 <1>   0.4860 
 11 C        1.5910     6.7870    -0.5710 C.3   1 <1>  -0.1600 
 12 C       -0.6490     5.9950     0.2690 C.3   1 <1>  -0.1600 
 13 C        3.3730     4.1550    -0.5090 C.ar  1 <1>  -0.1430 
 14 C        1.0870     8.2370    -0.5460 C.3   1 <1>  -0.1600 
 15 C       -1.1580     7.4430     0.2870 C.3   1 <1>  -0.1600 
 16 C        4.4210     5.0070    -0.8300 C.ar  1 <1>  -0.1500 
 17 C        3.4330     3.4220     0.6680 C.ar  1 <1>  -0.1500 
 18 C       -0.0070     8.4280     0.5080 C.3   1 <1>  -0.1600 
 19 C        5.5040     5.1480     0.0200 C.ar  1 <1>  -0.1430 
 20 C        4.5130     3.5600     1.5190 C.ar  1 <1>  -0.1500 
 21 C        5.5450     4.4220     1.1980 C.ar  1 <1>  -0.1500 
 22 C        6.6440     6.0870    -0.3350 C.3   1 <1>  -0.0970 
 23 H       -1.9960     1.2090    -0.3920 H     1 <1>   0.2700 
 24 H       -1.9690     0.1030     3.2780 H     1 <1>   0.0800 
 25 H       -1.9970    -0.7560     1.7590 H     1 <1>   0.0800 
 26 H       -3.2390     0.4280     2.1260 H     1 <1>   0.0800 
 27 H       -1.0130     3.8580    -1.4120 H     1 <1>   0.0800 
 28 H        0.2100     2.6650    -1.7780 H     1 <1>   0.0800 
 29 H        1.1450     4.1860     0.2770 H     1 <1>   0.4500 
 30 H        0.0280     5.9640    -1.7620 H     1 <1>   0.0800 
 31 H        2.3140     4.6760    -2.3000 H     1 <1>   0.0800 
 32 H        2.1570     3.0100    -1.8020 H     1 <1>   0.0800 
 33 H        2.3070     6.7190    -1.3680 H     1 <1>   0.0800 
 34 H        2.0870     6.5790     0.3630 H     1 <1>   0.0800 
 35 H       -0.2580     5.7610     1.2450 H     1 <1>   0.0800 
 36 H       -1.4950     5.3590     0.0870 H     1 <1>   0.0800 
 37 H        0.6990     8.5050    -1.5140 H     1 <1>   0.0800 
 38 H        1.9080     8.9000    -0.3290 H     1 <1>   0.0800 
 39 H       -1.8820     7.5610     1.0760 H     1 <1>   0.0800 
 40 H       -1.6490     7.6710    -0.6440 H     1 <1>   0.0800 
 41 H        4.4080     5.5700    -1.7470 H     1 <1>   0.1500 
 42 H        2.6550     2.7310     0.9470 H     1 <1>   0.1500 
 43 H       -0.3800     9.4370     0.4630 H     1 <1>   0.0800 
 44 H        0.4100     8.2790     1.4910 H     1 <1>   0.0800 
 45 H        4.5540     2.9940     2.4350 H     1 <1>   0.1500 
 46 H        6.3820     4.5210     1.8680 H     1 <1>   0.1500 
 47 H        6.2840     6.9210    -0.9100 H     1 <1>   0.0800 
 48 H        7.3840     5.5600    -0.9110 H     1 <1>   0.0800 
 49 H        7.1090     6.4680     0.5570 H     1 <1>   0.0800 
@<TRIPOS>BOND
  1   1   2  1   
  2   1   3  2   
  3   2   4  2   
  4   3   5  1   
  5   3   6  1   
  6   4   5  1   
  7   4   7  1   
  8   5  23  1   
  9   6  24  1   
 10   6  25  1   
 11   6  26  1   
 12   7   8  1   
 13   7  27  1   
 14   7  28  1   
 15   8   9  1   
 16   8  10  1   
 17   8  29  1   
 18   9  11  1   
 19   9  12  1   
 20   9  30  1   
 21  10  13  1   
 22  10  31  1   
 23  10  32  1   
 24  11  14  1   
 25  11  33  1   
 26  11  34  1   
 27  12  15  1   
 28  12  35  1   
 29  12  36  1   
 30  13  16  ar  
 31  13  17  ar  
 32  14  18  1   
 33  14  37  1   
 34  14  38  1   
 35  15  18  1   
 36  15  39  1   
 37  15  40  1   
 38  16  19  ar  
 39  16  41  1   
 40  17  20  ar  
 41  17  42  1   
 42  18  43  1   
 43  18  44  1   
 44  19  21  ar  
 45  19  22  1   
 46  20  21  ar  
 47  20  45  1   
 48  21  46  1   
 49  22  47  1   
 50  22  48  1   
 51  22  49  1   
@<TRIPOS>SUBSTRUCTURE
  1 ****   8 GROUP 4 **** **** 0

# MOE 2024.06 (io_trps.svl 2023.06)
