@<TRIPOS>MOLECULE
NONAME
37 38 1 0 0 
SMALL
USER_CHARGES


@<TRIPOS>ATOM
  1 CL      -0.2610    -0.5520    -0.2120 Cl    1 <1>  -0.1770 
  2 C       -1.8470    -1.2670    -0.4000 C.ar  1 <1>   0.1770 
  3 C       -2.1060    -2.1630    -1.4060 C.ar  1 <1>   0.1600 
  4 C       -2.8740    -0.9470     0.4530 C.ar  1 <1>   0.1600 
  5 N       -3.2910    -2.7090    -1.5550 N.ar  1 <1>  -0.6200 
  6 N       -4.0690    -1.4790     0.3260 N.ar  1 <1>  -0.6200 
  7 C       -4.2280    -2.3590    -0.6690 C.ar  1 <1>   0.7200 
  8 N       -5.4620    -2.9550    -0.7940 N.pl3 1 <1>  -0.8380 
  9 C       -5.6020    -4.3710    -1.2790 C.3   1 <1>   0.2090 
 10 C       -6.6840    -2.4230    -0.1340 C.3   1 <1>   0.2090 
 11 C       -5.9230    -5.3260    -0.1100 C.3   1 <1>  -0.1060 
 12 C       -7.0810    -3.3240     1.0340 C.3   1 <1>  -0.1600 
 13 C       -6.2850    -6.6990    -0.6800 C.2   1 <1>   0.9060 
 14 C       -7.2000    -4.7770     0.5700 C.3   1 <1>   0.2000 
 15 C       -4.7210    -5.4360     0.8830 C.3   1 <1>  -0.1600 
 16 O       -6.1230    -6.9380    -1.8830 O.co2 1 <1>  -0.9000 
 17 O       -6.7740    -7.5470     0.0840 O.co2 1 <1>  -0.9000 
 18 O       -7.5360    -5.5560     1.6600 O.3   1 <1>  -0.6800 
 19 C       -3.4350    -6.0190     0.2720 C.3   1 <1>  -0.1600 
 20 C       -2.3300    -6.1320     1.3260 C.3   1 <1>  -0.2400 
 21 H       -1.3270    -2.4330    -2.0970 H     1 <1>   0.1500 
 22 H       -2.7070    -0.2440     1.2490 H     1 <1>   0.1500 
 23 H       -6.4040    -4.4070    -1.9970 H     1 <1>   0.0800 
 24 H       -4.7200    -4.7030    -1.7950 H     1 <1>   0.0800 
 25 H       -6.5310    -1.4160     0.2120 H     1 <1>   0.0800 
 26 H       -7.4800    -2.4010    -0.8580 H     1 <1>   0.0800 
 27 H       -8.0250    -2.9970     1.4270 H     1 <1>   0.0800 
 28 H       -6.3430    -3.2370     1.8100 H     1 <1>   0.0800 
 29 H       -8.0170    -4.8550    -0.1280 H     1 <1>   0.0800 
 30 H       -4.4960    -4.4680     1.2920 H     1 <1>   0.0800 
 31 H       -5.0130    -6.0690     1.7040 H     1 <1>   0.0800 
 32 H       -7.3910    -6.5000     1.3580 H     1 <1>   0.4000 
 33 H       -3.6370    -6.9960    -0.1360 H     1 <1>   0.0800 
 34 H       -3.0850    -5.3920    -0.5280 H     1 <1>   0.0800 
 35 H       -2.6460    -6.7780     2.1260 H     1 <1>   0.0800 
 36 H       -2.1010    -5.1620     1.7300 H     1 <1>   0.0800 
 37 H       -1.4410    -6.5410     0.8820 H     1 <1>   0.0800 
@<TRIPOS>BOND
  1   1   2  1   
  2   2   3  ar  
  3   2   4  ar  
  4   3   5  ar  
  5   3  21  1   
  6   4   6  ar  
  7   4  22  1   
  8   5   7  ar  
  9   6   7  ar  
 10   7   8  1   
 11   8   9  1   
 12   8  10  1   
 13   9  11  1   
 14   9  23  1   
 15   9  24  1   
 16  10  12  1   
 17  10  25  1   
 18  10  26  1   
 19  11  13  1   
 20  11  14  1   
 21  11  15  1   
 22  12  14  1   
 23  12  27  1   
 24  12  28  1   
 25  13  16  ar  
 26  13  17  ar  
 27  14  18  1   
 28  14  29  1   
 29  15  19  1   
 30  15  30  1   
 31  15  31  1   
 32  18  32  1   
 33  19  20  1   
 34  19  33  1   
 35  19  34  1   
 36  20  35  1   
 37  20  36  1   
 38  20  37  1   
@<TRIPOS>SUBSTRUCTURE
  1 ****   8 GROUP 4 **** **** 0

# MOE 2024.06 (io_trps.svl 2023.06)
