@<TRIPOS>MOLECULE
NONAME
54 58 1 0 0 
SMALL
USER_CHARGES


@<TRIPOS>ATOM
  1 F        0.6670    -0.5800     0.2000 F     1 <1>  -0.1900 
  2 C        0.4240    -1.8550     0.0620 C.ar  1 <1>   0.1900 
  3 C       -0.8860    -2.2770    -0.0590 C.ar  1 <1>  -0.1500 
  4 C        1.4850    -2.7390     0.0420 C.ar  1 <1>  -0.1500 
  5 C       -1.1340    -3.6310    -0.2040 C.ar  1 <1>  -0.1500 
  6 C        1.2180    -4.0890    -0.1040 C.ar  1 <1>  -0.1500 
  7 C       -0.0910    -4.5570    -0.2290 C.ar  1 <1>   0.0000 
  8 C       -0.3610    -5.9680    -0.3790 C.ar  1 <1>   0.0000 
  9 C        0.0640    -6.8890     0.5730 C.ar  1 <1>  -0.1500 
 10 C       -1.0500    -6.4560    -1.4840 C.ar  1 <1>  -0.1500 
 11 C       -0.1990    -8.2380     0.4310 C.ar  1 <1>  -0.1500 
 12 C       -1.3140    -7.8050    -1.6250 C.ar  1 <1>  -0.1500 
 13 C       -0.9060    -8.7330    -0.6660 C.ar  1 <1>   0.0860 
 14 C       -1.2160   -10.1450    -0.8090 C.2   1 <1>   0.5440 
 15 O       -1.3860   -10.6440    -1.9050 O.2   1 <1>  -0.5700 
 16 N       -1.4170   -10.9620     0.2820 N.am  1 <1>  -0.6600 
 17 C       -2.4310   -10.5910     1.3120 C.3   1 <1>   0.1400 
 18 C       -1.2420   -12.4350     0.1280 C.3   1 <1>   0.1400 
 19 C       -3.7960   -11.2670     1.0230 C.3   1 <1>   0.4230 
 20 C       -2.5910   -13.0860    -0.2220 C.3   1 <1>   0.3430 
 21 N       -3.6610   -12.7660     0.8010 N.4   1 <1>  -0.9590 
 22 C       -4.5040   -10.5910    -0.1750 C.3   1 <1>   0.1200 
 23 C       -5.0000   -13.3470     0.4400 C.3   1 <1>   0.5180 
 24 O       -5.7390   -11.2010    -0.4110 O.3   1 <1>  -0.5600 
 25 C       -4.8540   -14.8620     0.1930 C.3   1 <1>  -0.1950 
 26 C       -5.6620   -12.5650    -0.7220 C.3   1 <1>   0.1200 
 27 C       -4.5120   -15.4850    -1.1300 C.3   1 <1>  -0.2000 
 28 C       -5.8820   -15.6700    -0.5420 C.3   1 <1>  -0.2000 
 29 H       -1.6860    -1.5590    -0.0380 H     1 <1>   0.1500 
 30 H        2.4910    -2.3740     0.1380 H     1 <1>   0.1500 
 31 H       -2.1480    -3.9780    -0.2960 H     1 <1>   0.1500 
 32 H        2.0330    -4.7920    -0.1280 H     1 <1>   0.1500 
 33 H        0.6070    -6.5360     1.4320 H     1 <1>   0.1500 
 34 H       -1.3760    -5.7650    -2.2440 H     1 <1>   0.1500 
 35 H        0.1560    -8.9230     1.1820 H     1 <1>   0.1500 
 36 H       -1.8430    -8.1510    -2.4970 H     1 <1>   0.1500 
 37 H       -2.0760   -10.8960     2.2810 H     1 <1>   0.0800 
 38 H       -2.5610    -9.5220     1.3400 H     1 <1>   0.0800 
 39 H       -0.5330   -12.6380    -0.6590 H     1 <1>   0.0800 
 40 H       -0.8470   -12.8530     1.0380 H     1 <1>   0.0800 
 41 H       -4.4250   -11.0990     1.8820 H     1 <1>   0.0800 
 42 H       -2.4520   -14.1520    -0.2910 H     1 <1>   0.0800 
 43 H       -2.8920   -12.7290    -1.1930 H     1 <1>   0.0800 
 44 H       -3.3770   -13.1950     1.6870 H     1 <1>   0.4500 
 45 H       -3.9150   -10.6490    -1.0740 H     1 <1>   0.0800 
 46 H       -4.6920    -9.5530     0.0390 H     1 <1>   0.0800 
 47 H       -5.6570   -13.2320     1.2880 H     1 <1>   0.0800 
 48 H       -4.4690   -15.3480     1.0730 H     1 <1>   0.1000 
 49 H       -6.6670   -12.9130    -0.8780 H     1 <1>   0.0800 
 50 H       -5.1140   -12.6790    -1.6410 H     1 <1>   0.0800 
 51 H       -4.4420   -14.9010    -2.0320 H     1 <1>   0.1000 
 52 H       -3.8620   -16.3450    -1.1580 H     1 <1>   0.1000 
 53 H       -6.1450   -16.6450    -0.1650 H     1 <1>   0.1000 
 54 H       -6.7100   -15.2050    -1.0510 H     1 <1>   0.1000 
@<TRIPOS>BOND
  1   1   2  1   
  2   2   3  ar  
  3   2   4  ar  
  4   3   5  ar  
  5   3  29  1   
  6   4   6  ar  
  7   4  30  1   
  8   5   7  ar  
  9   5  31  1   
 10   6   7  ar  
 11   6  32  1   
 12   7   8  1   
 13   8   9  ar  
 14   8  10  ar  
 15   9  11  ar  
 16   9  33  1   
 17  10  12  ar  
 18  10  34  1   
 19  11  13  ar  
 20  11  35  1   
 21  12  13  ar  
 22  12  36  1   
 23  13  14  1   
 24  14  15  2   
 25  14  16  am  
 26  16  17  1   
 27  16  18  1   
 28  17  19  1   
 29  17  37  1   
 30  17  38  1   
 31  18  20  1   
 32  18  39  1   
 33  18  40  1   
 34  19  21  1   
 35  19  22  1   
 36  19  41  1   
 37  20  21  1   
 38  20  42  1   
 39  20  43  1   
 40  21  23  1   
 41  21  44  1   
 42  22  24  1   
 43  22  45  1   
 44  22  46  1   
 45  23  25  1   
 46  23  26  1   
 47  23  47  1   
 48  24  26  1   
 49  25  27  1   
 50  25  28  1   
 51  25  48  1   
 52  26  49  1   
 53  26  50  1   
 54  27  28  1   
 55  27  51  1   
 56  27  52  1   
 57  28  53  1   
 58  28  54  1   
@<TRIPOS>SUBSTRUCTURE
  1 ****  13 GROUP 4 **** **** 0

# MOE 2024.06 (io_trps.svl 2023.06)
