@<TRIPOS>MOLECULE
NONAME
61 65 1 0 0 
SMALL
USER_CHARGES


@<TRIPOS>ATOM
  1 O       -0.3160     0.8210    -0.2460 O.3   1 <1>  -0.5600 
  2 C       -1.4010     1.5230     0.2800 C.3   1 <1>   0.1200 
  3 C        0.9340     1.3260     0.1300 C.3   1 <1>   0.1200 
  4 C       -1.3760     2.9870    -0.1990 C.3   1 <1>   0.2090 
  5 C        1.0980     2.7840    -0.3370 C.3   1 <1>   0.2090 
  6 N       -0.0570     3.6380     0.1130 N.pl3 1 <1>  -0.8380 
  7 C        0.1290     4.9530     0.4160 C.ar  1 <1>   0.7710 
  8 N        1.2020     5.5750    -0.0150 N.ar  1 <1>  -0.6200 
  9 N       -0.8000     5.5670     1.1710 N.ar  1 <1>  -0.1790 
 10 C        1.3410     6.8680     0.2760 C.ar  1 <1>   0.4100 
 11 C       -0.7010     6.8610     1.5110 C.ar  1 <1>   0.4610 
 12 N        2.4460     7.5030    -0.2270 N.pl3 1 <1>  -0.8380 
 13 C        0.4000     7.5340     1.0500 C.ar  1 <1>  -0.1500 
 14 N       -1.6650     7.4290     2.2800 N.pl3 1 <1>  -0.9000 
 15 C        2.3770     8.8560    -0.8310 C.3   1 <1>   0.2090 
 16 C        3.6770     6.7490    -0.5860 C.3   1 <1>   0.2090 
 17 C        3.5810     9.6750    -0.3660 C.3   1 <1>  -0.1600 
 18 C        4.9030     7.5410    -0.1320 C.3   1 <1>  -0.1600 
 19 C        4.9060     8.9690    -0.7040 C.3   1 <1>   0.4230 
 20 N        6.0730     9.7420    -0.1580 N.4   1 <1>  -0.9590 
 21 C        6.1100    11.1720    -0.5990 C.3   1 <1>   0.4870 
 22 C        7.4110     9.1320    -0.4580 C.3   1 <1>   0.3430 
 23 C        7.2520    11.9140     0.0750 C.ar  1 <1>  -0.1430 
 24 C        8.4860     9.7340     0.4490 C.3   1 <1>  -0.0170 
 25 C        8.3710    11.2450     0.5580 C.ar  1 <1>  -0.1430 
 26 C        7.1730    13.2940     0.2020 C.ar  1 <1>  -0.1500 
 27 C        9.3950    11.9590     1.1590 C.ar  1 <1>  -0.1500 
 28 C        8.1990    14.0010     0.8030 C.ar  1 <1>  -0.1500 
 29 C        9.3100    13.3340     1.2810 C.ar  1 <1>  -0.1500 
 30 H       -1.3610     1.4650     1.3540 H     1 <1>   0.0800 
 31 H       -2.2980     1.0350    -0.0590 H     1 <1>   0.0800 
 32 H        1.6870     0.7050    -0.3220 H     1 <1>   0.0800 
 33 H        1.0270     1.2560     1.2000 H     1 <1>   0.0800 
 34 H       -2.1950     3.5190     0.2490 H     1 <1>   0.0800 
 35 H       -1.5270     2.9940    -1.2670 H     1 <1>   0.0800 
 36 H        1.1590     2.8020    -1.4120 H     1 <1>   0.0800 
 37 H        2.0260     3.1660     0.0520 H     1 <1>   0.0800 
 38 H       -1.5390     4.9880     1.5340 H     1 <1>   0.4570 
 39 H        0.5430     8.5660     1.2980 H     1 <1>   0.1500 
 40 H       -1.6110     8.4150     2.5700 H     1 <1>   0.4000 
 41 H       -2.5100     6.9750     2.6460 H     1 <1>   0.4000 
 42 H        1.4640     9.3560    -0.5560 H     1 <1>   0.0800 
 43 H        2.3850     8.7610    -1.9050 H     1 <1>   0.0800 
 44 H        3.6990     6.5880    -1.6510 H     1 <1>   0.0800 
 45 H        3.6860     5.7850    -0.1030 H     1 <1>   0.0800 
 46 H        3.4980     9.8270     0.6960 H     1 <1>   0.0800 
 47 H        3.5170    10.6260    -0.8600 H     1 <1>   0.0800 
 48 H        5.7630     6.9910    -0.4630 H     1 <1>   0.0800 
 49 H        4.9030     7.5700     0.9430 H     1 <1>   0.0800 
 50 H        4.9930     8.9050    -1.7780 H     1 <1>   0.0800 
 51 H        5.9810     9.7740     0.8660 H     1 <1>   0.4500 
 52 H        5.1900    11.6670    -0.3400 H     1 <1>   0.0800 
 53 H        6.2370    11.2270    -1.6680 H     1 <1>   0.0800 
 54 H        7.6690     9.3190    -1.4880 H     1 <1>   0.0800 
 55 H        7.3970     8.0680    -0.3020 H     1 <1>   0.0800 
 56 H        9.4560     9.4720     0.0620 H     1 <1>   0.0800 
 57 H        8.4040     9.3040     1.4320 H     1 <1>   0.0800 
 58 H        6.3190    13.8390    -0.1650 H     1 <1>   0.1500 
 59 H       10.2680    11.4540     1.5390 H     1 <1>   0.1500 
 60 H        8.1360    15.0720     0.8990 H     1 <1>   0.1500 
 61 H       10.1090    13.8850     1.7490 H     1 <1>   0.1500 
@<TRIPOS>BOND
  1   1   2  1   
  2   1   3  1   
  3   2   4  1   
  4   2  30  1   
  5   2  31  1   
  6   3   5  1   
  7   3  32  1   
  8   3  33  1   
  9   4   6  1   
 10   4  34  1   
 11   4  35  1   
 12   5   6  1   
 13   5  36  1   
 14   5  37  1   
 15   6   7  1   
 16   7   8  ar  
 17   7   9  ar  
 18   8  10  ar  
 19   9  11  ar  
 20   9  38  1   
 21  10  12  1   
 22  10  13  ar  
 23  11  13  ar  
 24  11  14  1   
 25  12  15  1   
 26  12  16  1   
 27  13  39  1   
 28  14  40  1   
 29  14  41  1   
 30  15  17  1   
 31  15  42  1   
 32  15  43  1   
 33  16  18  1   
 34  16  44  1   
 35  16  45  1   
 36  17  19  1   
 37  17  46  1   
 38  17  47  1   
 39  18  19  1   
 40  18  48  1   
 41  18  49  1   
 42  19  20  1   
 43  19  50  1   
 44  20  21  1   
 45  20  22  1   
 46  20  51  1   
 47  21  23  1   
 48  21  52  1   
 49  21  53  1   
 50  22  24  1   
 51  22  54  1   
 52  22  55  1   
 53  23  25  ar  
 54  23  26  ar  
 55  24  25  1   
 56  24  56  1   
 57  24  57  1   
 58  25  27  ar  
 59  26  28  ar  
 60  26  58  1   
 61  27  29  ar  
 62  27  59  1   
 63  28  29  ar  
 64  28  60  1   
 65  29  61  1   
@<TRIPOS>SUBSTRUCTURE
  1 ****  12 GROUP 4 **** **** 0

# MOE 2024.06 (io_trps.svl 2023.06)
