@<TRIPOS>MOLECULE
NONAME
53 55 1 0 0 
SMALL
USER_CHARGES


@<TRIPOS>ATOM
  1 O       -1.0230    -0.5660    -0.8920 O.co2 1 <1>  -0.9000 
  2 C       -2.1810    -0.2170    -0.6440 C.2   1 <1>   0.9060 
  3 O       -2.4750     0.6060     0.2270 O.co2 1 <1>  -0.9000 
  4 C       -3.3230    -0.9960    -1.2990 C.3   1 <1>   0.2370 
  5 N       -3.6610    -2.3210    -0.6280 N.4   1 <1>  -0.9590 
  6 C       -4.1080    -2.1080     0.7970 C.3   1 <1>   0.4230 
  7 C       -2.5420    -3.2960    -0.8160 C.3   1 <1>   0.3430 
  8 C       -2.9860    -2.0720     1.8680 C.3   1 <1>   0.1200 
  9 C       -5.1630    -3.1930     1.1320 C.3   1 <1>   0.1400 
 10 C       -2.4970    -4.4770     0.1780 C.3   1 <1>  -0.0800 
 11 O       -2.6340    -3.3540     2.3090 O.3   1 <1>  -0.5600 
 12 N       -5.0460    -4.4220     0.2620 N.am  1 <1>  -0.6600 
 13 C       -1.7820    -4.0550     1.4710 C.3   1 <1>   0.1200 
 14 C       -3.8170    -5.2480     0.4460 C.3   1 <1>   0.1400 
 15 C       -5.8650    -4.5530    -0.8300 C.2   1 <1>   0.5690 
 16 O       -6.1750    -3.5540    -1.4420 O.2   1 <1>  -0.5700 
 17 C       -6.3290    -5.9210    -1.3670 C.3   1 <1>   0.1710 
 18 N       -7.3660    -6.6160    -0.5540 N.3   1 <1>  -0.8100 
 19 C       -8.0240    -7.6830    -1.3350 C.3   1 <1>   0.2530 
 20 C       -6.8440    -7.1260     0.7250 C.3   1 <1>   0.0300 
 21 C       -9.2210    -8.2720    -0.5990 C.ar  1 <1>  -0.1430 
 22 C       -9.3100    -9.6380    -0.3740 C.ar  1 <1>  -0.1500 
 23 C      -10.2380    -7.4440    -0.1470 C.ar  1 <1>  -0.1500 
 24 C      -10.4020   -10.1680     0.2920 C.ar  1 <1>  -0.1500 
 25 C      -11.3310    -7.9720     0.5180 C.ar  1 <1>  -0.1500 
 26 C      -11.4130    -9.3350     0.7380 C.ar  1 <1>  -0.1500 
 27 H       -3.0460    -1.1670    -2.3230 H     1 <1>   0.0800 
 28 H       -4.1860    -0.3550    -1.2870 H     1 <1>   0.0800 
 29 H       -4.5040    -2.7250    -1.0830 H     1 <1>   0.4500 
 30 H       -4.5980    -1.1500     0.8470 H     1 <1>   0.0800 
 31 H       -2.6030    -3.6880    -1.8170 H     1 <1>   0.0800 
 32 H       -1.6030    -2.7680    -0.7430 H     1 <1>   0.0800 
 33 H       -3.3610    -1.5490     2.7290 H     1 <1>   0.0800 
 34 H       -2.1070    -1.5490     1.5350 H     1 <1>   0.0800 
 35 H       -6.1390    -2.7620     0.9890 H     1 <1>   0.0800 
 36 H       -5.1040    -3.4760     2.1680 H     1 <1>   0.0800 
 37 H       -1.8240    -5.1880    -0.2670 H     1 <1>   0.0800 
 38 H       -0.9120    -3.4490     1.2700 H     1 <1>   0.0800 
 39 H       -1.4630    -4.9290     2.0140 H     1 <1>   0.0800 
 40 H       -3.8110    -5.6420     1.4490 H     1 <1>   0.0800 
 41 H       -3.8550    -6.0910    -0.2190 H     1 <1>   0.0800 
 42 H       -5.4820    -6.5680    -1.4990 H     1 <1>   0.0800 
 43 H       -6.7370    -5.7340    -2.3440 H     1 <1>   0.0800 
 44 H       -8.3790    -7.2740    -2.2660 H     1 <1>   0.0800 
 45 H       -7.3120    -8.4590    -1.5610 H     1 <1>   0.0800 
 46 H       -7.6340    -7.5910     1.2920 H     1 <1>   0.0800 
 47 H       -6.4590    -6.3180     1.3200 H     1 <1>   0.0800 
 48 H       -6.0660    -7.8510     0.5570 H     1 <1>   0.0800 
 49 H       -8.5320   -10.2970    -0.7150 H     1 <1>   0.1500 
 50 H      -10.1700    -6.3820    -0.3130 H     1 <1>   0.1500 
 51 H      -10.4650   -11.2280     0.4630 H     1 <1>   0.1500 
 52 H      -12.1140    -7.3200     0.8640 H     1 <1>   0.1500 
 53 H      -12.2620    -9.7470     1.2560 H     1 <1>   0.1500 
@<TRIPOS>BOND
  1   1   2  ar  
  2   2   3  ar  
  3   2   4  1   
  4   4   5  1   
  5   4  27  1   
  6   4  28  1   
  7   5   6  1   
  8   5   7  1   
  9   5  29  1   
 10   6   8  1   
 11   6   9  1   
 12   6  30  1   
 13   7  10  1   
 14   7  31  1   
 15   7  32  1   
 16   8  11  1   
 17   8  33  1   
 18   8  34  1   
 19   9  12  1   
 20   9  35  1   
 21   9  36  1   
 22  10  13  1   
 23  10  14  1   
 24  10  37  1   
 25  11  13  1   
 26  12  14  1   
 27  12  15  am  
 28  13  38  1   
 29  13  39  1   
 30  14  40  1   
 31  14  41  1   
 32  15  16  2   
 33  15  17  1   
 34  17  18  1   
 35  17  42  1   
 36  17  43  1   
 37  18  19  1   
 38  18  20  1   
 39  19  21  1   
 40  19  44  1   
 41  19  45  1   
 42  20  46  1   
 43  20  47  1   
 44  20  48  1   
 45  21  22  ar  
 46  21  23  ar  
 47  22  24  ar  
 48  22  49  1   
 49  23  25  ar  
 50  23  50  1   
 51  24  26  ar  
 52  24  51  1   
 53  25  26  ar  
 54  25  52  1   
 55  26  53  1   
@<TRIPOS>SUBSTRUCTURE
  1 ****  12 GROUP 4 **** **** 0

# MOE 2024.06 (io_trps.svl 2023.06)
