@<TRIPOS>MOLECULE
NONAME
56 59 1 0 0 
SMALL
USER_CHARGES


@<TRIPOS>ATOM
  1 O        0.7660    -0.2100    -1.6060 O.3   1 <1>  -0.0190 
  2 N        0.9130     0.9920    -1.1510 N.2   1 <1>  -0.4100 
  3 C        1.4780    -1.0780    -0.9470 C.2   1 <1>  -0.0400 
  4 C        1.7580     0.9250    -0.1670 C.2   1 <1>   0.2350 
  5 C        2.1540    -0.4100     0.0000 C.2   1 <1>  -0.1500 
  6 C        1.4220    -2.5400    -1.3450 C.3   1 <1>   0.5230 
  7 C        2.2070     2.0600     0.6160 C.ar  1 <1>   0.0540 
  8 N        0.1540    -3.1710    -0.8690 N.4   1 <1>  -0.9590 
  9 C        2.8890     1.9420     1.8200 C.ar  1 <1>  -0.1500 
 10 C        1.9810     3.3680     0.2080 C.ar  1 <1>  -0.1500 
 11 C        0.2150    -4.6550    -0.9630 C.3   1 <1>   0.3430 
 12 C       -1.0530    -2.6370    -1.5670 C.3   1 <1>   0.3430 
 13 C        3.2920     3.0700     2.5110 C.ar  1 <1>   0.1600 
 14 C        2.4230     4.4310     0.9720 C.ar  1 <1>   0.1600 
 15 C       -1.0020    -5.2600    -0.2690 C.3   1 <1>  -0.1600 
 16 C       -2.3080    -3.1810    -0.8880 C.3   1 <1>  -0.1600 
 17 N        3.0760     4.3130     2.1160 N.ar  1 <1>  -0.6200 
 18 C       -2.3350    -4.7230    -0.8360 C.3   1 <1>  -0.0800 
 19 C       -3.5750    -5.2200    -0.0530 C.3   1 <1>   0.2000 
 20 O       -3.4620    -4.8070     1.2620 O.3   1 <1>  -0.6800 
 21 C       -3.7480    -6.7460    -0.0730 C.3   1 <1>  -0.1600 
 22 C       -5.0640    -7.2170     0.5620 C.3   1 <1>  -0.0170 
 23 C       -5.1980    -8.7230     0.4160 C.ar  1 <1>  -0.1430 
 24 C       -4.6630    -9.5680     1.3760 C.ar  1 <1>  -0.1500 
 25 C       -5.8490    -9.2660    -0.6810 C.ar  1 <1>  -0.1500 
 26 C       -4.7770   -10.9410     1.2410 C.ar  1 <1>  -0.1500 
 27 C       -5.9630   -10.6390    -0.8180 C.ar  1 <1>  -0.1500 
 28 C       -5.4280   -11.4770     0.1440 C.ar  1 <1>  -0.1500 
 29 H        2.8520    -0.7700     0.7330 H     1 <1>   0.1500 
 30 H        2.2630    -3.0460    -0.9000 H     1 <1>   0.0800 
 31 H        1.5050    -2.6250    -2.4170 H     1 <1>   0.0800 
 32 H        0.0410    -2.9280     0.1240 H     1 <1>   0.4500 
 33 H        3.1100     0.9780     2.2330 H     1 <1>   0.1500 
 34 H        1.4570     3.5610    -0.7100 H     1 <1>   0.1500 
 35 H        1.1120    -5.0230    -0.4890 H     1 <1>   0.0800 
 36 H        0.2270    -4.9580    -1.9980 H     1 <1>   0.0800 
 37 H       -1.0420    -2.9300    -2.6050 H     1 <1>   0.0800 
 38 H       -1.0740    -1.5600    -1.5180 H     1 <1>   0.0800 
 39 H        3.8190     2.9470     3.4430 H     1 <1>   0.1500 
 40 H        2.2310     5.4330     0.6260 H     1 <1>   0.1500 
 41 H       -0.9360    -5.0570     0.7860 H     1 <1>   0.0800 
 42 H       -0.9600    -6.3280    -0.3900 H     1 <1>   0.0800 
 43 H       -3.1720    -2.8270    -1.4230 H     1 <1>   0.0800 
 44 H       -2.3630    -2.7720     0.1060 H     1 <1>   0.0800 
 45 H       -2.4320    -5.0800    -1.8480 H     1 <1>   0.0800 
 46 H       -4.4590    -4.7580    -0.4630 H     1 <1>   0.0800 
 47 H       -4.2440    -5.0920     1.7750 H     1 <1>   0.4000 
 48 H       -2.9270    -7.2200     0.4330 H     1 <1>   0.0800 
 49 H       -3.7340    -7.0800    -1.0960 H     1 <1>   0.0800 
 50 H       -5.9000    -6.7360     0.0840 H     1 <1>   0.0800 
 51 H       -5.0910    -6.9620     1.6070 H     1 <1>   0.0800 
 52 H       -4.1540    -9.1630     2.2330 H     1 <1>   0.1500 
 53 H       -6.2690    -8.6250    -1.4350 H     1 <1>   0.1500 
 54 H       -4.3610   -11.5920     1.9890 H     1 <1>   0.1500 
 55 H       -6.4700   -11.0540    -1.6710 H     1 <1>   0.1500 
 56 H       -5.5170   -12.5440     0.0380 H     1 <1>   0.1500 
@<TRIPOS>BOND
  1   1   2  1   
  2   1   3  1   
  3   2   4  2   
  4   3   5  2   
  5   3   6  1   
  6   4   5  1   
  7   4   7  1   
  8   5  29  1   
  9   6   8  1   
 10   6  30  1   
 11   6  31  1   
 12   7   9  ar  
 13   7  10  ar  
 14   8  11  1   
 15   8  12  1   
 16   8  32  1   
 17   9  13  ar  
 18   9  33  1   
 19  10  14  ar  
 20  10  34  1   
 21  11  15  1   
 22  11  35  1   
 23  11  36  1   
 24  12  16  1   
 25  12  37  1   
 26  12  38  1   
 27  13  17  ar  
 28  13  39  1   
 29  14  17  ar  
 30  14  40  1   
 31  15  18  1   
 32  15  41  1   
 33  15  42  1   
 34  16  18  1   
 35  16  43  1   
 36  16  44  1   
 37  18  19  1   
 38  18  45  1   
 39  19  20  1   
 40  19  21  1   
 41  19  46  1   
 42  20  47  1   
 43  21  22  1   
 44  21  48  1   
 45  21  49  1   
 46  22  23  1   
 47  22  50  1   
 48  22  51  1   
 49  23  24  ar  
 50  23  25  ar  
 51  24  26  ar  
 52  24  52  1   
 53  25  27  ar  
 54  25  53  1   
 55  26  28  ar  
 56  26  54  1   
 57  27  28  ar  
 58  27  55  1   
 59  28  56  1   
@<TRIPOS>SUBSTRUCTURE
  1 ****   8 GROUP 4 **** **** 0

# MOE 2024.06 (io_trps.svl 2023.06)
