@<TRIPOS>MOLECULE
NONAME
52 55 1 0 0 
SMALL
USER_CHARGES


@<TRIPOS>ATOM
  1 O        0.8080    -0.3930     1.3090 O.3   1 <1>  -0.5600 
  2 C        1.8240    -0.9010     0.4740 C.3   1 <1>   0.4240 
  3 C       -0.5080    -0.7280     1.0000 C.3   1 <1>   0.1200 
  4 C        1.5310    -2.3570     0.0470 C.ar  1 <1>  -0.1440 
  5 C        3.1090    -0.8350     1.3090 C.3   1 <1>  -0.1600 
  6 C        1.9490     0.0180    -0.7520 C.3   1 <1>  -0.1600 
  7 C       -0.6920    -2.2290     1.2020 C.3   1 <1>  -0.0160 
  8 C        0.3420    -2.9860     0.3920 C.ar  1 <1>  -0.1440 
  9 C        2.4570    -3.0700    -0.7040 C.ar  1 <1>  -0.1500 
 10 C        3.4730     0.6020     1.6830 C.3   1 <1>   0.2090 
 11 C        2.3010     1.4510    -0.3540 C.3   1 <1>   0.2090 
 12 C        0.0930    -4.2920    -0.0010 C.ar  1 <1>  -0.1500 
 13 C        2.2280    -4.3770    -1.0990 C.ar  1 <1>   0.0830 
 14 N        3.5440     1.4430     0.4570 N.pl3 1 <1>  -0.8380 
 15 C        1.0220    -5.0040    -0.7550 C.ar  1 <1>   0.0830 
 16 O        3.2360    -4.9470    -1.8180 O.3   1 <1>  -0.3630 
 17 C        4.7690     1.7580    -0.1430 C.ar  1 <1>   0.4100 
 18 O        0.7710    -6.2800    -1.1760 O.3   1 <1>  -0.3630 
 19 C        3.5550    -6.3110    -1.6510 C.3   1 <1>   0.0400 
 20 N        5.6940     0.8090    -0.0570 N.ar  1 <1>  -0.6200 
 21 C        5.0140     2.9990    -0.8080 C.ar  1 <1>   0.3930 
 22 C       -0.4890    -6.8910    -1.0100 C.3   1 <1>   0.0400 
 23 C        6.8280     1.1380    -0.6540 C.ar  1 <1>   0.1600 
 24 O        4.0240     3.9380    -0.8330 O.3   1 <1>  -0.3630 
 25 N        6.1580     3.3100    -1.4050 N.ar  1 <1>  -0.6200 
 26 C        7.0520     2.3380    -1.3040 C.ar  1 <1>   0.1600 
 27 C        4.2320     5.2070    -1.4220 C.3   1 <1>   0.0400 
 28 H       -0.7180    -0.4440    -0.0160 H     1 <1>   0.0800 
 29 H       -1.1520    -0.1770     1.6610 H     1 <1>   0.0800 
 30 H        3.9320    -1.2490     0.7580 H     1 <1>   0.0800 
 31 H        2.9860    -1.4240     2.1980 H     1 <1>   0.0800 
 32 H        1.0410     0.0050    -1.3210 H     1 <1>   0.0800 
 33 H        2.7300    -0.3460    -1.3930 H     1 <1>   0.0800 
 34 H       -1.6840    -2.5070     0.8950 H     1 <1>   0.0800 
 35 H       -0.5800    -2.4660     2.2450 H     1 <1>   0.0800 
 36 H        3.3870    -2.6160    -0.9970 H     1 <1>   0.1500 
 37 H        4.4190     0.6200     2.1980 H     1 <1>   0.0800 
 38 H        2.7270     1.0100     2.3440 H     1 <1>   0.0800 
 39 H        1.5040     1.8860     0.2260 H     1 <1>   0.0800 
 40 H        2.4350     2.0440    -1.2410 H     1 <1>   0.0800 
 41 H       -0.8360    -4.7380     0.2920 H     1 <1>   0.1500 
 42 H        4.5700    -6.4590    -1.9700 H     1 <1>   0.0800 
 43 H        2.8930    -6.8990    -2.2600 H     1 <1>   0.0800 
 44 H        3.4510    -6.5720    -0.6120 H     1 <1>   0.0800 
 45 H       -0.4570    -7.8550    -1.4850 H     1 <1>   0.0800 
 46 H       -1.2390    -6.2790    -1.4780 H     1 <1>   0.0800 
 47 H       -0.6850    -7.0090     0.0410 H     1 <1>   0.0800 
 48 H        7.6190     0.4100    -0.6240 H     1 <1>   0.1500 
 49 H        8.0100     2.5090    -1.7620 H     1 <1>   0.1500 
 50 H        3.3300     5.7810    -1.3130 H     1 <1>   0.0800 
 51 H        4.4650     5.0740    -2.4630 H     1 <1>   0.0800 
 52 H        5.0450     5.6960    -0.9140 H     1 <1>   0.0800 
@<TRIPOS>BOND
  1   1   2  1   
  2   1   3  1   
  3   2   4  1   
  4   2   5  1   
  5   2   6  1   
  6   3   7  1   
  7   3  28  1   
  8   3  29  1   
  9   4   8  ar  
 10   4   9  ar  
 11   5  10  1   
 12   5  30  1   
 13   5  31  1   
 14   6  11  1   
 15   6  32  1   
 16   6  33  1   
 17   7   8  1   
 18   7  34  1   
 19   7  35  1   
 20   8  12  ar  
 21   9  13  ar  
 22   9  36  1   
 23  10  14  1   
 24  10  37  1   
 25  10  38  1   
 26  11  14  1   
 27  11  39  1   
 28  11  40  1   
 29  12  15  ar  
 30  12  41  1   
 31  13  15  ar  
 32  13  16  1   
 33  14  17  1   
 34  15  18  1   
 35  16  19  1   
 36  17  20  ar  
 37  17  21  ar  
 38  18  22  1   
 39  19  42  1   
 40  19  43  1   
 41  19  44  1   
 42  20  23  ar  
 43  21  24  1   
 44  21  25  ar  
 45  22  45  1   
 46  22  46  1   
 47  22  47  1   
 48  23  26  ar  
 49  23  48  1   
 50  24  27  1   
 51  25  26  ar  
 52  26  49  1   
 53  27  50  1   
 54  27  51  1   
 55  27  52  1   
@<TRIPOS>SUBSTRUCTURE
  1 ****   2 GROUP 4 **** **** 0

# MOE 2024.06 (io_trps.svl 2023.06)
