@<TRIPOS>MOLECULE
NONAME
50 51 1 0 0 
SMALL
USER_CHARGES


@<TRIPOS>ATOM
  1 O        0.6390    -1.2190     0.5190 O.3   1 <1>  -0.5600 
  2 C       -0.1060    -2.3840     0.2100 C.3   1 <1>   0.2800 
  3 C       -0.0370    -0.0690     0.9560 C.3   1 <1>   0.1200 
  4 C       -1.6310    -2.2070     0.4870 C.3   1 <1>   0.2000 
  5 C        0.4690    -3.5060     1.1020 C.3   1 <1>  -0.1600 
  6 C        0.2170    -2.7150    -1.2630 C.3   1 <1>  -0.1600 
  7 C       -1.1630     0.2520    -0.0270 C.3   1 <1>  -0.1600 
  8 O       -2.3570    -3.3070     0.0190 O.3   1 <1>  -0.6800 
  9 C       -2.2250    -0.8590    -0.0240 C.3   1 <1>   0.2800 
 10 C        1.8270    -4.0500     0.6460 C.3   1 <1>   0.3430 
 11 C        1.7100    -2.9360    -1.5350 C.3   1 <1>   0.3430 
 12 O       -3.1930    -0.4940     0.8900 O.3   1 <1>  -0.6800 
 13 C       -2.9510    -0.9150    -1.3760 C.3   1 <1>  -0.2400 
 14 N        2.4750    -3.0730    -0.2650 N.4   1 <1>  -0.9590 
 15 C        3.9280    -3.3040    -0.5040 C.3   1 <1>   0.3430 
 16 C        4.7530    -3.0430     0.7560 C.3   1 <1>  -0.0220 
 17 C        6.2290    -3.1230     0.4080 C.2   1 <1>  -0.2880 
 18 C        7.0890    -2.1140     0.2280 C.2   1 <1>  -0.2760 
 19 C        8.5510    -2.3720    -0.1040 C.3   1 <1>  -0.1020 
 20 C        6.7830    -0.6240     0.3160 C.3   1 <1>  -0.1020 
 21 H       -0.4170    -0.2400     1.9500 H     1 <1>   0.0800 
 22 H        0.6760     0.7370     0.9910 H     1 <1>   0.0800 
 23 H       -1.7440    -2.2200     1.5580 H     1 <1>   0.0800 
 24 H        0.5440    -3.1500     2.1140 H     1 <1>   0.0800 
 25 H       -0.2120    -4.3380     1.1210 H     1 <1>   0.0800 
 26 H       -0.3080    -3.6100    -1.5460 H     1 <1>   0.0800 
 27 H       -0.1380    -1.9340    -1.9070 H     1 <1>   0.0800 
 28 H       -0.7250     0.3470    -1.0040 H     1 <1>   0.0800 
 29 H       -1.6050     1.2020     0.2180 H     1 <1>   0.0800 
 30 H       -3.3020    -3.1750     0.2470 H     1 <1>   0.4000 
 31 H        1.6860    -4.9850     0.1260 H     1 <1>   0.0800 
 32 H        2.4430    -4.2330     1.5100 H     1 <1>   0.0800 
 33 H        2.0920    -2.0900    -2.0850 H     1 <1>   0.0800 
 34 H        1.8380    -3.8160    -2.1440 H     1 <1>   0.0800 
 35 H       -3.6800     0.2870     0.5640 H     1 <1>   0.4000 
 36 H       -2.2940    -1.2730    -2.1440 H     1 <1>   0.0800 
 37 H       -3.2940     0.0630    -1.6640 H     1 <1>   0.0800 
 38 H       -3.7970    -1.5780    -1.3310 H     1 <1>   0.0800 
 39 H        2.3420    -2.1530     0.1990 H     1 <1>   0.4500 
 40 H        4.0940    -4.3130    -0.8450 H     1 <1>   0.0800 
 41 H        4.2750    -2.6320    -1.2720 H     1 <1>   0.0800 
 42 H        4.5120    -2.0750     1.1530 H     1 <1>   0.0800 
 43 H        4.5410    -3.7760     1.5130 H     1 <1>   0.0800 
 44 H        6.5550    -4.1470     0.3120 H     1 <1>   0.1500 
 45 H        8.8020    -1.9310    -1.0520 H     1 <1>   0.0800 
 46 H        8.7550    -3.4260    -0.1570 H     1 <1>   0.0800 
 47 H        9.1840    -1.9450     0.6540 H     1 <1>   0.0800 
 48 H        7.3460    -0.1830     1.1200 H     1 <1>   0.0800 
 49 H        5.7440    -0.4240     0.4880 H     1 <1>   0.0800 
 50 H        7.0640    -0.1370    -0.6010 H     1 <1>   0.0800 
@<TRIPOS>BOND
  1   1   2  1   
  2   1   3  1   
  3   2   4  1   
  4   2   5  1   
  5   2   6  1   
  6   3   7  1   
  7   3  21  1   
  8   3  22  1   
  9   4   8  1   
 10   4   9  1   
 11   4  23  1   
 12   5  10  1   
 13   5  24  1   
 14   5  25  1   
 15   6  11  1   
 16   6  26  1   
 17   6  27  1   
 18   7   9  1   
 19   7  28  1   
 20   7  29  1   
 21   8  30  1   
 22   9  12  1   
 23   9  13  1   
 24  10  14  1   
 25  10  31  1   
 26  10  32  1   
 27  11  14  1   
 28  11  33  1   
 29  11  34  1   
 30  12  35  1   
 31  13  36  1   
 32  13  37  1   
 33  13  38  1   
 34  14  15  1   
 35  14  39  1   
 36  15  16  1   
 37  15  40  1   
 38  15  41  1   
 39  16  17  1   
 40  16  42  1   
 41  16  43  1   
 42  17  18  2   
 43  17  44  1   
 44  18  19  1   
 45  18  20  1   
 46  19  45  1   
 47  19  46  1   
 48  19  47  1   
 49  20  48  1   
 50  20  49  1   
 51  20  50  1   
@<TRIPOS>SUBSTRUCTURE
  1 ****   1 GROUP 4 **** **** 0

# MOE 2024.06 (io_trps.svl 2023.06)
