@<TRIPOS>MOLECULE
NONAME
52 54 1 0 0 
SMALL
USER_CHARGES


@<TRIPOS>ATOM
  1 O        1.9620     0.1020     2.0050 O.co2 1 <1>  -0.9000 
  2 C        1.8660    -0.1360     0.7960 C.2   1 <1>   0.9060 
  3 O        1.5670    -1.2640     0.3760 O.co2 1 <1>  -0.9000 
  4 C        2.2320     0.9330    -0.2360 C.3   1 <1>  -0.1060 
  5 C        3.5610     0.3960    -0.8270 C.3   1 <1>   0.2000 
  6 C        2.4690     2.3370     0.4020 C.3   1 <1>  -0.1600 
  7 C        1.1060     1.0610    -1.3060 C.3   1 <1>  -0.0160 
  8 O        3.3040    -0.5460    -1.8100 O.3   1 <1>  -0.6800 
  9 C        4.4800     1.5050    -1.3510 C.3   1 <1>   0.1400 
 10 C        3.8970     2.5120     0.9170 C.3   1 <1>   0.1400 
 11 C       -0.1350     1.8170    -0.8350 C.ar  1 <1>  -0.1440 
 12 N        4.8610     2.4400    -0.2330 N.am  1 <1>  -0.6600 
 13 C       -0.9850     1.2530     0.1030 C.ar  1 <1>  -0.1500 
 14 C       -0.4280     3.0750    -1.3420 C.ar  1 <1>  -0.1500 
 15 C        6.0470     3.1290    -0.2880 C.2   1 <1>   0.5690 
 16 C       -2.1080     1.9370     0.5340 C.ar  1 <1>  -0.1500 
 17 C       -1.5530     3.7600    -0.9140 C.ar  1 <1>  -0.1500 
 18 O        6.7360     3.1030    -1.2830 O.2   1 <1>  -0.5700 
 19 C        6.5050     3.9420     0.9220 C.3   1 <1>   0.0440 
 20 C       -2.3940     3.1920     0.0260 C.ar  1 <1>  -0.1500 
 21 C        7.9560     4.4210     0.8700 C.ar  1 <1>  -0.1430 
 22 C        8.2890     5.6370     0.2830 C.ar  1 <1>   0.0830 
 23 C        8.9630     3.6380     1.4150 C.ar  1 <1>  -0.1500 
 24 O        7.3260     6.4100    -0.2640 O.3   1 <1>  -0.3630 
 25 C        9.6070     6.0690     0.2600 C.ar  1 <1>  -0.1500 
 26 C       10.2800     4.0660     1.3850 C.ar  1 <1>  -0.1500 
 27 C        7.3250     6.4840    -1.6720 C.3   1 <1>   0.0400 
 28 C       10.6030     5.2830     0.8100 C.ar  1 <1>  -0.1500 
 29 H        4.1100    -0.1220    -0.0570 H     1 <1>   0.0800 
 30 H        1.7740     2.4900     1.2100 H     1 <1>   0.0800 
 31 H        2.2890     3.1150    -0.3180 H     1 <1>   0.0800 
 32 H        1.5070     1.5570    -2.1710 H     1 <1>   0.0800 
 33 H        0.7940     0.0840    -1.6320 H     1 <1>   0.0800 
 34 H        2.6890    -1.2020    -1.3920 H     1 <1>   0.4000 
 35 H        3.9770     2.0630    -2.1190 H     1 <1>   0.0800 
 36 H        5.3670     1.0600    -1.7660 H     1 <1>   0.0800 
 37 H        4.1200     1.7350     1.6300 H     1 <1>   0.0800 
 38 H        3.9690     3.4630     1.4130 H     1 <1>   0.0800 
 39 H       -0.7700     0.2760     0.5060 H     1 <1>   0.1500 
 40 H        0.2210     3.5240    -2.0720 H     1 <1>   0.1500 
 41 H       -2.7530     1.4860     1.2670 H     1 <1>   0.1500 
 42 H       -1.7710     4.7350    -1.3120 H     1 <1>   0.1500 
 43 H        5.8550     4.7910     1.0210 H     1 <1>   0.0800 
 44 H        6.3800     3.3380     1.8010 H     1 <1>   0.0800 
 45 H       -3.2660     3.7220     0.3620 H     1 <1>   0.1500 
 46 H        8.7260     2.6880     1.8610 H     1 <1>   0.1500 
 47 H        9.8470     7.0170    -0.1840 H     1 <1>   0.1500 
 48 H       11.0540     3.4500     1.8090 H     1 <1>   0.1500 
 49 H        6.4550     7.0340    -1.9800 H     1 <1>   0.0800 
 50 H        7.2920     5.4860    -2.0730 H     1 <1>   0.0800 
 51 H        8.2170     6.9870    -1.9990 H     1 <1>   0.0800 
 52 H       11.6260     5.6160     0.7910 H     1 <1>   0.1500 
@<TRIPOS>BOND
  1   1   2  ar  
  2   2   3  ar  
  3   2   4  1   
  4   4   5  1   
  5   4   6  1   
  6   4   7  1   
  7   5   8  1   
  8   5   9  1   
  9   5  29  1   
 10   6  10  1   
 11   6  30  1   
 12   6  31  1   
 13   7  11  1   
 14   7  32  1   
 15   7  33  1   
 16   8  34  1   
 17   9  12  1   
 18   9  35  1   
 19   9  36  1   
 20  10  12  1   
 21  10  37  1   
 22  10  38  1   
 23  11  13  ar  
 24  11  14  ar  
 25  12  15  am  
 26  13  16  ar  
 27  13  39  1   
 28  14  17  ar  
 29  14  40  1   
 30  15  18  2   
 31  15  19  1   
 32  16  20  ar  
 33  16  41  1   
 34  17  20  ar  
 35  17  42  1   
 36  19  21  1   
 37  19  43  1   
 38  19  44  1   
 39  20  45  1   
 40  21  22  ar  
 41  21  23  ar  
 42  22  24  1   
 43  22  25  ar  
 44  23  26  ar  
 45  23  46  1   
 46  24  27  1   
 47  25  28  ar  
 48  25  47  1   
 49  26  28  ar  
 50  26  48  1   
 51  27  49  1   
 52  27  50  1   
 53  27  51  1   
 54  28  52  1   
@<TRIPOS>SUBSTRUCTURE
  1 ****  12 GROUP 4 **** **** 0

# MOE 2024.06 (io_trps.svl 2023.06)
