@<TRIPOS>MOLECULE
Untitled Document
56 59 1 0 0 
SMALL
USER_CHARGES


@<TRIPOS>ATOM
  1 CL       2.0230    -1.0360     0.7250 Cl    1 <1>  -0.1770 
  2 C        3.0410     0.3770     0.9130 C.ar  1 <1>   0.1770 
  3 C        2.8660     1.4880     0.0950 C.ar  1 <1>  -0.0320 
  4 C        4.0200     0.3450     1.8900 C.ar  1 <1>  -0.1500 
  5 C        3.7080     2.5800     0.2600 C.ar  1 <1>  -0.1500 
  6 C        1.7830     1.5180    -0.9740 C.3   1 <1>  -0.0680 
  7 C        4.8370     1.4450     2.0390 C.ar  1 <1>   0.0830 
  8 C        4.7060     2.5710     1.2270 C.ar  1 <1>   0.1000 
  9 C        0.9600     2.7510    -1.2070 C.3   1 <1>  -0.2000 
 10 C        0.3420     1.5490    -0.5670 C.3   1 <1>  -0.2000 
 11 O        5.7930     1.4710     2.9810 O.3   1 <1>  -0.5320 
 12 N        5.5720     3.6560     1.3970 N.pl3 1 <1>  -0.8690 
 13 C        6.4700     3.9880     0.2320 C.3   1 <1>   0.2700 
 14 C        7.9310     4.2790     0.6130 C.2   1 <1>   0.5690 
 15 O        8.3030     5.4270     0.5200 O.2   1 <1>  -0.5700 
 16 N        8.7840     3.2800     1.0210 N.am  1 <1>  -0.6600 
 17 C        8.4340     1.8310     1.1400 C.3   1 <1>   0.1400 
 18 C       10.2020     3.5610     1.3950 C.3   1 <1>   0.1400 
 19 C        9.4410     0.9600     0.3680 C.3   1 <1>   0.1100 
 20 C       11.1620     2.6510     0.6100 C.3   1 <1>   0.1100 
 21 N       10.8330     1.2210     0.7930 N.3   1 <1>  -0.7500 
 22 C       11.7770     0.3650     0.0390 C.3   1 <1>   0.2100 
 23 C       11.7020    -1.1470     0.3780 C.3   1 <1>   0.2250 
 24 C       13.2130     0.3160     0.6260 C.3   1 <1>   0.2250 
 25 N       13.2060    -1.1690     0.4010 N.am  1 <1>  -0.5100 
 26 C       14.0040    -1.8340    -0.4870 C.2   1 <1>   0.6160 
 27 O       13.5030    -2.6200    -1.2670 O.2   1 <1>  -0.5700 
 28 C       15.4290    -1.5970    -0.4960 C.2   1 <1>  -0.1360 
 29 C       16.3380    -2.0800    -1.3630 C.2   1 <1>  -0.3000 
 30 H        4.1390    -0.5160     2.5210 H     1 <1>   0.1500 
 31 H        3.5900     3.4430    -0.3670 H     1 <1>   0.1500 
 32 H        2.0360     0.9180    -1.8320 H     1 <1>   0.1000 
 33 H        0.6790     3.0010    -2.2150 H     1 <1>   0.1000 
 34 H        1.1100     3.6220    -0.5930 H     1 <1>   0.1000 
 35 H        0.1040     1.5830     0.4820 H     1 <1>   0.1000 
 36 H       -0.3600     0.9580    -1.1290 H     1 <1>   0.1000 
 37 H        6.2010     2.3650     2.9440 H     1 <1>   0.4500 
 38 H        5.0820     4.5110     1.6960 H     1 <1>   0.4000 
 39 H        6.0790     4.8580    -0.2660 H     1 <1>   0.0800 
 40 H        6.4600     3.1820    -0.4790 H     1 <1>   0.0800 
 41 H        7.4470     1.6360     0.7660 H     1 <1>   0.0800 
 42 H        8.4550     1.5480     2.1780 H     1 <1>   0.0800 
 43 H       10.3310     3.3870     2.4490 H     1 <1>   0.0800 
 44 H       10.4500     4.5900     1.1970 H     1 <1>   0.0800 
 45 H        9.3370     1.1520    -0.6860 H     1 <1>   0.0800 
 46 H        9.1980    -0.0740     0.5440 H     1 <1>   0.0800 
 47 H       12.1640     2.8380     0.9550 H     1 <1>   0.0800 
 48 H       11.1140     2.9100    -0.4340 H     1 <1>   0.0800 
 49 H       11.7600     0.5610    -1.0190 H     1 <1>   0.0000 
 50 H       11.2880    -1.7460    -0.4130 H     1 <1>   0.0000 
 51 H       11.3020    -1.3600     1.3540 H     1 <1>   0.0000 
 52 H       13.2710     0.5450     1.6760 H     1 <1>   0.0000 
 53 H       13.9450     0.8160     0.0170 H     1 <1>   0.0000 
 54 H       15.7530    -0.9580     0.3030 H     1 <1>   0.1500 
 55 H       17.3920    -1.8700    -1.3180 H     1 <1>   0.1500 
 56 H       16.0820    -2.7290    -2.1840 H     1 <1>   0.1500 
@<TRIPOS>BOND
  1   1   2  1   
  2   2   3  ar  
  3   2   4  ar  
  4   3   5  ar  
  5   3   6  1   
  6   4   7  ar  
  7   4  30  1   
  8   5   8  ar  
  9   5  31  1   
 10   6   9  1   
 11   6  10  1   
 12   6  32  1   
 13   7   8  ar  
 14   7  11  1   
 15   8  12  1   
 16   9  10  1   
 17   9  33  1   
 18   9  34  1   
 19  10  35  1   
 20  10  36  1   
 21  11  37  1   
 22  12  13  1   
 23  12  38  1   
 24  13  14  1   
 25  13  39  1   
 26  13  40  1   
 27  14  15  2   
 28  14  16  am  
 29  16  17  1   
 30  16  18  1   
 31  17  19  1   
 32  17  41  1   
 33  17  42  1   
 34  18  20  1   
 35  18  43  1   
 36  18  44  1   
 37  19  21  1   
 38  19  45  1   
 39  19  46  1   
 40  20  21  1   
 41  20  47  1   
 42  20  48  1   
 43  21  22  1   
 44  22  23  1   
 45  22  24  1   
 46  22  49  1   
 47  23  25  1   
 48  23  50  1   
 49  23  51  1   
 50  24  25  1   
 51  24  52  1   
 52  24  53  1   
 53  25  26  am  
 54  26  27  2   
 55  26  28  1   
 56  28  29  2   
 57  28  54  1   
 58  29  55  1   
 59  29  56  1   
@<TRIPOS>SUBSTRUCTURE
  1 ****  17 GROUP 4 **** **** 0

# MOE 2024.06 (io_trps.svl 2023.06)
