@<TRIPOS>MOLECULE
NONAME
52 54 1 0 0 
SMALL
USER_CHARGES


@<TRIPOS>ATOM
  1 S        0.4200     0.4230    -0.4850 S.o2  1 <1>   1.3330 
  2 O       -0.6890     1.2730    -0.8530 O.2   1 <1>  -0.6500 
  3 O        0.5120    -0.9140    -1.0280 O.2   1 <1>  -0.6500 
  4 N        0.4190     0.2990     1.2100 N.am  1 <1>  -0.8490 
  5 C        1.9560     1.2780    -0.8460 C.3   1 <1>  -0.0550 
  6 C       -0.3550    -0.8560     1.6790 C.3   1 <1>   0.1160 
  7 C       -0.0530     1.5150     1.8820 C.3   1 <1>   0.1160 
  8 C        3.2290     0.4500    -0.5650 C.3   1 <1>  -0.0800 
  9 C        4.5260     1.1000    -1.0240 C.3   1 <1>   0.2200 
 10 C        3.5050     0.1530     0.9150 C.3   1 <1>   0.1200 
 11 N        4.5450     2.5430    -0.6780 N.am  1 <1>  -0.7300 
 12 C        5.5270     0.3730    -0.1380 C.3   1 <1>   0.1200 
 13 O        4.8890     0.2540     1.0960 O.3   1 <1>  -0.5600 
 14 C        4.2890     3.5690    -1.5400 C.2   1 <1>   0.5440 
 15 O        3.9640     3.2930    -2.6760 O.2   1 <1>  -0.5700 
 16 C        4.3990     4.9390    -1.0840 C.ar  1 <1>   0.0860 
 17 C        3.3750     5.8990    -1.3020 C.ar  1 <1>   0.1670 
 18 C        5.5140     5.3530    -0.3980 C.ar  1 <1>  -0.1500 
 19 N        3.4270     7.1290    -0.8890 N.ar  1 <1>  -0.6200 
 20 C        2.1070     5.5150    -2.0490 C.3   1 <1>  -0.0970 
 21 C        5.6060     6.6740     0.0590 C.ar  1 <1>   0.0000 
 22 C        4.5270     7.5390    -0.2120 C.ar  1 <1>   0.3100 
 23 C        6.7180     7.1690     0.7710 C.ar  1 <1>  -0.1500 
 24 C        4.6030     8.8650     0.2390 C.ar  1 <1>  -0.1500 
 25 C        6.7660     8.4690     1.2010 C.ar  1 <1>  -0.1440 
 26 C        5.6920     9.3250     0.9300 C.ar  1 <1>  -0.1500 
 27 C        7.9590     9.0100     1.9680 C.3   1 <1>  -0.0970 
 28 H        1.9560     1.5370    -1.8880 H     1 <1>   0.0800 
 29 H        1.9870     2.1940    -0.2910 H     1 <1>   0.0800 
 30 H       -0.3280    -0.9130     2.7540 H     1 <1>   0.0800 
 31 H        0.0630    -1.7660     1.2840 H     1 <1>   0.0800 
 32 H       -1.3800    -0.7770     1.3530 H     1 <1>   0.0800 
 33 H        0.0530     1.4130     2.9490 H     1 <1>   0.0800 
 34 H       -1.0890     1.6980     1.6490 H     1 <1>   0.0800 
 35 H        0.5270     2.3650     1.5640 H     1 <1>   0.0800 
 36 H        3.1380    -0.4940    -1.0730 H     1 <1>   0.0800 
 37 H        4.7210     0.9540    -2.0740 H     1 <1>   0.0800 
 38 H        3.1850    -0.8380     1.1900 H     1 <1>   0.0800 
 39 H        3.0420     0.8760     1.5630 H     1 <1>   0.0800 
 40 H        4.7460     2.7270     0.3090 H     1 <1>   0.3700 
 41 H        6.4520     0.9100    -0.0220 H     1 <1>   0.0800 
 42 H        5.7190    -0.6180    -0.5100 H     1 <1>   0.0800 
 43 H        6.3300     4.6790    -0.2080 H     1 <1>   0.1500 
 44 H        1.6840     4.6160    -1.6410 H     1 <1>   0.0800 
 45 H        2.3320     5.3600    -3.0890 H     1 <1>   0.0800 
 46 H        1.3740     6.2980    -1.9750 H     1 <1>   0.0800 
 47 H        7.5340     6.4990     0.9690 H     1 <1>   0.1500 
 48 H        3.7720     9.5100     0.0220 H     1 <1>   0.1500 
 49 H        5.7310    10.3460     1.2680 H     1 <1>   0.1500 
 50 H        7.6440     9.3630     2.9340 H     1 <1>   0.0800 
 51 H        8.4030     9.8260     1.4270 H     1 <1>   0.0800 
 52 H        8.7040     8.2470     2.1090 H     1 <1>   0.0800 
@<TRIPOS>BOND
  1   1   2  2   
  2   1   3  2   
  3   1   4  am  
  4   1   5  1   
  5   4   6  1   
  6   4   7  1   
  7   5   8  1   
  8   5  28  1   
  9   5  29  1   
 10   6  30  1   
 11   6  31  1   
 12   6  32  1   
 13   7  33  1   
 14   7  34  1   
 15   7  35  1   
 16   8   9  1   
 17   8  10  1   
 18   8  36  1   
 19   9  11  1   
 20   9  12  1   
 21   9  37  1   
 22  10  13  1   
 23  10  38  1   
 24  10  39  1   
 25  11  14  am  
 26  11  40  1   
 27  12  13  1   
 28  12  41  1   
 29  12  42  1   
 30  14  15  2   
 31  14  16  1   
 32  16  17  ar  
 33  16  18  ar  
 34  17  19  ar  
 35  17  20  1   
 36  18  21  ar  
 37  18  43  1   
 38  19  22  ar  
 39  20  44  1   
 40  20  45  1   
 41  20  46  1   
 42  21  22  ar  
 43  21  23  ar  
 44  22  24  ar  
 45  23  25  ar  
 46  23  47  1   
 47  24  26  ar  
 48  24  48  1   
 49  25  26  ar  
 50  25  27  1   
 51  26  49  1   
 52  27  50  1   
 53  27  51  1   
 54  27  52  1   
@<TRIPOS>SUBSTRUCTURE
  1 ****  14 GROUP 4 **** **** 0

# MOE 2024.06 (io_trps.svl 2023.06)
