@<TRIPOS>MOLECULE
NONAME
56 58 1 0 0 
SMALL
USER_CHARGES


@<TRIPOS>ATOM
  1 S        0.1910     0.4980     1.9750 S.o2  1 <1>   1.4470 
  2 O       -0.2390    -0.4570     2.9740 O.2   1 <1>  -0.6500 
  3 O        0.3790     1.8830     2.3560 O.2   1 <1>  -0.6500 
  4 N       -0.9680     0.4830     0.7390 N.am  1 <1>  -0.8490 
  5 C        1.6800    -0.1330     1.1510 C.ar  1 <1>  -0.0090 
  6 C       -2.3240     0.6610     1.2810 C.3   1 <1>   0.1960 
  7 C       -0.6980     1.5010    -0.2820 C.3   1 <1>   0.1960 
  8 C        2.8840     0.5590     1.2020 C.ar  1 <1>  -0.1500 
  9 C        1.6510    -1.3290     0.4440 C.ar  1 <1>  -0.1500 
 10 C       -3.3980     0.4440     0.1970 C.3   1 <1>   0.0000 
 11 C       -1.6680     1.3460    -1.4570 C.3   1 <1>  -0.1600 
 12 C        4.0160     0.0790     0.5670 C.ar  1 <1>  -0.1500 
 13 C        2.7790    -1.8150    -0.1940 C.ar  1 <1>  -0.1500 
 14 C       -4.8050     0.6070     0.7990 C.3   1 <1>   0.2000 
 15 C       -3.1320     1.4090    -0.9900 C.3   1 <1>  -0.1600 
 16 C       -3.4480    -1.0170    -0.2880 C.3   1 <1>  -0.1600 
 17 C        3.9700    -1.1110    -0.1380 C.ar  1 <1>  -0.1430 
 18 O       -5.1680     1.9500     0.9150 O.3   1 <1>  -0.5600 
 19 C       -5.7420    -0.1550    -0.1410 C.3   1 <1>  -0.1600 
 20 C       -4.8770    -1.2370    -0.8020 C.3   1 <1>  -0.1600 
 21 C        5.2130    -1.6430    -0.8350 C.3   1 <1>  -0.0170 
 22 C       -6.2850     2.1920     1.7120 C.3   1 <1>   0.0400 
 23 C        6.0160    -2.5440     0.1100 C.3   1 <1>  -0.1600 
 24 C        7.2760    -3.0940    -0.5700 C.3   1 <1>  -0.1600 
 25 C        8.0670    -3.9920     0.3840 C.3   1 <1>  -0.2400 
 26 H       -2.4910    -0.0440     2.0780 H     1 <1>   0.0800 
 27 H       -2.4240     1.6530     1.6940 H     1 <1>   0.0800 
 28 H       -0.8000     2.4860     0.1450 H     1 <1>   0.0800 
 29 H        0.3100     1.3950    -0.6470 H     1 <1>   0.0800 
 30 H        2.9370     1.4870     1.7470 H     1 <1>   0.1500 
 31 H        0.7290    -1.8840     0.3940 H     1 <1>   0.1500 
 32 H       -1.4880     2.1310    -2.1680 H     1 <1>   0.0800 
 33 H       -1.4700     0.4120    -1.9520 H     1 <1>   0.0800 
 34 H        4.9360     0.6360     0.6260 H     1 <1>   0.1500 
 35 H        2.7260    -2.7460    -0.7320 H     1 <1>   0.1500 
 36 H       -4.8250     0.1540     1.7770 H     1 <1>   0.0800 
 37 H       -3.7890     1.1940    -1.8140 H     1 <1>   0.0800 
 38 H       -3.3310     2.4190    -0.6760 H     1 <1>   0.0800 
 39 H       -2.7130    -1.2400    -1.0400 H     1 <1>   0.0800 
 40 H       -3.2770    -1.6750     0.5460 H     1 <1>   0.0800 
 41 H       -6.5580    -0.5930     0.4040 H     1 <1>   0.0800 
 42 H       -6.1230     0.5100    -0.8960 H     1 <1>   0.0800 
 43 H       -5.2230    -2.2260    -0.5530 H     1 <1>   0.0800 
 44 H       -4.9060    -1.1200    -1.8720 H     1 <1>   0.0800 
 45 H        4.9240    -2.1980    -1.7100 H     1 <1>   0.0800 
 46 H        5.8240    -0.8190    -1.1590 H     1 <1>   0.0800 
 47 H       -6.4470     3.2550     1.7430 H     1 <1>   0.0800 
 48 H       -6.0990     1.8250     2.7060 H     1 <1>   0.0800 
 49 H       -7.1450     1.7090     1.2820 H     1 <1>   0.0800 
 50 H        6.2940    -1.9800     0.9830 H     1 <1>   0.0800 
 51 H        5.3930    -3.3620     0.4300 H     1 <1>   0.0800 
 52 H        7.0000    -3.6630    -1.4420 H     1 <1>   0.0800 
 53 H        7.9030    -2.2780    -0.8880 H     1 <1>   0.0800 
 54 H        7.4680    -4.8280     0.6990 H     1 <1>   0.0800 
 55 H        8.3750    -3.4390     1.2540 H     1 <1>   0.0800 
 56 H        8.9460    -4.3690    -0.1090 H     1 <1>   0.0800 
@<TRIPOS>BOND
  1   1   2  2   
  2   1   3  2   
  3   1   4  am  
  4   1   5  1   
  5   4   6  1   
  6   4   7  1   
  7   5   8  ar  
  8   5   9  ar  
  9   6  10  1   
 10   6  26  1   
 11   6  27  1   
 12   7  11  1   
 13   7  28  1   
 14   7  29  1   
 15   8  12  ar  
 16   8  30  1   
 17   9  13  ar  
 18   9  31  1   
 19  10  14  1   
 20  10  15  1   
 21  10  16  1   
 22  11  15  1   
 23  11  32  1   
 24  11  33  1   
 25  12  17  ar  
 26  12  34  1   
 27  13  17  ar  
 28  13  35  1   
 29  14  18  1   
 30  14  19  1   
 31  14  36  1   
 32  15  37  1   
 33  15  38  1   
 34  16  20  1   
 35  16  39  1   
 36  16  40  1   
 37  17  21  1   
 38  18  22  1   
 39  19  20  1   
 40  19  41  1   
 41  19  42  1   
 42  20  43  1   
 43  20  44  1   
 44  21  23  1   
 45  21  45  1   
 46  21  46  1   
 47  22  47  1   
 48  22  48  1   
 49  22  49  1   
 50  23  24  1   
 51  23  50  1   
 52  23  51  1   
 53  24  25  1   
 54  24  52  1   
 55  24  53  1   
 56  25  54  1   
 57  25  55  1   
 58  25  56  1   
@<TRIPOS>SUBSTRUCTURE
  1 ****   4 GROUP 4 **** **** 0

# MOE 2024.06 (io_trps.svl 2023.06)
