@<TRIPOS>MOLECULE
NONAME
55 57 1 0 0 
SMALL
USER_CHARGES


@<TRIPOS>ATOM
  1 O       -1.2630     0.0520     2.3720 O.2   1 <1>  -0.5700 
  2 C       -1.6360     0.5430     1.3350 C.2   1 <1>   0.5690 
  3 N       -2.0730    -0.2200     0.2850 N.am  1 <1>  -0.6600 
  4 C       -1.5860     2.0570     1.2310 C.3   1 <1>  -0.0990 
  5 C       -2.0580    -1.7210     0.3860 C.3   1 <1>   0.3640 
  6 C       -2.6170     0.3460    -0.9910 C.3   1 <1>   0.1400 
  7 C       -0.2700     2.5270     0.5940 C.3   1 <1>  -0.0650 
  8 C       -0.7810    -2.3280    -0.2240 C.ar  1 <1>  -0.1440 
  9 C       -3.3430    -2.3530    -0.2410 C.3   1 <1>   0.2000 
 10 C       -3.0570    -0.7460    -1.9770 C.3   1 <1>   0.1200 
 11 C       -0.2820     4.0300     0.2690 C.3   1 <1>  -0.1900 
 12 C       -0.5440    -3.6820    -0.0220 C.ar  1 <1>  -0.1500 
 13 C        0.1530    -1.5970    -0.9540 C.ar  1 <1>  -0.1500 
 14 O       -3.9020    -1.6410    -1.3250 O.3   1 <1>  -0.5600 
 15 C       -4.4550    -2.4970     0.8050 C.3   1 <1>   0.1200 
 16 C        0.5500     4.5020    -0.8780 C.3   1 <1>  -0.2000 
 17 C       -0.9540     4.4900    -0.9830 C.3   1 <1>  -0.2000 
 18 C       -0.3510     4.9270     1.5110 C.3   1 <1>  -0.1450 
 19 C        0.5720    -4.3070    -0.5530 C.ar  1 <1>   0.0830 
 20 C        1.2840    -2.2060    -1.4720 C.ar  1 <1>  -0.1500 
 21 O       -4.1400    -3.5100     1.7060 O.3   1 <1>  -0.6800 
 22 O        0.6930    -5.6420    -0.3470 O.3   1 <1>  -0.3630 
 23 C        1.5100    -3.5550    -1.2660 C.ar  1 <1>   0.0830 
 24 C        0.6780    -6.4630    -1.4950 C.3   1 <1>   0.0400 
 25 O        2.6540    -4.0820    -1.7660 O.3   1 <1>  -0.3630 
 26 C        3.6060    -4.5040    -0.8150 C.3   1 <1>   0.0400 
 27 H       -2.4250     2.4210     0.6710 H     1 <1>   0.0800 
 28 H       -1.6660     2.4600     2.2230 H     1 <1>   0.0800 
 29 H       -2.0420    -1.9970     1.4270 H     1 <1>   0.0800 
 30 H       -3.4720     0.9600    -0.7670 H     1 <1>   0.0800 
 31 H       -1.8740     0.9650    -1.4610 H     1 <1>   0.0800 
 32 H       -0.0980     1.9710    -0.3110 H     1 <1>   0.0800 
 33 H        0.5460     2.3070     1.2610 H     1 <1>   0.0800 
 34 H       -3.1130    -3.3330    -0.6170 H     1 <1>   0.0800 
 35 H       -2.2150    -1.2850    -2.3760 H     1 <1>   0.0800 
 36 H       -3.6050    -0.3110    -2.7940 H     1 <1>   0.0800 
 37 H       -1.2310    -4.2770     0.5540 H     1 <1>   0.1500 
 38 H        0.0250    -0.5450    -1.1210 H     1 <1>   0.1500 
 39 H       -5.3900    -2.7480     0.3350 H     1 <1>   0.0800 
 40 H       -4.5630    -1.5810     1.3590 H     1 <1>   0.0800 
 41 H        1.0510     5.4520    -0.8100 H     1 <1>   0.1000 
 42 H        1.1120     3.7870    -1.4540 H     1 <1>   0.1000 
 43 H       -1.4150     3.7680    -1.6340 H     1 <1>   0.1000 
 44 H       -1.4750     5.4320    -0.9830 H     1 <1>   0.1000 
 45 H       -0.2730     5.9640     1.2360 H     1 <1>   0.0800 
 46 H        0.4560     4.6940     2.1820 H     1 <1>   0.0800 
 47 H       -1.2830     4.7900     2.0280 H     1 <1>   0.0800 
 48 H        2.0020    -1.6340    -2.0300 H     1 <1>   0.1500 
 49 H       -4.3170    -4.3900     1.3180 H     1 <1>   0.4000 
 50 H        0.6240    -7.4870    -1.1750 H     1 <1>   0.0800 
 51 H        1.5780    -6.3040    -2.0600 H     1 <1>   0.0800 
 52 H       -0.1840    -6.2150    -2.0890 H     1 <1>   0.0800 
 53 H        4.4880    -4.8230    -1.3400 H     1 <1>   0.0800 
 54 H        3.2030    -5.3220    -0.2450 H     1 <1>   0.0800 
 55 H        3.8390    -3.6780    -0.1680 H     1 <1>   0.0800 
@<TRIPOS>BOND
  1   1   2  2   
  2   2   3  am  
  3   2   4  1   
  4   3   5  1   
  5   3   6  1   
  6   4   7  1   
  7   4  27  1   
  8   4  28  1   
  9   5   8  1   
 10   5   9  1   
 11   5  29  1   
 12   6  10  1   
 13   6  30  1   
 14   6  31  1   
 15   7  11  1   
 16   7  32  1   
 17   7  33  1   
 18   8  12  ar  
 19   8  13  ar  
 20   9  14  1   
 21   9  15  1   
 22   9  34  1   
 23  10  14  1   
 24  10  35  1   
 25  10  36  1   
 26  11  16  1   
 27  11  17  1   
 28  11  18  1   
 29  12  19  ar  
 30  12  37  1   
 31  13  20  ar  
 32  13  38  1   
 33  15  21  1   
 34  15  39  1   
 35  15  40  1   
 36  16  17  1   
 37  16  41  1   
 38  16  42  1   
 39  17  43  1   
 40  17  44  1   
 41  18  45  1   
 42  18  46  1   
 43  18  47  1   
 44  19  22  1   
 45  19  23  ar  
 46  20  23  ar  
 47  20  48  1   
 48  21  49  1   
 49  22  24  1   
 50  23  25  1   
 51  24  50  1   
 52  24  51  1   
 53  24  52  1   
 54  25  26  1   
 55  26  53  1   
 56  26  54  1   
 57  26  55  1   
@<TRIPOS>SUBSTRUCTURE
  1 ****   8 GROUP 4 **** **** 0

# MOE 2024.06 (io_trps.svl 2023.06)
