@<TRIPOS>MOLECULE
NONAME
47 49 1 0 0 
SMALL
USER_CHARGES


@<TRIPOS>ATOM
  1 O       -2.0440     0.8760    -2.0120 O.2   1 <1>  -0.5700 
  2 C       -1.7190     0.8670    -0.8390 C.2   1 <1>   0.7150 
  3 N       -1.8680    -0.2900    -0.1320 N.am  1 <1>  -0.7300 
  4 C       -1.1980     2.0500    -0.2080 C.2   1 <1>   0.0550 
  5 C       -2.3980    -1.5640    -0.6650 C.3   1 <1>   0.2200 
  6 O       -0.8570     2.0560     1.0610 O.3   1 <1>  -0.0190 
  7 C       -0.9520     3.2980    -0.6680 C.2   1 <1>  -0.1500 
  8 C       -3.8370    -1.7350    -0.2100 C.3   1 <1>  -0.0800 
  9 C       -1.7100    -2.7380     0.0260 C.3   1 <1>   0.1200 
 10 N       -0.4110     3.2060     1.4620 N.2   1 <1>  -0.4100 
 11 C       -0.4590     3.9800     0.4350 C.2   1 <1>   0.1080 
 12 C       -3.6590    -2.3300     1.1910 C.3   1 <1>   0.1200 
 13 C       -4.6190    -2.6750    -1.1480 C.3   1 <1>  -0.0160 
 14 O       -2.4140    -2.9650     1.2110 O.3   1 <1>  -0.5600 
 15 C       -0.0300     5.4370     0.4450 C.3   1 <1>   0.0210 
 16 C       -6.0670    -2.8230    -0.7080 C.ar  1 <1>  -0.1440 
 17 C       -1.2060     6.4060     0.2130 C.3   1 <1>  -0.0800 
 18 C       -6.9930    -1.8200    -0.9150 C.ar  1 <1>  -0.1500 
 19 C       -6.5320    -3.9620    -0.0830 C.ar  1 <1>  -0.1500 
 20 C       -0.6990     7.8520     0.1380 C.3   1 <1>  -0.2400 
 21 C       -2.2650     6.2870     1.3180 C.3   1 <1>  -0.2400 
 22 C       -8.3010    -1.9980    -0.4940 C.ar  1 <1>   0.1600 
 23 C       -7.8610    -4.0390     0.2990 C.ar  1 <1>   0.1600 
 24 N       -8.7560    -3.0830     0.1110 N.ar  1 <1>  -0.6200 
 25 H       -1.6290    -0.2970     0.8630 H     1 <1>   0.3700 
 26 H       -2.2830    -1.6000    -1.7350 H     1 <1>   0.0800 
 27 H       -1.1020     3.6850    -1.6590 H     1 <1>   0.1500 
 28 H       -4.3480    -0.7890    -0.1650 H     1 <1>   0.0800 
 29 H       -0.6760    -2.5400     0.2510 H     1 <1>   0.0800 
 30 H       -1.7860    -3.6280    -0.5730 H     1 <1>   0.0800 
 31 H       -4.4220    -3.0420     1.4520 H     1 <1>   0.0800 
 32 H       -3.6350    -1.5500     1.9320 H     1 <1>   0.0800 
 33 H       -4.1520    -3.6440    -1.1810 H     1 <1>   0.0800 
 34 H       -4.6040    -2.2740    -2.1470 H     1 <1>   0.0800 
 35 H        0.4380     5.6560     1.3880 H     1 <1>   0.0800 
 36 H        0.7080     5.5750    -0.3250 H     1 <1>   0.0800 
 37 H       -1.6690     6.1630    -0.7290 H     1 <1>   0.0800 
 38 H       -6.7110    -0.9030    -1.3990 H     1 <1>   0.1500 
 39 H       -5.8760    -4.7910     0.1120 H     1 <1>   0.1500 
 40 H       -0.2320     8.1390     1.0640 H     1 <1>   0.0800 
 41 H       -1.5170     8.5240    -0.0560 H     1 <1>   0.0800 
 42 H        0.0180     7.9580    -0.6570 H     1 <1>   0.0800 
 43 H       -1.8340     6.5020     2.2810 H     1 <1>   0.0800 
 44 H       -2.6770     5.2940     1.3450 H     1 <1>   0.0800 
 45 H       -3.0700     6.9780     1.1410 H     1 <1>   0.0800 
 46 H       -9.0090    -1.2050    -0.6630 H     1 <1>   0.1500 
 47 H       -8.2060    -4.9350     0.7870 H     1 <1>   0.1500 
@<TRIPOS>BOND
  1   1   2  2   
  2   2   3  am  
  3   2   4  1   
  4   3   5  1   
  5   3  25  1   
  6   4   6  1   
  7   4   7  2   
  8   5   8  1   
  9   5   9  1   
 10   5  26  1   
 11   6  10  1   
 12   7  11  1   
 13   7  27  1   
 14   8  12  1   
 15   8  13  1   
 16   8  28  1   
 17   9  14  1   
 18   9  29  1   
 19   9  30  1   
 20  10  11  2   
 21  11  15  1   
 22  12  14  1   
 23  12  31  1   
 24  12  32  1   
 25  13  16  1   
 26  13  33  1   
 27  13  34  1   
 28  15  17  1   
 29  15  35  1   
 30  15  36  1   
 31  16  18  ar  
 32  16  19  ar  
 33  17  20  1   
 34  17  21  1   
 35  17  37  1   
 36  18  22  ar  
 37  18  38  1   
 38  19  23  ar  
 39  19  39  1   
 40  20  40  1   
 41  20  41  1   
 42  20  42  1   
 43  21  43  1   
 44  21  44  1   
 45  21  45  1   
 46  22  24  ar  
 47  22  46  1   
 48  23  24  ar  
 49  23  47  1   
@<TRIPOS>SUBSTRUCTURE
  1 ****   3 GROUP 4 **** **** 0

# MOE 2024.06 (io_trps.svl 2023.06)
