@<TRIPOS>MOLECULE
NONAME
56 59 1 0 0 
SMALL
USER_CHARGES


@<TRIPOS>ATOM
  1 O        3.3730     2.2860     2.0010 O.co2 1 <1>  -0.9000 
  2 C        2.9510     1.1660     1.7080 C.2   1 <1>   0.9060 
  3 O        3.1720     0.1960     2.4390 O.co2 1 <1>  -0.9000 
  4 C        2.5080     0.8990     0.2550 C.3   1 <1>  -0.1060 
  5 C        3.5480    -0.1000    -0.2900 C.3   1 <1>   0.4230 
  6 C        2.5860     2.1880    -0.6300 C.3   1 <1>  -0.1600 
  7 C        1.0670     0.3310     0.1650 C.3   1 <1>  -0.1600 
  8 N        3.3740    -1.4430     0.3790 N.4   1 <1>  -0.9590 
  9 C        4.9840     0.5170    -0.1330 C.3   1 <1>   0.3430 
 10 C        4.0050     2.6670    -1.0000 C.3   1 <1>   0.3430 
 11 C        0.9550    -1.0950     0.7230 C.3   1 <1>  -0.1600 
 12 C        2.0240    -2.0270     0.1520 C.3   1 <1>   0.3430 
 13 C        4.4500    -2.4520     0.1640 C.3   1 <1>   0.2630 
 14 N        5.0070     2.0280    -0.1070 N.4   1 <1>  -0.9590 
 15 C        6.3620     2.6390    -0.1420 C.3   1 <1>   0.4860 
 16 C        6.2550     4.1420     0.0450 C.ar  1 <1>  -0.1440 
 17 C        6.7220     5.0030    -0.9370 C.ar  1 <1>  -0.1500 
 18 C        5.6830     4.6720     1.1940 C.ar  1 <1>  -0.1500 
 19 C        6.6130     6.3730    -0.7740 C.ar  1 <1>  -0.1500 
 20 C        5.5760     6.0410     1.3540 C.ar  1 <1>  -0.1500 
 21 C        6.0400     6.9020     0.3710 C.ar  1 <1>  -0.1440 
 22 C        5.9170     8.4140     0.5420 C.3   1 <1>   0.2390 
 23 N        7.2300     9.0850     0.4350 N.pl3 1 <1>   0.3140 
 24 N        7.4970     9.9810    -0.5380 N.2   1 <1>  -0.7070 
 25 C        8.2920     8.9290     1.2530 C.2   1 <1>  -0.3020 
 26 C        8.7160    10.3660    -0.3130 C.2   1 <1>   0.1390 
 27 C        9.2680     9.7420     0.7980 C.2   1 <1>  -0.1500 
 28 H        3.3610    -0.2280    -1.3430 H     1 <1>   0.0800 
 29 H        2.0860     2.9920    -0.1140 H     1 <1>   0.0800 
 30 H        2.0490     2.0490    -1.5510 H     1 <1>   0.0800 
 31 H        0.3930     0.9770     0.7050 H     1 <1>   0.0800 
 32 H        0.7420     0.3120    -0.8610 H     1 <1>   0.0800 
 33 H        3.3620    -1.1710     1.4030 H     1 <1>   0.4500 
 34 H        5.6030     0.1610    -0.9380 H     1 <1>   0.0800 
 35 H        5.3960     0.1660     0.7990 H     1 <1>   0.0800 
 36 H        4.0460     3.7410    -0.8980 H     1 <1>   0.0800 
 37 H        4.2220     2.4190    -2.0260 H     1 <1>   0.0800 
 38 H       -0.0180    -1.4920     0.4920 H     1 <1>   0.0800 
 39 H        1.0380    -1.0780     1.7960 H     1 <1>   0.0800 
 40 H        1.8570    -2.1710    -0.9030 H     1 <1>   0.0800 
 41 H        1.9500    -2.9840     0.6430 H     1 <1>   0.0800 
 42 H        4.5080    -2.7250    -0.8770 H     1 <1>   0.0800 
 43 H        4.2410    -3.3390     0.7400 H     1 <1>   0.0800 
 44 H        5.4020    -2.0640     0.4830 H     1 <1>   0.0800 
 45 H        4.6330     2.2990     0.8440 H     1 <1>   0.4500 
 46 H        6.9670     2.2310     0.6520 H     1 <1>   0.0800 
 47 H        6.8410     2.4250    -1.0830 H     1 <1>   0.0800 
 48 H        7.1760     4.6240    -1.8370 H     1 <1>   0.1500 
 49 H        5.3080     4.0300     1.9780 H     1 <1>   0.1500 
 50 H        6.9830     7.0330    -1.5430 H     1 <1>   0.1500 
 51 H        5.1240     6.4260     2.2530 H     1 <1>   0.1500 
 52 H        5.4960     8.6540     1.5000 H     1 <1>   0.0800 
 53 H        5.2730     8.8110    -0.2200 H     1 <1>   0.0800 
 54 H        8.2920     8.2600     2.0940 H     1 <1>   0.1500 
 55 H        9.2310    11.0890    -0.9240 H     1 <1>   0.1500 
 56 H       10.2600     9.8940     1.1840 H     1 <1>   0.1500 
@<TRIPOS>BOND
  1   1   2  ar  
  2   2   3  ar  
  3   2   4  1   
  4   4   5  1   
  5   4   6  1   
  6   4   7  1   
  7   5   8  1   
  8   5   9  1   
  9   5  28  1   
 10   6  10  1   
 11   6  29  1   
 12   6  30  1   
 13   7  11  1   
 14   7  31  1   
 15   7  32  1   
 16   8  12  1   
 17   8  13  1   
 18   8  33  1   
 19   9  14  1   
 20   9  34  1   
 21   9  35  1   
 22  10  14  1   
 23  10  36  1   
 24  10  37  1   
 25  11  12  1   
 26  11  38  1   
 27  11  39  1   
 28  12  40  1   
 29  12  41  1   
 30  13  42  1   
 31  13  43  1   
 32  13  44  1   
 33  14  15  1   
 34  14  45  1   
 35  15  16  1   
 36  15  46  1   
 37  15  47  1   
 38  16  17  ar  
 39  16  18  ar  
 40  17  19  ar  
 41  17  48  1   
 42  18  20  ar  
 43  18  49  1   
 44  19  21  ar  
 45  19  50  1   
 46  20  21  ar  
 47  20  51  1   
 48  21  22  1   
 49  22  23  1   
 50  22  52  1   
 51  22  53  1   
 52  23  24  1   
 53  23  25  1   
 54  24  26  2   
 55  25  27  2   
 56  25  54  1   
 57  26  27  1   
 58  26  55  1   
 59  27  56  1   
@<TRIPOS>SUBSTRUCTURE
  1 ****  16 GROUP 4 **** **** 0

# MOE 2024.06 (io_trps.svl 2023.06)
