@<TRIPOS>MOLECULE
NONAME
50 52 1 0 0 
SMALL
USER_CHARGES


@<TRIPOS>ATOM
  1 O        2.6320    -1.8910    -0.9830 O.2   1 <1>  -0.5700 
  2 C        1.7150    -2.6720    -0.7850 C.2   1 <1>   0.5440 
  3 N        0.8720    -2.4120     0.2790 N.am  1 <1>  -0.6600 
  4 C        1.5280    -3.8000    -1.6940 C.ar  1 <1>   0.3960 
  5 C       -0.3990    -3.1180     0.5650 C.3   1 <1>   0.1400 
  6 C        1.0530    -1.2580     1.1860 C.3   1 <1>   0.1400 
  7 N        1.1250    -4.9950    -1.2320 N.ar  1 <1>  -0.6200 
  8 C        1.7650    -3.5870    -3.0560 C.ar  1 <1>   0.1600 
  9 C       -1.1550    -2.1880     1.5040 C.3   1 <1>  -0.1600 
 10 C       -0.0650    -1.3890     2.2140 C.3   1 <1>  -0.1600 
 11 C        0.9280    -5.8850    -2.1790 C.ar  1 <1>   0.4100 
 12 N        1.5950    -4.4830    -4.0210 N.ar  1 <1>  -0.6200 
 13 N        0.4500    -7.0810    -1.7280 N.pl3 1 <1>  -0.8690 
 14 C        1.1690    -5.6330    -3.5370 C.ar  1 <1>   0.1600 
 15 C       -0.9980    -7.2930    -1.7950 C.3   1 <1>   0.4330 
 16 C       -1.6830    -6.6180    -0.6050 C.ar  1 <1>  -0.1430 
 17 C       -1.2620    -8.7930    -1.8250 C.3   1 <1>  -0.2400 
 18 C       -1.2740    -6.8050     0.7170 C.ar  1 <1>   0.0830 
 19 C       -2.7530    -5.7710    -0.8540 C.ar  1 <1>  -0.1500 
 20 O       -0.2080    -7.5970     0.9930 O.3   1 <1>  -0.3630 
 21 C       -1.9560    -6.1820     1.7560 C.ar  1 <1>  -0.1500 
 22 C       -3.4210    -5.1290     0.1770 C.ar  1 <1>   0.0830 
 23 C        0.8320    -7.0490     1.7760 C.3   1 <1>   0.0400 
 24 C       -3.0250    -5.3460     1.4920 C.ar  1 <1>  -0.1500 
 25 O       -4.4420    -4.3070    -0.1790 O.3   1 <1>  -0.3620 
 26 C       -5.2080    -3.6320     0.7940 C.3   1 <1>   0.0400 
 27 H       -0.1780    -4.0500     1.0560 H     1 <1>   0.0800 
 28 H       -0.9560    -3.3100    -0.3370 H     1 <1>   0.0800 
 29 H        0.9460    -0.3480     0.6200 H     1 <1>   0.0800 
 30 H        2.0270    -1.2850     1.6450 H     1 <1>   0.0800 
 31 H        2.1090    -2.6120    -3.3570 H     1 <1>   0.1500 
 32 H       -1.7780    -2.7340     2.1890 H     1 <1>   0.0800 
 33 H       -1.7710    -1.5290     0.9180 H     1 <1>   0.0800 
 34 H       -0.4120    -0.4280     2.5510 H     1 <1>   0.0800 
 35 H        0.3030    -1.9450     3.0590 H     1 <1>   0.0800 
 36 H        0.6800    -7.1930    -0.7340 H     1 <1>   0.4000 
 37 H        0.9950    -6.4370    -4.2270 H     1 <1>   0.1500 
 38 H       -1.3710    -6.8640    -2.7100 H     1 <1>   0.0800 
 39 H       -0.8790    -9.2630    -0.9380 H     1 <1>   0.0800 
 40 H       -0.7950    -9.2300    -2.6890 H     1 <1>   0.0800 
 41 H       -2.3200    -8.9720    -1.8760 H     1 <1>   0.0800 
 42 H       -3.0880    -5.5920    -1.8590 H     1 <1>   0.1500 
 43 H       -1.6580    -6.3540     2.7730 H     1 <1>   0.1500 
 44 H        1.6780    -7.7110     1.7190 H     1 <1>   0.0800 
 45 H        0.5050    -6.9660     2.7960 H     1 <1>   0.0800 
 46 H        1.0970    -6.0830     1.3810 H     1 <1>   0.0800 
 47 H       -3.5310    -4.8790     2.3140 H     1 <1>   0.1500 
 48 H       -5.9590    -3.0550     0.2860 H     1 <1>   0.0800 
 49 H       -4.5630    -2.9790     1.3550 H     1 <1>   0.0800 
 50 H       -5.6770    -4.3570     1.4350 H     1 <1>   0.0800 
@<TRIPOS>BOND
  1   1   2  2   
  2   2   3  am  
  3   2   4  1   
  4   3   5  1   
  5   3   6  1   
  6   4   7  ar  
  7   4   8  ar  
  8   5   9  1   
  9   5  27  1   
 10   5  28  1   
 11   6  10  1   
 12   6  29  1   
 13   6  30  1   
 14   7  11  ar  
 15   8  12  ar  
 16   8  31  1   
 17   9  10  1   
 18   9  32  1   
 19   9  33  1   
 20  10  34  1   
 21  10  35  1   
 22  11  13  1   
 23  11  14  ar  
 24  12  14  ar  
 25  13  15  1   
 26  13  36  1   
 27  14  37  1   
 28  15  16  1   
 29  15  17  1   
 30  15  38  1   
 31  16  18  ar  
 32  16  19  ar  
 33  17  39  1   
 34  17  40  1   
 35  17  41  1   
 36  18  20  1   
 37  18  21  ar  
 38  19  22  ar  
 39  19  42  1   
 40  20  23  1   
 41  21  24  ar  
 42  21  43  1   
 43  22  24  ar  
 44  22  25  1   
 45  23  44  1   
 46  23  45  1   
 47  23  46  1   
 48  24  47  1   
 49  25  26  1   
 50  26  48  1   
 51  26  49  1   
 52  26  50  1   
@<TRIPOS>SUBSTRUCTURE
  1 ****   7 GROUP 4 **** **** 0

# MOE 2024.06 (io_trps.svl 2023.06)
