@<TRIPOS>MOLECULE
NONAME
62 64 1 0 0 
SMALL
USER_CHARGES


@<TRIPOS>ATOM
  1 N       -1.0000     0.0640    -0.9500 N.2   1 <1>  -0.7070 
  2 N       -1.6990     0.5110     0.1060 N.pl3 1 <1>   0.3140 
  3 C       -0.0080     0.8880    -1.0650 C.2   1 <1>   0.1080 
  4 C       -1.1310     1.6100     0.6490 C.2   1 <1>  -0.3320 
  5 C       -2.9030    -0.2090     0.5310 C.3   1 <1>   0.0960 
  6 C       -0.0340     1.8780    -0.0900 C.2   1 <1>  -0.1500 
  7 C        1.0400     0.7600    -2.1460 C.3   1 <1>  -0.0590 
  8 C       -1.6500     2.3810     1.8530 C.3   1 <1>  -0.0600 
  9 C       -2.5750    -1.7100     0.5750 C.3   1 <1>   0.4230 
 10 N       -3.8160    -2.5350     0.5740 N.4   1 <1>  -0.9060 
 11 C       -1.7510    -2.0670     1.8150 C.3   1 <1>  -0.2400 
 12 C       -3.5610    -3.9460     0.1850 C.3   1 <1>   0.3430 
 13 C       -4.8850    -4.7160     0.1650 C.3   1 <1>  -0.1600 
 14 C       -4.7340    -6.1790    -0.3080 C.3   1 <1>  -0.0800 
 15 C       -6.1230    -6.8270    -0.4600 C.3   1 <1>  -0.1600 
 16 C       -3.8780    -7.0290     0.6520 C.3   1 <1>  -0.1600 
 17 C       -6.0430    -8.3020    -0.8610 C.3   1 <1>   0.3430 
 18 C       -3.8320    -8.5050     0.2380 C.3   1 <1>   0.3430 
 19 N       -5.2130    -9.0460     0.1310 N.4   1 <1>  -0.9590 
 20 C       -5.2060   -10.5080    -0.1580 C.3   1 <1>   0.4870 
 21 C       -6.6160   -11.0360     0.0070 C.ar  1 <1>  -0.1440 
 22 C       -7.1640   -11.1890     1.2740 C.ar  1 <1>  -0.1500 
 23 C       -7.3740   -11.3650    -1.1080 C.ar  1 <1>  -0.1500 
 24 C       -8.4600   -11.6500     1.4210 C.ar  1 <1>  -0.1500 
 25 C       -8.6700   -11.8270    -0.9580 C.ar  1 <1>  -0.1500 
 26 C       -9.2130   -11.9670     0.3060 C.ar  1 <1>  -0.1500 
 27 H       -3.6630    -0.0070    -0.2000 H     1 <1>   0.0800 
 28 H       -3.2160     0.1510     1.4930 H     1 <1>   0.0800 
 29 H        0.6800     2.6740     0.0220 H     1 <1>   0.1500 
 30 H        0.5690     0.8090    -3.1100 H     1 <1>   0.0800 
 31 H        1.5430    -0.1840    -2.0510 H     1 <1>   0.0800 
 32 H        1.7610     1.5520    -2.0670 H     1 <1>   0.0800 
 33 H       -2.6430     2.7480     1.6640 H     1 <1>   0.0800 
 34 H       -1.0110     3.2240     2.0510 H     1 <1>   0.0800 
 35 H       -1.6610     1.7530     2.7260 H     1 <1>   0.0800 
 36 H       -2.0060    -1.9490    -0.3120 H     1 <1>   0.0800 
 37 H       -4.4790    -2.1270    -0.0970 H     1 <1>   0.4500 
 38 H       -4.2510    -2.4940     1.5030 H     1 <1>   0.4500 
 39 H       -2.2920    -1.8570     2.7210 H     1 <1>   0.0800 
 40 H       -0.8480    -1.4810     1.8260 H     1 <1>   0.0800 
 41 H       -1.4500    -3.0990     1.8050 H     1 <1>   0.0800 
 42 H       -2.8830    -4.4060     0.8860 H     1 <1>   0.0800 
 43 H       -3.1080    -3.9770    -0.7950 H     1 <1>   0.0800 
 44 H       -5.5620    -4.2140    -0.5060 H     1 <1>   0.0800 
 45 H       -5.3200    -4.7070     1.1500 H     1 <1>   0.0800 
 46 H       -4.2620    -6.1790    -1.2790 H     1 <1>   0.0800 
 47 H       -6.6860    -6.3050    -1.2160 H     1 <1>   0.0800 
 48 H       -6.6780    -6.7490     0.4590 H     1 <1>   0.0800 
 49 H       -4.2660    -6.9630     1.6550 H     1 <1>   0.0800 
 50 H       -2.8680    -6.6600     0.6720 H     1 <1>   0.0800 
 51 H       -5.6070    -8.3890    -1.8430 H     1 <1>   0.0800 
 52 H       -7.0390    -8.7160    -0.8960 H     1 <1>   0.0800 
 53 H       -3.2710    -9.0660     0.9700 H     1 <1>   0.0800 
 54 H       -3.3310    -8.5970    -0.7130 H     1 <1>   0.0800 
 55 H       -5.6840    -8.9470     1.0390 H     1 <1>   0.4500 
 56 H       -4.5550   -11.0210     0.5310 H     1 <1>   0.0800 
 57 H       -4.8560   -10.6920    -1.1610 H     1 <1>   0.0800 
 58 H       -6.5960   -10.9590     2.1590 H     1 <1>   0.1500 
 59 H       -6.9720   -11.2720    -2.1030 H     1 <1>   0.1500 
 60 H       -8.8860   -11.7690     2.4040 H     1 <1>   0.1500 
 61 H       -9.2590   -12.0830    -1.8230 H     1 <1>   0.1500 
 62 H      -10.2220   -12.3280     0.4220 H     1 <1>   0.1500 
@<TRIPOS>BOND
  1   1   2  1   
  2   1   3  2   
  3   2   4  1   
  4   2   5  1   
  5   3   6  1   
  6   3   7  1   
  7   4   6  2   
  8   4   8  1   
  9   5   9  1   
 10   5  27  1   
 11   5  28  1   
 12   6  29  1   
 13   7  30  1   
 14   7  31  1   
 15   7  32  1   
 16   8  33  1   
 17   8  34  1   
 18   8  35  1   
 19   9  10  1   
 20   9  11  1   
 21   9  36  1   
 22  10  12  1   
 23  10  37  1   
 24  10  38  1   
 25  11  39  1   
 26  11  40  1   
 27  11  41  1   
 28  12  13  1   
 29  12  42  1   
 30  12  43  1   
 31  13  14  1   
 32  13  44  1   
 33  13  45  1   
 34  14  15  1   
 35  14  16  1   
 36  14  46  1   
 37  15  17  1   
 38  15  47  1   
 39  15  48  1   
 40  16  18  1   
 41  16  49  1   
 42  16  50  1   
 43  17  19  1   
 44  17  51  1   
 45  17  52  1   
 46  18  19  1   
 47  18  53  1   
 48  18  54  1   
 49  19  20  1   
 50  19  55  1   
 51  20  21  1   
 52  20  56  1   
 53  20  57  1   
 54  21  22  ar  
 55  21  23  ar  
 56  22  24  ar  
 57  22  58  1   
 58  23  25  ar  
 59  23  59  1   
 60  24  26  ar  
 61  24  60  1   
 62  25  26  ar  
 63  25  61  1   
 64  26  62  1   
@<TRIPOS>SUBSTRUCTURE
  1 ****  13 GROUP 4 **** **** 0

# MOE 2024.06 (io_trps.svl 2023.06)
