@<TRIPOS>MOLECULE
NONAME
34 35 1 0 0 
SMALL
USER_CHARGES


@<TRIPOS>ATOM
  1 S       -1.0690     0.3970     0.5910 S.3   1 <1>  -0.0800 
  2 C       -1.8410    -0.8860    -0.3060 C.2   1 <1>  -0.1400 
  3 C       -1.2490     1.4500    -0.7860 C.2   1 <1>   0.2280 
  4 C       -2.1570    -0.4100    -1.5300 C.2   1 <1>   0.0460 
  5 C       -1.9640    -2.1830     0.4890 C.3   1 <1>   0.0200 
  6 N       -1.8140     0.9080    -1.7860 N.2   1 <1>  -0.5650 
  7 C       -2.8410    -1.0890    -2.7020 C.3   1 <1>  -0.0590 
  8 C       -2.5640    -3.3590    -0.2780 C.3   1 <1>   0.2090 
  9 N       -2.6260    -4.5820     0.5790 N.pl3 1 <1>  -0.8380 
 10 C       -3.7690    -5.3530     0.5760 C.ar  1 <1>   0.4100 
 11 C       -1.3200    -5.2470     0.8480 C.3   1 <1>   0.1290 
 12 N       -4.4810    -5.4080    -0.5290 N.ar  1 <1>  -0.6200 
 13 C       -4.1480    -6.0570     1.7040 C.ar  1 <1>  -0.1500 
 14 C       -5.5490    -6.1740    -0.4630 C.ar  1 <1>   0.7220 
 15 C       -5.2830    -6.8180     1.6400 C.ar  1 <1>   0.1600 
 16 S       -6.5080    -6.2420    -1.9710 S.3   1 <1>  -0.3320 
 17 N       -6.0130    -6.8950     0.5460 N.ar  1 <1>  -0.6200 
 18 C       -7.9170    -7.3770    -1.5940 C.3   1 <1>  -0.0100 
 19 H       -0.8770     2.4540    -0.6910 H     1 <1>   0.1500 
 20 H       -2.5760    -1.9960     1.3530 H     1 <1>   0.0800 
 21 H       -0.9810    -2.4550     0.8270 H     1 <1>   0.0800 
 22 H       -3.1100    -2.1040    -2.5020 H     1 <1>   0.0800 
 23 H       -2.1860    -1.0730    -3.5540 H     1 <1>   0.0800 
 24 H       -3.7350    -0.5470    -2.9520 H     1 <1>   0.0800 
 25 H       -1.9780    -3.5690    -1.1560 H     1 <1>   0.0800 
 26 H       -3.5580    -3.0860    -0.5860 H     1 <1>   0.0800 
 27 H       -0.8250    -4.7580     1.6700 H     1 <1>   0.0800 
 28 H       -0.6920    -5.1960    -0.0240 H     1 <1>   0.0800 
 29 H       -1.4680    -6.2830     1.0980 H     1 <1>   0.0800 
 30 H       -3.5600    -5.9920     2.5980 H     1 <1>   0.1500 
 31 H       -5.6090    -7.3790     2.5000 H     1 <1>   0.1500 
 32 H       -8.5260    -7.4510    -2.4770 H     1 <1>   0.0800 
 33 H       -8.4720    -6.9540    -0.7760 H     1 <1>   0.0800 
 34 H       -7.5070    -8.3340    -1.3260 H     1 <1>   0.0800 
@<TRIPOS>BOND
  1   1   2  1   
  2   1   3  1   
  3   2   4  2   
  4   2   5  1   
  5   3   6  2   
  6   3  19  1   
  7   4   6  1   
  8   4   7  1   
  9   5   8  1   
 10   5  20  1   
 11   5  21  1   
 12   7  22  1   
 13   7  23  1   
 14   7  24  1   
 15   8   9  1   
 16   8  25  1   
 17   8  26  1   
 18   9  10  1   
 19   9  11  1   
 20  10  12  ar  
 21  10  13  ar  
 22  11  27  1   
 23  11  28  1   
 24  11  29  1   
 25  12  14  ar  
 26  13  15  ar  
 27  13  30  1   
 28  14  16  1   
 29  14  17  ar  
 30  15  17  ar  
 31  15  31  1   
 32  16  18  1   
 33  18  32  1   
 34  18  33  1   
 35  18  34  1   
@<TRIPOS>SUBSTRUCTURE
  1 ****   8 GROUP 4 **** **** 0

# MOE 2024.06 (io_trps.svl 2023.06)
