@<TRIPOS>MOLECULE
NONAME
44 46 1 0 0 
SMALL
USER_CHARGES


@<TRIPOS>ATOM
  1 F       -1.1300    -0.7270    -1.4460 F     1 <1>  -0.1900 
  2 C       -1.7970    -1.1430    -0.4000 C.ar  1 <1>   0.1900 
  3 C       -1.9100    -2.5060    -0.0990 C.ar  1 <1>   0.0820 
  4 C       -2.3960    -0.1680     0.3730 C.ar  1 <1>  -0.1500 
  5 O       -1.3480    -3.5320    -0.8090 O.3   1 <1>  -0.3630 
  6 C       -2.6700    -2.8650     1.0130 C.ar  1 <1>  -0.1440 
  7 C       -3.1380    -0.5450     1.4770 C.ar  1 <1>  -0.1500 
  8 C       -0.2350    -3.3350    -1.6610 C.3   1 <1>   0.0400 
  9 C       -3.2740    -1.8870     1.7930 C.ar  1 <1>  -0.1500 
 10 C       -2.8390    -4.3280     1.3810 C.3   1 <1>   0.4870 
 11 N       -3.5100    -5.0200     0.2520 N.4   1 <1>  -0.9590 
 12 C       -4.8850    -4.5160    -0.0410 C.3   1 <1>   0.3430 
 13 C       -3.5640    -6.5040     0.3880 C.3   1 <1>   0.3430 
 14 C       -5.6560    -5.7370    -0.5410 C.3   1 <1>   0.2000 
 15 C       -5.0250    -6.9210     0.1840 C.3   1 <1>  -0.0800 
 16 O       -7.0090    -5.6570    -0.2530 O.3   1 <1>  -0.6800 
 17 C       -5.1880    -8.2450    -0.5860 C.3   1 <1>  -0.0170 
 18 C       -4.6010    -9.4300     0.1700 C.ar  1 <1>   0.1670 
 19 N       -3.2930    -9.4040     0.3850 N.ar  1 <1>  -0.6200 
 20 C       -5.4300   -10.4690     0.5920 C.ar  1 <1>   0.1600 
 21 C       -2.8750   -10.4840     1.0290 C.ar  1 <1>   0.1600 
 22 N       -5.0140   -11.5370     1.2490 N.ar  1 <1>  -0.6200 
 23 C       -3.7080   -11.5150     1.4490 C.ar  1 <1>   0.1600 
 24 H       -2.2840     0.8700     0.1110 H     1 <1>   0.1500 
 25 H       -3.6080     0.2090     2.0890 H     1 <1>   0.1500 
 26 H        0.1770    -4.2960    -1.9120 H     1 <1>   0.0800 
 27 H        0.5060    -2.7460    -1.1480 H     1 <1>   0.0800 
 28 H       -0.5610    -2.8380    -2.5590 H     1 <1>   0.0800 
 29 H       -3.8560    -2.1520     2.6610 H     1 <1>   0.1500 
 30 H       -3.4230    -4.4240     2.2810 H     1 <1>   0.0800 
 31 H       -1.8670    -4.7610     1.5500 H     1 <1>   0.0800 
 32 H       -2.9090    -4.7860    -0.5600 H     1 <1>   0.4500 
 33 H       -5.3420    -4.1510     0.8640 H     1 <1>   0.0800 
 34 H       -4.8660    -3.7330    -0.7810 H     1 <1>   0.0800 
 35 H       -2.9460    -6.9620    -0.3690 H     1 <1>   0.0800 
 36 H       -3.2140    -6.8320     1.3540 H     1 <1>   0.0800 
 37 H       -5.5450    -5.8200    -1.6100 H     1 <1>   0.0800 
 38 H       -5.4660    -7.0250     1.1600 H     1 <1>   0.0800 
 39 H       -7.2060    -5.7620     0.6990 H     1 <1>   0.4000 
 40 H       -4.7020    -8.1790    -1.5450 H     1 <1>   0.0800 
 41 H       -6.2340    -8.4190    -0.7700 H     1 <1>   0.0800 
 42 H       -6.4830   -10.4190     0.3780 H     1 <1>   0.1500 
 43 H       -1.8220   -10.5620     1.2380 H     1 <1>   0.1500 
 44 H       -3.2760   -12.3520     1.9690 H     1 <1>   0.1500 
@<TRIPOS>BOND
  1   1   2  1   
  2   2   3  ar  
  3   2   4  ar  
  4   3   5  1   
  5   3   6  ar  
  6   4   7  ar  
  7   4  24  1   
  8   5   8  1   
  9   6   9  ar  
 10   6  10  1   
 11   7   9  ar  
 12   7  25  1   
 13   8  26  1   
 14   8  27  1   
 15   8  28  1   
 16   9  29  1   
 17  10  11  1   
 18  10  30  1   
 19  10  31  1   
 20  11  12  1   
 21  11  13  1   
 22  11  32  1   
 23  12  14  1   
 24  12  33  1   
 25  12  34  1   
 26  13  15  1   
 27  13  35  1   
 28  13  36  1   
 29  14  15  1   
 30  14  16  1   
 31  14  37  1   
 32  15  17  1   
 33  15  38  1   
 34  16  39  1   
 35  17  18  1   
 36  17  40  1   
 37  17  41  1   
 38  18  19  ar  
 39  18  20  ar  
 40  19  21  ar  
 41  20  22  ar  
 42  20  42  1   
 43  21  23  ar  
 44  21  43  1   
 45  22  23  ar  
 46  23  44  1   
@<TRIPOS>SUBSTRUCTURE
  1 ****  11 GROUP 4 **** **** 0

# MOE 2024.06 (io_trps.svl 2023.06)
