@<TRIPOS>MOLECULE
NONAME
38 40 1 0 0 
SMALL
USER_CHARGES


@<TRIPOS>ATOM
  1 N        0.1520     0.1230    -0.2830 N.ar  1 <1>  -0.6200 
  2 C        1.1530     0.9590    -0.4200 C.ar  1 <1>   0.7710 
  3 C       -1.0780     0.5970    -0.3600 C.ar  1 <1>   0.4100 
  4 N        0.9860     2.2720    -0.6360 N.ar  1 <1>  -0.1790 
  5 N        2.3730     0.4380    -0.3350 N.pl3 1 <1>  -0.9000 
  6 N       -2.1240    -0.2560    -0.2190 N.pl3 1 <1>  -0.6690 
  7 C       -1.3290     1.9770    -0.5860 C.ar  1 <1>  -0.1430 
  8 C       -0.2560     2.8030    -0.7230 C.ar  1 <1>   0.2110 
  9 C       -2.2520    -1.7090     0.0200 C.3   1 <1>   0.2010 
 10 C       -2.7800     2.4750    -0.6680 C.3   1 <1>  -0.0170 
 11 C       -3.7190    -2.0980     0.0860 C.ar  1 <1>  -0.0320 
 12 C       -1.2630    -2.4160     0.8930 C.3   1 <1>  -0.2000 
 13 C       -1.2640    -2.6590    -0.5830 C.3   1 <1>  -0.2000 
 14 C       -2.9410     3.9810    -0.9140 C.3   1 <1>  -0.2400 
 15 C       -4.3960    -2.0710     1.2950 C.ar  1 <1>  -0.1500 
 16 C       -4.3990    -2.4600    -1.0670 C.ar  1 <1>  -0.1500 
 17 C       -5.7390    -2.4060     1.3530 C.ar  1 <1>  -0.1500 
 18 C       -5.7410    -2.7950    -1.0110 C.ar  1 <1>  -0.1500 
 19 C       -6.4110    -2.7670     0.1990 C.ar  1 <1>  -0.1500 
 20 H        1.8260     2.8350    -0.7290 H     1 <1>   0.4570 
 21 H        3.2810     0.8980    -0.4110 H     1 <1>   0.4000 
 22 H        2.4350    -0.5720    -0.1690 H     1 <1>   0.4000 
 23 H       -3.0650     0.1350    -0.2840 H     1 <1>   0.4000 
 24 H       -0.3410     3.8640    -0.8970 H     1 <1>   0.1500 
 25 H       -3.2840     2.2330     0.2530 H     1 <1>   0.0800 
 26 H       -3.2850     1.9510    -1.4620 H     1 <1>   0.0800 
 27 H       -1.6060    -3.2130     1.5280 H     1 <1>   0.1000 
 28 H       -0.4600    -1.8570     1.3370 H     1 <1>   0.1000 
 29 H       -0.4630    -2.2710    -1.1840 H     1 <1>   0.1000 
 30 H       -1.6090    -3.6170    -0.9280 H     1 <1>   0.1000 
 31 H       -2.5010     4.5520    -0.1160 H     1 <1>   0.0800 
 32 H       -3.9890     4.2260    -0.9540 H     1 <1>   0.0800 
 33 H       -2.5010     4.2680    -1.8530 H     1 <1>   0.0800 
 34 H       -3.8760    -1.7890     2.1940 H     1 <1>   0.1500 
 35 H       -3.8810    -2.4820    -2.0090 H     1 <1>   0.1500 
 36 H       -6.2590    -2.3860     2.2950 H     1 <1>   0.1500 
 37 H       -6.2640    -3.0790    -1.9090 H     1 <1>   0.1500 
 38 H       -7.4540    -3.0280     0.2430 H     1 <1>   0.1500 
@<TRIPOS>BOND
  1   1   2  ar  
  2   1   3  ar  
  3   2   4  ar  
  4   2   5  1   
  5   3   6  1   
  6   3   7  ar  
  7   4   8  ar  
  8   4  20  1   
  9   5  21  1   
 10   5  22  1   
 11   6   9  1   
 12   6  23  1   
 13   7   8  ar  
 14   7  10  1   
 15   8  24  1   
 16   9  11  1   
 17   9  12  1   
 18   9  13  1   
 19  10  14  1   
 20  10  25  1   
 21  10  26  1   
 22  11  15  ar  
 23  11  16  ar  
 24  12  13  1   
 25  12  27  1   
 26  12  28  1   
 27  13  29  1   
 28  13  30  1   
 29  14  31  1   
 30  14  32  1   
 31  14  33  1   
 32  15  17  ar  
 33  15  34  1   
 34  16  18  ar  
 35  16  35  1   
 36  17  19  ar  
 37  17  36  1   
 38  18  19  ar  
 39  18  37  1   
 40  19  38  1   
@<TRIPOS>SUBSTRUCTURE
  1 ****   6 GROUP 4 **** **** 0

# MOE 2024.06 (io_trps.svl 2023.06)
