@<TRIPOS>MOLECULE
NONAME
40 42 1 0 0 
SMALL
USER_CHARGES


@<TRIPOS>ATOM
  1 O        0.7690     0.1620    -2.7960 O.2   1 <1>  -0.5700 
  2 C        0.8170    -0.4200    -1.7280 C.2   1 <1>   0.7160 
  3 N        1.2230     0.2200    -0.5860 N.am  1 <1>  -0.4940 
  4 C        0.4590    -1.8010    -1.6350 C.2   1 <1>  -0.0860 
  5 C        1.7680     1.4980    -0.3120 C.2   1 <1>  -0.0880 
  6 C        0.5020    -2.6400    -0.5510 C.2   1 <1>  -0.0260 
  7 C       -0.0210    -2.6080    -2.6640 C.2   1 <1>   0.1390 
  8 N        1.5700     2.6730    -0.9760 N.pl3 1 <1>   0.3140 
  9 C        2.6090     1.7800     0.7120 C.2   1 <1>  -0.1810 
 10 N        0.9000    -2.4010     0.7470 N.2   1 <1>  -0.5760 
 11 N        0.0540    -3.8600    -0.9910 N.pl3 1 <1>   0.6010 
 12 N       -0.2680    -3.8320    -2.2990 N.2   1 <1>  -0.7070 
 13 N        2.2670     3.6820    -0.4070 N.2   1 <1>  -0.7070 
 14 C        0.6710     2.9640    -2.0990 C.3   1 <1>   0.0160 
 15 C        2.8850     3.1390     0.5910 C.2   1 <1>   0.1080 
 16 C        3.1450     0.8250     1.7660 C.3   1 <1>   0.0210 
 17 C        0.8280    -3.4120     1.5570 C.2   1 <1>   0.3760 
 18 C       -0.0140    -4.9160    -0.1140 C.2   1 <1>  -0.1810 
 19 C        3.7920     3.9410     1.4970 C.3   1 <1>  -0.0590 
 20 C        4.4030     0.1210     1.2570 C.3   1 <1>  -0.2400 
 21 C        0.3720    -4.7080     1.1740 C.2   1 <1>  -0.1240 
 22 C        0.3310    -5.8170     2.2130 C.3   1 <1>  -0.1020 
 23 H        1.2680    -0.4420     0.1980 H     1 <1>   0.3700 
 24 H       -0.1740    -2.2520    -3.6710 H     1 <1>   0.1500 
 25 H       -0.2410     2.4110    -1.9780 H     1 <1>   0.0800 
 26 H        1.1540     2.6810    -3.0150 H     1 <1>   0.0800 
 27 H        0.4560     4.0150    -2.1160 H     1 <1>   0.0800 
 28 H        2.3930     0.0920     2.0020 H     1 <1>   0.0800 
 29 H        3.3660     1.3660     2.6690 H     1 <1>   0.0800 
 30 H        1.1280    -3.2740     2.5810 H     1 <1>   0.0600 
 31 H       -0.3720    -5.8450    -0.5160 H     1 <1>   0.1500 
 32 H        4.7030     3.4030     1.6780 H     1 <1>   0.0800 
 33 H        3.2940     4.1310     2.4290 H     1 <1>   0.0800 
 34 H        4.0300     4.8800     1.0310 H     1 <1>   0.0800 
 35 H        4.1760    -0.4390     0.3670 H     1 <1>   0.0800 
 36 H        4.7810    -0.5530     2.0050 H     1 <1>   0.0800 
 37 H        5.1630     0.8440     1.0220 H     1 <1>   0.0800 
 38 H        1.3170    -5.9940     2.6060 H     1 <1>   0.0800 
 39 H       -0.0320    -6.7320     1.7800 H     1 <1>   0.0800 
 40 H       -0.3210    -5.5420     3.0230 H     1 <1>   0.0800 
@<TRIPOS>BOND
  1   1   2  2   
  2   2   3  am  
  3   2   4  1   
  4   3   5  1   
  5   3  23  1   
  6   4   6  2   
  7   4   7  1   
  8   5   8  1   
  9   5   9  2   
 10   6  10  1   
 11   6  11  1   
 12   7  12  2   
 13   7  24  1   
 14   8  13  1   
 15   8  14  1   
 16   9  15  1   
 17   9  16  1   
 18  10  17  2   
 19  11  12  1   
 20  11  18  1   
 21  13  15  2   
 22  14  25  1   
 23  14  26  1   
 24  14  27  1   
 25  15  19  1   
 26  16  20  1   
 27  16  28  1   
 28  16  29  1   
 29  17  21  1   
 30  17  30  1   
 31  18  21  2   
 32  18  31  1   
 33  19  32  1   
 34  19  33  1   
 35  19  34  1   
 36  20  35  1   
 37  20  36  1   
 38  20  37  1   
 39  21  22  1   
 40  22  38  1   
 41  22  39  1   
 42  22  40  1   
@<TRIPOS>SUBSTRUCTURE
  1 ****   3 GROUP 4 **** **** 0

# MOE 2024.06 (io_trps.svl 2023.06)
