@<TRIPOS>MOLECULE
NONAME
46 49 1 0 0 
SMALL
USER_CHARGES


@<TRIPOS>ATOM
  1 CL       0.5330    -0.0360     2.0260 Cl    1 <1>  -0.1770 
  2 C        2.0070    -0.1700     1.0890 C.ar  1 <1>   0.1770 
  3 C        2.3730    -1.3880     0.5290 C.ar  1 <1>   0.0830 
  4 C        2.7800     0.9630     0.9320 C.ar  1 <1>  -0.1500 
  5 O        1.5600    -2.4650     0.7260 O.3   1 <1>  -0.3630 
  6 C        3.5540    -1.4460    -0.2060 C.ar  1 <1>  -0.1500 
  7 C        3.9590     0.9110     0.1950 C.ar  1 <1>   0.1170 
  8 C        1.9040    -3.7410     0.2350 C.3   1 <1>   0.0400 
  9 C        4.3280    -0.3090    -0.3660 C.ar  1 <1>  -0.1500 
 10 N        4.7510     2.0650     0.0160 N.am  1 <1>  -0.4770 
 11 C        6.1100     2.1550    -0.0680 C.2   1 <1>   0.5690 
 12 C        4.1370     3.4020    -0.1300 C.3   1 <1>   0.1400 
 13 O        6.9080     1.2560     0.0110 O.2   1 <1>  -0.5700 
 14 C        6.5530     3.5740    -0.2920 C.3   1 <1>  -0.0990 
 15 C        5.2550     4.2810    -0.7130 C.3   1 <1>  -0.0190 
 16 C        5.1690     5.7410    -0.2910 C.2   1 <1>   0.5690 
 17 O        4.1560     6.1370     0.2300 O.2   1 <1>  -0.5700 
 18 N        6.2510     6.5440    -0.5330 N.am  1 <1>  -0.4940 
 19 C        6.4830     7.9030    -0.2060 C.2   1 <1>  -0.0880 
 20 N        5.5870     8.9390    -0.1900 N.pl3 1 <1>   0.3140 
 21 C        7.6740     8.4460     0.1390 C.2   1 <1>  -0.1810 
 22 N        6.1860    10.1080     0.1510 N.2   1 <1>  -0.7070 
 23 C        4.1650     8.9400    -0.5600 C.3   1 <1>   0.0160 
 24 C        7.4240     9.7870     0.3450 C.2   1 <1>   0.1080 
 25 C        9.0930     7.9700     0.3450 C.3   1 <1>   0.2510 
 26 C        8.5880    10.6590     0.7520 C.3   1 <1>   0.2510 
 27 S        9.9830     9.4880     0.7970 S.3   1 <1>  -0.4600 
 28 H        2.4590     1.8760     1.3940 H     1 <1>   0.1500 
 29 H        3.8880    -2.3600    -0.6600 H     1 <1>   0.1500 
 30 H        1.1320    -4.4300     0.5290 H     1 <1>   0.0800 
 31 H        2.8430    -4.0400     0.6650 H     1 <1>   0.0800 
 32 H        1.9640    -3.6980    -0.8380 H     1 <1>   0.0800 
 33 H        5.2380    -0.3730    -0.9370 H     1 <1>   0.1500 
 34 H        3.8350     3.7510     0.8440 H     1 <1>   0.0800 
 35 H        3.2820     3.3670    -0.7840 H     1 <1>   0.0800 
 36 H        7.3090     3.6200    -1.0530 H     1 <1>   0.0800 
 37 H        6.9320     3.9580     0.6380 H     1 <1>   0.0800 
 38 H        5.1690     4.2400    -1.7840 H     1 <1>   0.0800 
 39 H        7.0590     6.0740    -0.9380 H     1 <1>   0.3700 
 40 H        4.0040     8.2510    -1.3660 H     1 <1>   0.0800 
 41 H        3.8820     9.9290    -0.8690 H     1 <1>   0.0800 
 42 H        3.5820     8.6510     0.2930 H     1 <1>   0.0800 
 43 H        9.5330     7.5810    -0.5550 H     1 <1>   0.0800 
 44 H        9.1780     7.2780     1.1630 H     1 <1>   0.0800 
 45 H        8.4570    11.0740     1.7340 H     1 <1>   0.0800 
 46 H        8.8000    11.4170     0.0210 H     1 <1>   0.0800 
@<TRIPOS>BOND
  1   1   2  1   
  2   2   3  ar  
  3   2   4  ar  
  4   3   5  1   
  5   3   6  ar  
  6   4   7  ar  
  7   4  28  1   
  8   5   8  1   
  9   6   9  ar  
 10   6  29  1   
 11   7   9  ar  
 12   7  10  1   
 13   8  30  1   
 14   8  31  1   
 15   8  32  1   
 16   9  33  1   
 17  10  11  am  
 18  10  12  1   
 19  11  13  2   
 20  11  14  1   
 21  12  15  1   
 22  12  34  1   
 23  12  35  1   
 24  14  15  1   
 25  14  36  1   
 26  14  37  1   
 27  15  16  1   
 28  15  38  1   
 29  16  17  2   
 30  16  18  am  
 31  18  19  1   
 32  18  39  1   
 33  19  20  1   
 34  19  21  2   
 35  20  22  1   
 36  20  23  1   
 37  21  24  1   
 38  21  25  1   
 39  22  24  2   
 40  23  40  1   
 41  23  41  1   
 42  23  42  1   
 43  24  26  1   
 44  25  27  1   
 45  25  43  1   
 46  25  44  1   
 47  26  27  1   
 48  26  45  1   
 49  26  46  1   
@<TRIPOS>SUBSTRUCTURE
  1 ****  15 GROUP 4 **** **** 0

# MOE 2024.06 (io_trps.svl 2023.06)
