@<TRIPOS>MOLECULE
NONAME
51 53 1 0 0 
SMALL
USER_CHARGES


@<TRIPOS>ATOM
  1 O        0.0860    -0.3140    -0.1880 O.3   1 <1>  -0.5600 
  2 C        1.2480     0.3710    -0.5410 C.3   1 <1>   0.2640 
  3 C        0.1520    -1.6870    -0.3350 C.3   1 <1>   0.1200 
  4 C        1.0420     1.8530    -0.2750 C.ar  1 <1>  -0.1440 
  5 C       -1.1920    -2.2340     0.1380 C.3   1 <1>  -0.1600 
  6 C        1.8510     2.5280     0.6280 C.ar  1 <1>  -0.1500 
  7 C        0.0440     2.5490    -0.9410 C.ar  1 <1>  -0.1500 
  8 C       -1.2430    -3.7540     0.0180 C.3   1 <1>   0.3430 
  9 C        1.6660     3.8800     0.8590 C.ar  1 <1>  -0.1500 
 10 C       -0.1410     3.9020    -0.7120 C.ar  1 <1>  -0.1500 
 11 N       -2.5150    -4.2640     0.5900 N.4   1 <1>  -0.9590 
 12 C        0.6700     4.5680     0.1880 C.ar  1 <1>  -0.1500 
 13 C       -3.7560    -3.8690    -0.1290 C.3   1 <1>   0.3430 
 14 C       -2.5770    -5.7510     0.6900 C.3   1 <1>   0.3430 
 15 C       -4.8080    -4.8190     0.4390 C.3   1 <1>   0.2000 
 16 C       -4.0600    -6.1480     0.5600 C.3   1 <1>  -0.0800 
 17 O       -5.1190    -4.3830     1.7220 O.3   1 <1>  -0.6800 
 18 C       -4.3060    -7.0480    -0.6690 C.3   1 <1>  -0.0170 
 19 C       -3.5800    -8.3790    -0.5530 C.ar  1 <1>   0.1670 
 20 N       -2.2760    -8.3540    -0.7820 N.ar  1 <1>  -0.6200 
 21 C       -4.2910    -9.5250    -0.2270 C.ar  1 <1>  -0.1500 
 22 C       -1.6570    -9.5230    -0.6920 C.ar  1 <1>   0.1600 
 23 C       -3.6310   -10.7320    -0.1290 C.ar  1 <1>  -0.1500 
 24 C       -2.2760   -10.7190    -0.3730 C.ar  1 <1>  -0.1500 
 25 H        2.0660    -0.0080     0.0470 H     1 <1>   0.0800 
 26 H        1.4440     0.2080    -1.5860 H     1 <1>   0.0800 
 27 H        0.3270    -1.9150    -1.3740 H     1 <1>   0.0800 
 28 H        0.9610    -2.0620     0.2720 H     1 <1>   0.0800 
 29 H       -1.3290    -1.9480     1.1660 H     1 <1>   0.0800 
 30 H       -1.9640    -1.7880    -0.4630 H     1 <1>   0.0800 
 31 H        2.6270     2.0050     1.1590 H     1 <1>   0.1500 
 32 H       -0.5940     2.0330    -1.6370 H     1 <1>   0.1500 
 33 H       -0.4120    -4.1790     0.5590 H     1 <1>   0.0800 
 34 H       -1.1580    -4.0460    -1.0170 H     1 <1>   0.0800 
 35 H        2.2960     4.3970     1.5610 H     1 <1>   0.1500 
 36 H       -0.9180     4.4330    -1.2330 H     1 <1>   0.1500 
 37 H       -2.6420    -3.9020     1.5490 H     1 <1>   0.4500 
 38 H        0.5260     5.6190     0.3670 H     1 <1>   0.1500 
 39 H       -4.0200    -2.8400     0.0510 H     1 <1>   0.0800 
 40 H       -3.6410    -4.0390    -1.1860 H     1 <1>   0.0800 
 41 H       -2.0050    -6.1900    -0.1100 H     1 <1>   0.0800 
 42 H       -2.1720    -6.0890     1.6310 H     1 <1>   0.0800 
 43 H       -5.7100    -4.8550    -0.1500 H     1 <1>   0.0800 
 44 H       -4.3720    -6.6890     1.4370 H     1 <1>   0.0800 
 45 H       -5.8880    -4.8690     2.0900 H     1 <1>   0.4000 
 46 H       -3.9780    -6.5590    -1.5700 H     1 <1>   0.0800 
 47 H       -5.3610    -7.2330    -0.7710 H     1 <1>   0.0800 
 48 H       -5.3500    -9.4870    -0.0510 H     1 <1>   0.1500 
 49 H       -0.5970    -9.5330    -0.8840 H     1 <1>   0.1500 
 50 H       -4.1500   -11.6420     0.1210 H     1 <1>   0.1500 
 51 H       -1.7020   -11.6270    -0.3180 H     1 <1>   0.1500 
@<TRIPOS>BOND
  1   1   2  1   
  2   1   3  1   
  3   2   4  1   
  4   2  25  1   
  5   2  26  1   
  6   3   5  1   
  7   3  27  1   
  8   3  28  1   
  9   4   6  ar  
 10   4   7  ar  
 11   5   8  1   
 12   5  29  1   
 13   5  30  1   
 14   6   9  ar  
 15   6  31  1   
 16   7  10  ar  
 17   7  32  1   
 18   8  11  1   
 19   8  33  1   
 20   8  34  1   
 21   9  12  ar  
 22   9  35  1   
 23  10  12  ar  
 24  10  36  1   
 25  11  13  1   
 26  11  14  1   
 27  11  37  1   
 28  12  38  1   
 29  13  15  1   
 30  13  39  1   
 31  13  40  1   
 32  14  16  1   
 33  14  41  1   
 34  14  42  1   
 35  15  16  1   
 36  15  17  1   
 37  15  43  1   
 38  16  18  1   
 39  16  44  1   
 40  17  45  1   
 41  18  19  1   
 42  18  46  1   
 43  18  47  1   
 44  19  20  ar  
 45  19  21  ar  
 46  20  22  ar  
 47  21  23  ar  
 48  21  48  1   
 49  22  24  ar  
 50  22  49  1   
 51  23  24  ar  
 52  23  50  1   
 53  24  51  1   
@<TRIPOS>SUBSTRUCTURE
  1 ****   8 GROUP 4 **** **** 0

# MOE 2024.06 (io_trps.svl 2023.06)
