@<TRIPOS>MOLECULE
NONAME
39 41 1 0 0 
SMALL
USER_CHARGES


@<TRIPOS>ATOM
  1 CL      -1.9560    -0.5140    -1.8390 Cl    1 <1>  -0.1770 
  2 C       -2.4720     0.6350    -0.6280 C.ar  1 <1>   0.1770 
  3 C       -2.9390     0.1890     0.6110 C.ar  1 <1>   0.0860 
  4 C       -2.3910     1.9810    -0.9510 C.ar  1 <1>  -0.1500 
  5 C       -3.0310    -1.2130     0.9430 C.2   1 <1>   0.5440 
  6 C       -3.3140     1.1580     1.5420 C.ar  1 <1>  -0.1500 
  7 C       -2.7780     2.9310    -0.0210 C.ar  1 <1>  -0.1500 
  8 O       -2.3260    -1.6680     1.8210 O.2   1 <1>  -0.5700 
  9 N       -3.9270    -2.0490     0.3220 N.am  1 <1>  -0.6600 
 10 C       -3.2310     2.4960     1.2100 C.ar  1 <1>   0.1900 
 11 C       -4.9950    -1.6470    -0.6290 C.3   1 <1>   0.1400 
 12 C       -4.0070    -3.5020     0.6080 C.3   1 <1>   0.1400 
 13 F       -3.5950     3.3850     2.0930 F     1 <1>  -0.1900 
 14 C       -6.0070    -2.7890    -0.5540 C.3   1 <1>   0.2000 
 15 C       -5.1380    -4.0240    -0.2880 C.3   1 <1>  -0.0800 
 16 O       -6.8340    -2.5600     0.5350 O.3   1 <1>  -0.6800 
 17 C       -5.8910    -5.2340     0.2960 C.3   1 <1>   0.0200 
 18 C       -5.0280    -6.4810     0.4040 C.2   1 <1>  -0.0400 
 19 O       -5.5220    -7.5340     0.9980 O.3   1 <1>  -0.0190 
 20 C       -3.7830    -6.7870     0.0010 C.2   1 <1>  -0.1500 
 21 N       -4.6770    -8.5240     1.0180 N.2   1 <1>  -0.4100 
 22 C       -3.6190    -8.1020     0.4250 C.2   1 <1>   0.1080 
 23 C       -2.3710    -8.9300     0.2210 C.3   1 <1>  -0.0590 
 24 H       -2.0260     2.2780    -1.9190 H     1 <1>   0.1500 
 25 H       -3.6640     0.8640     2.5160 H     1 <1>   0.1500 
 26 H       -2.7280     3.9840    -0.2390 H     1 <1>   0.1500 
 27 H       -5.4390    -0.7020    -0.3670 H     1 <1>   0.0800 
 28 H       -4.5810    -1.5940    -1.6200 H     1 <1>   0.0800 
 29 H       -3.0670    -3.9790     0.3900 H     1 <1>   0.0800 
 30 H       -4.2400    -3.6430     1.6510 H     1 <1>   0.0800 
 31 H       -6.6170    -2.8740    -1.4370 H     1 <1>   0.0800 
 32 H       -4.7010    -4.3170    -1.2270 H     1 <1>   0.0800 
 33 H       -6.2780    -2.3590     1.3150 H     1 <1>   0.4000 
 34 H       -6.7380    -5.4620    -0.3270 H     1 <1>   0.0800 
 35 H       -6.2650    -4.9960     1.2770 H     1 <1>   0.0800 
 36 H       -3.0530    -6.1990    -0.5230 H     1 <1>   0.1500 
 37 H       -1.5380    -8.4600     0.7110 H     1 <1>   0.0800 
 38 H       -2.1610    -9.0210    -0.8290 H     1 <1>   0.0800 
 39 H       -2.5100    -9.9120     0.6340 H     1 <1>   0.0800 
@<TRIPOS>BOND
  1   1   2  1   
  2   2   3  ar  
  3   2   4  ar  
  4   3   5  1   
  5   3   6  ar  
  6   4   7  ar  
  7   4  24  1   
  8   5   8  2   
  9   5   9  am  
 10   6  10  ar  
 11   6  25  1   
 12   7  10  ar  
 13   7  26  1   
 14   9  11  1   
 15   9  12  1   
 16  10  13  1   
 17  11  14  1   
 18  11  27  1   
 19  11  28  1   
 20  12  15  1   
 21  12  29  1   
 22  12  30  1   
 23  14  15  1   
 24  14  16  1   
 25  14  31  1   
 26  15  17  1   
 27  15  32  1   
 28  16  33  1   
 29  17  18  1   
 30  17  34  1   
 31  17  35  1   
 32  18  19  1   
 33  18  20  2   
 34  19  21  1   
 35  20  22  1   
 36  20  36  1   
 37  21  22  2   
 38  22  23  1   
 39  23  37  1   
 40  23  38  1   
 41  23  39  1   
@<TRIPOS>SUBSTRUCTURE
  1 ****   9 GROUP 4 **** **** 0

# MOE 2024.06 (io_trps.svl 2023.06)
