@<TRIPOS>MOLECULE
NONAME
65 68 1 0 0 
SMALL
USER_CHARGES


@<TRIPOS>ATOM
  1 O        0.6580     0.1780    -1.7500 O.3   1 <1>  -0.5600 
  2 C        1.8830    -0.5160    -1.6970 C.3   1 <1>   0.2000 
  3 C        0.7580     1.5700    -1.8430 C.3   1 <1>   0.1200 
  4 C        2.7710     0.0000    -0.5320 C.3   1 <1>   0.5660 
  5 C        1.5870    -2.0150    -1.5240 C.3   1 <1>   0.1200 
  6 C        1.5130     2.1320    -0.6270 C.3   1 <1>   0.3430 
  7 N        2.8600     1.4920    -0.4830 N.4   1 <1>  -0.9590 
  8 C        4.1820    -0.5680    -0.6080 C.ar  1 <1>  -0.1430 
  9 O        1.1860    -2.2800    -0.2170 O.3   1 <1>  -0.6800 
 10 C        3.5940     1.9640     0.7190 C.3   1 <1>   0.4870 
 11 C        4.6440    -1.3580     0.4350 C.ar  1 <1>  -0.1500 
 12 C        5.0180    -0.3160    -1.6890 C.ar  1 <1>  -0.1500 
 13 C        3.6950     3.4740     0.6660 C.ar  1 <1>  -0.1430 
 14 C        5.9240    -1.8830     0.4140 C.ar  1 <1>   0.0830 
 15 C        6.3020    -0.8320    -1.7140 C.ar  1 <1>  -0.1500 
 16 C        4.3530     4.1010    -0.3940 C.ar  1 <1>   0.0830 
 17 C        3.1180     4.2310     1.6770 C.ar  1 <1>  -0.1500 
 18 O        6.2870    -2.6620     1.4610 O.3   1 <1>  -0.3620 
 19 C        6.7720    -1.5970    -0.6620 C.ar  1 <1>   0.0830 
 20 O        4.8970     3.3100    -1.3580 O.3   1 <1>  -0.3630 
 21 C        4.4250     5.4930    -0.4360 C.ar  1 <1>  -0.1500 
 22 C        3.2010     5.6080     1.6180 C.ar  1 <1>  -0.1430 
 23 C        6.5810    -4.0140     1.1770 C.3   1 <1>   0.0400 
 24 O        8.0520    -2.0330    -0.7350 O.3   1 <1>  -0.3630 
 25 C        5.8610     3.8380    -2.2470 C.3   1 <1>   0.1200 
 26 C        3.8430     6.2280     0.5770 C.ar  1 <1>  -0.1430 
 27 C        2.6530     6.6140     2.6020 C.3   1 <1>  -0.0170 
 28 C        8.9500    -1.5280     0.2300 C.3   1 <1>   0.0400 
 29 C        6.4570     2.6900    -3.0540 C.3   1 <1>  -0.2400 
 30 C        3.8070     7.7290     0.7260 C.3   1 <1>  -0.0170 
 31 C        3.3160     7.9330     2.1700 C.3   1 <1>  -0.1600 
 32 H        2.3760    -0.3680    -2.6400 H     1 <1>   0.0800 
 33 H        1.2550     1.8250    -2.7630 H     1 <1>   0.0800 
 34 H       -0.2420     1.9670    -1.8720 H     1 <1>   0.0800 
 35 H        2.3190    -0.3440     0.3830 H     1 <1>   0.0800 
 36 H        2.4690    -2.6010    -1.7220 H     1 <1>   0.0800 
 37 H        0.8030    -2.3180    -2.1980 H     1 <1>   0.0800 
 38 H        0.9230     1.9500     0.2570 H     1 <1>   0.0800 
 39 H        1.6220     3.1990    -0.7380 H     1 <1>   0.0800 
 40 H        3.4540     1.8090    -1.2620 H     1 <1>   0.4500 
 41 H        0.7800    -3.1710    -0.1540 H     1 <1>   0.4000 
 42 H        3.0790     1.6600     1.6150 H     1 <1>   0.0800 
 43 H        4.5890     1.5470     0.7340 H     1 <1>   0.0800 
 44 H        4.0170    -1.5890     1.2800 H     1 <1>   0.1500 
 45 H        4.6890     0.2800    -2.5220 H     1 <1>   0.1500 
 46 H        6.9550    -0.6400    -2.5480 H     1 <1>   0.1500 
 47 H        2.6120     3.7710     2.5080 H     1 <1>   0.1500 
 48 H        4.9150     6.0180    -1.2340 H     1 <1>   0.1500 
 49 H        6.7290    -4.5280     2.1090 H     1 <1>   0.0800 
 50 H        7.4760    -4.0700     0.5840 H     1 <1>   0.0800 
 51 H        5.7530    -4.4470     0.6450 H     1 <1>   0.0800 
 52 H        5.3790     4.5470    -2.8970 H     1 <1>   0.0800 
 53 H        6.6270     4.3270    -1.6690 H     1 <1>   0.0800 
 54 H        1.5840     6.6760     2.4980 H     1 <1>   0.0800 
 55 H        2.9090     6.3600     3.6150 H     1 <1>   0.0800 
 56 H        9.9350    -1.8860    -0.0090 H     1 <1>   0.0800 
 57 H        8.6620    -1.8770     1.2060 H     1 <1>   0.0800 
 58 H        8.9300    -0.4540     0.1970 H     1 <1>   0.0800 
 59 H        5.6970     2.2070    -3.6400 H     1 <1>   0.0800 
 60 H        6.9260     1.9800    -2.3970 H     1 <1>   0.0800 
 61 H        7.2060     3.0740    -3.7230 H     1 <1>   0.0800 
 62 H        4.7780     8.1680     0.5760 H     1 <1>   0.0800 
 63 H        3.1050     8.1450     0.0250 H     1 <1>   0.0800 
 64 H        4.1670     8.1160     2.8020 H     1 <1>   0.0800 
 65 H        2.6390     8.7660     2.2480 H     1 <1>   0.0800 
@<TRIPOS>BOND
  1   1   2  1   
  2   1   3  1   
  3   2   4  1   
  4   2   5  1   
  5   2  32  1   
  6   3   6  1   
  7   3  33  1   
  8   3  34  1   
  9   4   7  1   
 10   4   8  1   
 11   4  35  1   
 12   5   9  1   
 13   5  36  1   
 14   5  37  1   
 15   6   7  1   
 16   6  38  1   
 17   6  39  1   
 18   7  10  1   
 19   7  40  1   
 20   8  11  ar  
 21   8  12  ar  
 22   9  41  1   
 23  10  13  1   
 24  10  42  1   
 25  10  43  1   
 26  11  14  ar  
 27  11  44  1   
 28  12  15  ar  
 29  12  45  1   
 30  13  16  ar  
 31  13  17  ar  
 32  14  18  1   
 33  14  19  ar  
 34  15  19  ar  
 35  15  46  1   
 36  16  20  1   
 37  16  21  ar  
 38  17  22  ar  
 39  17  47  1   
 40  18  23  1   
 41  19  24  1   
 42  20  25  1   
 43  21  26  ar  
 44  21  48  1   
 45  22  26  ar  
 46  22  27  1   
 47  23  49  1   
 48  23  50  1   
 49  23  51  1   
 50  24  28  1   
 51  25  29  1   
 52  25  52  1   
 53  25  53  1   
 54  26  30  1   
 55  27  31  1   
 56  27  54  1   
 57  27  55  1   
 58  28  56  1   
 59  28  57  1   
 60  28  58  1   
 61  29  59  1   
 62  29  60  1   
 63  29  61  1   
 64  30  31  1   
 65  30  62  1   
 66  30  63  1   
 67  31  64  1   
 68  31  65  1   
@<TRIPOS>SUBSTRUCTURE
  1 ****  10 GROUP 4 **** **** 0

# MOE 2024.06 (io_trps.svl 2023.06)
