@<TRIPOS>MOLECULE
NONAME
41 43 1 0 0 
SMALL
USER_CHARGES


@<TRIPOS>ATOM
  1 O        0.6360     2.4140    -0.9540 O.2   1 <1>  -0.5700 
  2 C       -0.0280     3.4130    -0.8060 C.2   1 <1>   0.5690 
  3 N       -0.9500     3.5560     0.2010 N.am  1 <1>  -0.5090 
  4 C        0.2360     4.5690    -1.7800 C.3   1 <1>   0.1810 
  5 C       -1.6390     4.8610     0.4280 C.3   1 <1>   0.3640 
  6 C       -1.1410     2.5370     1.2630 C.3   1 <1>   0.0490 
  7 O       -0.6310     5.6790    -1.6360 O.3   1 <1>  -0.5600 
  8 C       -3.1010     4.7730    -0.0070 C.ar  1 <1>  -0.1440 
  9 C       -0.9320     6.0320    -0.2950 C.3   1 <1>   0.2610 
 10 C       -1.4060     1.1140     0.8840 C.3   1 <1>  -0.2000 
 11 C       -2.4970     1.9390     1.4840 C.3   1 <1>  -0.2000 
 12 C       -4.1020     5.1330     0.8860 C.ar  1 <1>   0.1600 
 13 C       -3.4700     4.3460    -1.2700 C.ar  1 <1>  -0.1500 
 14 C        0.3180     6.5250     0.4480 C.2   1 <1>   0.5690 
 15 N       -5.3990     5.1090     0.6270 N.ar  1 <1>  -0.6200 
 16 C       -4.8170     4.3110    -1.5560 C.ar  1 <1>  -0.1500 
 17 O        0.5260     6.1890     1.5910 O.2   1 <1>  -0.5700 
 18 N        1.1940     7.3260    -0.2130 N.am  1 <1>  -0.7300 
 19 C       -5.7260     4.6980    -0.5870 C.ar  1 <1>   0.1600 
 20 C        2.5280     7.7480     0.3230 C.3   1 <1>   0.2010 
 21 C        3.5630     6.6210     0.2910 C.2   1 <1>   0.5690 
 22 O        4.5570     6.7380    -0.3790 O.2   1 <1>  -0.5700 
 23 N        3.3460     5.4970     1.0020 N.am  1 <1>  -0.8000 
 24 H        0.1330     4.2070    -2.7870 H     1 <1>   0.0800 
 25 H        1.2470     4.9090    -1.6480 H     1 <1>   0.0800 
 26 H       -1.6260     5.0620     1.4850 H     1 <1>   0.0800 
 27 H       -0.5100     2.7150     2.1190 H     1 <1>   0.1000 
 28 H       -1.6150     6.8600    -0.3400 H     1 <1>   0.0800 
 29 H       -1.4560     0.8610    -0.1610 H     1 <1>   0.1000 
 30 H       -0.9630     0.3330     1.4760 H     1 <1>   0.1000 
 31 H       -2.8090     1.7070     2.4870 H     1 <1>   0.1000 
 32 H       -3.3230     2.1940     0.8440 H     1 <1>   0.1000 
 33 H       -3.8280     5.4600     1.8750 H     1 <1>   0.1500 
 34 H       -2.7420     4.0480    -2.0050 H     1 <1>   0.1500 
 35 H       -5.1620     3.9870    -2.5210 H     1 <1>   0.1500 
 36 H        1.0470     7.4870    -1.2150 H     1 <1>   0.3700 
 37 H       -6.7760     4.6670    -0.8230 H     1 <1>   0.1500 
 38 H        2.8970     8.5770    -0.2520 H     1 <1>   0.0800 
 39 H        2.4130     8.0730     1.3420 H     1 <1>   0.0800 
 40 H        4.0110     4.7240     0.9770 H     1 <1>   0.3700 
 41 H        2.4820     5.3590     1.5410 H     1 <1>   0.3700 
@<TRIPOS>BOND
  1   1   2  2   
  2   2   3  am  
  3   2   4  1   
  4   3   5  1   
  5   3   6  1   
  6   4   7  1   
  7   4  24  1   
  8   4  25  1   
  9   5   8  1   
 10   5   9  1   
 11   5  26  1   
 12   6  10  1   
 13   6  11  1   
 14   6  27  1   
 15   7   9  1   
 16   8  12  ar  
 17   8  13  ar  
 18   9  14  1   
 19   9  28  1   
 20  10  11  1   
 21  10  29  1   
 22  10  30  1   
 23  11  31  1   
 24  11  32  1   
 25  12  15  ar  
 26  12  33  1   
 27  13  16  ar  
 28  13  34  1   
 29  14  17  2   
 30  14  18  am  
 31  15  19  ar  
 32  16  19  ar  
 33  16  35  1   
 34  18  20  1   
 35  18  36  1   
 36  19  37  1   
 37  20  21  1   
 38  20  38  1   
 39  20  39  1   
 40  21  22  2   
 41  21  23  am  
 42  23  40  1   
 43  23  41  1   
@<TRIPOS>SUBSTRUCTURE
  1 ****   5 GROUP 4 **** **** 0

# MOE 2024.06 (io_trps.svl 2023.06)
