@<TRIPOS>MOLECULE
NONAME
48 50 1 0 0 
SMALL
USER_CHARGES


@<TRIPOS>ATOM
  1 S        0.2330     2.6640    -1.4430 S.3   1 <1>  -0.0800 
  2 C       -1.4100     2.0620    -1.4900 C.ar  1 <1>   0.0400 
  3 C        0.3170     2.2520     0.2690 C.2   1 <1>   0.1980 
  4 C       -1.7370     1.6110    -0.2240 C.ar  1 <1>   0.2270 
  5 C       -2.2800     2.0150    -2.5640 C.ar  1 <1>  -0.1500 
  6 N       -0.7420     1.7310     0.7440 N.2   1 <1>  -0.5650 
  7 C        1.6270     2.5570     0.9860 C.3   1 <1>   0.2900 
  8 C       -3.0040     1.0850    -0.0220 C.ar  1 <1>  -0.1500 
  9 C       -3.5410     1.4870    -2.3440 C.ar  1 <1>  -0.1500 
 10 N        1.9110     4.0110     1.0580 N.3   1 <1>  -0.8100 
 11 C       -3.8990     1.0250    -1.0790 C.ar  1 <1>  -0.1500 
 12 C        3.2790     4.2620     1.6100 C.3   1 <1>   0.1710 
 13 C        0.8870     4.7040     1.8660 C.3   1 <1>   0.0300 
 14 C        3.8080     5.6670     1.3130 C.2   1 <1>   0.5690 
 15 O        4.6590     6.1360     2.0320 O.2   1 <1>  -0.5700 
 16 N        3.2580     6.2980     0.2410 N.am  1 <1>  -0.4930 
 17 C        3.3950     7.6110    -0.2720 C.2   1 <1>   0.0630 
 18 C        4.5040     8.4630    -0.3190 C.2   1 <1>   0.1080 
 19 C        2.4020     8.3070    -0.8680 C.2   1 <1>  -0.3320 
 20 N        4.2260     9.5940    -0.8900 N.2   1 <1>  -0.7070 
 21 C        5.8950     8.1650     0.1940 C.3   1 <1>  -0.0590 
 22 N        2.9290     9.5050    -1.2260 N.pl3 1 <1>   0.3140 
 23 C        0.9570     7.8950    -1.1190 C.3   1 <1>  -0.0600 
 24 C        2.2470    10.6280    -1.9050 C.3   1 <1>   0.0960 
 25 C        1.5780    11.5660    -0.8920 C.3   1 <1>  -0.2400 
 26 H       -1.9800     2.3770    -3.5310 H     1 <1>   0.1500 
 27 H        2.4180     2.0620     0.4520 H     1 <1>   0.0800 
 28 H        1.5830     2.1440     1.9790 H     1 <1>   0.0800 
 29 H       -3.2720     0.7300     0.9570 H     1 <1>   0.1500 
 30 H       -4.2500     1.4310    -3.1530 H     1 <1>   0.1500 
 31 H       -4.8830     0.6160    -0.9230 H     1 <1>   0.1500 
 32 H        3.9760     3.5710     1.1720 H     1 <1>   0.0800 
 33 H        3.2830     4.1070     2.6750 H     1 <1>   0.0800 
 34 H       -0.0850     4.5910     1.4140 H     1 <1>   0.0800 
 35 H        1.1030     5.7570     1.9280 H     1 <1>   0.0800 
 36 H        0.8520     4.2990     2.8630 H     1 <1>   0.0800 
 37 H        2.4850     5.7590    -0.1580 H     1 <1>   0.3700 
 38 H        6.1440     7.1380     0.0100 H     1 <1>   0.0800 
 39 H        5.9360     8.3590     1.2490 H     1 <1>   0.0800 
 40 H        6.6100     8.7930    -0.3050 H     1 <1>   0.0800 
 41 H        0.7650     6.9120    -0.7270 H     1 <1>   0.0800 
 42 H        0.7530     7.8830    -2.1750 H     1 <1>   0.0800 
 43 H        0.2860     8.5850    -0.6390 H     1 <1>   0.0800 
 44 H        1.5200    10.2310    -2.5880 H     1 <1>   0.0800 
 45 H        2.9850    11.1680    -2.4700 H     1 <1>   0.0800 
 46 H        0.8350    11.0390    -0.3230 H     1 <1>   0.0800 
 47 H        1.1060    12.3830    -1.4070 H     1 <1>   0.0800 
 48 H        2.3200    11.9650    -0.2220 H     1 <1>   0.0800 
@<TRIPOS>BOND
  1   1   2  1   
  2   1   3  1   
  3   2   4  ar  
  4   2   5  ar  
  5   3   6  2   
  6   3   7  1   
  7   4   6  1   
  8   4   8  ar  
  9   5   9  ar  
 10   5  26  1   
 11   7  10  1   
 12   7  27  1   
 13   7  28  1   
 14   8  11  ar  
 15   8  29  1   
 16   9  11  ar  
 17   9  30  1   
 18  10  12  1   
 19  10  13  1   
 20  11  31  1   
 21  12  14  1   
 22  12  32  1   
 23  12  33  1   
 24  13  34  1   
 25  13  35  1   
 26  13  36  1   
 27  14  15  2   
 28  14  16  am  
 29  16  17  1   
 30  16  37  1   
 31  17  18  1   
 32  17  19  2   
 33  18  20  2   
 34  18  21  1   
 35  19  22  1   
 36  19  23  1   
 37  20  22  1   
 38  21  38  1   
 39  21  39  1   
 40  21  40  1   
 41  22  24  1   
 42  23  41  1   
 43  23  42  1   
 44  23  43  1   
 45  24  25  1   
 46  24  44  1   
 47  24  45  1   
 48  25  46  1   
 49  25  47  1   
 50  25  48  1   
@<TRIPOS>SUBSTRUCTURE
  1 ****  10 GROUP 4 **** **** 0

# MOE 2024.06 (io_trps.svl 2023.06)
