@<TRIPOS>MOLECULE
NONAME
46 48 1 0 0 
SMALL
USER_CHARGES


@<TRIPOS>ATOM
  1 F        1.3610     0.1890     2.3050 F     1 <1>  -0.1900 
  2 C        2.0900     0.7160     1.3590 C.ar  1 <1>   0.1900 
  3 C        2.4790    -0.0790     0.2860 C.ar  1 <1>   0.0860 
  4 C        2.4220     2.0550     1.4730 C.ar  1 <1>  -0.1500 
  5 C        3.2270     0.5680    -0.6920 C.ar  1 <1>   0.1900 
  6 C        2.1320    -1.4730     0.1970 C.2   1 <1>   0.5440 
  7 C        3.1760     2.6540     0.4760 C.ar  1 <1>  -0.1500 
  8 F        3.6170    -0.1060    -1.7390 F     1 <1>  -0.1900 
  9 C        3.5800     1.9040    -0.6180 C.ar  1 <1>  -0.1500 
 10 O        2.7460    -2.2950     0.8510 O.2   1 <1>  -0.5700 
 11 N        1.0830    -1.9200    -0.5790 N.am  1 <1>  -0.6600 
 12 C        0.8650    -3.3790    -0.7490 C.3   1 <1>   0.1400 
 13 C       -0.1450    -1.1100    -0.7930 C.3   1 <1>   0.1400 
 14 C       -0.1330    -3.8420     0.3330 C.3   1 <1>   0.4230 
 15 C       -1.1810    -1.5420     0.2550 C.3   1 <1>  -0.1600 
 16 N       -0.2780    -5.3530     0.4360 N.4   1 <1>  -0.9590 
 17 C       -1.4870    -3.0720     0.2450 C.3   1 <1>   0.0000 
 18 C       -1.5080    -5.8000     1.1670 C.3   1 <1>   0.3430 
 19 C       -0.1410    -6.1060    -0.8540 C.3   1 <1>   0.2630 
 20 C       -2.3530    -3.4180     1.4930 C.3   1 <1>  -0.1600 
 21 C       -2.2380    -3.4600    -1.0610 C.3   1 <1>   0.1200 
 22 C       -1.9610    -4.7440     2.1740 C.3   1 <1>  -0.1600 
 23 O       -3.3510    -2.6620    -1.2710 O.3   1 <1>  -0.6800 
 24 H        2.0950     2.6180     2.3300 H     1 <1>   0.1500 
 25 H        3.4460     3.6960     0.5500 H     1 <1>   0.1500 
 26 H        4.1650     2.3490    -1.4050 H     1 <1>   0.1500 
 27 H        0.4960    -3.5610    -1.7420 H     1 <1>   0.0800 
 28 H        1.8010    -3.9000    -0.6370 H     1 <1>   0.0800 
 29 H        0.0650    -0.0590    -0.6880 H     1 <1>   0.0800 
 30 H       -0.5200    -1.2710    -1.7900 H     1 <1>   0.0800 
 31 H        0.3110    -3.5230     1.2630 H     1 <1>   0.0800 
 32 H       -0.7960    -1.2560     1.2190 H     1 <1>   0.0800 
 33 H       -2.0820    -0.9720     0.1080 H     1 <1>   0.0800 
 34 H        0.5200    -5.6340     1.0270 H     1 <1>   0.4500 
 35 H       -2.3090    -5.9670     0.4650 H     1 <1>   0.0800 
 36 H       -1.3140    -6.7310     1.6760 H     1 <1>   0.0800 
 37 H       -0.9190    -5.8210    -1.5430 H     1 <1>   0.0800 
 38 H       -0.2110    -7.1670    -0.6760 H     1 <1>   0.0800 
 39 H        0.8160    -5.9040    -1.3090 H     1 <1>   0.0800 
 40 H       -2.2730    -2.6420     2.2370 H     1 <1>   0.0800 
 41 H       -3.3930    -3.4600     1.2220 H     1 <1>   0.0800 
 42 H       -2.5770    -4.4790    -1.0340 H     1 <1>   0.0800 
 43 H       -1.6130    -3.3330    -1.9270 H     1 <1>   0.0800 
 44 H       -2.8070    -5.1190     2.7260 H     1 <1>   0.0800 
 45 H       -1.1720    -4.5760     2.8870 H     1 <1>   0.0800 
 46 H       -4.0100    -2.7480    -0.5540 H     1 <1>   0.4000 
@<TRIPOS>BOND
  1   1   2  1   
  2   2   3  ar  
  3   2   4  ar  
  4   3   5  ar  
  5   3   6  1   
  6   4   7  ar  
  7   4  24  1   
  8   5   8  1   
  9   5   9  ar  
 10   6  10  2   
 11   6  11  am  
 12   7   9  ar  
 13   7  25  1   
 14   9  26  1   
 15  11  12  1   
 16  11  13  1   
 17  12  14  1   
 18  12  27  1   
 19  12  28  1   
 20  13  15  1   
 21  13  29  1   
 22  13  30  1   
 23  14  16  1   
 24  14  17  1   
 25  14  31  1   
 26  15  17  1   
 27  15  32  1   
 28  15  33  1   
 29  16  18  1   
 30  16  19  1   
 31  16  34  1   
 32  17  20  1   
 33  17  21  1   
 34  18  22  1   
 35  18  35  1   
 36  18  36  1   
 37  19  37  1   
 38  19  38  1   
 39  19  39  1   
 40  20  22  1   
 41  20  40  1   
 42  20  41  1   
 43  21  23  1   
 44  21  42  1   
 45  21  43  1   
 46  22  44  1   
 47  22  45  1   
 48  23  46  1   
@<TRIPOS>SUBSTRUCTURE
  1 ****  11 GROUP 4 **** **** 0

# MOE 2024.06 (io_trps.svl 2023.06)
