@<TRIPOS>MOLECULE
NONAME
30 31 1 0 0 
SMALL
USER_CHARGES


@<TRIPOS>ATOM
  1 S       -0.3830    -0.1790    -1.3820 S.3   1 <1>  -0.3320 
  2 C        0.4070    -1.6230    -0.7320 C.ar  1 <1>   0.1020 
  3 C       -1.6210    -0.0720    -0.0230 C.3   1 <1>   0.0700 
  4 C       -0.3050    -2.1650     0.3160 C.ar  1 <1>  -0.1440 
  5 C        1.5970    -2.1490    -1.1890 C.ar  1 <1>  -0.1500 
  6 C       -1.6240    -1.4690     0.6480 C.3   1 <1>   0.0640 
  7 C        0.2050    -3.2820     0.9600 C.ar  1 <1>  -0.1500 
  8 C        2.0920    -3.2680    -0.5410 C.ar  1 <1>   0.0830 
  9 C       -2.7880    -2.3380     0.1380 C.3   1 <1>  -0.0990 
 10 C        1.4050    -3.8320     0.5290 C.ar  1 <1>  -0.1500 
 11 O        3.2500    -3.8040    -0.9560 O.3   1 <1>  -0.5330 
 12 C       -4.1580    -1.7960     0.4940 C.2   1 <1>   0.6590 
 13 O       -4.3130    -0.9090     1.2940 O.2   1 <1>  -0.5700 
 14 O       -5.1750    -2.3680    -0.1320 O.3   1 <1>  -0.4300 
 15 C       -6.5040    -1.9660     0.1030 C.3   1 <1>   0.1200 
 16 C       -7.4180    -2.8170    -0.7730 C.3   1 <1>  -0.2400 
 17 H       -2.5660     0.2170    -0.4450 H     1 <1>   0.0800 
 18 H       -1.2650     0.6830     0.6550 H     1 <1>   0.0800 
 19 H        2.1240    -1.7030    -2.0110 H     1 <1>   0.1500 
 20 H       -1.7090    -1.3480     1.7140 H     1 <1>   0.0800 
 21 H       -0.3250    -3.7240     1.7850 H     1 <1>   0.1500 
 22 H       -2.7090    -3.3230     0.5570 H     1 <1>   0.0800 
 23 H       -2.7230    -2.4290    -0.9310 H     1 <1>   0.0800 
 24 H        1.7990    -4.6990     1.0280 H     1 <1>   0.1500 
 25 H        3.5210    -4.5820    -0.4380 H     1 <1>   0.4500 
 26 H       -6.5940    -0.9210    -0.1440 H     1 <1>   0.0800 
 27 H       -6.7250    -2.1100     1.1480 H     1 <1>   0.0800 
 28 H       -7.1780    -2.6700    -1.8110 H     1 <1>   0.0800 
 29 H       -8.4420    -2.5300    -0.6140 H     1 <1>   0.0800 
 30 H       -7.3110    -3.8560    -0.5210 H     1 <1>   0.0800 
@<TRIPOS>BOND
  1   1   2  1   
  2   1   3  1   
  3   2   4  ar  
  4   2   5  ar  
  5   3   6  1   
  6   3  17  1   
  7   3  18  1   
  8   4   6  1   
  9   4   7  ar  
 10   5   8  ar  
 11   5  19  1   
 12   6   9  1   
 13   6  20  1   
 14   7  10  ar  
 15   7  21  1   
 16   8  10  ar  
 17   8  11  1   
 18   9  12  1   
 19   9  22  1   
 20   9  23  1   
 21  10  24  1   
 22  11  25  1   
 23  12  13  2   
 24  12  14  1   
 25  14  15  1   
 26  15  16  1   
 27  15  26  1   
 28  15  27  1   
 29  16  28  1   
 30  16  29  1   
 31  16  30  1   
@<TRIPOS>SUBSTRUCTURE
  1 ****   6 GROUP 4 **** **** 0

# MOE 2024.06 (io_trps.svl 2023.06)
