@<TRIPOS>MOLECULE
NONAME
44 46 1 0 0 
SMALL
USER_CHARGES


@<TRIPOS>ATOM
  1 S        0.0700    -0.6250    -2.2210 S.3   1 <1>  -0.0800 
  2 C        1.0760    -1.4040    -1.0100 C.2   1 <1>  -0.1400 
  3 C        0.6930     0.9530    -1.7820 C.2   1 <1>  -0.1100 
  4 C        1.8150    -0.4880    -0.3560 C.2   1 <1>  -0.1500 
  5 C        0.9830    -2.9090    -0.8900 C.3   1 <1>   0.5230 
  6 C        1.5990     0.8630    -0.7880 C.2   1 <1>   0.0190 
  7 N       -0.0850    -3.2520     0.0840 N.4   1 <1>  -0.9590 
  8 C        2.3020     1.9550    -0.1850 C.1   1 <1>  -0.0190 
  9 C       -1.4580    -2.8040    -0.2780 C.3   1 <1>   0.3430 
 10 C       -0.1900    -4.7020     0.4180 C.3   1 <1>   0.3430 
 11 C        2.8880     2.8610     0.3160 C.1   1 <1>  -0.2000 
 12 C       -2.3580    -3.6290     0.6420 C.3   1 <1>   0.2000 
 13 C       -1.6840    -5.0010     0.6440 C.3   1 <1>  -0.0800 
 14 C        3.6210     3.9950     0.9380 C.3   1 <1>   0.3200 
 15 O       -2.2520    -3.1010     1.9230 O.3   1 <1>  -0.6800 
 16 C       -2.2530    -5.9150    -0.4600 C.3   1 <1>  -0.0170 
 17 O        4.7130     4.2620     0.1420 O.3   1 <1>  -0.6800 
 18 C       -1.4000    -7.1620    -0.6330 C.ar  1 <1>  -0.1440 
 19 C       -0.7150    -7.4210    -1.8050 C.ar  1 <1>  -0.1500 
 20 C       -1.2610    -8.0980     0.3730 C.ar  1 <1>  -0.1500 
 21 C        0.0700    -8.5570    -1.9020 C.ar  1 <1>   0.1600 
 22 C       -0.4490    -9.2020     0.1740 C.ar  1 <1>   0.1600 
 23 N        0.2280    -9.4440    -0.9350 N.ar  1 <1>  -0.6200 
 24 H        0.3180     1.8070    -2.3180 H     1 <1>   0.1500 
 25 H        2.5240    -0.6840     0.4300 H     1 <1>   0.1500 
 26 H        1.9270    -3.2910    -0.5370 H     1 <1>   0.0800 
 27 H        0.7760    -3.3440    -1.8540 H     1 <1>   0.0800 
 28 H        0.1130    -2.7540     0.9650 H     1 <1>   0.4500 
 29 H       -1.5950    -1.7470    -0.1160 H     1 <1>   0.0800 
 30 H       -1.6680    -3.0430    -1.3070 H     1 <1>   0.0800 
 31 H        0.1940    -5.3070    -0.3870 H     1 <1>   0.0800 
 32 H        0.3730    -4.9180     1.3120 H     1 <1>   0.0800 
 33 H       -3.3930    -3.6280     0.3410 H     1 <1>   0.0800 
 34 H       -1.8170    -5.4950     1.5910 H     1 <1>   0.0800 
 35 H        3.9710     3.7340     1.9220 H     1 <1>   0.0800 
 36 H        3.0110     4.8810     0.9880 H     1 <1>   0.0800 
 37 H       -2.9500    -3.4530     2.5160 H     1 <1>   0.4000 
 38 H       -2.3040    -5.3880    -1.3970 H     1 <1>   0.0800 
 39 H       -3.2560    -6.2120    -0.2030 H     1 <1>   0.0800 
 40 H        5.0780     3.4190    -0.1860 H     1 <1>   0.4000 
 41 H       -0.7830    -6.7610    -2.6510 H     1 <1>   0.1500 
 42 H       -1.7760    -7.9910     1.3100 H     1 <1>   0.1500 
 43 H        0.5960    -8.7500    -2.8230 H     1 <1>   0.1500 
 44 H       -0.3500    -9.9240     0.9680 H     1 <1>   0.1500 
@<TRIPOS>BOND
  1   1   2  1   
  2   1   3  1   
  3   2   4  2   
  4   2   5  1   
  5   3   6  2   
  6   3  24  1   
  7   4   6  1   
  8   4  25  1   
  9   5   7  1   
 10   5  26  1   
 11   5  27  1   
 12   6   8  1   
 13   7   9  1   
 14   7  10  1   
 15   7  28  1   
 16   8  11  3   
 17   9  12  1   
 18   9  29  1   
 19   9  30  1   
 20  10  13  1   
 21  10  31  1   
 22  10  32  1   
 23  11  14  1   
 24  12  13  1   
 25  12  15  1   
 26  12  33  1   
 27  13  16  1   
 28  13  34  1   
 29  14  17  1   
 30  14  35  1   
 31  14  36  1   
 32  15  37  1   
 33  16  18  1   
 34  16  38  1   
 35  16  39  1   
 36  17  40  1   
 37  18  19  ar  
 38  18  20  ar  
 39  19  21  ar  
 40  19  41  1   
 41  20  22  ar  
 42  20  42  1   
 43  21  23  ar  
 44  21  43  1   
 45  22  23  ar  
 46  22  44  1   
@<TRIPOS>SUBSTRUCTURE
  1 ****   7 GROUP 4 **** **** 0

# MOE 2024.06 (io_trps.svl 2023.06)
