@<TRIPOS>MOLECULE
NONAME
62 64 1 0 0 
SMALL
USER_CHARGES


@<TRIPOS>ATOM
  1 F       -0.3450     0.2820     0.0570 F     1 <1>  -0.1900 
  2 C       -1.6200     0.5460     0.1850 C.ar  1 <1>   0.1900 
  3 C       -2.1540     1.8010    -0.1270 C.ar  1 <1>   0.0830 
  4 C       -2.4160    -0.4840     0.6480 C.ar  1 <1>  -0.1500 
  5 O       -1.4750     2.8910    -0.5870 O.3   1 <1>  -0.3630 
  6 C       -3.5180     1.9780     0.0400 C.ar  1 <1>  -0.1500 
  7 C       -3.7740    -0.2740     0.8030 C.ar  1 <1>  -0.1500 
  8 C       -0.0780     2.9030    -0.7800 C.3   1 <1>   0.0400 
  9 C       -4.3550     0.9580     0.4960 C.ar  1 <1>   0.0530 
 10 C       -5.7710     1.1790     0.6410 C.2   1 <1>   0.0870 
 11 O       -6.2370     2.3580     0.9710 O.3   1 <1>  -0.0190 
 12 C       -6.8470     0.3680     0.4780 C.2   1 <1>  -0.0860 
 13 N       -7.5430     2.3870     1.0480 N.2   1 <1>  -0.4100 
 14 C       -7.9320     1.1940     0.7630 C.2   1 <1>   0.3720 
 15 C       -6.9720    -0.9870     0.0600 C.2   1 <1>   0.7160 
 16 N       -9.2680     0.7730     0.7540 N.pl3 1 <1>  -0.8210 
 17 O       -6.8290    -1.8930     0.8640 O.2   1 <1>  -0.5700 
 18 N       -7.2940    -1.3150    -1.2430 N.am  1 <1>  -0.6600 
 19 C       -9.7090     0.3290     2.1040 C.3   1 <1>   0.1290 
 20 C      -10.2080     1.7900     0.2000 C.3   1 <1>   0.1290 
 21 C       -7.6830    -2.7050    -1.6070 C.3   1 <1>   0.1400 
 22 C       -7.4210    -0.2910    -2.3240 C.3   1 <1>   0.0600 
 23 C       -9.0270    -3.0670    -0.9420 C.3   1 <1>   0.3430 
 24 N       -9.0600    -4.4570    -0.3620 N.4   1 <1>  -0.9590 
 25 C      -10.4390    -4.8940     0.0110 C.3   1 <1>   0.4230 
 26 C       -8.1380    -4.5180     0.8190 C.3   1 <1>   0.3430 
 27 C      -10.3960    -6.3290     0.5570 C.3   1 <1>  -0.1600 
 28 C      -11.3670    -4.8470    -1.2040 C.3   1 <1>  -0.2400 
 29 C       -8.0550    -5.9420     1.3660 C.3   1 <1>  -0.1600 
 30 C       -9.4400    -6.4720     1.7450 C.3   1 <1>  -0.1600 
 31 H       -1.9740    -1.4360     0.8850 H     1 <1>   0.1500 
 32 H       -3.9380     2.9400    -0.1970 H     1 <1>   0.1500 
 33 H       -4.3860    -1.0760     1.1760 H     1 <1>   0.1500 
 34 H        0.2040     3.8810    -1.1250 H     1 <1>   0.0800 
 35 H        0.1790     2.1680    -1.5220 H     1 <1>   0.0800 
 36 H        0.4070     2.6930     0.1570 H     1 <1>   0.0800 
 37 H       -9.0410    -0.4290     2.4770 H     1 <1>   0.0800 
 38 H      -10.7040    -0.0760     2.0550 H     1 <1>   0.0800 
 39 H       -9.7000     1.1620     2.7880 H     1 <1>   0.0800 
 40 H       -9.8340     2.1600    -0.7390 H     1 <1>   0.0800 
 41 H      -10.3050     2.6190     0.8810 H     1 <1>   0.0800 
 42 H      -11.1760     1.3500     0.0380 H     1 <1>   0.0800 
 43 H       -6.8990    -3.3690    -1.2880 H     1 <1>   0.0800 
 44 H       -7.7750    -2.7910    -2.6760 H     1 <1>   0.0800 
 45 H       -6.8880     0.6100    -2.0690 H     1 <1>   0.0800 
 46 H       -8.4580    -0.0440    -2.4730 H     1 <1>   0.0800 
 47 H       -7.0100    -0.6690    -3.2430 H     1 <1>   0.0800 
 48 H       -9.7960    -2.9550    -1.6850 H     1 <1>   0.0800 
 49 H       -9.2240    -2.3560    -0.1550 H     1 <1>   0.0800 
 50 H       -8.7190    -5.1270    -1.0590 H     1 <1>   0.4500 
 51 H      -10.8260    -4.2430     0.7790 H     1 <1>   0.0800 
 52 H       -8.4910    -3.8540     1.5920 H     1 <1>   0.0800 
 53 H       -7.1480    -4.1950     0.5410 H     1 <1>   0.0800 
 54 H      -10.1020    -7.0070    -0.2250 H     1 <1>   0.0800 
 55 H      -11.3840    -6.6170     0.8750 H     1 <1>   0.0800 
 56 H      -10.9510    -5.3890    -2.0340 H     1 <1>   0.0800 
 57 H      -11.5820    -3.8360    -1.4980 H     1 <1>   0.0800 
 58 H      -12.3110    -5.3000    -0.9530 H     1 <1>   0.0800 
 59 H       -7.4220    -5.9450     2.2360 H     1 <1>   0.0800 
 60 H       -7.5990    -6.5840     0.6330 H     1 <1>   0.0800 
 61 H       -9.3700    -7.5060     2.0390 H     1 <1>   0.0800 
 62 H       -9.8220    -5.9160     2.5860 H     1 <1>   0.0800 
@<TRIPOS>BOND
  1   1   2  1   
  2   2   3  ar  
  3   2   4  ar  
  4   3   5  1   
  5   3   6  ar  
  6   4   7  ar  
  7   4  31  1   
  8   5   8  1   
  9   6   9  ar  
 10   6  32  1   
 11   7   9  ar  
 12   7  33  1   
 13   8  34  1   
 14   8  35  1   
 15   8  36  1   
 16   9  10  1   
 17  10  11  1   
 18  10  12  2   
 19  11  13  1   
 20  12  14  1   
 21  12  15  1   
 22  13  14  2   
 23  14  16  1   
 24  15  17  2   
 25  15  18  am  
 26  16  19  1   
 27  16  20  1   
 28  18  21  1   
 29  18  22  1   
 30  19  37  1   
 31  19  38  1   
 32  19  39  1   
 33  20  40  1   
 34  20  41  1   
 35  20  42  1   
 36  21  23  1   
 37  21  43  1   
 38  21  44  1   
 39  22  45  1   
 40  22  46  1   
 41  22  47  1   
 42  23  24  1   
 43  23  48  1   
 44  23  49  1   
 45  24  25  1   
 46  24  26  1   
 47  24  50  1   
 48  25  27  1   
 49  25  28  1   
 50  25  51  1   
 51  26  29  1   
 52  26  52  1   
 53  26  53  1   
 54  27  30  1   
 55  27  54  1   
 56  27  55  1   
 57  28  56  1   
 58  28  57  1   
 59  28  58  1   
 60  29  30  1   
 61  29  59  1   
 62  29  60  1   
 63  30  61  1   
 64  30  62  1   
@<TRIPOS>SUBSTRUCTURE
  1 ****  15 GROUP 4 **** **** 0

# MOE 2024.06 (io_trps.svl 2023.06)
