@<TRIPOS>MOLECULE
NONAME
56 57 1 0 0 
SMALL
USER_CHARGES


@<TRIPOS>ATOM
  1 S        0.2600    -0.2170    -0.0720 S.o2  1 <1>   1.4470 
  2 O        0.9690    -0.6010     1.1270 O.2   1 <1>  -0.6500 
  3 O        0.5520    -0.8550    -1.3350 O.2   1 <1>  -0.6500 
  4 N       -1.3720    -0.5270     0.1780 N.am  1 <1>  -0.9140 
  5 C        0.3110     1.5890    -0.2550 C.ar  1 <1>  -0.0090 
  6 C       -1.6740    -1.7080     0.9730 C.3   1 <1>   0.1960 
  7 C        0.8760     2.1910    -1.3730 C.ar  1 <1>  -0.1500 
  8 C       -0.2140     2.4210     0.7260 C.ar  1 <1>  -0.1500 
  9 C       -1.3940    -2.9900     0.1820 C.3   1 <1>  -0.1600 
 10 C        0.9170     3.5680    -1.5030 C.ar  1 <1>  -0.1500 
 11 C       -0.1760     3.7980     0.5980 C.ar  1 <1>  -0.1500 
 12 C       -1.8440    -4.2300     0.9620 C.3   1 <1>  -0.2400 
 13 C        0.4000     4.4030    -0.5160 C.ar  1 <1>   0.0860 
 14 C        0.4590     5.8450    -0.6510 C.2   1 <1>   0.5440 
 15 O       -0.2600     6.3740    -1.4780 O.2   1 <1>  -0.5700 
 16 N        1.3020     6.6260     0.1220 N.am  1 <1>  -0.6600 
 17 C        1.2340     8.1230    -0.0170 C.3   1 <1>   0.2200 
 18 C        2.3340     6.0060     1.0140 C.3   1 <1>   0.1400 
 19 C        2.5510     8.8590     0.2530 C.3   1 <1>  -0.1600 
 20 C        0.1340     8.6890     0.8790 C.3   1 <1>  -0.1600 
 21 C        1.9340     6.1250     2.4840 C.3   1 <1>  -0.2400 
 22 C        2.3790    10.3850     0.1470 C.3   1 <1>   0.2800 
 23 C        0.0500    10.2060     0.7060 C.3   1 <1>   0.1200 
 24 O        1.3020    10.7880     0.9380 O.3   1 <1>  -0.5600 
 25 C        2.1740    10.8770    -1.2930 C.3   1 <1>  -0.2400 
 26 C        3.6010    11.0880     0.7390 C.3   1 <1>  -0.2400 
 27 H       -1.7330    -0.6900    -0.7600 H     1 <1>   0.4200 
 28 H       -2.7190    -1.6810     1.2340 H     1 <1>   0.0800 
 29 H       -1.1090    -1.6980     1.8920 H     1 <1>   0.0800 
 30 H        1.2880     1.5730    -2.1550 H     1 <1>   0.1500 
 31 H       -0.6630     1.9790     1.6020 H     1 <1>   0.1500 
 32 H       -0.3390    -3.0780    -0.0140 H     1 <1>   0.0800 
 33 H       -1.9180    -2.9610    -0.7570 H     1 <1>   0.0800 
 34 H        1.3520     4.0140    -2.3810 H     1 <1>   0.1500 
 35 H       -0.5990     4.4200     1.3670 H     1 <1>   0.1500 
 36 H       -1.3190    -4.2960     1.8990 H     1 <1>   0.0800 
 37 H       -1.6340    -5.1180     0.3920 H     1 <1>   0.0800 
 38 H       -2.9020    -4.1930     1.1580 H     1 <1>   0.0800 
 39 H        0.9620     8.3430    -1.0350 H     1 <1>   0.0800 
 40 H        3.2940     6.4640     0.8510 H     1 <1>   0.0800 
 41 H        2.4550     4.9650     0.7740 H     1 <1>   0.0800 
 42 H        3.2980     8.5340    -0.4470 H     1 <1>   0.0800 
 43 H        2.8930     8.6430     1.2470 H     1 <1>   0.0800 
 44 H        0.3290     8.4710     1.9110 H     1 <1>   0.0800 
 45 H       -0.8110     8.2540     0.6090 H     1 <1>   0.0800 
 46 H        1.9680     7.1470     2.8090 H     1 <1>   0.0800 
 47 H        2.6220     5.5620     3.0880 H     1 <1>   0.0800 
 48 H        0.9450     5.7340     2.6400 H     1 <1>   0.0800 
 49 H       -0.6380    10.6240     1.4190 H     1 <1>   0.0800 
 50 H       -0.2830    10.4690    -0.2820 H     1 <1>   0.0800 
 51 H        1.3490    10.3900    -1.7750 H     1 <1>   0.0800 
 52 H        3.0550    10.6760    -1.8760 H     1 <1>   0.0800 
 53 H        2.0030    11.9390    -1.2970 H     1 <1>   0.0800 
 54 H        3.7300    10.8090     1.7690 H     1 <1>   0.0800 
 55 H        3.4780    12.1550     0.6830 H     1 <1>   0.0800 
 56 H        4.4890    10.8170     0.1970 H     1 <1>   0.0800 
@<TRIPOS>BOND
  1   1   2  2   
  2   1   3  2   
  3   1   4  am  
  4   1   5  1   
  5   4   6  1   
  6   4  27  1   
  7   5   7  ar  
  8   5   8  ar  
  9   6   9  1   
 10   6  28  1   
 11   6  29  1   
 12   7  10  ar  
 13   7  30  1   
 14   8  11  ar  
 15   8  31  1   
 16   9  12  1   
 17   9  32  1   
 18   9  33  1   
 19  10  13  ar  
 20  10  34  1   
 21  11  13  ar  
 22  11  35  1   
 23  12  36  1   
 24  12  37  1   
 25  12  38  1   
 26  13  14  1   
 27  14  15  2   
 28  14  16  am  
 29  16  17  1   
 30  16  18  1   
 31  17  19  1   
 32  17  20  1   
 33  17  39  1   
 34  18  21  1   
 35  18  40  1   
 36  18  41  1   
 37  19  22  1   
 38  19  42  1   
 39  19  43  1   
 40  20  23  1   
 41  20  44  1   
 42  20  45  1   
 43  21  46  1   
 44  21  47  1   
 45  21  48  1   
 46  22  24  1   
 47  22  25  1   
 48  22  26  1   
 49  23  24  1   
 50  23  49  1   
 51  23  50  1   
 52  25  51  1   
 53  25  52  1   
 54  25  53  1   
 55  26  54  1   
 56  26  55  1   
 57  26  56  1   
@<TRIPOS>SUBSTRUCTURE
  1 ****  13 GROUP 4 **** **** 0

# MOE 2024.06 (io_trps.svl 2023.06)
