@<TRIPOS>MOLECULE
NONAME
45 47 1 0 0 
SMALL
USER_CHARGES


@<TRIPOS>ATOM
  1 O        0.0150     0.6060    -0.7490 O.2   1 <1>  -0.5700 
  2 C       -0.0990     1.7710    -0.4480 C.2   1 <1>   0.5690 
  3 N       -1.2380     2.4840    -0.7190 N.am  1 <1>  -0.6600 
  4 C        1.0760     2.4370     0.2450 C.3   1 <1>  -0.0990 
  5 C       -1.4510     3.9300    -0.4260 C.3   1 <1>   0.1400 
  6 C       -2.4200     1.8410    -1.3620 C.3   1 <1>   0.1400 
  7 C        2.1760     1.4340     0.6220 C.3   1 <1>   0.0960 
  8 C       -2.6400     4.0750     0.5250 C.3   1 <1>  -0.1600 
  9 C       -3.6320     1.9730    -0.4350 C.3   1 <1>  -0.1600 
 10 N        3.3320     2.1350     1.2110 N.pl3 1 <1>   0.3140 
 11 C       -3.9060     3.4320    -0.0600 C.3   1 <1>   0.4180 
 12 N        3.3140     2.6400     2.4240 N.2   1 <1>  -0.4180 
 13 C        4.5130     2.4130     0.6800 C.2   1 <1>   0.0060 
 14 O       -4.2480     4.0870    -1.2580 O.3   1 <1>  -0.5600 
 15 C       -5.0630     3.4980     0.9340 C.2   1 <1>  -0.2880 
 16 N        4.4580     3.1960     2.6030 N.2   1 <1>   0.0000 
 17 N        5.2190     3.0640     1.5210 N.2   1 <1>  -0.3380 
 18 C        4.9740     2.0270    -0.7140 C.3   1 <1>  -0.0600 
 19 C       -4.9590     5.2890    -1.1600 C.3   1 <1>   0.1200 
 20 C       -6.1740     4.2150     0.7450 C.2   1 <1>  -0.2760 
 21 C       -6.3280     5.0570    -0.5070 C.3   1 <1>  -0.0220 
 22 C       -7.3470     4.2550     1.7080 C.3   1 <1>  -0.1020 
 23 H        0.7220     2.9120     1.1420 H     1 <1>   0.0800 
 24 H        1.4790     3.1800    -0.4180 H     1 <1>   0.0800 
 25 H       -1.6600     4.4460    -1.3490 H     1 <1>   0.0800 
 26 H       -0.5800     4.3800     0.0130 H     1 <1>   0.0800 
 27 H       -2.2320     0.8010    -1.5620 H     1 <1>   0.0800 
 28 H       -2.6220     2.3300    -2.3000 H     1 <1>   0.0800 
 29 H        2.5000     0.8900    -0.2460 H     1 <1>   0.0800 
 30 H        1.8000     0.7300     1.3420 H     1 <1>   0.0800 
 31 H       -2.8180     5.1110     0.7410 H     1 <1>   0.0800 
 32 H       -2.3980     3.5940     1.4550 H     1 <1>   0.0800 
 33 H       -3.4460     1.3990     0.4540 H     1 <1>   0.0800 
 34 H       -4.5020     1.5620    -0.9130 H     1 <1>   0.0800 
 35 H       -4.8960     2.8940     1.8070 H     1 <1>   0.1500 
 36 H        4.3130     2.4410    -1.4530 H     1 <1>   0.0800 
 37 H        4.9970     0.9570    -0.8140 H     1 <1>   0.0800 
 38 H        5.9650     2.4080    -0.8880 H     1 <1>   0.0800 
 39 H       -5.0810     5.6820    -2.1530 H     1 <1>   0.0800 
 40 H       -4.3800     5.9860    -0.5810 H     1 <1>   0.0800 
 41 H       -6.9830     4.5610    -1.2010 H     1 <1>   0.0800 
 42 H       -6.7580     6.0120    -0.2640 H     1 <1>   0.0800 
 43 H       -8.2400     3.9120     1.2170 H     1 <1>   0.0800 
 44 H       -7.5050     5.2580     2.0620 H     1 <1>   0.0800 
 45 H       -7.1590     3.6200     2.5560 H     1 <1>   0.0800 
@<TRIPOS>BOND
  1   1   2  2   
  2   2   3  am  
  3   2   4  1   
  4   3   5  1   
  5   3   6  1   
  6   4   7  1   
  7   4  23  1   
  8   4  24  1   
  9   5   8  1   
 10   5  25  1   
 11   5  26  1   
 12   6   9  1   
 13   6  27  1   
 14   6  28  1   
 15   7  10  1   
 16   7  29  1   
 17   7  30  1   
 18   8  11  1   
 19   8  31  1   
 20   8  32  1   
 21   9  11  1   
 22   9  33  1   
 23   9  34  1   
 24  10  12  1   
 25  10  13  1   
 26  11  14  1   
 27  11  15  1   
 28  12  16  2   
 29  13  17  2   
 30  13  18  1   
 31  14  19  1   
 32  15  20  2   
 33  15  35  1   
 34  16  17  1   
 35  18  36  1   
 36  18  37  1   
 37  18  38  1   
 38  19  21  1   
 39  19  39  1   
 40  19  40  1   
 41  20  21  1   
 42  20  22  1   
 43  21  41  1   
 44  21  42  1   
 45  22  43  1   
 46  22  44  1   
 47  22  45  1   
@<TRIPOS>SUBSTRUCTURE
  1 ****   3 GROUP 4 **** **** 0

# MOE 2024.06 (io_trps.svl 2023.06)
