@<TRIPOS>MOLECULE
NONAME
52 56 1 0 0 
SMALL
USER_CHARGES


@<TRIPOS>ATOM
  1 O        0.3180     0.8080    -0.2990 O.2   1 <1>  -0.5700 
  2 C       -0.2700     1.8760    -0.2690 C.2   1 <1>   0.7150 
  3 N       -1.6380     1.8480    -0.0590 N.am  1 <1>  -0.6600 
  4 C        0.5070     3.0870    -0.4710 C.2   1 <1>   0.0550 
  5 C       -2.5710     2.9810    -0.3440 C.3   1 <1>   0.1400 
  6 C       -2.3090     0.5690     0.3320 C.3   1 <1>   0.1400 
  7 O        0.1300     4.2760     0.0310 O.3   1 <1>  -0.2800 
  8 C        1.6880     3.2390    -1.1220 C.2   1 <1>  -0.1500 
  9 C       -3.4330     3.3170     0.8940 C.3   1 <1>   0.1440 
 10 C       -3.7750     0.7780     0.7530 C.3   1 <1>  -0.1600 
 11 C        1.0460     5.1810    -0.3030 C.ar  1 <1>   0.1400 
 12 C        2.0580     4.5910    -1.0350 C.ar  1 <1>   0.0000 
 13 C       -4.5630     4.2090     0.4090 C.ar  1 <1>   0.1660 
 14 C       -3.9320     2.0370     1.6200 C.3   1 <1>  -0.1600 
 15 C       -2.6900     4.2580     1.8760 C.3   1 <1>  -0.1600 
 16 C        1.0520     6.5360     0.0010 C.ar  1 <1>  -0.1500 
 17 C        3.1230     5.3720    -1.4860 C.ar  1 <1>  -0.1500 
 18 N       -5.6250     3.8070    -0.2440 N.ar  1 <1>  -0.6200 
 19 C       -4.3300     5.5170     0.7140 C.ar  1 <1>  -0.1430 
 20 C       -3.0260     5.6960     1.4500 C.3   1 <1>  -0.0170 
 21 C        2.1070     7.3030    -0.4490 C.ar  1 <1>  -0.1500 
 22 C        3.1400     6.7200    -1.1910 C.ar  1 <1>  -0.1500 
 23 C       -6.4830     4.7720    -0.5840 C.ar  1 <1>   0.7200 
 24 C       -5.2660     6.4390     0.3210 C.ar  1 <1>   0.1600 
 25 N       -6.3470     6.0770    -0.3270 N.ar  1 <1>  -0.6200 
 26 N       -7.6180     4.3830    -1.2710 N.pl3 1 <1>  -0.8380 
 27 C       -8.7810     5.2950    -1.4540 C.3   1 <1>   0.1290 
 28 C       -7.7620     3.0210    -1.8530 C.3   1 <1>   0.1290 
 29 H       -3.2240     2.6760    -1.1450 H     1 <1>   0.0800 
 30 H       -2.0570     3.8550    -0.6920 H     1 <1>   0.0800 
 31 H       -1.7630     0.1410     1.1570 H     1 <1>   0.0800 
 32 H       -2.2590    -0.1250    -0.4910 H     1 <1>   0.0800 
 33 H        2.2620     2.4780    -1.6200 H     1 <1>   0.1500 
 34 H       -4.1130    -0.0870     1.2970 H     1 <1>   0.0800 
 35 H       -4.3930     0.8640    -0.1250 H     1 <1>   0.0800 
 36 H       -4.9610     2.1560     1.9120 H     1 <1>   0.0800 
 37 H       -3.3570     1.8820     2.5160 H     1 <1>   0.0800 
 38 H       -1.6310     4.0730     1.9040 H     1 <1>   0.0800 
 39 H       -3.0810     4.1170     2.8690 H     1 <1>   0.0800 
 40 H        0.2480     6.9590     0.5730 H     1 <1>   0.1500 
 41 H        3.9130     4.9150    -2.0550 H     1 <1>   0.1500 
 42 H       -2.2780     6.0780     0.7770 H     1 <1>   0.0800 
 43 H       -3.1290     6.3490     2.3000 H     1 <1>   0.0800 
 44 H        2.1440     8.3570    -0.2320 H     1 <1>   0.1500 
 45 H        3.9540     7.3370    -1.5320 H     1 <1>   0.1500 
 46 H       -5.1260     7.4830     0.5390 H     1 <1>   0.1500 
 47 H       -8.8480     5.9900    -0.6360 H     1 <1>   0.0800 
 48 H       -9.6940     4.7280    -1.4920 H     1 <1>   0.0800 
 49 H       -8.6640     5.8450    -2.3710 H     1 <1>   0.0800 
 50 H       -6.8030     2.6350    -2.1510 H     1 <1>   0.0800 
 51 H       -8.3980     3.0530    -2.7210 H     1 <1>   0.0800 
 52 H       -8.1920     2.3610    -1.1200 H     1 <1>   0.0800 
@<TRIPOS>BOND
  1   1   2  2   
  2   2   3  am  
  3   2   4  1   
  4   3   5  1   
  5   3   6  1   
  6   4   7  1   
  7   4   8  2   
  8   5   9  1   
  9   5  29  1   
 10   5  30  1   
 11   6  10  1   
 12   6  31  1   
 13   6  32  1   
 14   7  11  1   
 15   8  12  1   
 16   8  33  1   
 17   9  13  1   
 18   9  14  1   
 19   9  15  1   
 20  10  14  1   
 21  10  34  1   
 22  10  35  1   
 23  11  12  ar  
 24  11  16  ar  
 25  12  17  ar  
 26  13  18  ar  
 27  13  19  ar  
 28  14  36  1   
 29  14  37  1   
 30  15  20  1   
 31  15  38  1   
 32  15  39  1   
 33  16  21  ar  
 34  16  40  1   
 35  17  22  ar  
 36  17  41  1   
 37  18  23  ar  
 38  19  20  1   
 39  19  24  ar  
 40  20  42  1   
 41  20  43  1   
 42  21  22  ar  
 43  21  44  1   
 44  22  45  1   
 45  23  25  ar  
 46  23  26  1   
 47  24  25  ar  
 48  24  46  1   
 49  26  27  1   
 50  26  28  1   
 51  27  47  1   
 52  27  48  1   
 53  27  49  1   
 54  28  50  1   
 55  28  51  1   
 56  28  52  1   
@<TRIPOS>SUBSTRUCTURE
  1 ****   5 GROUP 4 **** **** 0

# MOE 2024.06 (io_trps.svl 2023.06)
