@<TRIPOS>MOLECULE
NONAME
50 53 1 0 0 
SMALL
USER_CHARGES


@<TRIPOS>ATOM
  1 S        0.2700     0.3220    -1.2210 S.3   1 <1>  -0.0880 
  2 C        1.0400    -1.0930    -0.5170 C.2   1 <1>  -0.1480 
  3 C        1.2350     1.3970    -0.2270 C.2   1 <1>  -0.1180 
  4 C        1.9630    -0.7240     0.3920 C.2   1 <1>  -0.1580 
  5 C        0.5950    -2.4470    -1.0190 C.3   1 <1>   0.5180 
  6 C        2.0690     0.6940     0.5590 C.2   1 <1>  -0.1580 
  7 N       -0.4860    -2.9580    -0.1250 N.4   1 <1>  -0.9610 
  8 C       -0.6770    -4.4370    -0.2870 C.3   1 <1>   0.3370 
  9 C       -1.7460    -2.1820    -0.3220 C.3   1 <1>   0.3370 
 10 C       -1.7740    -5.0080     0.6560 C.3   1 <1>   0.2410 
 11 C       -2.8280    -2.7070     0.6250 C.3   1 <1>  -0.1680 
 12 N       -1.9340    -6.4920     0.4760 N.pl3 1 <1>  -0.7180 
 13 C       -3.0780    -4.2170     0.4680 C.3   1 <1>  -0.1680 
 14 C       -2.9730    -7.3080     0.2500 C.cat 1 <1>   1.0690 
 15 N       -4.2440    -6.9560     0.0690 N.pl3 1 <1>  -0.7040 
 16 N       -2.8560    -8.6360     0.1760 N.pl3 1 <1>  -0.7680 
 17 C       -4.9800    -8.0850    -0.1250 C.2   1 <1>   0.4200 
 18 C       -4.1470    -9.1480    -0.0670 C.2   1 <1>   0.2700 
 19 C       -1.6840    -9.5530     0.3080 C.3   1 <1>   0.2670 
 20 N       -6.3450    -8.1870    -0.3480 N.am  1 <1>  -0.4420 
 21 C       -4.7020   -10.4580    -0.2520 C.2   1 <1>   0.6990 
 22 C       -6.8740    -9.4580    -0.5360 C.2   1 <1>   0.6860 
 23 C       -7.2220    -6.9800    -0.3940 C.3   1 <1>   0.0520 
 24 O       -4.0400   -11.4760    -0.2170 O.2   1 <1>  -0.5750 
 25 N       -6.0450   -10.5410    -0.4780 N.am  1 <1>  -0.4950 
 26 O       -8.0480    -9.6420    -0.7530 O.2   1 <1>  -0.5750 
 27 H        1.0780     2.4560    -0.3390 H     1 <1>   0.1420 
 28 H        2.5950    -1.3780     0.9680 H     1 <1>   0.1420 
 29 H        1.4390    -3.1160    -0.9870 H     1 <1>   0.0720 
 30 H        0.2520    -2.3740    -2.0380 H     1 <1>   0.0720 
 31 H        2.7690     1.1190     1.2590 H     1 <1>   0.1420 
 32 H       -0.1570    -2.7400     0.8260 H     1 <1>   0.4440 
 33 H        0.2570    -4.9360    -0.0860 H     1 <1>   0.0720 
 34 H       -0.9590    -4.6400    -1.3070 H     1 <1>   0.0720 
 35 H       -2.0790    -2.2750    -1.3440 H     1 <1>   0.0720 
 36 H       -1.5750    -1.1380    -0.1160 H     1 <1>   0.0720 
 37 H       -1.4380    -4.8490     1.6680 H     1 <1>   0.0720 
 38 H       -3.7420    -2.1730     0.4270 H     1 <1>   0.0720 
 39 H       -2.5470    -2.4790     1.6400 H     1 <1>   0.0720 
 40 H       -1.0760    -7.0050     0.6780 H     1 <1>   0.4440 
 41 H       -3.7990    -4.5110     1.2120 H     1 <1>   0.0720 
 42 H       -3.4780    -4.3880    -0.5170 H     1 <1>   0.0720 
 43 H       -4.6130    -6.0110     0.0940 H     1 <1>   0.4440 
 44 H       -0.7750    -9.0060     0.4820 H     1 <1>   0.0720 
 45 H       -1.5700   -10.1340    -0.5940 H     1 <1>   0.0720 
 46 H       -1.8410   -10.2330     1.1290 H     1 <1>   0.0720 
 47 H       -7.0320    -6.3500     0.4570 H     1 <1>   0.0720 
 48 H       -8.2610    -7.2620    -0.3750 H     1 <1>   0.0720 
 49 H       -7.0370    -6.4290    -1.3000 H     1 <1>   0.0720 
 50 H       -6.4640   -11.4590    -0.6180 H     1 <1>   0.3640 
@<TRIPOS>BOND
  1   1   2  1   
  2   1   3  1   
  3   2   4  2   
  4   2   5  1   
  5   3   6  2   
  6   3  27  1   
  7   4   6  1   
  8   4  28  1   
  9   5   7  1   
 10   5  29  1   
 11   5  30  1   
 12   6  31  1   
 13   7   8  1   
 14   7   9  1   
 15   7  32  1   
 16   8  10  1   
 17   8  33  1   
 18   8  34  1   
 19   9  11  1   
 20   9  35  1   
 21   9  36  1   
 22  10  12  1   
 23  10  13  1   
 24  10  37  1   
 25  11  13  1   
 26  11  38  1   
 27  11  39  1   
 28  12  14  ar  
 29  12  40  1   
 30  13  41  1   
 31  13  42  1   
 32  14  15  ar  
 33  14  16  ar  
 34  15  17  1   
 35  15  43  1   
 36  16  18  1   
 37  16  19  1   
 38  17  18  2   
 39  17  20  1   
 40  18  21  1   
 41  19  44  1   
 42  19  45  1   
 43  19  46  1   
 44  20  22  am  
 45  20  23  1   
 46  21  24  2   
 47  21  25  am  
 48  22  25  am  
 49  22  26  2   
 50  23  47  1   
 51  23  48  1   
 52  23  49  1   
 53  25  50  1   
@<TRIPOS>SUBSTRUCTURE
  1 ****  12 GROUP 4 **** **** 0

# MOE 2024.06 (io_trps.svl 2023.06)
