@<TRIPOS>MOLECULE
NONAME
58 60 1 0 0 
SMALL
USER_CHARGES


@<TRIPOS>ATOM
  1 O        0.0600    -0.7520     0.0070 O.2   1 <1>  -0.5700 
  2 C       -0.5760     0.2600     0.2360 C.2   1 <1>   0.6900 
  3 N        0.0620     1.4450     0.5020 N.am  1 <1>  -0.6600 
  4 N       -1.9290     0.2280     0.2070 N.am  1 <1>  -0.7300 
  5 C        1.5220     1.6000     0.2600 C.3   1 <1>   0.1400 
  6 C       -0.5830     2.6240     1.1410 C.3   1 <1>   0.1400 
  7 C       -2.7490    -0.9530    -0.0970 C.3   1 <1>   0.2200 
  8 C        1.7610     2.8290    -0.6200 C.3   1 <1>  -0.1600 
  9 C       -0.3760     3.8500     0.2530 C.3   1 <1>  -0.1600 
 10 C       -3.3350    -0.8010    -1.5050 C.3   1 <1>  -0.1600 
 11 C       -3.8550    -1.0690     0.9570 C.3   1 <1>  -0.1600 
 12 C        1.1150     4.0710    -0.0080 C.3   1 <1>   0.2890 
 13 C       -4.2930    -1.9550    -1.8350 C.3   1 <1>  -0.1600 
 14 C       -4.8130    -2.2240     0.6310 C.3   1 <1>  -0.1600 
 15 N        1.2760     5.2000    -0.9410 N.pl3 1 <1>  -0.8690 
 16 C       -5.4010    -2.0770    -0.7800 C.3   1 <1>  -0.1600 
 17 C        1.3220     6.5160    -0.5650 C.ar  1 <1>   0.4100 
 18 N        1.3210     6.7910     0.7330 N.ar  1 <1>  -0.6200 
 19 C        1.3570     7.5050    -1.5440 C.ar  1 <1>  -0.1500 
 20 C        1.3590     8.0730     1.0580 C.ar  1 <1>   0.1600 
 21 C        1.4000     8.8310    -1.1860 C.ar  1 <1>  -0.1500 
 22 C        1.4130     9.1430     0.1700 C.ar  1 <1>   0.0860 
 23 C        1.4670    10.4990     0.6650 C.2   1 <1>   0.5440 
 24 O        0.7400    10.8180     1.5870 O.2   1 <1>  -0.5700 
 25 N        2.3270    11.4460     0.1370 N.am  1 <1>  -0.6600 
 26 C        2.1830    12.8910     0.4720 C.3   1 <1>   0.0600 
 27 C        3.5690    11.1080    -0.6110 C.3   1 <1>   0.0600 
 28 H       -2.4160     1.1170     0.2020 H     1 <1>   0.3700 
 29 H        1.9240     0.7280    -0.2290 H     1 <1>   0.0800 
 30 H        2.0250     1.7140     1.2050 H     1 <1>   0.0800 
 31 H       -0.1270     2.7900     2.1020 H     1 <1>   0.0800 
 32 H       -1.6330     2.4590     1.3010 H     1 <1>   0.0800 
 33 H       -2.1370    -1.8400    -0.0630 H     1 <1>   0.0800 
 34 H        1.3480     2.6370    -1.5940 H     1 <1>   0.0800 
 35 H        2.8190     2.9910    -0.7210 H     1 <1>   0.0800 
 36 H       -0.7800     4.7160     0.7460 H     1 <1>   0.0800 
 37 H       -0.8980     3.7070    -0.6750 H     1 <1>   0.0800 
 38 H       -2.5320    -0.7890    -2.2210 H     1 <1>   0.0800 
 39 H       -3.8700     0.1300    -1.5750 H     1 <1>   0.0800 
 40 H       -4.4150    -0.1520     0.9960 H     1 <1>   0.0800 
 41 H       -3.4080    -1.2400     1.9200 H     1 <1>   0.0800 
 42 H        1.6100     4.2970     0.9230 H     1 <1>   0.0800 
 43 H       -3.7370    -2.8760    -1.8760 H     1 <1>   0.0800 
 44 H       -4.7320    -1.7930    -2.8050 H     1 <1>   0.0800 
 45 H       -5.6100    -2.2480     1.3540 H     1 <1>   0.0800 
 46 H       -4.2800    -3.1580     0.6970 H     1 <1>   0.0800 
 47 H        1.0460     4.9840    -1.9100 H     1 <1>   0.4000 
 48 H       -6.0180    -2.9290    -1.0040 H     1 <1>   0.0800 
 49 H       -6.0250    -1.2000    -0.8160 H     1 <1>   0.0800 
 50 H        1.3480     7.2160    -2.5770 H     1 <1>   0.1500 
 51 H        1.3480     8.3060     2.1100 H     1 <1>   0.1500 
 52 H        1.4180     9.6130    -1.9250 H     1 <1>   0.1500 
 53 H        1.1900    13.0980     0.8340 H     1 <1>   0.0800 
 54 H        2.3590    13.4900    -0.4030 H     1 <1>   0.0800 
 55 H        2.8910    13.1570     1.2370 H     1 <1>   0.0800 
 56 H        3.7910    10.0580    -0.5330 H     1 <1>   0.0800 
 57 H        4.4000    11.6570    -0.2040 H     1 <1>   0.0800 
 58 H        3.4500    11.3690    -1.6480 H     1 <1>   0.0800 
@<TRIPOS>BOND
  1   1   2  2   
  2   2   3  am  
  3   2   4  am  
  4   3   5  1   
  5   3   6  1   
  6   4   7  1   
  7   4  28  1   
  8   5   8  1   
  9   5  29  1   
 10   5  30  1   
 11   6   9  1   
 12   6  31  1   
 13   6  32  1   
 14   7  10  1   
 15   7  11  1   
 16   7  33  1   
 17   8  12  1   
 18   8  34  1   
 19   8  35  1   
 20   9  12  1   
 21   9  36  1   
 22   9  37  1   
 23  10  13  1   
 24  10  38  1   
 25  10  39  1   
 26  11  14  1   
 27  11  40  1   
 28  11  41  1   
 29  12  15  1   
 30  12  42  1   
 31  13  16  1   
 32  13  43  1   
 33  13  44  1   
 34  14  16  1   
 35  14  45  1   
 36  14  46  1   
 37  15  17  1   
 38  15  47  1   
 39  16  48  1   
 40  16  49  1   
 41  17  18  ar  
 42  17  19  ar  
 43  18  20  ar  
 44  19  21  ar  
 45  19  50  1   
 46  20  22  ar  
 47  20  51  1   
 48  21  22  ar  
 49  21  52  1   
 50  22  23  1   
 51  23  24  2   
 52  23  25  am  
 53  25  26  1   
 54  25  27  1   
 55  26  53  1   
 56  26  54  1   
 57  26  55  1   
 58  27  56  1   
 59  27  57  1   
 60  27  58  1   
@<TRIPOS>SUBSTRUCTURE
  1 ****   9 GROUP 4 **** **** 0

# MOE 2024.06 (io_trps.svl 2023.06)
