@<TRIPOS>MOLECULE
NONAME
34 35 1 0 0 
SMALL
USER_CHARGES


@<TRIPOS>ATOM
  1 O        1.9260     0.3030     1.1940 O.co2 1 <1>  -0.9000 
  2 C        2.9950     0.0590     0.6370 C.2   1 <1>   0.9060 
  3 O        4.0120    -0.2790     1.2370 O.co2 1 <1>  -0.9000 
  4 C        3.1250     0.4680    -0.7890 C.3   1 <1>  -0.2660 
  5 C        2.7560     1.9380    -0.8560 C.3   1 <1>   0.3430 
  6 N        3.8000     2.7860    -0.2220 N.4   1 <1>  -0.8970 
  7 C        3.8290     2.7520     1.2950 C.3   1 <1>   0.4720 
  8 C        3.4710     4.2450    -0.1030 C.3   1 <1>   0.4720 
  9 C        4.2240     4.2450     1.2520 C.3   1 <1>   0.2580 
 10 O        5.6240     4.4140     1.0750 O.3   1 <1>  -0.3400 
 11 C        6.1230     5.6040     0.6630 C.ar  1 <1>   0.0820 
 12 C        7.3670     5.5850     0.0530 C.ar  1 <1>  -0.1500 
 13 C        5.4490     6.8120     0.8180 C.ar  1 <1>  -0.1500 
 14 C        7.9360     6.7540    -0.4240 C.ar  1 <1>  -0.1430 
 15 C        6.0160     7.9810     0.3420 C.ar  1 <1>  -0.1500 
 16 C        7.2530     7.9510    -0.2790 C.ar  1 <1>  -0.1500 
 17 C        9.2980     6.7380    -1.0960 C.3   1 <1>  -0.0970 
 18 H        2.4280    -0.1130    -1.3590 H     1 <1>   0.0800 
 19 H        4.1190     0.2840    -1.1470 H     1 <1>   0.0800 
 20 H        1.8100     2.0830    -0.3560 H     1 <1>   0.0800 
 21 H        2.6410     2.2230    -1.8880 H     1 <1>   0.0800 
 22 H        4.7530     2.6070    -0.5580 H     1 <1>   0.4500 
 23 H        4.5900     2.1020     1.6860 H     1 <1>   0.0000 
 24 H        2.8450     2.5910     1.7000 H     1 <1>   0.0000 
 25 H        2.4110     4.3940     0.0040 H     1 <1>   0.0000 
 26 H        3.9300     4.8390    -0.8720 H     1 <1>   0.0000 
 27 H        3.8290     4.8590     2.0410 H     1 <1>   0.0000 
 28 H        7.8870     4.6490    -0.0460 H     1 <1>   0.1500 
 29 H        4.4970     6.8710     1.3110 H     1 <1>   0.1500 
 30 H        5.5020     8.9200     0.4570 H     1 <1>   0.1500 
 31 H        7.6870     8.8660    -0.6440 H     1 <1>   0.1500 
 32 H        9.5940     5.7340    -1.3410 H     1 <1>   0.0800 
 33 H       10.0330     7.1630    -0.4360 H     1 <1>   0.0800 
 34 H        9.2710     7.3160    -2.0020 H     1 <1>   0.0800 
@<TRIPOS>BOND
  1   1   2  ar  
  2   2   3  ar  
  3   2   4  1   
  4   4   5  1   
  5   4  18  1   
  6   4  19  1   
  7   5   6  1   
  8   5  20  1   
  9   5  21  1   
 10   6   7  1   
 11   6   8  1   
 12   6  22  1   
 13   7   9  1   
 14   7  23  1   
 15   7  24  1   
 16   8   9  1   
 17   8  25  1   
 18   8  26  1   
 19   9  10  1   
 20   9  27  1   
 21  10  11  1   
 22  11  12  ar  
 23  11  13  ar  
 24  12  14  ar  
 25  12  28  1   
 26  13  15  ar  
 27  13  29  1   
 28  14  16  ar  
 29  14  17  1   
 30  15  16  ar  
 31  15  30  1   
 32  16  31  1   
 33  17  32  1   
 34  17  33  1   
 35  17  34  1   
@<TRIPOS>SUBSTRUCTURE
  1 ****  10 GROUP 4 **** **** 0

# MOE 2024.06 (io_trps.svl 2023.06)
