@<TRIPOS>MOLECULE
NONAME
44 45 1 0 0 
SMALL
USER_CHARGES


@<TRIPOS>ATOM
  1 CL       0.3760    -0.7470     1.9510 Cl    1 <1>  -0.1770 
  2 C        0.1050    -2.2930     1.1960 C.ar  1 <1>   0.1770 
  3 C        0.1570    -3.4420     1.9610 C.ar  1 <1>  -0.1500 
  4 C       -0.1590    -2.3500    -0.1590 C.ar  1 <1>  -0.1500 
  5 C       -0.0720    -4.6660     1.3580 C.ar  1 <1>  -0.1500 
  6 C       -0.3860    -3.5800    -0.7520 C.ar  1 <1>  -0.1500 
  7 C       -0.3650    -4.7600    -0.0040 C.ar  1 <1>   0.0860 
  8 C       -0.6390    -6.0480    -0.6090 C.2   1 <1>   0.5440 
  9 O        0.2110    -6.9130    -0.5710 O.2   1 <1>  -0.5700 
 10 N       -1.8600    -6.3300    -1.1850 N.am  1 <1>  -0.6600 
 11 C       -2.0960    -7.6470    -1.8620 C.3   1 <1>   0.3210 
 12 C       -3.0780    -5.4930    -1.0030 C.3   1 <1>   0.1400 
 13 C       -2.9510    -8.5780    -1.0010 C.2   1 <1>   0.0460 
 14 C       -3.6360    -5.6680     0.4220 C.3   1 <1>   0.3430 
 15 N       -4.2970    -8.4410    -0.9160 N.2   1 <1>  -0.5650 
 16 C       -2.5300    -9.6280    -0.2580 C.2   1 <1>  -0.3320 
 17 N       -5.0170    -5.0980     0.5840 N.4   1 <1>  -0.9590 
 18 C       -4.6580    -9.4260    -0.1560 C.2   1 <1>   0.0360 
 19 N       -3.6300   -10.1810     0.2810 N.pl3 1 <1>   0.0330 
 20 C       -1.1340   -10.1790    -0.0140 C.3   1 <1>  -0.0600 
 21 C       -5.3680    -5.0110     2.0330 C.3   1 <1>   0.2630 
 22 C       -6.0220    -5.9490    -0.1350 C.3   1 <1>   0.2630 
 23 H        0.3820    -3.3740     3.0110 H     1 <1>   0.1500 
 24 H       -0.1770    -1.4420    -0.7370 H     1 <1>   0.1500 
 25 H       -0.0170    -5.5710     1.9410 H     1 <1>   0.1500 
 26 H       -0.5760    -3.6340    -1.8110 H     1 <1>   0.1500 
 27 H       -1.1610    -8.1280    -2.0850 H     1 <1>   0.0800 
 28 H       -2.5940    -7.4840    -2.8020 H     1 <1>   0.0800 
 29 H       -3.8120    -5.7970    -1.7280 H     1 <1>   0.0800 
 30 H       -2.8430    -4.4590    -1.1790 H     1 <1>   0.0800 
 31 H       -2.9630    -5.1850     1.1090 H     1 <1>   0.0800 
 32 H       -3.6570    -6.7190     0.6600 H     1 <1>   0.0800 
 33 H       -5.0360    -4.1480     0.1840 H     1 <1>   0.4500 
 34 H       -5.6750    -9.6500     0.1140 H     1 <1>   0.1500 
 35 H       -3.6780   -11.0120     0.8790 H     1 <1>   0.2700 
 36 H       -0.3890    -9.5730    -0.4990 H     1 <1>   0.0800 
 37 H       -1.0560   -11.1810    -0.3970 H     1 <1>   0.0800 
 38 H       -0.9170   -10.1910     1.0400 H     1 <1>   0.0800 
 39 H       -5.3530    -5.9920     2.4800 H     1 <1>   0.0800 
 40 H       -6.3540    -4.5910     2.1550 H     1 <1>   0.0800 
 41 H       -4.6610    -4.3840     2.5530 H     1 <1>   0.0800 
 42 H       -6.0120    -6.9520     0.2620 H     1 <1>   0.0800 
 43 H       -5.7920    -6.0060    -1.1860 H     1 <1>   0.0800 
 44 H       -7.0130    -5.5410    -0.0210 H     1 <1>   0.0800 
@<TRIPOS>BOND
  1   1   2  1   
  2   2   3  ar  
  3   2   4  ar  
  4   3   5  ar  
  5   3  23  1   
  6   4   6  ar  
  7   4  24  1   
  8   5   7  ar  
  9   5  25  1   
 10   6   7  ar  
 11   6  26  1   
 12   7   8  1   
 13   8   9  2   
 14   8  10  am  
 15  10  11  1   
 16  10  12  1   
 17  11  13  1   
 18  11  27  1   
 19  11  28  1   
 20  12  14  1   
 21  12  29  1   
 22  12  30  1   
 23  13  15  1   
 24  13  16  2   
 25  14  17  1   
 26  14  31  1   
 27  14  32  1   
 28  15  18  2   
 29  16  19  1   
 30  16  20  1   
 31  17  21  1   
 32  17  22  1   
 33  17  33  1   
 34  18  19  1   
 35  18  34  1   
 36  19  35  1   
 37  20  36  1   
 38  20  37  1   
 39  20  38  1   
 40  21  39  1   
 41  21  40  1   
 42  21  41  1   
 43  22  42  1   
 44  22  43  1   
 45  22  44  1   
@<TRIPOS>SUBSTRUCTURE
  1 ****  10 GROUP 4 **** **** 0

# MOE 2024.06 (io_trps.svl 2023.06)
