@<TRIPOS>MOLECULE
NONAME
47 49 1 0 0 
SMALL
USER_CHARGES


@<TRIPOS>ATOM
  1 N        0.3470    -0.2090    -1.0190 N.ar  1 <1>  -0.6200 
  2 C        0.2700    -1.5030    -0.8080 C.ar  1 <1>   0.7710 
  3 C        1.2450     0.4770    -0.3350 C.ar  1 <1>   0.4100 
  4 N        1.0650    -2.1530     0.0550 N.ar  1 <1>  -0.1790 
  5 N       -0.6600    -2.1620    -1.5010 N.pl3 1 <1>  -0.8690 
  6 N        1.2600     1.8180    -0.5440 N.pl3 1 <1>  -0.8380 
  7 C        2.1450    -0.1560     0.5630 C.ar  1 <1>  -0.1430 
  8 C        2.0230    -1.4950     0.7480 C.ar  1 <1>   0.2110 
  9 C       -1.0260    -3.5920    -1.5580 C.3   1 <1>   0.3040 
 10 C        1.0690     2.3930    -1.9070 C.3   1 <1>   0.1290 
 11 C        1.0710     2.8050     0.5550 C.3   1 <1>   0.1290 
 12 C        3.2470     0.6210     1.2820 C.3   1 <1>  -0.0970 
 13 C       -1.8810    -3.9280    -0.3350 C.3   1 <1>  -0.1950 
 14 C       -2.8120    -5.1030    -0.2490 C.3   1 <1>  -0.1900 
 15 C       -3.3580    -3.7050    -0.3690 C.3   1 <1>  -0.2000 
 16 C       -2.9020    -5.8070     1.1230 C.3   1 <1>  -0.0650 
 17 C       -3.0740    -6.0430    -1.4470 C.3   1 <1>  -0.0650 
 18 C       -3.8170    -7.0350     1.0690 C.3   1 <1>  -0.1600 
 19 C       -2.5780    -7.4630    -1.1480 C.3   1 <1>  -0.1600 
 20 C       -3.3100    -8.0810     0.0580 C.3   1 <1>  -0.1600 
 21 H        0.8940    -3.1470     0.1520 H     1 <1>   0.4570 
 22 H       -1.2640    -1.5560    -2.0670 H     1 <1>   0.4000 
 23 H        2.6610    -2.0530     1.4140 H     1 <1>   0.1500 
 24 H       -0.1430    -4.2090    -1.5770 H     1 <1>   0.0800 
 25 H       -1.5770    -3.7720    -2.4650 H     1 <1>   0.0800 
 26 H        1.2990     1.6570    -2.6590 H     1 <1>   0.0800 
 27 H        1.7200     3.2380    -2.0440 H     1 <1>   0.0800 
 28 H        0.0470     2.7070    -2.0310 H     1 <1>   0.0800 
 29 H        0.8750     2.3010     1.4860 H     1 <1>   0.0800 
 30 H        0.2310     3.4420     0.3360 H     1 <1>   0.0800 
 31 H        1.9540     3.4120     0.6570 H     1 <1>   0.0800 
 32 H        3.7300     1.2950     0.5950 H     1 <1>   0.0800 
 33 H        3.9970    -0.0400     1.6800 H     1 <1>   0.0800 
 34 H        2.8370     1.1940     2.0940 H     1 <1>   0.0800 
 35 H       -1.3830    -3.6740     0.5830 H     1 <1>   0.1000 
 36 H       -3.8280    -3.4140    -1.2930 H     1 <1>   0.1000 
 37 H       -3.8370    -3.2520     0.4830 H     1 <1>   0.1000 
 38 H       -3.2610    -5.1240     1.8730 H     1 <1>   0.0800 
 39 H       -1.9190    -6.1300     1.4190 H     1 <1>   0.0800 
 40 H       -2.6150    -5.6830    -2.3480 H     1 <1>   0.0800 
 41 H       -4.1350    -6.0870    -1.6280 H     1 <1>   0.0800 
 42 H       -4.8030    -6.7130     0.7810 H     1 <1>   0.0800 
 43 H       -3.8940    -7.4830     2.0450 H     1 <1>   0.0800 
 44 H       -1.5230    -7.4220    -0.9400 H     1 <1>   0.0800 
 45 H       -2.7160    -8.0910    -2.0110 H     1 <1>   0.0800 
 46 H       -4.1530    -8.6550    -0.2880 H     1 <1>   0.0800 
 47 H       -2.6400    -8.7640     0.5520 H     1 <1>   0.0800 
@<TRIPOS>BOND
  1   1   2  ar  
  2   1   3  ar  
  3   2   4  ar  
  4   2   5  1   
  5   3   6  1   
  6   3   7  ar  
  7   4   8  ar  
  8   4  21  1   
  9   5   9  1   
 10   5  22  1   
 11   6  10  1   
 12   6  11  1   
 13   7   8  ar  
 14   7  12  1   
 15   8  23  1   
 16   9  13  1   
 17   9  24  1   
 18   9  25  1   
 19  10  26  1   
 20  10  27  1   
 21  10  28  1   
 22  11  29  1   
 23  11  30  1   
 24  11  31  1   
 25  12  32  1   
 26  12  33  1   
 27  12  34  1   
 28  13  14  1   
 29  13  15  1   
 30  13  35  1   
 31  14  15  1   
 32  14  16  1   
 33  14  17  1   
 34  15  36  1   
 35  15  37  1   
 36  16  18  1   
 37  16  38  1   
 38  16  39  1   
 39  17  19  1   
 40  17  40  1   
 41  17  41  1   
 42  18  20  1   
 43  18  42  1   
 44  18  43  1   
 45  19  20  1   
 46  19  44  1   
 47  19  45  1   
 48  20  46  1   
 49  20  47  1   
@<TRIPOS>SUBSTRUCTURE
  1 ****   5 GROUP 4 **** **** 0

# MOE 2024.06 (io_trps.svl 2023.06)
