@<TRIPOS>MOLECULE
NONAME
65 69 1 0 0 
SMALL
USER_CHARGES


@<TRIPOS>ATOM
  1 O       -2.7900     2.2630    -2.4210 O.2   1 <1>  -0.5700 
  2 C       -3.1460     2.0460    -1.2850 C.2   1 <1>   0.5690 
  3 N       -4.2330     1.2420    -1.0240 N.am  1 <1>  -0.6600 
  4 C       -2.3420     2.6940    -0.1470 C.3   1 <1>  -0.0190 
  5 C       -4.9820     0.5800    -2.1300 C.3   1 <1>   0.1400 
  6 C       -4.7970     0.9160     0.3170 C.3   1 <1>   0.1400 
  7 C       -3.0310     3.9780     0.3580 C.3   1 <1>  -0.1600 
  8 C       -0.8860     3.0170    -0.5490 C.3   1 <1>  -0.1600 
  9 C       -4.9010    -0.9370    -1.9490 C.3   1 <1>  -0.1600 
 10 C       -4.7030    -0.5950     0.5400 C.3   1 <1>  -0.1600 
 11 C       -2.2410     4.6420     1.4900 C.3   1 <1>   0.1400 
 12 C       -0.1200     3.6780     0.5980 C.3   1 <1>   0.1400 
 13 C       -5.4200    -1.3800    -0.5700 C.3   1 <1>   0.4240 
 14 N       -0.8470     4.9010     1.0370 N.am  1 <1>  -0.6600 
 15 O       -6.7730    -1.0010    -0.4690 O.3   1 <1>  -0.5600 
 16 C       -5.2320    -2.8990    -0.3590 C.ar  1 <1>  -0.1440 
 17 C       -0.3370     6.1790     1.0070 C.2   1 <1>   0.5770 
 18 C       -7.7250    -1.8600    -1.0140 C.3   1 <1>   0.1200 
 19 C       -6.3250    -3.7420    -0.1870 C.ar  1 <1>  -0.1440 
 20 C       -3.9580    -3.4550    -0.3440 C.ar  1 <1>  -0.1500 
 21 O       -0.9510     7.1090     1.4790 O.2   1 <1>  -0.5700 
 22 C        1.0300     6.4590     0.3790 C.3   1 <1>   0.0530 
 23 C       -7.7250    -3.1620    -0.2190 C.3   1 <1>  -0.0170 
 24 C       -6.1470    -5.1030     0.0080 C.ar  1 <1>  -0.1500 
 25 C       -3.7780    -4.8130    -0.1530 C.ar  1 <1>  -0.1500 
 26 C        1.4100     7.9530     0.1610 C.3   1 <1>   0.0000 
 27 C        1.0680     6.3170    -1.1670 C.3   1 <1>   0.0000 
 28 C       -4.8670    -5.6460     0.0270 C.ar  1 <1>   0.0820 
 29 C        2.0580     7.5090    -1.1750 C.3   1 <1>   0.0000 
 30 O       -4.6050    -6.9650     0.2110 O.3   1 <1>  -0.3620 
 31 C       -5.6420    -7.8950     0.4250 C.3   1 <1>   0.0400 
 32 H       -2.2840     1.9900     0.6610 H     1 <1>   0.0800 
 33 H       -4.5750     0.8510    -3.0890 H     1 <1>   0.0800 
 34 H       -6.0090     0.9020    -2.1030 H     1 <1>   0.0800 
 35 H       -5.8280     1.2260     0.3460 H     1 <1>   0.0800 
 36 H       -4.2820     1.4310     1.1050 H     1 <1>   0.0800 
 37 H       -4.0230     3.7550     0.7050 H     1 <1>   0.0800 
 38 H       -3.1250     4.6780    -0.4550 H     1 <1>   0.0800 
 39 H       -0.8770     3.6800    -1.3970 H     1 <1>   0.0800 
 40 H       -0.3850     2.1110    -0.8400 H     1 <1>   0.0800 
 41 H       -3.8730    -1.2290    -2.0590 H     1 <1>   0.0800 
 42 H       -5.4500    -1.4300    -2.7270 H     1 <1>   0.0800 
 43 H       -5.1400    -0.8530     1.4870 H     1 <1>   0.0800 
 44 H       -3.6660    -0.8660     0.5770 H     1 <1>   0.0800 
 45 H       -2.2170     3.9990     2.3530 H     1 <1>   0.0800 
 46 H       -2.7290     5.5590     1.7740 H     1 <1>   0.0800 
 47 H        0.8810     3.9050     0.2800 H     1 <1>   0.0800 
 48 H       -0.0510     2.9970     1.4300 H     1 <1>   0.0800 
 49 H       -7.4920    -2.0380    -2.0490 H     1 <1>   0.0800 
 50 H       -8.6840    -1.3770    -0.9460 H     1 <1>   0.0800 
 51 H       -3.0890    -2.8370    -0.4830 H     1 <1>   0.1500 
 52 H        1.8310     5.9190     0.8570 H     1 <1>   0.0000 
 53 H       -8.4060    -3.8550    -0.6760 H     1 <1>   0.0800 
 54 H       -8.0600    -2.9680     0.7850 H     1 <1>   0.0800 
 55 H       -7.0090    -5.7260     0.1430 H     1 <1>   0.1500 
 56 H       -2.7900    -5.2360    -0.1410 H     1 <1>   0.1500 
 57 H        2.1140     8.3330     0.8790 H     1 <1>   0.0000 
 58 H        0.5660     8.6020     0.0000 H     1 <1>   0.0000 
 59 H        0.1280     6.5560    -1.6360 H     1 <1>   0.0000 
 60 H        1.4980     5.3940    -1.5140 H     1 <1>   0.0000 
 61 H        3.0830     7.1990    -1.0590 H     1 <1>   0.0000 
 62 H        1.9040     8.1980    -1.9860 H     1 <1>   0.0000 
 63 H       -5.1980    -8.8660     0.5540 H     1 <1>   0.0800 
 64 H       -6.2880    -7.9000    -0.4350 H     1 <1>   0.0800 
 65 H       -6.1810    -7.6190     1.3130 H     1 <1>   0.0800 
@<TRIPOS>BOND
  1   1   2  2   
  2   2   3  am  
  3   2   4  1   
  4   3   5  1   
  5   3   6  1   
  6   4   7  1   
  7   4   8  1   
  8   4  32  1   
  9   5   9  1   
 10   5  33  1   
 11   5  34  1   
 12   6  10  1   
 13   6  35  1   
 14   6  36  1   
 15   7  11  1   
 16   7  37  1   
 17   7  38  1   
 18   8  12  1   
 19   8  39  1   
 20   8  40  1   
 21   9  13  1   
 22   9  41  1   
 23   9  42  1   
 24  10  13  1   
 25  10  43  1   
 26  10  44  1   
 27  11  14  1   
 28  11  45  1   
 29  11  46  1   
 30  12  14  1   
 31  12  47  1   
 32  12  48  1   
 33  13  15  1   
 34  13  16  1   
 35  14  17  am  
 36  15  18  1   
 37  16  19  ar  
 38  16  20  ar  
 39  17  21  2   
 40  17  22  1   
 41  18  23  1   
 42  18  49  1   
 43  18  50  1   
 44  19  23  1   
 45  19  24  ar  
 46  20  25  ar  
 47  20  51  1   
 48  22  26  1   
 49  22  27  1   
 50  22  52  1   
 51  23  53  1   
 52  23  54  1   
 53  24  28  ar  
 54  24  55  1   
 55  25  28  ar  
 56  25  56  1   
 57  26  29  1   
 58  26  57  1   
 59  26  58  1   
 60  27  29  1   
 61  27  59  1   
 62  27  60  1   
 63  28  30  1   
 64  29  61  1   
 65  29  62  1   
 66  30  31  1   
 67  31  63  1   
 68  31  64  1   
 69  31  65  1   
@<TRIPOS>SUBSTRUCTURE
  1 ****   3 GROUP 4 **** **** 0

# MOE 2024.06 (io_trps.svl 2023.06)
