@<TRIPOS>MOLECULE
NONAME
48 51 1 0 0 
SMALL
USER_CHARGES


@<TRIPOS>ATOM
  1 O       -1.3200     0.5130     2.9440 O.2   1 <1>  -0.5700 
  2 C       -1.7700     1.1540     2.0160 C.2   1 <1>   0.5440 
  3 N       -2.8010     0.6360     1.2750 N.am  1 <1>  -0.6600 
  4 C       -1.1350     2.3950     1.6400 C.ar  1 <1>   0.0860 
  5 C       -3.4750     1.3130     0.1300 C.3   1 <1>   0.1400 
  6 C       -3.0630    -0.8180     1.2030 C.3   1 <1>   0.1400 
  7 C       -0.2610     2.4390     0.5470 C.ar  1 <1>  -0.0230 
  8 C       -1.3780     3.5680     2.3510 C.ar  1 <1>  -0.1500 
  9 C       -4.1230     0.1940    -0.7010 C.3   1 <1>   0.2000 
 10 C       -3.3610    -1.0630    -0.2760 C.3   1 <1>  -0.0800 
 11 N        0.0210     1.2580    -0.1900 N.pl3 1 <1>   0.5930 
 12 C        0.3190     3.6490     0.1770 C.ar  1 <1>  -0.1500 
 13 C       -0.7900     4.7620     1.9830 C.ar  1 <1>  -0.1500 
 14 O       -5.4670     0.0460    -0.3420 O.3   1 <1>  -0.5600 
 15 C       -4.0850    -2.3920    -0.5440 C.3   1 <1>   0.0200 
 16 N       -0.1930     1.1420    -1.5060 N.2   1 <1>  -0.7070 
 17 C        0.4850     0.0700     0.2390 C.2   1 <1>   0.0360 
 18 C        0.0580     4.8040     0.8900 C.ar  1 <1>  -0.1500 
 19 C       -6.3550     0.8870    -1.0090 C.3   1 <1>   0.0400 
 20 C       -3.1830    -3.5950    -0.3200 C.2   1 <1>  -0.0400 
 21 C        0.1630    -0.0720    -1.7560 C.2   1 <1>   0.3660 
 22 N        0.5840    -0.7910    -0.7080 N.2   1 <1>  -0.5650 
 23 O       -3.7000    -4.7940    -0.3700 O.3   1 <1>  -0.0190 
 24 C       -1.8700    -3.7280    -0.0690 C.2   1 <1>  -0.1500 
 25 N       -2.8070    -5.7200    -0.1640 N.2   1 <1>  -0.4100 
 26 C       -1.6950    -5.1050     0.0210 C.2   1 <1>   0.1080 
 27 C       -0.3760    -5.7890     0.2980 C.3   1 <1>  -0.0590 
 28 H       -4.2090     2.0140     0.4880 H     1 <1>   0.0800 
 29 H       -2.7490     1.8280    -0.4720 H     1 <1>   0.0800 
 30 H       -2.2160    -1.3910     1.5430 H     1 <1>   0.0800 
 31 H       -3.9220    -1.0490     1.8100 H     1 <1>   0.0800 
 32 H       -2.0370     3.5330     3.2030 H     1 <1>   0.1500 
 33 H       -4.0520     0.3680    -1.7610 H     1 <1>   0.0800 
 34 H       -2.4260    -1.0660    -0.8070 H     1 <1>   0.0800 
 35 H        0.9780     3.6870    -0.6750 H     1 <1>   0.1500 
 36 H       -0.9900     5.6600     2.5430 H     1 <1>   0.1500 
 37 H       -4.4310    -2.4130    -1.5620 H     1 <1>   0.0800 
 38 H       -4.9450    -2.4750     0.0960 H     1 <1>   0.0800 
 39 H        0.7270    -0.1060     1.2730 H     1 <1>   0.1500 
 40 H        0.5140     5.7350     0.5980 H     1 <1>   0.1500 
 41 H       -7.3450     0.6880    -0.6370 H     1 <1>   0.0800 
 42 H       -6.3180     0.6780    -2.0640 H     1 <1>   0.0800 
 43 H       -6.0980     1.9130    -0.8160 H     1 <1>   0.0800 
 44 H        0.1290    -0.5100    -2.7430 H     1 <1>   0.1500 
 45 H       -1.1000    -2.9860     0.0410 H     1 <1>   0.1500 
 46 H        0.3720    -5.4320    -0.3860 H     1 <1>   0.0800 
 47 H       -0.4810    -6.8520     0.1770 H     1 <1>   0.0800 
 48 H       -0.0640    -5.5810     1.3050 H     1 <1>   0.0800 
@<TRIPOS>BOND
  1   1   2  2   
  2   2   3  am  
  3   2   4  1   
  4   3   5  1   
  5   3   6  1   
  6   4   7  ar  
  7   4   8  ar  
  8   5   9  1   
  9   5  28  1   
 10   5  29  1   
 11   6  10  1   
 12   6  30  1   
 13   6  31  1   
 14   7  11  1   
 15   7  12  ar  
 16   8  13  ar  
 17   8  32  1   
 18   9  10  1   
 19   9  14  1   
 20   9  33  1   
 21  10  15  1   
 22  10  34  1   
 23  11  16  1   
 24  11  17  1   
 25  12  18  ar  
 26  12  35  1   
 27  13  18  ar  
 28  13  36  1   
 29  14  19  1   
 30  15  20  1   
 31  15  37  1   
 32  15  38  1   
 33  16  21  2   
 34  17  22  2   
 35  17  39  1   
 36  18  40  1   
 37  19  41  1   
 38  19  42  1   
 39  19  43  1   
 40  20  23  1   
 41  20  24  2   
 42  21  22  1   
 43  21  44  1   
 44  23  25  1   
 45  24  26  1   
 46  24  45  1   
 47  25  26  2   
 48  26  27  1   
 49  27  46  1   
 50  27  47  1   
 51  27  48  1   
@<TRIPOS>SUBSTRUCTURE
  1 ****   3 GROUP 4 **** **** 0

# MOE 2024.06 (io_trps.svl 2023.06)
