@<TRIPOS>MOLECULE
NONAME
43 45 1 0 0 
SMALL
USER_CHARGES


@<TRIPOS>ATOM
  1 S        2.4580     0.2020     1.5460 S.3   1 <1>  -0.0800 
  2 C        2.0030    -0.1710    -0.1110 C.2   1 <1>  -0.1400 
  3 C        0.8260    -0.1060     2.1130 C.2   1 <1>  -0.1100 
  4 C        0.6990    -0.5000    -0.1740 C.2   1 <1>  -0.1500 
  5 C        3.0690    -0.0880    -1.1960 C.3   1 <1>   0.0810 
  6 C        0.0290    -0.4630     1.0900 C.2   1 <1>  -0.1500 
  7 C        3.3920     1.3450    -1.6100 C.2   1 <1>   0.5690 
  8 O        2.7820     1.7710    -2.5650 O.2   1 <1>  -0.5700 
  9 N        4.3440     2.1140    -0.9740 N.am  1 <1>  -0.6600 
 10 C        5.2280     1.6580     0.1460 C.3   1 <1>   0.1400 
 11 C        4.5480     3.5330    -1.3870 C.3   1 <1>   0.1400 
 12 C        6.7160     1.7310    -0.2250 C.3   1 <1>   0.1400 
 13 C        5.7670     3.6330    -2.3100 C.3   1 <1>  -0.1600 
 14 N        7.1900     3.1460    -0.2680 N.am  1 <1>  -0.6600 
 15 C        7.1050     3.8420    -1.5850 C.3   1 <1>   0.1400 
 16 C        7.6920     3.7400     0.8750 C.2   1 <1>   0.6160 
 17 O        7.4930     3.1870     1.9430 O.2   1 <1>  -0.5700 
 18 C        8.3720     5.0050     0.8830 C.2   1 <1>   0.0290 
 19 C        9.5380     5.1850     0.0720 C.2   1 <1>   0.6160 
 20 C        7.9510     6.0530     1.6680 C.2   1 <1>  -0.1500 
 21 O       10.0180     4.3340    -0.6610 O.2   1 <1>  -0.5700 
 22 N       10.1700     6.4000     0.0960 N.am  1 <1>  -0.5390 
 23 C        8.6390     7.2840     1.6610 C.2   1 <1>  -0.1500 
 24 C        9.7380     7.4420     0.8750 C.2   1 <1>  -0.0410 
 25 H        0.6360     0.0160     3.1640 H     1 <1>   0.1500 
 26 H        0.1660    -0.7690    -1.0700 H     1 <1>   0.1500 
 27 H        2.6930    -0.5940    -2.0660 H     1 <1>   0.0800 
 28 H        3.9520    -0.6140    -0.8960 H     1 <1>   0.0800 
 29 H       -1.0170    -0.7050     1.1670 H     1 <1>   0.1500 
 30 H        5.0060     0.6460     0.4200 H     1 <1>   0.0800 
 31 H        5.0480     2.2660     1.0160 H     1 <1>   0.0800 
 32 H        4.6700     4.1580    -0.5180 H     1 <1>   0.0800 
 33 H        3.6770     3.8840    -1.9140 H     1 <1>   0.0800 
 34 H        6.8870     1.2490    -1.1720 H     1 <1>   0.0800 
 35 H        7.2830     1.1950     0.5170 H     1 <1>   0.0800 
 36 H        5.6240     4.4700    -2.9690 H     1 <1>   0.0800 
 37 H        5.8180     2.7590    -2.9350 H     1 <1>   0.0800 
 38 H        7.2330     4.8990    -1.4350 H     1 <1>   0.0800 
 39 H        7.9120     3.5040    -2.2130 H     1 <1>   0.0800 
 40 H        7.0900     5.9440     2.3070 H     1 <1>   0.1500 
 41 H       11.0010     6.4580    -0.4970 H     1 <1>   0.3700 
 42 H        8.2790     8.0840     2.2860 H     1 <1>   0.1500 
 43 H       10.2940     8.3660     0.8410 H     1 <1>   0.1500 
@<TRIPOS>BOND
  1   1   2  1   
  2   1   3  1   
  3   2   4  2   
  4   2   5  1   
  5   3   6  2   
  6   3  25  1   
  7   4   6  1   
  8   4  26  1   
  9   5   7  1   
 10   5  27  1   
 11   5  28  1   
 12   6  29  1   
 13   7   8  2   
 14   7   9  am  
 15   9  10  1   
 16   9  11  1   
 17  10  12  1   
 18  10  30  1   
 19  10  31  1   
 20  11  13  1   
 21  11  32  1   
 22  11  33  1   
 23  12  14  1   
 24  12  34  1   
 25  12  35  1   
 26  13  15  1   
 27  13  36  1   
 28  13  37  1   
 29  14  15  1   
 30  14  16  am  
 31  15  38  1   
 32  15  39  1   
 33  16  17  2   
 34  16  18  1   
 35  18  19  1   
 36  18  20  2   
 37  19  21  2   
 38  19  22  am  
 39  20  23  1   
 40  20  40  1   
 41  22  24  1   
 42  22  41  1   
 43  23  24  2   
 44  23  42  1   
 45  24  43  1   
@<TRIPOS>SUBSTRUCTURE
  1 ****  10 GROUP 4 **** **** 0

# MOE 2024.06 (io_trps.svl 2023.06)
