@<TRIPOS>MOLECULE
NONAME
56 60 1 0 0 
SMALL
USER_CHARGES


@<TRIPOS>ATOM
  1 O       -0.7220    -1.3100    -0.2710 O.2   1 <1>  -0.5700 
  2 C       -0.7950    -0.1780    -0.6910 C.2   1 <1>   0.5690 
  3 N       -1.8140     0.6640    -0.3100 N.am  1 <1>  -0.6600 
  4 C        0.2730     0.2490    -1.6860 C.3   1 <1>   0.0820 
  5 C       -1.9260     2.1120    -0.6930 C.3   1 <1>   0.1400 
  6 C       -2.9650     0.1630     0.4970 C.3   1 <1>   0.1400 
  7 C        1.3400     1.1200    -1.0520 C.2   1 <1>   0.0460 
  8 C       -2.1140     3.0150     0.5440 C.3   1 <1>   0.1440 
  9 C       -3.1650     1.0310     1.7440 C.3   1 <1>  -0.1600 
 10 N        1.5460     2.3780    -1.4810 N.2   1 <1>  -0.5650 
 11 C        2.2000     0.8410    -0.0610 C.2   1 <1>  -0.0400 
 12 C       -2.3160     4.4440     0.0740 C.ar  1 <1>   0.1660 
 13 C       -3.3130     2.5170     1.3790 C.3   1 <1>  -0.1600 
 14 C       -0.8200     3.1080     1.4010 C.3   1 <1>  -0.1600 
 15 C        2.5200     2.8050    -0.7370 C.2   1 <1>   0.4250 
 16 O        2.9310     1.8990     0.1320 O.3   1 <1>  -0.2800 
 17 C        2.4420    -0.3880     0.7920 C.3   1 <1>  -0.0600 
 18 N       -3.3600     4.8850    -0.5940 N.ar  1 <1>  -0.6200 
 19 C       -1.2660     5.2430     0.4110 C.ar  1 <1>  -0.1440 
 20 C       -0.1950     4.4930     1.1580 C.3   1 <1>  -0.0170 
 21 C        3.1310     4.1190    -0.7660 C.ar  1 <1>   0.0530 
 22 C       -3.3080     6.1730    -0.9050 C.ar  1 <1>   0.4770 
 23 C       -1.3150     6.5620     0.0350 C.ar  1 <1>   0.1600 
 24 C        4.2350     4.4370     0.0290 C.ar  1 <1>  -0.1500 
 25 C        2.6240     5.1280    -1.5860 C.ar  1 <1>  -0.1500 
 26 N       -2.3450     7.0430    -0.6300 N.ar  1 <1>  -0.6200 
 27 C       -4.4930     6.7210    -1.6630 C.3   1 <1>  -0.0970 
 28 C        4.8010     5.6990     0.0090 C.ar  1 <1>  -0.1500 
 29 C        3.1840     6.3930    -1.6100 C.ar  1 <1>  -0.1500 
 30 C        4.2750     6.6800    -0.8110 C.ar  1 <1>  -0.1500 
 31 H       -0.1870     0.7630    -2.5080 H     1 <1>   0.0800 
 32 H        0.7440    -0.6300    -2.0840 H     1 <1>   0.0800 
 33 H       -2.7780     2.2290    -1.3400 H     1 <1>   0.0800 
 34 H       -1.0620     2.4450    -1.2360 H     1 <1>   0.0800 
 35 H       -2.8070    -0.8600     0.7960 H     1 <1>   0.0800 
 36 H       -3.8530     0.1940    -0.1110 H     1 <1>   0.0800 
 37 H       -2.3270     0.8880     2.4030 H     1 <1>   0.0800 
 38 H       -4.0460     0.7000     2.2640 H     1 <1>   0.0800 
 39 H       -4.2140     2.6450     0.8030 H     1 <1>   0.0800 
 40 H       -3.4150     3.1120     2.2700 H     1 <1>   0.0800 
 41 H       -0.1230     2.3240     1.1630 H     1 <1>   0.0800 
 42 H       -1.0620     3.0270     2.4460 H     1 <1>   0.0800 
 43 H        1.8050    -1.1960     0.4840 H     1 <1>   0.0800 
 44 H        2.2400    -0.1600     1.8220 H     1 <1>   0.0800 
 45 H        3.4660    -0.7000     0.6960 H     1 <1>   0.0800 
 46 H        0.6830     4.4150     0.5460 H     1 <1>   0.0800 
 47 H        0.0520     4.9810     2.0840 H     1 <1>   0.0800 
 48 H       -0.5050     7.2280     0.2780 H     1 <1>   0.1500 
 49 H        4.6570     3.6840     0.6720 H     1 <1>   0.1500 
 50 H        1.7750     4.9160    -2.2140 H     1 <1>   0.1500 
 51 H       -5.0220     5.9270    -2.1540 H     1 <1>   0.0800 
 52 H       -4.1590     7.4270    -2.4000 H     1 <1>   0.0800 
 53 H       -5.1530     7.2150    -0.9760 H     1 <1>   0.0800 
 54 H        5.6520     5.9180     0.6300 H     1 <1>   0.1500 
 55 H        2.7710     7.1520    -2.2520 H     1 <1>   0.1500 
 56 H        4.7140     7.6630    -0.8290 H     1 <1>   0.1500 
@<TRIPOS>BOND
  1   1   2  2   
  2   2   3  am  
  3   2   4  1   
  4   3   5  1   
  5   3   6  1   
  6   4   7  1   
  7   4  31  1   
  8   4  32  1   
  9   5   8  1   
 10   5  33  1   
 11   5  34  1   
 12   6   9  1   
 13   6  35  1   
 14   6  36  1   
 15   7  10  1   
 16   7  11  2   
 17   8  12  1   
 18   8  13  1   
 19   8  14  1   
 20   9  13  1   
 21   9  37  1   
 22   9  38  1   
 23  10  15  2   
 24  11  16  1   
 25  11  17  1   
 26  12  18  ar  
 27  12  19  ar  
 28  13  39  1   
 29  13  40  1   
 30  14  20  1   
 31  14  41  1   
 32  14  42  1   
 33  15  16  1   
 34  15  21  1   
 35  17  43  1   
 36  17  44  1   
 37  17  45  1   
 38  18  22  ar  
 39  19  20  1   
 40  19  23  ar  
 41  20  46  1   
 42  20  47  1   
 43  21  24  ar  
 44  21  25  ar  
 45  22  26  ar  
 46  22  27  1   
 47  23  26  ar  
 48  23  48  1   
 49  24  28  ar  
 50  24  49  1   
 51  25  29  ar  
 52  25  50  1   
 53  27  51  1   
 54  27  52  1   
 55  27  53  1   
 56  28  30  ar  
 57  28  54  1   
 58  29  30  ar  
 59  29  55  1   
 60  30  56  1   
@<TRIPOS>SUBSTRUCTURE
  1 ****  14 GROUP 4 **** **** 0

# MOE 2024.06 (io_trps.svl 2023.06)
