@<TRIPOS>MOLECULE
NONAME
41 42 1 0 0 
SMALL
USER_CHARGES


@<TRIPOS>ATOM
  1 CL      -0.3260    -0.7500     2.1570 Cl    1 <1>  -0.1770 
  2 C       -1.7500    -1.3190     1.3240 C.ar  1 <1>   0.1770 
  3 C       -1.8600    -2.6590     1.0060 C.ar  1 <1>  -0.1500 
  4 C       -2.7470    -0.4190     1.0010 C.ar  1 <1>  -0.1500 
  5 C       -2.9970    -3.1190     0.3520 C.ar  1 <1>  -0.1440 
  6 C       -3.8810    -0.8700     0.3500 C.ar  1 <1>  -0.1500 
  7 C       -4.0100    -2.2200     0.0260 C.ar  1 <1>   0.0830 
  8 C       -3.1620    -4.5940    -0.0220 C.3   1 <1>   0.4600 
  9 O       -5.1100    -2.7200    -0.5920 O.3   1 <1>  -0.3630 
 10 N       -3.6660    -5.3630     1.1990 N.4   1 <1>  -0.9590 
 11 C       -1.8650    -5.2190    -0.5890 C.2   1 <1>   0.9060 
 12 C       -6.0000    -1.8780    -1.2940 C.3   1 <1>   0.0400 
 13 C       -3.8120    -6.8310     0.8990 C.3   1 <1>   0.3430 
 14 C       -4.7940    -4.7150     1.9320 C.3   1 <1>   0.2630 
 15 O       -1.0610    -5.6770     0.2400 O.co2 1 <1>  -0.9000 
 16 O       -1.7470    -5.3980    -1.8030 O.co2 1 <1>  -0.9000 
 17 C       -4.9510    -7.3050    -0.0330 C.3   1 <1>   0.0000 
 18 C       -5.7410    -6.2910    -0.8830 C.3   1 <1>   0.2580 
 19 C       -6.2940    -7.4600     0.6960 C.3   1 <1>   0.2580 
 20 C       -4.5480    -8.5670    -0.8250 C.3   1 <1>  -0.2400 
 21 O       -6.9330    -6.9410    -0.4610 O.3   1 <1>  -0.5160 
 22 H       -1.0510    -3.3230     1.2680 H     1 <1>   0.1500 
 23 H       -2.6300     0.6190     1.2590 H     1 <1>   0.1500 
 24 H       -4.6500    -0.1610     0.1080 H     1 <1>   0.1500 
 25 H       -3.8820    -4.6570    -0.8150 H     1 <1>   0.0800 
 26 H       -2.8110    -5.3200     1.7830 H     1 <1>   0.4500 
 27 H       -6.7010    -2.4990    -1.8240 H     1 <1>   0.0800 
 28 H       -5.4400    -1.2830    -1.9940 H     1 <1>   0.0800 
 29 H       -6.5260    -1.2550    -0.5920 H     1 <1>   0.0800 
 30 H       -3.9050    -7.3650     1.8300 H     1 <1>   0.0800 
 31 H       -2.8860    -7.1690     0.4600 H     1 <1>   0.0800 
 32 H       -5.6600    -4.6300     1.2970 H     1 <1>   0.0800 
 33 H       -4.5100    -3.7250     2.2490 H     1 <1>   0.0800 
 34 H       -5.0540    -5.2920     2.8040 H     1 <1>   0.0800 
 35 H       -5.6190    -6.3910    -1.9460 H     1 <1>   0.0000 
 36 H       -5.7630    -5.2750    -0.5380 H     1 <1>   0.0000 
 37 H       -6.4520    -6.7950     1.5260 H     1 <1>   0.0000 
 38 H       -6.6060    -8.4740     0.8730 H     1 <1>   0.0000 
 39 H       -3.7210    -8.3430    -1.4780 H     1 <1>   0.0800 
 40 H       -5.3670    -8.9180    -1.4310 H     1 <1>   0.0800 
 41 H       -4.2560    -9.3580    -0.1590 H     1 <1>   0.0800 
@<TRIPOS>BOND
  1   1   2  1   
  2   2   3  ar  
  3   2   4  ar  
  4   3   5  ar  
  5   3  22  1   
  6   4   6  ar  
  7   4  23  1   
  8   5   7  ar  
  9   5   8  1   
 10   6   7  ar  
 11   6  24  1   
 12   7   9  1   
 13   8  10  1   
 14   8  11  1   
 15   8  25  1   
 16   9  12  1   
 17  10  13  1   
 18  10  14  1   
 19  10  26  1   
 20  11  15  ar  
 21  11  16  ar  
 22  12  27  1   
 23  12  28  1   
 24  12  29  1   
 25  13  17  1   
 26  13  30  1   
 27  13  31  1   
 28  14  32  1   
 29  14  33  1   
 30  14  34  1   
 31  17  18  1   
 32  17  19  1   
 33  17  20  1   
 34  18  21  1   
 35  18  35  1   
 36  18  36  1   
 37  19  21  1   
 38  19  37  1   
 39  19  38  1   
 40  20  39  1   
 41  20  40  1   
 42  20  41  1   
@<TRIPOS>SUBSTRUCTURE
  1 ****   8 GROUP 4 **** **** 0

# MOE 2024.06 (io_trps.svl 2023.06)
