@<TRIPOS>MOLECULE
NONAME
55 58 1 0 0 
SMALL
USER_CHARGES


@<TRIPOS>ATOM
  1 CL       2.4020    -5.5160     1.2070 Cl    1 <1>  -0.1770 
  2 C        1.0740    -4.4600     0.8040 C.ar  1 <1>   0.1770 
  3 C       -0.2180    -4.9360     0.8890 C.ar  1 <1>  -0.1500 
  4 C        1.3410    -3.1630     0.4070 C.ar  1 <1>  -0.1500 
  5 C       -1.2960    -4.1130     0.5620 C.ar  1 <1>   0.0860 
  6 C        0.2840    -2.3280     0.0910 C.ar  1 <1>  -0.1500 
  7 C       -2.6630    -4.5910     0.6330 C.2   1 <1>   0.5440 
  8 C       -1.0150    -2.8020     0.1730 C.ar  1 <1>  -0.1500 
  9 O       -3.4830    -3.9440     1.2570 O.2   1 <1>  -0.5700 
 10 N       -3.0660    -5.7530     0.0050 N.am  1 <1>  -0.6600 
 11 C       -2.3400    -6.3720    -1.1370 C.3   1 <1>   0.1400 
 12 C       -4.3600    -6.4060     0.3440 C.3   1 <1>   0.1400 
 13 C       -2.0820    -7.8510    -0.8380 C.3   1 <1>  -0.1600 
 14 C       -4.1210    -7.8880     0.6450 C.3   1 <1>  -0.1600 
 15 C       -3.3920    -8.5980    -0.5100 C.3   1 <1>  -0.0190 
 16 C       -3.1540   -10.0760    -0.1790 C.2   1 <1>   0.5690 
 17 O       -2.1550   -10.3790     0.4310 O.2   1 <1>  -0.5700 
 18 N       -4.0650   -11.0280    -0.5550 N.am  1 <1>  -0.6600 
 19 C       -5.3790   -10.8040    -1.2090 C.3   1 <1>   0.1400 
 20 C       -3.8930   -12.4630    -0.2220 C.3   1 <1>   0.1400 
 21 C       -6.0660   -12.1720    -1.2180 C.3   1 <1>   0.2000 
 22 C       -5.3120   -13.0330    -0.2070 C.3   1 <1>  -0.0800 
 23 O       -7.3980   -12.0710    -0.8480 O.3   1 <1>  -0.6800 
 24 C       -5.3940   -14.5350    -0.5310 C.3   1 <1>  -0.0170 
 25 C       -4.6570   -15.3760     0.4980 C.ar  1 <1>   0.1670 
 26 N       -3.3520   -15.5070     0.3270 N.ar  1 <1>  -0.6200 
 27 C       -5.3570   -15.9570     1.5550 C.ar  1 <1>   0.1600 
 28 C       -2.7980   -16.2460     1.2750 C.ar  1 <1>   0.1600 
 29 N       -4.8060   -16.6960     2.5030 N.ar  1 <1>  -0.6200 
 30 C       -3.5010   -16.8200     2.3270 C.ar  1 <1>   0.1600 
 31 H       -0.3940    -5.9460     1.2110 H     1 <1>   0.1500 
 32 H        2.3580    -2.8180     0.3500 H     1 <1>   0.1500 
 33 H        0.4710    -1.3120    -0.2140 H     1 <1>   0.1500 
 34 H       -1.8380    -2.1490    -0.0640 H     1 <1>   0.1500 
 35 H       -2.9460    -6.2810    -2.0220 H     1 <1>   0.0800 
 36 H       -1.4080    -5.8690    -1.3250 H     1 <1>   0.0800 
 37 H       -4.8080    -5.9360     1.2040 H     1 <1>   0.0800 
 38 H       -5.0360    -6.2960    -0.4860 H     1 <1>   0.0800 
 39 H       -1.6090    -8.3100    -1.6880 H     1 <1>   0.0800 
 40 H       -1.4000    -7.9250    -0.0090 H     1 <1>   0.0800 
 41 H       -3.5340    -7.9680     1.5440 H     1 <1>   0.0800 
 42 H       -5.0660    -8.3660     0.8320 H     1 <1>   0.0800 
 43 H       -4.0110    -8.5410    -1.3860 H     1 <1>   0.0800 
 44 H       -5.9500   -10.0900    -0.6420 H     1 <1>   0.0800 
 45 H       -5.2350   -10.4530    -2.2160 H     1 <1>   0.0800 
 46 H       -3.2970   -12.9320    -0.9870 H     1 <1>   0.0800 
 47 H       -3.4060   -12.5890     0.7310 H     1 <1>   0.0800 
 48 H       -6.0200   -12.5940    -2.2080 H     1 <1>   0.0800 
 49 H       -5.7070   -12.8600     0.7790 H     1 <1>   0.0800 
 50 H       -7.4740   -11.7320     0.0650 H     1 <1>   0.4000 
 51 H       -4.9730   -14.7260    -1.5030 H     1 <1>   0.0800 
 52 H       -6.4270   -14.8330    -0.5640 H     1 <1>   0.0800 
 53 H       -6.4190   -15.8030     1.6200 H     1 <1>   0.1500 
 54 H       -1.7350   -16.4040     1.2170 H     1 <1>   0.1500 
 55 H       -2.9610   -17.4050     3.0500 H     1 <1>   0.1500 
@<TRIPOS>BOND
  1   1   2  1   
  2   2   3  ar  
  3   2   4  ar  
  4   3   5  ar  
  5   3  31  1   
  6   4   6  ar  
  7   4  32  1   
  8   5   7  1   
  9   5   8  ar  
 10   6   8  ar  
 11   6  33  1   
 12   7   9  2   
 13   7  10  am  
 14   8  34  1   
 15  10  11  1   
 16  10  12  1   
 17  11  13  1   
 18  11  35  1   
 19  11  36  1   
 20  12  14  1   
 21  12  37  1   
 22  12  38  1   
 23  13  15  1   
 24  13  39  1   
 25  13  40  1   
 26  14  15  1   
 27  14  41  1   
 28  14  42  1   
 29  15  16  1   
 30  15  43  1   
 31  16  17  2   
 32  16  18  am  
 33  18  19  1   
 34  18  20  1   
 35  19  21  1   
 36  19  44  1   
 37  19  45  1   
 38  20  22  1   
 39  20  46  1   
 40  20  47  1   
 41  21  22  1   
 42  21  23  1   
 43  21  48  1   
 44  22  24  1   
 45  22  49  1   
 46  23  50  1   
 47  24  25  1   
 48  24  51  1   
 49  24  52  1   
 50  25  26  ar  
 51  25  27  ar  
 52  26  28  ar  
 53  27  29  ar  
 54  27  53  1   
 55  28  30  ar  
 56  28  54  1   
 57  29  30  ar  
 58  30  55  1   
@<TRIPOS>SUBSTRUCTURE
  1 ****  16 GROUP 4 **** **** 0

# MOE 2024.06 (io_trps.svl 2023.06)
