@<TRIPOS>MOLECULE
NONAME
50 52 1 0 0 
SMALL
USER_CHARGES


@<TRIPOS>ATOM
  1 O        2.7190    -0.5970    -2.3000 O.2   1 <1>  -0.5700 
  2 C        2.8660    -1.0130    -1.1660 C.2   1 <1>   0.5440 
  3 N        3.2150    -0.1170    -0.1740 N.am  1 <1>  -0.6600 
  4 C        2.6910    -2.4290    -0.9010 C.ar  1 <1>   0.0860 
  5 C        3.9330    -0.5150     1.0760 C.3   1 <1>   0.1400 
  6 C        3.1450     1.3520    -0.3930 C.3   1 <1>   0.1400 
  7 C        1.8970    -2.8850     0.1530 C.ar  1 <1>  -0.1500 
  8 C        3.3100    -3.3880    -1.7010 C.ar  1 <1>  -0.1500 
  9 C        5.3550     0.0600     1.0810 C.3   1 <1>   0.2000 
 10 C        4.5650     1.9120    -0.4850 C.3   1 <1>  -0.1600 
 11 C        1.7420    -4.2360     0.4060 C.ar  1 <1>  -0.1500 
 12 C        3.1600    -4.7400    -1.4540 C.ar  1 <1>  -0.1500 
 13 O        5.9070    -0.1770     2.3330 O.3   1 <1>  -0.6800 
 14 C        5.3740     1.5760     0.7730 C.3   1 <1>   0.2200 
 15 C        2.3760    -5.1670    -0.3970 C.ar  1 <1>  -0.1500 
 16 N        6.7580     2.0740     0.5720 N.am  1 <1>  -0.7300 
 17 C        7.6630     2.3020     1.5530 C.2   1 <1>   0.5690 
 18 O        7.4160     2.0680     2.7090 O.2   1 <1>  -0.5700 
 19 C        9.0310     2.8320     1.1780 C.3   1 <1>  -0.0990 
 20 C        9.8790     1.7670     0.4630 C.3   1 <1>  -0.1600 
 21 C       11.2780     2.2970     0.1210 C.3   1 <1>   0.0960 
 22 N       12.0250     1.3060    -0.6750 N.pl3 1 <1>   0.3140 
 23 N       11.8680     1.2090    -2.0080 N.2   1 <1>  -0.7070 
 24 C       12.9100     0.3990    -0.2190 C.2   1 <1>  -0.3020 
 25 C       12.6600     0.2440    -2.3660 C.2   1 <1>   0.1390 
 26 C       13.3420    -0.3040    -1.2870 C.2   1 <1>  -0.1500 
 27 H        3.3890    -0.1360     1.9240 H     1 <1>   0.0800 
 28 H        3.9980    -1.5850     1.1600 H     1 <1>   0.0800 
 29 H        2.6030     1.5760    -1.2970 H     1 <1>   0.0800 
 30 H        2.6170     1.8060     0.4280 H     1 <1>   0.0800 
 31 H        1.3950    -2.1650     0.7750 H     1 <1>   0.1500 
 32 H        3.9140    -3.0580    -2.5290 H     1 <1>   0.1500 
 33 H        5.9490    -0.4650     0.3540 H     1 <1>   0.0800 
 34 H        4.5100     2.9780    -0.6050 H     1 <1>   0.0800 
 35 H        5.0360     1.4910    -1.3560 H     1 <1>   0.0800 
 36 H        1.1280    -4.5640     1.2270 H     1 <1>   0.1500 
 37 H        3.6500    -5.4610    -2.0860 H     1 <1>   0.1500 
 38 H        6.5400     0.5560     2.5570 H     1 <1>   0.4000 
 39 H        4.9320     2.0940     1.6090 H     1 <1>   0.0800 
 40 H        2.2580    -6.2190    -0.2020 H     1 <1>   0.1500 
 41 H        7.0340     2.2030    -0.4030 H     1 <1>   0.3700 
 42 H        8.9050     3.6930     0.5460 H     1 <1>   0.0800 
 43 H        9.5290     3.1500     2.0770 H     1 <1>   0.0800 
 44 H        9.3860     1.4690    -0.4470 H     1 <1>   0.0800 
 45 H        9.9720     0.9010     1.0970 H     1 <1>   0.0800 
 46 H       11.8320     2.5110     1.0160 H     1 <1>   0.0800 
 47 H       11.2020     3.1970    -0.4630 H     1 <1>   0.0800 
 48 H       13.1780     0.3040     0.8170 H     1 <1>   0.1500 
 49 H       12.7690    -0.0850    -3.3860 H     1 <1>   0.1500 
 50 H       14.0500    -1.1120    -1.3280 H     1 <1>   0.1500 
@<TRIPOS>BOND
  1   1   2  2   
  2   2   3  am  
  3   2   4  1   
  4   3   5  1   
  5   3   6  1   
  6   4   7  ar  
  7   4   8  ar  
  8   5   9  1   
  9   5  27  1   
 10   5  28  1   
 11   6  10  1   
 12   6  29  1   
 13   6  30  1   
 14   7  11  ar  
 15   7  31  1   
 16   8  12  ar  
 17   8  32  1   
 18   9  13  1   
 19   9  14  1   
 20   9  33  1   
 21  10  14  1   
 22  10  34  1   
 23  10  35  1   
 24  11  15  ar  
 25  11  36  1   
 26  12  15  ar  
 27  12  37  1   
 28  13  38  1   
 29  14  16  1   
 30  14  39  1   
 31  15  40  1   
 32  16  17  am  
 33  16  41  1   
 34  17  18  2   
 35  17  19  1   
 36  19  20  1   
 37  19  42  1   
 38  19  43  1   
 39  20  21  1   
 40  20  44  1   
 41  20  45  1   
 42  21  22  1   
 43  21  46  1   
 44  21  47  1   
 45  22  23  1   
 46  22  24  1   
 47  23  25  2   
 48  24  26  2   
 49  24  48  1   
 50  25  26  1   
 51  25  49  1   
 52  26  50  1   
@<TRIPOS>SUBSTRUCTURE
  1 ****   9 GROUP 4 **** **** 0

# MOE 2024.06 (io_trps.svl 2023.06)
