@<TRIPOS>MOLECULE
NONAME
49 51 1 0 0 
SMALL
USER_CHARGES


@<TRIPOS>ATOM
  1 S       -0.4980    -0.2700     0.9500 S.3   1 <1>  -0.0800 
  2 C       -1.5270    -0.9440    -0.3180 C.2   1 <1>  -0.0450 
  3 C       -0.4840     1.3170     0.2100 C.2   1 <1>  -0.1400 
  4 C       -1.9110    -2.3320    -0.2360 C.2   1 <1>   0.7150 
  5 C       -1.7970     0.0380    -1.2170 C.2   1 <1>  -0.1500 
  6 C       -1.2150     1.3040    -0.9200 C.2   1 <1>  -0.1500 
  7 C        0.3130     2.3920     0.9280 C.3   1 <1>   0.0200 
  8 O       -1.2930    -3.1290     0.4500 O.2   1 <1>  -0.5700 
  9 N       -3.0140    -2.8160    -0.9100 N.am  1 <1>  -0.6600 
 10 C        0.2590     3.7380     0.2000 C.3   1 <1>  -0.2400 
 11 C       -3.1320    -4.2800    -1.1400 C.3   1 <1>   0.1400 
 12 C       -4.3250    -2.1220    -0.8000 C.3   1 <1>   0.1400 
 13 C       -3.8730    -4.9160     0.0580 C.3   1 <1>   0.4230 
 14 C       -5.0960    -2.7320     0.3790 C.3   1 <1>  -0.1600 
 15 N       -3.8740    -6.4380     0.0500 N.4   1 <1>  -0.9590 
 16 C       -5.2780    -4.2770     0.2800 C.3   1 <1>   0.0000 
 17 C       -4.9080    -7.0530     0.9450 C.3   1 <1>   0.3430 
 18 C       -3.9190    -7.0810    -1.3040 C.3   1 <1>   0.2630 
 19 C       -5.8720    -4.7960     1.6230 C.3   1 <1>  -0.1600 
 20 C       -6.2220    -4.6340    -0.9040 C.3   1 <1>   0.1200 
 21 C       -5.2530    -6.1220     2.1060 C.3   1 <1>  -0.1600 
 22 O       -7.4060    -3.9190    -0.8510 O.3   1 <1>  -0.6800 
 23 H       -2.3940    -0.0910    -2.1020 H     1 <1>   0.1500 
 24 H       -1.3720     2.1470    -1.5710 H     1 <1>   0.1500 
 25 H       -0.0760     2.5090     1.9240 H     1 <1>   0.0800 
 26 H        1.3370     2.0710     1.0080 H     1 <1>   0.0800 
 27 H       -0.7580     4.0830     0.1310 H     1 <1>   0.0800 
 28 H        0.6650     3.6410    -0.7910 H     1 <1>   0.0800 
 29 H        0.8340     4.4700     0.7380 H     1 <1>   0.0800 
 30 H       -3.6520    -4.4440    -2.0650 H     1 <1>   0.0800 
 31 H       -2.1460    -4.7050    -1.2260 H     1 <1>   0.0800 
 32 H       -4.1840    -1.0680    -0.6260 H     1 <1>   0.0800 
 33 H       -4.8770    -2.2340    -1.7190 H     1 <1>   0.0800 
 34 H       -3.2950    -4.6240     0.9210 H     1 <1>   0.0800 
 35 H       -4.5520    -2.4860     1.2750 H     1 <1>   0.0800 
 36 H       -6.0500    -2.2400     0.4590 H     1 <1>   0.0800 
 37 H       -2.9620    -6.6850     0.4650 H     1 <1>   0.4500 
 38 H       -5.8080    -7.2460     0.3840 H     1 <1>   0.0800 
 39 H       -4.5470    -7.9950     1.3280 H     1 <1>   0.0800 
 40 H       -4.8320    -6.8250    -1.8140 H     1 <1>   0.0800 
 41 H       -3.8690    -8.1540    -1.2090 H     1 <1>   0.0800 
 42 H       -3.0840    -6.7580    -1.9040 H     1 <1>   0.0800 
 43 H       -5.7270    -4.0720     2.4080 H     1 <1>   0.0800 
 44 H       -6.9370    -4.9220     1.5320 H     1 <1>   0.0800 
 45 H       -6.4780    -5.6790    -0.9040 H     1 <1>   0.0800 
 46 H       -5.7720    -4.3960    -1.8510 H     1 <1>   0.0800 
 47 H       -5.9480    -6.6160     2.7630 H     1 <1>   0.0800 
 48 H       -4.3620    -5.9280     2.6800 H     1 <1>   0.0800 
 49 H       -7.9270    -4.1210    -0.0490 H     1 <1>   0.4000 
@<TRIPOS>BOND
  1   1   2  1   
  2   1   3  1   
  3   2   4  1   
  4   2   5  2   
  5   3   6  2   
  6   3   7  1   
  7   4   8  2   
  8   4   9  am  
  9   5   6  1   
 10   5  23  1   
 11   6  24  1   
 12   7  10  1   
 13   7  25  1   
 14   7  26  1   
 15   9  11  1   
 16   9  12  1   
 17  10  27  1   
 18  10  28  1   
 19  10  29  1   
 20  11  13  1   
 21  11  30  1   
 22  11  31  1   
 23  12  14  1   
 24  12  32  1   
 25  12  33  1   
 26  13  15  1   
 27  13  16  1   
 28  13  34  1   
 29  14  16  1   
 30  14  35  1   
 31  14  36  1   
 32  15  17  1   
 33  15  18  1   
 34  15  37  1   
 35  16  19  1   
 36  16  20  1   
 37  17  21  1   
 38  17  38  1   
 39  17  39  1   
 40  18  40  1   
 41  18  41  1   
 42  18  42  1   
 43  19  21  1   
 44  19  43  1   
 45  19  44  1   
 46  20  22  1   
 47  20  45  1   
 48  20  46  1   
 49  21  47  1   
 50  21  48  1   
 51  22  49  1   
@<TRIPOS>SUBSTRUCTURE
  1 ****   9 GROUP 4 **** **** 0

# MOE 2024.06 (io_trps.svl 2023.06)
