@<TRIPOS>MOLECULE
NONAME
47 49 1 0 0 
SMALL
USER_CHARGES


@<TRIPOS>ATOM
  1 O       -0.2610    -0.0110     0.9220 O.2   1 <1>  -0.5700 
  2 C       -1.2780     0.6350     0.8370 C.2   1 <1>   0.5690 
  3 N       -2.5080     0.0290     0.8420 N.am  1 <1>  -0.6600 
  4 C       -1.1670     2.1470     0.7320 C.3   1 <1>  -0.0990 
  5 C       -2.6450    -1.4620     0.8740 C.3   1 <1>   0.1400 
  6 C       -3.8350     0.7090     0.7090 C.3   1 <1>   0.1400 
  7 C        0.2650     2.6140     0.4600 C.3   1 <1>   0.1400 
  8 C       -3.5140    -1.9590    -0.2960 C.3   1 <1>   0.3440 
  9 C       -4.6420     0.1080    -0.4650 C.3   1 <1>   0.2950 
 10 N        0.3090     4.0950     0.4020 N.am  1 <1>  -0.7300 
 11 O       -4.7430    -1.2780    -0.3110 O.3   1 <1>  -0.5600 
 12 C       -3.7600    -3.4610    -0.1830 C.ar  1 <1>  -0.1440 
 13 C       -6.0790     0.6450    -0.6010 C.3   1 <1>  -0.1950 
 14 C       -0.1070     4.8370    -0.6530 C.2   1 <1>   0.5690 
 15 C       -2.8660    -4.3440    -0.7730 C.ar  1 <1>  -0.1500 
 16 C       -4.8500    -3.9700     0.5090 C.ar  1 <1>  -0.1500 
 17 C       -6.4840     2.0430    -0.2410 C.3   1 <1>  -0.2000 
 18 C       -6.9980     0.8770     0.5580 C.3   1 <1>  -0.2000 
 19 O       -0.6320     4.3490    -1.6220 O.2   1 <1>  -0.5700 
 20 C        0.0910     6.3280    -0.5940 C.3   1 <1>  -0.1790 
 21 C       -3.0580    -5.7120    -0.6730 C.ar  1 <1>  -0.1500 
 22 C       -5.0440    -5.3370     0.6110 C.ar  1 <1>  -0.1500 
 23 C       -4.1470    -6.2090     0.0200 C.ar  1 <1>  -0.1500 
 24 H       -1.7810     2.4810    -0.0820 H     1 <1>   0.0800 
 25 H       -1.5190     2.5780     1.6490 H     1 <1>   0.0800 
 26 H       -1.6810    -1.9370     0.8160 H     1 <1>   0.0800 
 27 H       -3.1000    -1.7600     1.8020 H     1 <1>   0.0800 
 28 H       -4.3840     0.5730     1.6230 H     1 <1>   0.0800 
 29 H       -3.7180     1.7640     0.5520 H     1 <1>   0.0800 
 30 H        0.6030     2.2100    -0.4810 H     1 <1>   0.0800 
 31 H        0.9260     2.2650     1.2350 H     1 <1>   0.0800 
 32 H       -3.0140    -1.7540    -1.2270 H     1 <1>   0.0800 
 33 H       -4.1190     0.3050    -1.3850 H     1 <1>   0.0800 
 34 H        0.7510     4.5570     1.1980 H     1 <1>   0.3700 
 35 H       -6.5340     0.2440    -1.4910 H     1 <1>   0.1000 
 36 H       -2.0130    -3.9730    -1.3140 H     1 <1>   0.1500 
 37 H       -5.5560    -3.3000     0.9700 H     1 <1>   0.1500 
 38 H       -5.7940     2.7160     0.2370 H     1 <1>   0.1000 
 39 H       -7.1690     2.5610    -0.8900 H     1 <1>   0.1000 
 40 H       -8.0280     0.5850     0.4520 H     1 <1>   0.1000 
 41 H       -6.6380     0.7300     1.5610 H     1 <1>   0.1000 
 42 H       -0.4430     6.7330     0.2440 H     1 <1>   0.0800 
 43 H       -0.2810     6.7780    -1.4960 H     1 <1>   0.0800 
 44 H        1.1370     6.5520    -0.4990 H     1 <1>   0.0800 
 45 H       -2.3600    -6.3880    -1.1330 H     1 <1>   0.1500 
 46 H       -5.8940    -5.7190     1.1480 H     1 <1>   0.1500 
 47 H       -4.2980    -7.2710     0.0980 H     1 <1>   0.1500 
@<TRIPOS>BOND
  1   1   2  2   
  2   2   3  am  
  3   2   4  1   
  4   3   5  1   
  5   3   6  1   
  6   4   7  1   
  7   4  24  1   
  8   4  25  1   
  9   5   8  1   
 10   5  26  1   
 11   5  27  1   
 12   6   9  1   
 13   6  28  1   
 14   6  29  1   
 15   7  10  1   
 16   7  30  1   
 17   7  31  1   
 18   8  11  1   
 19   8  12  1   
 20   8  32  1   
 21   9  11  1   
 22   9  13  1   
 23   9  33  1   
 24  10  14  am  
 25  10  34  1   
 26  12  15  ar  
 27  12  16  ar  
 28  13  17  1   
 29  13  18  1   
 30  13  35  1   
 31  14  19  2   
 32  14  20  1   
 33  15  21  ar  
 34  15  36  1   
 35  16  22  ar  
 36  16  37  1   
 37  17  18  1   
 38  17  38  1   
 39  17  39  1   
 40  18  40  1   
 41  18  41  1   
 42  20  42  1   
 43  20  43  1   
 44  20  44  1   
 45  21  23  ar  
 46  21  45  1   
 47  22  23  ar  
 48  22  46  1   
 49  23  47  1   
@<TRIPOS>SUBSTRUCTURE
  1 ****   3 GROUP 4 **** **** 0

# MOE 2024.06 (io_trps.svl 2023.06)
