@<TRIPOS>MOLECULE
NONAME
40 42 1 0 0 
SMALL
USER_CHARGES


@<TRIPOS>ATOM
  1 N        1.0560    -0.2940    -1.3150 N.2   1 <1>  -0.3380 
  2 N       -0.0450    -1.0300    -1.4590 N.2   1 <1>  -0.3380 
  3 C        1.6280    -0.6710    -0.2230 C.2   1 <1>   0.0070 
  4 C       -0.0990    -1.8250    -0.4490 C.2   1 <1>   0.0360 
  5 N        0.9340    -1.6460     0.3710 N.pl3 1 <1>   0.0330 
  6 C        2.9240    -0.0710     0.3030 C.3   1 <1>   0.1000 
  7 C        2.7330     1.4340     0.5580 C.3   1 <1>  -0.1600 
  8 C        4.0550    -0.3100    -0.7110 C.3   1 <1>  -0.1600 
  9 C        4.0450     2.1380     0.8890 C.3   1 <1>   0.3430 
 10 C        5.3310     0.4420    -0.3430 C.3   1 <1>   0.3430 
 11 N        5.0270     1.8940    -0.2070 N.4   1 <1>  -0.9590 
 12 C        6.3010     2.6570    -0.0070 C.3   1 <1>   0.3430 
 13 C        6.1430     4.1680    -0.2210 C.3   1 <1>   0.0200 
 14 C        7.4870     4.8380    -0.0100 C.2   1 <1>   0.0060 
 15 N        8.5320     4.1870     0.3880 N.2   1 <1>  -0.5650 
 16 N        7.7140     6.1600    -0.2150 N.pl3 1 <1>   0.0480 
 17 C        9.4940     5.1250     0.4490 C.2   1 <1>   0.0770 
 18 C        9.0130     6.3320     0.0850 C.2   1 <1>  -0.3020 
 19 C        6.7850     7.2140    -0.6640 C.3   1 <1>   0.0160 
 20 H       -0.8770    -2.5490    -0.2780 H     1 <1>   0.1500 
 21 H        1.1290    -2.1450     1.2410 H     1 <1>   0.2700 
 22 H        3.1840    -0.5490     1.2330 H     1 <1>   0.0800 
 23 H        2.0400     1.5720     1.3700 H     1 <1>   0.0800 
 24 H        2.2990     1.9010    -0.3100 H     1 <1>   0.0800 
 25 H        3.7410     0.0000    -1.6930 H     1 <1>   0.0800 
 26 H        4.2670    -1.3630    -0.7660 H     1 <1>   0.0800 
 27 H        4.4360     1.7640     1.8220 H     1 <1>   0.0800 
 28 H        3.8610     3.1950     0.9980 H     1 <1>   0.0800 
 29 H        6.0700     0.2900    -1.1150 H     1 <1>   0.0800 
 30 H        5.7280     0.0610     0.5840 H     1 <1>   0.0800 
 31 H        4.5980     2.1940    -1.0940 H     1 <1>   0.4500 
 32 H        7.0470     2.3050    -0.7020 H     1 <1>   0.0800 
 33 H        6.6850     2.4830     0.9860 H     1 <1>   0.0800 
 34 H        5.4440     4.5800     0.4830 H     1 <1>   0.0800 
 35 H        5.8080     4.3620    -1.2240 H     1 <1>   0.0800 
 36 H       10.4990     4.8820     0.7560 H     1 <1>   0.1500 
 37 H        9.5190     7.2780     0.0260 H     1 <1>   0.1500 
 38 H        5.9370     7.2500    -0.0060 H     1 <1>   0.0800 
 39 H        6.4620     7.0040    -1.6670 H     1 <1>   0.0800 
 40 H        7.2860     8.1650    -0.6460 H     1 <1>   0.0800 
@<TRIPOS>BOND
  1   1   2  1   
  2   1   3  2   
  3   2   4  2   
  4   3   5  1   
  5   3   6  1   
  6   4   5  1   
  7   4  20  1   
  8   5  21  1   
  9   6   7  1   
 10   6   8  1   
 11   6  22  1   
 12   7   9  1   
 13   7  23  1   
 14   7  24  1   
 15   8  10  1   
 16   8  25  1   
 17   8  26  1   
 18   9  11  1   
 19   9  27  1   
 20   9  28  1   
 21  10  11  1   
 22  10  29  1   
 23  10  30  1   
 24  11  12  1   
 25  11  31  1   
 26  12  13  1   
 27  12  32  1   
 28  12  33  1   
 29  13  14  1   
 30  13  34  1   
 31  13  35  1   
 32  14  15  2   
 33  14  16  1   
 34  15  17  1   
 35  16  18  1   
 36  16  19  1   
 37  17  18  2   
 38  17  36  1   
 39  18  37  1   
 40  19  38  1   
 41  19  39  1   
 42  19  40  1   
@<TRIPOS>SUBSTRUCTURE
  1 ****  11 GROUP 4 **** **** 0

# MOE 2024.06 (io_trps.svl 2023.06)
