@<TRIPOS>MOLECULE
NONAME
47 48 1 0 0 
SMALL
USER_CHARGES


@<TRIPOS>ATOM
  1 S        0.4920    -0.1980    -1.2910 S.o2  1 <1>   1.3330 
  2 O        1.7480    -0.9130    -1.3350 O.2   1 <1>  -0.6500 
  3 O       -0.2400     0.0320    -2.5150 O.2   1 <1>  -0.6500 
  4 N       -0.5500    -1.0390    -0.2440 N.am  1 <1>  -0.8490 
  5 C        0.7370     1.3760    -0.4540 C.3   1 <1>  -0.0550 
  6 C       -0.3790    -2.4920    -0.3390 C.3   1 <1>   0.1160 
  7 C       -1.9660    -0.6970    -0.4310 C.3   1 <1>   0.1160 
  8 C        1.7600     1.4210     0.7040 C.3   1 <1>  -0.0800 
  9 C        3.2070     1.2190     0.2460 C.3   1 <1>   0.2200 
 10 C        1.5850     0.3980     1.8330 C.3   1 <1>   0.1200 
 11 N        3.9820     2.4410     0.5490 N.am  1 <1>  -0.7300 
 12 C        3.6850     0.0530     1.1080 C.3   1 <1>   0.1200 
 13 O        2.8770     0.0900     2.2400 O.3   1 <1>  -0.5600 
 14 C        4.0400     3.5420    -0.2520 C.2   1 <1>   0.7160 
 15 O        3.4600     3.5040    -1.3210 O.2   1 <1>  -0.5700 
 16 C        4.7510     4.7180     0.1890 C.2   1 <1>  -0.0860 
 17 C        5.3330     5.7540    -0.4860 C.2   1 <1>  -0.3320 
 18 C        4.9850     5.0440     1.5270 C.2   1 <1>   0.1390 
 19 N        5.8530     6.5950     0.4300 N.pl3 1 <1>   0.3140 
 20 C        5.4130     5.9770    -1.9910 C.3   1 <1>  -0.0600 
 21 N        5.6390     6.1480     1.6780 N.2   1 <1>  -0.7070 
 22 C        6.5780     7.8640     0.1970 C.3   1 <1>   0.0960 
 23 C        5.6080     9.0490     0.1120 C.3   1 <1>  -0.2400 
 24 H        1.0600     2.0920    -1.1860 H     1 <1>   0.0800 
 25 H       -0.2090     1.7210    -0.0870 H     1 <1>   0.0800 
 26 H       -1.0470    -2.9940     0.3400 H     1 <1>   0.0800 
 27 H        0.6300    -2.7640    -0.0770 H     1 <1>   0.0800 
 28 H       -0.5760    -2.8280    -1.3440 H     1 <1>   0.0800 
 29 H       -2.5660    -1.1840     0.3190 H     1 <1>   0.0800 
 30 H       -2.3040    -1.0100    -1.4060 H     1 <1>   0.0800 
 31 H       -2.1090     0.3660    -0.3430 H     1 <1>   0.0800 
 32 H        1.6660     2.3940     1.1560 H     1 <1>   0.0800 
 33 H        3.2990     0.9830    -0.8010 H     1 <1>   0.0800 
 34 H        1.1310    -0.5190     1.5050 H     1 <1>   0.0800 
 35 H        1.0390     0.7960     2.6700 H     1 <1>   0.0800 
 36 H        4.4160     2.4600     1.4720 H     1 <1>   0.3700 
 37 H        4.7190     0.1320     1.3930 H     1 <1>   0.0800 
 38 H        3.5120    -0.8850     0.6080 H     1 <1>   0.0800 
 39 H        4.6550     4.4490     2.3620 H     1 <1>   0.1500 
 40 H        4.9640     5.1590    -2.5250 H     1 <1>   0.0800 
 41 H        6.4390     6.0550    -2.3020 H     1 <1>   0.0800 
 42 H        4.8940     6.8780    -2.2610 H     1 <1>   0.0800 
 43 H        7.2620     8.0100     1.0140 H     1 <1>   0.0800 
 44 H        7.1460     7.7780    -0.7100 H     1 <1>   0.0800 
 45 H        5.0540     9.1350     1.0310 H     1 <1>   0.0800 
 46 H        4.9210     8.9160    -0.7040 H     1 <1>   0.0800 
 47 H        6.1570     9.9600    -0.0430 H     1 <1>   0.0800 
@<TRIPOS>BOND
  1   1   2  2   
  2   1   3  2   
  3   1   4  am  
  4   1   5  1   
  5   4   6  1   
  6   4   7  1   
  7   5   8  1   
  8   5  24  1   
  9   5  25  1   
 10   6  26  1   
 11   6  27  1   
 12   6  28  1   
 13   7  29  1   
 14   7  30  1   
 15   7  31  1   
 16   8   9  1   
 17   8  10  1   
 18   8  32  1   
 19   9  11  1   
 20   9  12  1   
 21   9  33  1   
 22  10  13  1   
 23  10  34  1   
 24  10  35  1   
 25  11  14  am  
 26  11  36  1   
 27  12  13  1   
 28  12  37  1   
 29  12  38  1   
 30  14  15  2   
 31  14  16  1   
 32  16  17  2   
 33  16  18  1   
 34  17  19  1   
 35  17  20  1   
 36  18  21  2   
 37  18  39  1   
 38  19  21  1   
 39  19  22  1   
 40  20  40  1   
 41  20  41  1   
 42  20  42  1   
 43  22  23  1   
 44  22  43  1   
 45  22  44  1   
 46  23  45  1   
 47  23  46  1   
 48  23  47  1   
@<TRIPOS>SUBSTRUCTURE
  1 ****  11 GROUP 4 **** **** 0

# MOE 2024.06 (io_trps.svl 2023.06)
