@<TRIPOS>MOLECULE
NONAME
41 42 1 0 0 
SMALL
USER_CHARGES


@<TRIPOS>ATOM
  1 F       -0.7030     0.1850    -1.0550 F     1 <1>  -0.3400 
  2 C       -1.8070    -0.2130    -0.4380 C.3   1 <1>   1.0200 
  3 F       -1.6370     0.0460     0.8520 F     1 <1>  -0.3400 
  4 F       -2.7790     0.5910    -0.8570 F     1 <1>  -0.3400 
  5 C       -2.1170    -1.7130    -0.7200 C.3   1 <1>   0.1100 
  6 N       -3.1920    -2.4090     0.0780 N.3   1 <1>  -0.8100 
  7 C       -3.2000    -3.8630    -0.1870 C.3   1 <1>   0.1100 
  8 C       -4.5370    -1.8150    -0.1030 C.3   1 <1>   0.1100 
  9 C       -4.2360    -4.5960     0.6890 C.3   1 <1>   0.3430 
 10 C       -5.5930    -2.5230     0.7720 C.3   1 <1>   0.3430 
 11 N       -5.6110    -4.0040     0.5350 N.4   1 <1>  -0.9590 
 12 C       -6.6020    -4.7010     1.3990 C.3   1 <1>   0.4860 
 13 C       -6.6510    -6.1520     0.9750 C.ar  1 <1>  -0.1440 
 14 C       -6.1160    -7.1400     1.7900 C.ar  1 <1>  -0.1500 
 15 C       -7.2180    -6.5050    -0.2400 C.ar  1 <1>  -0.1500 
 16 C       -6.1360    -8.4630     1.3840 C.ar  1 <1>  -0.1500 
 17 C       -7.2300    -7.8270    -0.6420 C.ar  1 <1>  -0.1500 
 18 C       -6.6880    -8.8130     0.1640 C.ar  1 <1>  -0.1440 
 19 C       -6.7030   -10.2720    -0.2960 C.3   1 <1>  -0.1230 
 20 C       -8.0620   -10.7820    -0.7380 C.2   1 <1>   0.9060 
 21 O       -8.4640   -10.4920    -1.8710 O.co2 1 <1>  -0.9000 
 22 O       -8.7060   -11.5020     0.0320 O.co2 1 <1>  -0.9000 
 23 H       -1.1920    -2.2360    -0.5480 H     1 <1>   0.0800 
 24 H       -2.3410    -1.8020    -1.7670 H     1 <1>   0.0800 
 25 H       -2.2250    -4.2680     0.0290 H     1 <1>   0.0800 
 26 H       -3.4120    -4.0490    -1.2260 H     1 <1>   0.0800 
 27 H       -4.8290    -1.8650    -1.1390 H     1 <1>   0.0800 
 28 H       -4.5170    -0.7790     0.1870 H     1 <1>   0.0800 
 29 H       -3.9230    -4.5260     1.7180 H     1 <1>   0.0800 
 30 H       -4.2520    -5.6400     0.4180 H     1 <1>   0.0800 
 31 H       -6.5640    -2.1030     0.5640 H     1 <1>   0.0800 
 32 H       -5.3590    -2.3240     1.8050 H     1 <1>   0.0800 
 33 H       -5.8970    -4.1860    -0.4340 H     1 <1>   0.4500 
 34 H       -7.5790    -4.2630     1.2790 H     1 <1>   0.0800 
 35 H       -6.3140    -4.6290     2.4350 H     1 <1>   0.0800 
 36 H       -5.6840    -6.9020     2.7470 H     1 <1>   0.1500 
 37 H       -7.6640    -5.7730    -0.8900 H     1 <1>   0.1500 
 38 H       -5.7260    -9.2290     2.0200 H     1 <1>   0.1500 
 39 H       -7.6750    -8.1040    -1.5860 H     1 <1>   0.1500 
 40 H       -6.3620   -10.9160     0.4910 H     1 <1>   0.0800 
 41 H       -6.0360   -10.3860    -1.1280 H     1 <1>   0.0800 
@<TRIPOS>BOND
  1   1   2  1   
  2   2   3  1   
  3   2   4  1   
  4   2   5  1   
  5   5   6  1   
  6   5  23  1   
  7   5  24  1   
  8   6   7  1   
  9   6   8  1   
 10   7   9  1   
 11   7  25  1   
 12   7  26  1   
 13   8  10  1   
 14   8  27  1   
 15   8  28  1   
 16   9  11  1   
 17   9  29  1   
 18   9  30  1   
 19  10  11  1   
 20  10  31  1   
 21  10  32  1   
 22  11  12  1   
 23  11  33  1   
 24  12  13  1   
 25  12  34  1   
 26  12  35  1   
 27  13  14  ar  
 28  13  15  ar  
 29  14  16  ar  
 30  14  36  1   
 31  15  17  ar  
 32  15  37  1   
 33  16  18  ar  
 34  16  38  1   
 35  17  18  ar  
 36  17  39  1   
 37  18  19  1   
 38  19  20  1   
 39  19  40  1   
 40  19  41  1   
 41  20  21  ar  
 42  20  22  ar  
@<TRIPOS>SUBSTRUCTURE
  1 ****   9 GROUP 4 **** **** 0

# MOE 2024.06 (io_trps.svl 2023.06)
