@<TRIPOS>MOLECULE
NONAME
53 55 1 0 0 
SMALL
USER_CHARGES


@<TRIPOS>ATOM
  1 CL      -1.0110     0.3660     0.7450 Cl    1 <1>  -0.1770 
  2 C       -1.7970     1.4930    -0.3390 C.ar  1 <1>   0.1770 
  3 C       -2.9930     1.1170    -0.9420 C.ar  1 <1>   0.0860 
  4 C       -1.2110     2.7360    -0.5570 C.ar  1 <1>  -0.1440 
  5 C       -3.5840     2.0620    -1.7740 C.ar  1 <1>   0.1900 
  6 C       -3.5910    -0.1720    -0.7180 C.2   1 <1>   0.5440 
  7 C       -1.8370     3.6410    -1.4030 C.ar  1 <1>  -0.1500 
  8 C        0.1030     3.1150     0.1140 C.3   1 <1>  -0.0970 
  9 F       -4.7210     1.7830    -2.3490 F     1 <1>  -0.1900 
 10 C       -3.0320     3.3050    -2.0160 C.ar  1 <1>  -0.1500 
 11 O       -3.3720    -1.0680    -1.5120 O.2   1 <1>  -0.5700 
 12 N       -4.4140    -0.4210     0.3620 N.am  1 <1>  -0.6600 
 13 C       -4.9800    -1.7860     0.5670 C.3   1 <1>   0.1400 
 14 C       -4.8640     0.6280     1.3210 C.3   1 <1>   0.1400 
 15 C       -6.2370    -1.9920    -0.2910 C.3   1 <1>   0.1400 
 16 C       -6.3910     0.6800     1.4850 C.3   1 <1>  -0.1600 
 17 N       -7.4030    -1.1890     0.2050 N.am  1 <1>  -0.6600 
 18 C       -7.1900     0.2880     0.2360 C.3   1 <1>   0.1400 
 19 C       -8.5900    -1.7180     0.6510 C.2   1 <1>   0.5690 
 20 O       -9.3880    -1.0400     1.2560 O.2   1 <1>  -0.5700 
 21 C       -8.9220    -3.1900     0.4160 C.3   1 <1>  -0.0990 
 22 C      -10.4200    -3.5560     0.5010 C.3   1 <1>  -0.0800 
 23 C      -10.5980    -5.0820     0.4180 C.3   1 <1>   0.1200 
 24 C      -11.2410    -2.8720    -0.6070 C.3   1 <1>  -0.1600 
 25 O      -11.9530    -5.4140     0.4640 O.3   1 <1>  -0.5600 
 26 C      -12.6830    -3.3910    -0.5840 C.3   1 <1>  -0.1600 
 27 C      -12.7130    -4.9240    -0.5970 C.3   1 <1>   0.1200 
 28 H       -1.4000     4.6090    -1.5890 H     1 <1>   0.1500 
 29 H        0.8740     2.4200    -0.1680 H     1 <1>   0.0800 
 30 H       -0.0090     3.0910     1.1830 H     1 <1>   0.0800 
 31 H        0.4160     4.1020    -0.1730 H     1 <1>   0.0800 
 32 H       -3.5300     3.9960    -2.6720 H     1 <1>   0.1500 
 33 H       -5.2100    -1.9460     1.6060 H     1 <1>   0.0800 
 34 H       -4.2410    -2.5160     0.2820 H     1 <1>   0.0800 
 35 H       -4.5340     1.5940     0.9850 H     1 <1>   0.0800 
 36 H       -4.4060     0.4480     2.2790 H     1 <1>   0.0800 
 37 H       -6.4660    -3.0400    -0.2770 H     1 <1>   0.0800 
 38 H       -6.0210    -1.7220    -1.3100 H     1 <1>   0.0800 
 39 H       -6.6540     1.6870     1.7520 H     1 <1>   0.0800 
 40 H       -6.6950     0.0580     2.3090 H     1 <1>   0.0800 
 41 H       -6.6880     0.6090    -0.6610 H     1 <1>   0.0800 
 42 H       -8.1470     0.7830     0.2620 H     1 <1>   0.0800 
 43 H       -8.3820    -3.7570     1.1510 H     1 <1>   0.0800 
 44 H       -8.5690    -3.4730    -0.5570 H     1 <1>   0.0800 
 45 H      -10.7950    -3.2390     1.4610 H     1 <1>   0.0800 
 46 H      -10.1210    -5.5630     1.2540 H     1 <1>   0.0800 
 47 H      -10.1840    -5.4760    -0.4950 H     1 <1>   0.0800 
 48 H      -10.8050    -3.0860    -1.5680 H     1 <1>   0.0800 
 49 H      -11.2420    -1.8050    -0.4690 H     1 <1>   0.0800 
 50 H      -13.2230    -3.0110    -1.4320 H     1 <1>   0.0800 
 51 H      -13.1790    -3.0450     0.3060 H     1 <1>   0.0800 
 52 H      -13.7200    -5.2820    -0.4730 H     1 <1>   0.0800 
 53 H      -12.3120    -5.3150    -1.5170 H     1 <1>   0.0800 
@<TRIPOS>BOND
  1   1   2  1   
  2   2   3  ar  
  3   2   4  ar  
  4   3   5  ar  
  5   3   6  1   
  6   4   7  ar  
  7   4   8  1   
  8   5   9  1   
  9   5  10  ar  
 10   6  11  2   
 11   6  12  am  
 12   7  10  ar  
 13   7  28  1   
 14   8  29  1   
 15   8  30  1   
 16   8  31  1   
 17  10  32  1   
 18  12  13  1   
 19  12  14  1   
 20  13  15  1   
 21  13  33  1   
 22  13  34  1   
 23  14  16  1   
 24  14  35  1   
 25  14  36  1   
 26  15  17  1   
 27  15  37  1   
 28  15  38  1   
 29  16  18  1   
 30  16  39  1   
 31  16  40  1   
 32  17  18  1   
 33  17  19  am  
 34  18  41  1   
 35  18  42  1   
 36  19  20  2   
 37  19  21  1   
 38  21  22  1   
 39  21  43  1   
 40  21  44  1   
 41  22  23  1   
 42  22  24  1   
 43  22  45  1   
 44  23  25  1   
 45  23  46  1   
 46  23  47  1   
 47  24  26  1   
 48  24  48  1   
 49  24  49  1   
 50  25  27  1   
 51  26  27  1   
 52  26  50  1   
 53  26  51  1   
 54  27  52  1   
 55  27  53  1   
@<TRIPOS>SUBSTRUCTURE
  1 ****  15 GROUP 4 **** **** 0

# MOE 2024.06 (io_trps.svl 2023.06)
