@<TRIPOS>MOLECULE
NONAME
52 54 1 0 0 
SMALL
USER_CHARGES


@<TRIPOS>ATOM
  1 F        0.6590     0.1990     1.4610 F     1 <1>  -0.1900 
  2 C        1.6810     0.9050     1.0630 C.ar  1 <1>   0.1900 
  3 C        2.8850     0.2830     0.8520 C.ar  1 <1>  -0.1500 
  4 C        1.5010     2.2690     0.8700 C.ar  1 <1>  -0.1500 
  5 C        3.9950     1.0320     0.4230 C.ar  1 <1>   0.0000 
  6 C        2.5750     3.0200     0.4520 C.ar  1 <1>  -0.1500 
  7 C        3.8230     2.4200     0.2250 C.ar  1 <1>   0.3610 
  8 C        5.2870     0.4750     0.1740 C.ar  1 <1>  -0.1440 
  9 N        4.9060     3.1750    -0.1950 N.ar  1 <1>  -0.1790 
 10 C        6.3010     1.2850    -0.2360 C.ar  1 <1>  -0.1500 
 11 C        5.5270    -1.0190     0.3680 C.3   1 <1>  -0.0970 
 12 C        6.1220     2.6740    -0.4270 C.ar  1 <1>   0.4610 
 13 N        7.1490     3.4390    -0.8340 N.pl3 1 <1>  -0.8690 
 14 C        7.2700     4.8980    -1.0810 C.3   1 <1>   0.2090 
 15 C        8.6240     5.3660    -0.5380 C.3   1 <1>  -0.1600 
 16 C        8.8460     6.8610    -0.7960 C.3   1 <1>   0.3430 
 17 N       10.1270     7.3180    -0.1860 N.4   1 <1>  -0.9590 
 18 C       10.1500     8.8170    -0.0520 C.3   1 <1>   0.3430 
 19 C       11.3370     6.8380    -0.9160 C.3   1 <1>   0.3430 
 20 C       11.5540     9.3720     0.2550 C.3   1 <1>  -0.0800 
 21 C       12.5760     7.0690    -0.0420 C.3   1 <1>  -0.1600 
 22 C       12.4770     8.3030     0.8740 C.3   1 <1>  -0.1600 
 23 C       11.4280    10.6230     1.1370 C.3   1 <1>   0.1200 
 24 O       12.6540    11.2510     1.2110 O.3   1 <1>  -0.6800 
 25 H        2.9580    -0.7760     1.0190 H     1 <1>   0.1500 
 26 H        0.5320     2.7040     1.0520 H     1 <1>   0.1500 
 27 H        2.4440     4.0770     0.3000 H     1 <1>   0.1500 
 28 H        4.7600     4.1640    -0.3540 H     1 <1>   0.4570 
 29 H        7.2800     0.8830    -0.4290 H     1 <1>   0.1500 
 30 H        4.8830    -1.5880    -0.2800 H     1 <1>   0.0800 
 31 H        5.3320    -1.3000     1.3880 H     1 <1>   0.0800 
 32 H        6.5450    -1.2830     0.1390 H     1 <1>   0.0800 
 33 H        8.0240     2.9400    -1.0490 H     1 <1>   0.4000 
 34 H        6.4710     5.4330    -0.5960 H     1 <1>   0.0800 
 35 H        7.2160     5.0790    -2.1440 H     1 <1>   0.0800 
 36 H        9.3990     4.7990    -1.0210 H     1 <1>   0.0800 
 37 H        8.6530     5.1800     0.5210 H     1 <1>   0.0800 
 38 H        8.0280     7.4140    -0.3600 H     1 <1>   0.0800 
 39 H        8.8550     7.0580    -1.8570 H     1 <1>   0.0800 
 40 H       10.2010     6.9370     0.7670 H     1 <1>   0.4500 
 41 H        9.4780     9.1050     0.7410 H     1 <1>   0.0800 
 42 H        9.7960     9.2740    -0.9620 H     1 <1>   0.0800 
 43 H       11.4410     7.3870    -1.8390 H     1 <1>   0.0800 
 44 H       11.2600     5.7890    -1.1540 H     1 <1>   0.0800 
 45 H       11.9790     9.6910    -0.6820 H     1 <1>   0.0800 
 46 H       13.4230     7.1810    -0.6980 H     1 <1>   0.0800 
 47 H       12.7640     6.1940     0.5570 H     1 <1>   0.0800 
 48 H       12.0880     8.0090     1.8340 H     1 <1>   0.0800 
 49 H       13.4650     8.7010     1.0340 H     1 <1>   0.0800 
 50 H       11.1060    10.3840     2.1380 H     1 <1>   0.0800 
 51 H       10.7380    11.3280     0.7030 H     1 <1>   0.0800 
 52 H       13.2760    10.7720     1.7940 H     1 <1>   0.4000 
@<TRIPOS>BOND
  1   1   2  1   
  2   2   3  ar  
  3   2   4  ar  
  4   3   5  ar  
  5   3  25  1   
  6   4   6  ar  
  7   4  26  1   
  8   5   7  ar  
  9   5   8  ar  
 10   6   7  ar  
 11   6  27  1   
 12   7   9  ar  
 13   8  10  ar  
 14   8  11  1   
 15   9  12  ar  
 16   9  28  1   
 17  10  12  ar  
 18  10  29  1   
 19  11  30  1   
 20  11  31  1   
 21  11  32  1   
 22  12  13  1   
 23  13  14  1   
 24  13  33  1   
 25  14  15  1   
 26  14  34  1   
 27  14  35  1   
 28  15  16  1   
 29  15  36  1   
 30  15  37  1   
 31  16  17  1   
 32  16  38  1   
 33  16  39  1   
 34  17  18  1   
 35  17  19  1   
 36  17  40  1   
 37  18  20  1   
 38  18  41  1   
 39  18  42  1   
 40  19  21  1   
 41  19  43  1   
 42  19  44  1   
 43  20  22  1   
 44  20  23  1   
 45  20  45  1   
 46  21  22  1   
 47  21  46  1   
 48  21  47  1   
 49  22  48  1   
 50  22  49  1   
 51  23  24  1   
 52  23  50  1   
 53  23  51  1   
 54  24  52  1   
@<TRIPOS>SUBSTRUCTURE
  1 ****  14 GROUP 4 **** **** 0

# MOE 2024.06 (io_trps.svl 2023.06)
