@<TRIPOS>MOLECULE
NONAME
54 55 1 0 0 
SMALL
USER_CHARGES


@<TRIPOS>ATOM
  1 S        0.0900     0.0820    -0.6190 S.o2  1 <1>   1.3330 
  2 O       -0.7280    -0.0080     0.5700 O.2   1 <1>  -0.6500 
  3 O       -0.2540     1.0340    -1.6500 O.2   1 <1>  -0.6500 
  4 N        0.1570    -1.4640    -1.3190 N.am  1 <1>  -0.8490 
  5 C        1.7980     0.3740    -0.1570 C.3   1 <1>  -0.0550 
  6 C        0.0680    -2.5520    -0.3390 C.3   1 <1>   0.1160 
  7 C       -0.8560    -1.6470    -2.3620 C.3   1 <1>   0.1160 
  8 C        2.0460     1.7750     0.4380 C.3   1 <1>  -0.0800 
  9 C        3.5320     2.0480     0.5960 C.3   1 <1>   0.2200 
 10 C        1.5380     1.8880     1.8830 C.3   1 <1>   0.1200 
 11 N        3.7600     3.5090     0.6040 N.am  1 <1>  -0.7300 
 12 C        3.8060     1.4830     1.9830 C.3   1 <1>   0.1200 
 13 O        2.6430     1.7030     2.7210 O.3   1 <1>  -0.5600 
 14 C        4.4850     4.1850    -0.3190 C.2   1 <1>   0.5690 
 15 O        5.0210     3.6280    -1.2440 O.2   1 <1>  -0.5700 
 16 C        4.6350     5.6830    -0.1730 C.3   1 <1>  -0.0990 
 17 C        5.9810     6.0440     0.4620 C.3   1 <1>  -0.0170 
 18 C        6.1050     7.5510     0.6210 C.ar  1 <1>  -0.1440 
 19 C        6.5630     8.3270    -0.4310 C.ar  1 <1>  -0.1500 
 20 C        5.7570     8.1610     1.8140 C.ar  1 <1>  -0.1500 
 21 C        6.6750     9.7090    -0.2980 C.ar  1 <1>   0.0820 
 22 C        5.8670     9.5340     1.9540 C.ar  1 <1>  -0.1500 
 23 O        7.1190    10.5130    -1.3020 O.3   1 <1>  -0.3620 
 24 C        6.3240    10.3140     0.9050 C.ar  1 <1>  -0.1440 
 25 C        7.5100     9.9910    -2.5520 C.3   1 <1>   0.0400 
 26 C        6.4380    11.8220     1.0780 C.3   1 <1>  -0.0970 
 27 H        2.1140    -0.3760     0.5410 H     1 <1>   0.0800 
 28 H        2.3970     0.2710    -1.0420 H     1 <1>   0.0800 
 29 H        0.2110    -3.5010    -0.8270 H     1 <1>   0.0800 
 30 H       -0.8960    -2.5470     0.1420 H     1 <1>   0.0800 
 31 H        0.8300    -2.4390     0.4130 H     1 <1>   0.0800 
 32 H       -0.7750    -2.6300    -2.7940 H     1 <1>   0.0800 
 33 H       -0.7130    -0.9230    -3.1470 H     1 <1>   0.0800 
 34 H       -1.8440    -1.5200    -1.9510 H     1 <1>   0.0800 
 35 H        1.5830     2.5090    -0.2000 H     1 <1>   0.0800 
 36 H        4.1370     1.5770    -0.1620 H     1 <1>   0.0800 
 37 H        0.7910     1.1560     2.1350 H     1 <1>   0.0800 
 38 H        1.1470     2.8720     2.0740 H     1 <1>   0.0800 
 39 H        3.3440     3.9960     1.4010 H     1 <1>   0.3700 
 40 H        4.6400     1.9590     2.4680 H     1 <1>   0.0800 
 41 H        3.9690     0.4210     1.9380 H     1 <1>   0.0800 
 42 H        4.5660     6.1280    -1.1480 H     1 <1>   0.0800 
 43 H        3.8320     6.0720     0.4260 H     1 <1>   0.0800 
 44 H        6.7820     5.6780    -0.1580 H     1 <1>   0.0800 
 45 H        6.0720     5.5680     1.4230 H     1 <1>   0.0800 
 46 H        6.8270     7.8390    -1.3490 H     1 <1>   0.1500 
 47 H        5.4000     7.5740     2.6420 H     1 <1>   0.1500 
 48 H        5.5930     9.9900     2.8890 H     1 <1>   0.1500 
 49 H        7.8250    10.8100    -3.1720 H     1 <1>   0.0800 
 50 H        6.6670     9.4950    -3.0010 H     1 <1>   0.0800 
 51 H        8.3270     9.3080    -2.4040 H     1 <1>   0.0800 
 52 H        6.1300    12.1280     2.0600 H     1 <1>   0.0800 
 53 H        5.8190    12.3180     0.3520 H     1 <1>   0.0800 
 54 H        7.4580    12.1280     0.9260 H     1 <1>   0.0800 
@<TRIPOS>BOND
  1   1   2  2   
  2   1   3  2   
  3   1   4  am  
  4   1   5  1   
  5   4   6  1   
  6   4   7  1   
  7   5   8  1   
  8   5  27  1   
  9   5  28  1   
 10   6  29  1   
 11   6  30  1   
 12   6  31  1   
 13   7  32  1   
 14   7  33  1   
 15   7  34  1   
 16   8   9  1   
 17   8  10  1   
 18   8  35  1   
 19   9  11  1   
 20   9  12  1   
 21   9  36  1   
 22  10  13  1   
 23  10  37  1   
 24  10  38  1   
 25  11  14  am  
 26  11  39  1   
 27  12  13  1   
 28  12  40  1   
 29  12  41  1   
 30  14  15  2   
 31  14  16  1   
 32  16  17  1   
 33  16  42  1   
 34  16  43  1   
 35  17  18  1   
 36  17  44  1   
 37  17  45  1   
 38  18  19  ar  
 39  18  20  ar  
 40  19  21  ar  
 41  19  46  1   
 42  20  22  ar  
 43  20  47  1   
 44  21  23  1   
 45  21  24  ar  
 46  22  24  ar  
 47  22  48  1   
 48  23  25  1   
 49  24  26  1   
 50  25  49  1   
 51  25  50  1   
 52  25  51  1   
 53  26  52  1   
 54  26  53  1   
 55  26  54  1   
@<TRIPOS>SUBSTRUCTURE
  1 ****  14 GROUP 4 **** **** 0

# MOE 2024.06 (io_trps.svl 2023.06)
