@<TRIPOS>MOLECULE
NONAME
38 39 1 0 0 
SMALL
USER_CHARGES


@<TRIPOS>ATOM
  1 O        0.1940     0.8800     1.0280 O.3   1 <1>  -0.3630 
  2 C        0.2060     2.1270     0.5160 C.ar  1 <1>   0.3920 
  3 C       -0.9920     0.1940     1.3620 C.3   1 <1>   0.0400 
  4 N        1.3970     2.6060     0.2650 N.ar  1 <1>  -0.6200 
  5 C       -0.9390     2.8490     0.2720 C.ar  1 <1>  -0.1500 
  6 C        1.4450     3.8310    -0.2400 C.ar  1 <1>   0.7200 
  7 C       -0.7750     4.1100    -0.2540 C.ar  1 <1>   0.3920 
  8 N        0.4060     4.6080    -0.5140 N.ar  1 <1>  -0.6200 
  9 N        2.6980     4.3480    -0.5030 N.pl3 1 <1>  -0.8380 
 10 O       -1.8070     4.9280    -0.5410 O.3   1 <1>  -0.3630 
 11 C        2.9040     5.4740    -1.4780 C.3   1 <1>   0.3530 
 12 C        3.9440     3.6270    -0.1090 C.3   1 <1>   0.1290 
 13 C       -3.1560     4.5680    -0.3370 C.3   1 <1>   0.0400 
 14 C        3.8170     6.5830    -0.9390 C.ar  1 <1>   0.1670 
 15 N        5.0230     6.6540    -1.5000 N.ar  1 <1>  -0.6200 
 16 C        3.3800     7.4500     0.0650 C.ar  1 <1>  -0.1430 
 17 C        5.8190     7.6080    -1.0500 C.ar  1 <1>   0.1600 
 18 C        4.2330     8.4380     0.5150 C.ar  1 <1>  -0.1500 
 19 C        1.9930     7.3410     0.6890 C.3   1 <1>  -0.0970 
 20 C        5.4800     8.5120    -0.0620 C.ar  1 <1>  -0.1500 
 21 H       -0.7190    -0.7730     1.7460 H     1 <1>   0.0800 
 22 H       -1.5910     0.0770     0.4760 H     1 <1>   0.0800 
 23 H       -1.5180     0.7490     2.1180 H     1 <1>   0.0800 
 24 H       -1.9070     2.4510     0.4810 H     1 <1>   0.1500 
 25 H        1.9720     5.9180    -1.7740 H     1 <1>   0.0800 
 26 H        3.3460     5.0680    -2.3700 H     1 <1>   0.0800 
 27 H        3.8010     3.1080     0.8230 H     1 <1>   0.0800 
 28 H        4.7590     4.3180     0.0160 H     1 <1>   0.0800 
 29 H        4.2030     2.9120    -0.8710 H     1 <1>   0.0800 
 30 H       -3.7700     5.3940    -0.6490 H     1 <1>   0.0800 
 31 H       -3.3130     4.3730     0.7090 H     1 <1>   0.0800 
 32 H       -3.3820     3.7020    -0.9340 H     1 <1>   0.0800 
 33 H        6.7970     7.6740    -1.4960 H     1 <1>   0.1500 
 34 H        3.9410     9.1270     1.2880 H     1 <1>   0.1500 
 35 H        1.2340     7.3580    -0.0720 H     1 <1>   0.0800 
 36 H        1.8070     8.1540     1.3660 H     1 <1>   0.0800 
 37 H        1.9120     6.4190     1.2370 H     1 <1>   0.0800 
 38 H        6.1840     9.2600     0.2510 H     1 <1>   0.1500 
@<TRIPOS>BOND
  1   1   2  1   
  2   1   3  1   
  3   2   4  ar  
  4   2   5  ar  
  5   3  21  1   
  6   3  22  1   
  7   3  23  1   
  8   4   6  ar  
  9   5   7  ar  
 10   5  24  1   
 11   6   8  ar  
 12   6   9  1   
 13   7   8  ar  
 14   7  10  1   
 15   9  11  1   
 16   9  12  1   
 17  10  13  1   
 18  11  14  1   
 19  11  25  1   
 20  11  26  1   
 21  12  27  1   
 22  12  28  1   
 23  12  29  1   
 24  13  30  1   
 25  13  31  1   
 26  13  32  1   
 27  14  15  ar  
 28  14  16  ar  
 29  15  17  ar  
 30  16  18  ar  
 31  16  19  1   
 32  17  20  ar  
 33  17  33  1   
 34  18  20  ar  
 35  18  34  1   
 36  19  35  1   
 37  19  36  1   
 38  19  37  1   
 39  20  38  1   
@<TRIPOS>SUBSTRUCTURE
  1 ****   6 GROUP 4 **** **** 0

# MOE 2024.06 (io_trps.svl 2023.06)
