@<TRIPOS>MOLECULE
NONAME
56 58 1 0 0 
SMALL
USER_CHARGES


@<TRIPOS>ATOM
  1 O       -3.0040     0.2120    -1.8670 O.2   1 <1>  -0.5700 
  2 C       -2.7520     1.3190    -1.4100 C.2   1 <1>   0.6300 
  3 N       -3.6460     2.3420    -1.7000 N.am  1 <1>  -0.6600 
  4 C       -1.5530     1.5150    -0.5830 C.2   1 <1>   0.6550 
  5 C       -4.8440     2.1000    -2.5570 C.3   1 <1>   0.1400 
  6 C       -3.6630     3.6380    -0.9710 C.3   1 <1>   0.1400 
  7 O       -0.7290     2.3700    -0.8720 O.2   1 <1>  -0.5700 
  8 C       -1.3540     0.7070     0.5970 C.2   1 <1>  -0.2370 
  9 C       -5.9520     1.3330    -1.8120 C.3   1 <1>   0.1400 
 10 C       -4.5600     3.5620     0.2720 C.3   1 <1>  -0.1600 
 11 N       -0.1470     0.4790     1.2170 N.pl3 1 <1>   0.0480 
 12 C       -2.3120     0.0310     1.3140 C.2   1 <1>  -0.1500 
 13 N       -6.0420     1.6620    -0.3480 N.am  1 <1>  -0.6600 
 14 C       -6.0040     3.1110    -0.0020 C.3   1 <1>   0.1400 
 15 C       -0.3670    -0.3230     2.2860 C.2   1 <1>  -0.3020 
 16 C        1.1830     0.9810     0.8160 C.3   1 <1>   0.0160 
 17 C       -1.6900    -0.6160     2.3740 C.2   1 <1>  -0.1500 
 18 C       -6.0780     0.7220     0.6550 C.2   1 <1>   0.5690 
 19 O       -6.1420     1.0500     1.8170 O.2   1 <1>  -0.5700 
 20 C       -6.0210    -0.7660     0.3290 C.3   1 <1>  -0.0990 
 21 C       -5.9670    -1.6740     1.5670 C.3   1 <1>  -0.0170 
 22 C       -5.8090    -3.1290     1.1540 C.ar  1 <1>  -0.1430 
 23 C       -6.8990    -3.9830     1.1420 C.ar  1 <1>  -0.1500 
 24 C       -4.5640    -3.6120     0.7820 C.ar  1 <1>  -0.1500 
 25 C       -6.7590    -5.3100     0.7640 C.ar  1 <1>   0.0820 
 26 C       -4.4130    -4.9340     0.4020 C.ar  1 <1>  -0.1500 
 27 O       -7.8800    -6.0740     0.7840 O.3   1 <1>  -0.3630 
 28 C       -5.5040    -5.7850     0.3920 C.ar  1 <1>  -0.1500 
 29 C       -7.8430    -7.4390     0.4330 C.3   1 <1>   0.0400 
 30 H       -4.5530     1.5370    -3.4280 H     1 <1>   0.0800 
 31 H       -5.2360     3.0390    -2.9050 H     1 <1>   0.0800 
 32 H       -4.0220     4.4100    -1.6290 H     1 <1>   0.0800 
 33 H       -2.6670     3.9170    -0.6750 H     1 <1>   0.0800 
 34 H       -5.7630     0.2850    -1.9540 H     1 <1>   0.0800 
 35 H       -6.8990     1.5450    -2.2760 H     1 <1>   0.0800 
 36 H       -4.5960     4.5420     0.7110 H     1 <1>   0.0800 
 37 H       -4.1160     2.9100     1.0040 H     1 <1>   0.0800 
 38 H       -3.3670    -0.0020     1.1160 H     1 <1>   0.1500 
 39 H       -6.4390     3.6940    -0.7950 H     1 <1>   0.0800 
 40 H       -6.5960     3.2760     0.8830 H     1 <1>   0.0800 
 41 H        0.4230    -0.6510     2.9380 H     1 <1>   0.1500 
 42 H        1.3630     0.7300    -0.2130 H     1 <1>   0.0800 
 43 H        1.9410     0.5330     1.4320 H     1 <1>   0.0800 
 44 H        1.2080     2.0490     0.9350 H     1 <1>   0.0800 
 45 H       -2.1840    -1.2260     3.1110 H     1 <1>   0.1500 
 46 H       -5.1430    -0.9510    -0.2620 H     1 <1>   0.0800 
 47 H       -6.8840    -1.0250    -0.2550 H     1 <1>   0.0800 
 48 H       -6.8660    -1.5490     2.1470 H     1 <1>   0.0800 
 49 H       -5.1380    -1.3930     2.1920 H     1 <1>   0.0800 
 50 H       -7.8740    -3.6310     1.4260 H     1 <1>   0.1500 
 51 H       -3.7070    -2.9600     0.7840 H     1 <1>   0.1500 
 52 H       -3.4420    -5.2980     0.1140 H     1 <1>   0.1500 
 53 H       -5.3590    -6.8050     0.0940 H     1 <1>   0.1500 
 54 H       -8.8380    -7.8350     0.5270 H     1 <1>   0.0800 
 55 H       -7.1790    -7.9540     1.1050 H     1 <1>   0.0800 
 56 H       -7.5080    -7.5290    -0.5850 H     1 <1>   0.0800 
@<TRIPOS>BOND
  1   1   2  2   
  2   2   3  am  
  3   2   4  1   
  4   3   5  1   
  5   3   6  1   
  6   4   7  2   
  7   4   8  1   
  8   5   9  1   
  9   5  30  1   
 10   5  31  1   
 11   6  10  1   
 12   6  32  1   
 13   6  33  1   
 14   8  11  1   
 15   8  12  2   
 16   9  13  1   
 17   9  34  1   
 18   9  35  1   
 19  10  14  1   
 20  10  36  1   
 21  10  37  1   
 22  11  15  1   
 23  11  16  1   
 24  12  17  1   
 25  12  38  1   
 26  13  14  1   
 27  13  18  am  
 28  14  39  1   
 29  14  40  1   
 30  15  17  2   
 31  15  41  1   
 32  16  42  1   
 33  16  43  1   
 34  16  44  1   
 35  17  45  1   
 36  18  19  2   
 37  18  20  1   
 38  20  21  1   
 39  20  46  1   
 40  20  47  1   
 41  21  22  1   
 42  21  48  1   
 43  21  49  1   
 44  22  23  ar  
 45  22  24  ar  
 46  23  25  ar  
 47  23  50  1   
 48  24  26  ar  
 49  24  51  1   
 50  25  27  1   
 51  25  28  ar  
 52  26  28  ar  
 53  26  52  1   
 54  27  29  1   
 55  28  53  1   
 56  29  54  1   
 57  29  55  1   
 58  29  56  1   
@<TRIPOS>SUBSTRUCTURE
  1 ****  20 GROUP 4 **** **** 0

# MOE 2024.06 (io_trps.svl 2023.06)
