@<TRIPOS>MOLECULE
NONAME
54 57 1 0 0 
SMALL
USER_CHARGES


@<TRIPOS>ATOM
  1 O        2.0460     0.6610    -0.1100 O.3   1 <1>  -0.2800 
  2 C        1.6110     1.9080    -0.1450 C.2   1 <1>  -0.0400 
  3 C        1.6180     0.0590    -1.2020 C.2   1 <1>  -0.0100 
  4 C        0.8930     2.1250    -1.2680 C.2   1 <1>  -0.1500 
  5 C        1.9390     2.8450     1.0090 C.3   1 <1>   0.2900 
  6 C        0.9000     0.9100    -1.9650 C.2   1 <1>  -0.1500 
  7 N        3.2830     3.4590     0.8750 N.3   1 <1>  -0.8100 
  8 C        3.5440     4.4190     1.9720 C.3   1 <1>   0.1100 
  9 C        4.3620     2.4380     0.8000 C.3   1 <1>   0.1100 
 10 C        4.9160     5.1220     1.8180 C.3   1 <1>   0.3430 
 11 C        5.7760     3.0660     0.7620 C.3   1 <1>   0.3430 
 12 N        5.6860     4.5580     0.6540 N.4   1 <1>  -0.9590 
 13 C        6.9880     5.2240     0.3760 C.3   1 <1>   0.4860 
 14 C        6.7850     6.7160     0.2660 C.ar  1 <1>  -0.1430 
 15 C        7.2090     7.5670     1.2600 C.ar  1 <1>   0.1600 
 16 C        6.1630     7.2870    -0.8200 C.ar  1 <1>   0.1600 
 17 N        7.0100     8.8610     1.1990 N.ar  1 <1>  -0.6200 
 18 N        5.9570     8.5780    -0.9020 N.ar  1 <1>  -0.6200 
 19 C        6.3940     9.3120     0.1140 C.ar  1 <1>   0.4770 
 20 C        6.1700    10.8270     0.0400 C.3   1 <1>   0.0630 
 21 C        4.6710    11.1840     0.0130 C.3   1 <1>  -0.1600 
 22 C        6.8990    11.4560    -1.1640 C.3   1 <1>  -0.1600 
 23 C        4.4520    12.7030    -0.0520 C.3   1 <1>  -0.1600 
 24 C        6.6790    12.9740    -1.2300 C.3   1 <1>  -0.1600 
 25 C        5.1840    13.3160    -1.2530 C.3   1 <1>  -0.1600 
 26 H        1.8680    -0.9760    -1.3590 H     1 <1>   0.1500 
 27 H        0.4020     3.0250    -1.5950 H     1 <1>   0.1500 
 28 H        1.8650     2.2990     1.9350 H     1 <1>   0.0800 
 29 H        1.2000     3.6270     1.0240 H     1 <1>   0.0800 
 30 H        0.4180     0.7260    -2.9090 H     1 <1>   0.1500 
 31 H        3.5150     3.9070     2.9200 H     1 <1>   0.0800 
 32 H        2.7720     5.1700     1.9870 H     1 <1>   0.0800 
 33 H        4.2390     1.8550    -0.0960 H     1 <1>   0.0800 
 34 H        4.2930     1.7610     1.6350 H     1 <1>   0.0800 
 35 H        5.4780     5.0100     2.7300 H     1 <1>   0.0800 
 36 H        4.7440     6.1760     1.6670 H     1 <1>   0.0800 
 37 H        6.3110     2.6600    -0.0810 H     1 <1>   0.0800 
 38 H        6.3090     2.7910     1.6560 H     1 <1>   0.0800 
 39 H        5.0390     4.7020    -0.1380 H     1 <1>   0.4500 
 40 H        7.4030     4.8490    -0.5470 H     1 <1>   0.0800 
 41 H        7.6850     5.0120     1.1700 H     1 <1>   0.0800 
 42 H        7.7190     7.1930     2.1320 H     1 <1>   0.1500 
 43 H        5.8170     6.6830    -1.6430 H     1 <1>   0.1500 
 44 H        6.5890    11.2610     0.9320 H     1 <1>   0.0800 
 45 H        4.1940    10.7910     0.8940 H     1 <1>   0.0800 
 46 H        4.2100    10.7260    -0.8450 H     1 <1>   0.0800 
 47 H        6.5370    11.0080    -2.0740 H     1 <1>   0.0800 
 48 H        7.9530    11.2480    -1.0920 H     1 <1>   0.0800 
 49 H        4.8140    13.1570     0.8550 H     1 <1>   0.0800 
 50 H        3.3990    12.9130    -0.1280 H     1 <1>   0.0800 
 51 H        7.1530    13.3690    -2.1130 H     1 <1>   0.0800 
 52 H        7.1380    13.4400    -0.3740 H     1 <1>   0.0800 
 53 H        5.0590    14.3850    -1.2440 H     1 <1>   0.0800 
 54 H        4.7480    12.9420    -2.1640 H     1 <1>   0.0800 
@<TRIPOS>BOND
  1   1   2  1   
  2   1   3  1   
  3   2   4  2   
  4   2   5  1   
  5   3   6  2   
  6   3  26  1   
  7   4   6  1   
  8   4  27  1   
  9   5   7  1   
 10   5  28  1   
 11   5  29  1   
 12   6  30  1   
 13   7   8  1   
 14   7   9  1   
 15   8  10  1   
 16   8  31  1   
 17   8  32  1   
 18   9  11  1   
 19   9  33  1   
 20   9  34  1   
 21  10  12  1   
 22  10  35  1   
 23  10  36  1   
 24  11  12  1   
 25  11  37  1   
 26  11  38  1   
 27  12  13  1   
 28  12  39  1   
 29  13  14  1   
 30  13  40  1   
 31  13  41  1   
 32  14  15  ar  
 33  14  16  ar  
 34  15  17  ar  
 35  15  42  1   
 36  16  18  ar  
 37  16  43  1   
 38  17  19  ar  
 39  18  19  ar  
 40  19  20  1   
 41  20  21  1   
 42  20  22  1   
 43  20  44  1   
 44  21  23  1   
 45  21  45  1   
 46  21  46  1   
 47  22  24  1   
 48  22  47  1   
 49  22  48  1   
 50  23  25  1   
 51  23  49  1   
 52  23  50  1   
 53  24  25  1   
 54  24  51  1   
 55  24  52  1   
 56  25  53  1   
 57  25  54  1   
@<TRIPOS>SUBSTRUCTURE
  1 ****  16 GROUP 4 **** **** 0

# MOE 2024.06 (io_trps.svl 2023.06)
