@<TRIPOS>MOLECULE
NONAME
55 58 1 0 0 
SMALL
USER_CHARGES


@<TRIPOS>ATOM
  1 O        0.8890    -0.9310     0.1770 O.3   1 <1>  -0.5600 
  2 C        0.3420    -2.2240     0.2860 C.3   1 <1>   0.2800 
  3 C        0.0900     0.1530     0.5660 C.3   1 <1>   0.1200 
  4 C       -1.0100    -2.2920    -0.4570 C.3   1 <1>  -0.1600 
  5 C        0.2840    -2.6310     1.7730 C.3   1 <1>  -0.1600 
  6 C        1.3480    -3.1630    -0.4080 C.3   1 <1>  -0.1600 
  7 C       -1.1800     0.1980    -0.2830 C.3   1 <1>  -0.1600 
  8 C       -1.9510    -1.1160    -0.1830 C.3   1 <1>   0.2800 
  9 C        1.6420    -2.5250     2.4780 C.3   1 <1>   0.3430 
 10 C        2.6170    -3.4510     0.4040 C.3   1 <1>   0.3430 
 11 O       -2.4360    -1.2350     1.0970 O.3   1 <1>  -0.6800 
 12 C       -3.1670    -1.1360    -1.1060 C.3   1 <1>  -0.2400 
 13 N        2.7530    -2.4460     1.4910 N.4   1 <1>  -0.9590 
 14 C        4.1000    -2.3810     2.1170 C.3   1 <1>   0.4860 
 15 C        5.1370    -2.1230     1.0410 C.ar  1 <1>  -0.1440 
 16 C        5.8920    -3.1870     0.4820 C.ar  1 <1>   0.0000 
 17 C        5.3160    -0.8360     0.6110 C.ar  1 <1>  -0.1500 
 18 C        6.8120    -2.8920    -0.5560 C.ar  1 <1>   0.0000 
 19 C        5.7690    -4.5350     0.9030 C.ar  1 <1>  -0.1500 
 20 C        6.2360    -0.5500    -0.3980 C.ar  1 <1>  -0.1500 
 21 C        6.9690    -1.5470    -0.9770 C.ar  1 <1>  -0.1440 
 22 C        7.5370    -3.9630    -1.1300 C.ar  1 <1>  -0.1500 
 23 C        6.4910    -5.5400     0.3260 C.ar  1 <1>  -0.1500 
 24 C        7.9570    -1.1840    -2.0780 C.3   1 <1>  -0.0970 
 25 C        7.3830    -5.2510    -0.7060 C.ar  1 <1>  -0.1500 
 26 H        0.6640     1.0520     0.4170 H     1 <1>   0.0800 
 27 H       -0.1470     0.0660     1.6110 H     1 <1>   0.0800 
 28 H       -1.5130    -3.2160    -0.2340 H     1 <1>   0.0800 
 29 H       -0.8040    -2.2990    -1.5120 H     1 <1>   0.0800 
 30 H       -0.0550    -3.6490     1.8370 H     1 <1>   0.0800 
 31 H       -0.4320    -2.0490     2.3190 H     1 <1>   0.0800 
 32 H        1.6260    -2.7430    -1.3600 H     1 <1>   0.0800 
 33 H        0.8780    -4.1070    -0.6140 H     1 <1>   0.0800 
 34 H       -0.8970     0.3740    -1.3060 H     1 <1>   0.0800 
 35 H       -1.8010     1.0200     0.0260 H     1 <1>   0.0800 
 36 H        1.7760    -3.3750     3.1280 H     1 <1>   0.0800 
 37 H        1.6480    -1.6330     3.0840 H     1 <1>   0.0800 
 38 H        3.4690    -3.4140    -0.2570 H     1 <1>   0.0800 
 39 H        2.5620    -4.4400     0.8300 H     1 <1>   0.0800 
 40 H       -3.1910    -0.6290     1.2130 H     1 <1>   0.4000 
 41 H       -2.8520    -1.0590    -2.1310 H     1 <1>   0.0800 
 42 H       -3.8210    -0.3090    -0.8980 H     1 <1>   0.0800 
 43 H       -3.7100    -2.0570    -0.9920 H     1 <1>   0.0800 
 44 H        2.5940    -1.5500     0.9900 H     1 <1>   0.4500 
 45 H        4.3160    -3.2910     2.6480 H     1 <1>   0.0800 
 46 H        4.1270    -1.5700     2.8260 H     1 <1>   0.0800 
 47 H        4.7600    -0.0140     1.0270 H     1 <1>   0.1500 
 48 H        5.1010    -4.7980     1.6980 H     1 <1>   0.1500 
 49 H        6.3500     0.4750    -0.7090 H     1 <1>   0.1500 
 50 H        8.2330    -3.7620    -1.9220 H     1 <1>   0.1500 
 51 H        6.3900    -6.5620     0.6530 H     1 <1>   0.1500 
 52 H        8.9520    -1.4720    -1.7900 H     1 <1>   0.0800 
 53 H        7.9580    -0.1250    -2.2660 H     1 <1>   0.0800 
 54 H        7.6940    -1.6860    -2.9920 H     1 <1>   0.0800 
 55 H        7.9460    -6.0530    -1.1550 H     1 <1>   0.1500 
@<TRIPOS>BOND
  1   1   2  1   
  2   1   3  1   
  3   2   4  1   
  4   2   5  1   
  5   2   6  1   
  6   3   7  1   
  7   3  26  1   
  8   3  27  1   
  9   4   8  1   
 10   4  28  1   
 11   4  29  1   
 12   5   9  1   
 13   5  30  1   
 14   5  31  1   
 15   6  10  1   
 16   6  32  1   
 17   6  33  1   
 18   7   8  1   
 19   7  34  1   
 20   7  35  1   
 21   8  11  1   
 22   8  12  1   
 23   9  13  1   
 24   9  36  1   
 25   9  37  1   
 26  10  13  1   
 27  10  38  1   
 28  10  39  1   
 29  11  40  1   
 30  12  41  1   
 31  12  42  1   
 32  12  43  1   
 33  13  14  1   
 34  13  44  1   
 35  14  15  1   
 36  14  45  1   
 37  14  46  1   
 38  15  16  ar  
 39  15  17  ar  
 40  16  18  ar  
 41  16  19  ar  
 42  17  20  ar  
 43  17  47  1   
 44  18  21  ar  
 45  18  22  ar  
 46  19  23  ar  
 47  19  48  1   
 48  20  21  ar  
 49  20  49  1   
 50  21  24  1   
 51  22  25  ar  
 52  22  50  1   
 53  23  25  ar  
 54  23  51  1   
 55  24  52  1   
 56  24  53  1   
 57  24  54  1   
 58  25  55  1   
@<TRIPOS>SUBSTRUCTURE
  1 ****  10 GROUP 4 **** **** 0

# MOE 2024.06 (io_trps.svl 2023.06)
