@<TRIPOS>MOLECULE
F1913-0936
32 34 1 0 0 
SMALL
USER_CHARGES


@<TRIPOS>ATOM
  1 CL       0.5910    -0.2530    -1.3650 Cl    1 <1>  -0.1770 
  2 C        2.2590    -0.3700    -0.8680 C.ar  1 <1>   0.1770 
  3 C        2.9030     0.7570    -0.3920 C.ar  1 <1>  -0.1500 
  4 C        2.9100    -1.5970    -0.9630 C.ar  1 <1>  -0.1500 
  5 C        4.2240     0.6030    -0.0150 C.ar  1 <1>   0.0400 
  6 C        4.2360    -1.7120    -0.5740 C.ar  1 <1>  -0.1500 
  7 S        5.3220     1.8040     0.6220 S.3   1 <1>  -0.0800 
  8 C        4.9110    -0.5960    -0.0910 C.ar  1 <1>   0.2270 
  9 C        6.5920     0.5770     0.7340 C.2   1 <1>   0.4620 
 10 N        6.2330    -0.5820     0.3230 N.2   1 <1>  -0.5650 
 11 N        7.8430     0.9230     1.2010 N.pl3 1 <1>  -0.8220 
 12 C        8.3060     2.3280     1.4070 C.3   1 <1>   0.2090 
 13 C        8.8610    -0.1330     1.4260 C.3   1 <1>   0.2090 
 14 C        9.0370     2.8640     0.1560 C.3   1 <1>   0.3430 
 15 C        9.5980    -0.4440     0.1170 C.3   1 <1>  -0.1600 
 16 N       10.1150     1.9520    -0.3740 N.4   1 <1>  -0.9060 
 17 C        9.5740     0.6760    -0.9270 C.3   1 <1>   0.3430 
 18 H        2.3970     1.7020    -0.3190 H     1 <1>   0.1500 
 19 H        2.3720    -2.4500    -1.3380 H     1 <1>   0.1500 
 20 H        4.7550    -2.6510    -0.6370 H     1 <1>   0.1500 
 21 H        8.9650     2.3670     2.2560 H     1 <1>   0.0800 
 22 H        7.4740     2.9710     1.6350 H     1 <1>   0.0800 
 23 H        8.3850    -1.0270     1.7970 H     1 <1>   0.0800 
 24 H        9.5590     0.1920     2.1790 H     1 <1>   0.0800 
 25 H        9.4660     3.8230     0.4010 H     1 <1>   0.0800 
 26 H        8.3020     3.0290    -0.6150 H     1 <1>   0.0800 
 27 H        9.1170    -1.2990    -0.3230 H     1 <1>   0.0800 
 28 H       10.6080    -0.7410     0.3320 H     1 <1>   0.0800 
 29 H       10.7870     1.7310     0.3680 H     1 <1>   0.4500 
 30 H       10.6290     2.4390    -1.1180 H     1 <1>   0.4500 
 31 H        8.5600     0.8240    -1.2640 H     1 <1>   0.0800 
 32 H       10.1630     0.3670    -1.7760 H     1 <1>   0.0800 
@<TRIPOS>BOND
  1   1   2  1   
  2   2   3  ar  
  3   2   4  ar  
  4   3   5  ar  
  5   3  18  1   
  6   4   6  ar  
  7   4  19  1   
  8   5   7  1   
  9   5   8  ar  
 10   6   8  ar  
 11   6  20  1   
 12   7   9  1   
 13   8  10  1   
 14   9  10  2   
 15   9  11  1   
 16  11  12  1   
 17  11  13  1   
 18  12  14  1   
 19  12  21  1   
 20  12  22  1   
 21  13  15  1   
 22  13  23  1   
 23  13  24  1   
 24  14  16  1   
 25  14  25  1   
 26  14  26  1   
 27  15  17  1   
 28  15  27  1   
 29  15  28  1   
 30  16  17  1   
 31  16  29  1   
 32  16  30  1   
 33  17  31  1   
 34  17  32  1   
@<TRIPOS>SUBSTRUCTURE
  1 ****   9 GROUP 4 **** **** 0

# MOE 2024.06 (io_trps.svl 2023.06)
