@<TRIPOS>MOLECULE
NONAME
48 52 1 0 0 
SMALL
USER_CHARGES


@<TRIPOS>ATOM
  1 S       -0.4450     0.8760    -1.6340 S.3   1 <1>  -0.0800 
  2 C       -0.9650    -0.2690    -2.8470 C.2   1 <1>   0.2280 
  3 C       -1.0670    -0.1870    -0.4070 C.2   1 <1>  -0.1100 
  4 N       -1.5600    -1.2980    -2.3810 N.2   1 <1>  -0.5650 
  5 C       -1.6020    -1.2700    -0.9920 C.2   1 <1>   0.0460 
  6 C       -2.2080    -2.4560    -0.2490 C.3   1 <1>   0.0210 
  7 C       -3.7100    -2.7730    -0.5020 C.3   1 <1>   0.0610 
  8 C       -4.1780    -3.6080     0.6900 C.2   1 <1>   0.5690 
  9 C       -4.5820    -1.4970    -0.6120 C.3   1 <1>   0.4230 
 10 C       -3.9650    -3.4090    -1.9040 C.3   1 <1>  -0.1600 
 11 O       -4.4520    -3.0210     1.7070 O.2   1 <1>  -0.5700 
 12 N       -4.2880    -4.9560     0.5990 N.am  1 <1>  -0.7300 
 13 N       -4.4160    -1.1460    -2.0270 N.4   1 <1>  -0.9060 
 14 C       -6.0930    -1.8000    -0.6260 C.3   1 <1>  -0.1600 
 15 C       -4.8870    -2.4000    -2.5990 C.3   1 <1>   0.4230 
 16 C       -5.2190    -5.7250     1.4480 C.3   1 <1>   0.2840 
 17 C       -6.2880    -2.4760    -1.9910 C.3   1 <1>  -0.1600 
 18 C       -6.6100    -5.5050     0.8770 C.ar  1 <1>  -0.1430 
 19 C       -6.9330    -5.9780    -0.3790 C.ar  1 <1>  -0.1500 
 20 C       -7.5600    -4.7850     1.6180 C.ar  1 <1>  -0.1500 
 21 C       -8.1930    -5.7140    -0.9080 C.ar  1 <1>   0.2270 
 22 C       -8.8180    -4.5410     1.1120 C.ar  1 <1>  -0.1500 
 23 N       -8.6990    -6.0390    -2.1280 N.2   1 <1>  -0.5650 
 24 C       -9.1240    -5.0150    -0.1650 C.ar  1 <1>  -0.1520 
 25 C       -9.9010    -5.5780    -2.1030 C.2   1 <1>   0.0360 
 26 N      -10.2300    -4.9490    -0.9470 N.pl3 1 <1>   0.0330 
 27 H       -0.7520    -0.0190    -3.8740 H     1 <1>   0.1500 
 28 H       -0.9460     0.1120     0.6200 H     1 <1>   0.1500 
 29 H       -1.6220    -3.3300    -0.4710 H     1 <1>   0.0800 
 30 H       -2.0710    -2.2620     0.8020 H     1 <1>   0.0800 
 31 H       -4.3000    -0.7170     0.0780 H     1 <1>   0.0800 
 32 H       -4.4430    -4.3710    -1.8730 H     1 <1>   0.0800 
 33 H       -3.0550    -3.5160    -2.4670 H     1 <1>   0.0800 
 34 H       -4.0030    -5.4490    -0.2470 H     1 <1>   0.3700 
 35 H       -4.9860    -0.3450    -2.3070 H     1 <1>   0.4500 
 36 H       -3.4150    -1.0010    -2.2550 H     1 <1>   0.4500 
 37 H       -6.4230    -2.4250     0.1860 H     1 <1>   0.0800 
 38 H       -6.6490    -0.8800    -0.5740 H     1 <1>   0.0800 
 39 H       -4.8630    -2.4410    -3.6770 H     1 <1>   0.0800 
 40 H       -4.9630    -6.7700     1.4250 H     1 <1>   0.0800 
 41 H       -5.1630    -5.3780     2.4660 H     1 <1>   0.0800 
 42 H       -6.9950    -1.9340    -2.5960 H     1 <1>   0.0800 
 43 H       -6.6290    -3.4940    -1.8990 H     1 <1>   0.0800 
 44 H       -6.2450    -6.5430    -0.9780 H     1 <1>   0.1500 
 45 H       -7.2990    -4.4160     2.5960 H     1 <1>   0.1500 
 46 H       -9.5510    -3.9970     1.6820 H     1 <1>   0.1500 
 47 H      -10.6040    -5.6720    -2.9140 H     1 <1>   0.1500 
 48 H      -11.1300    -4.5270    -0.7020 H     1 <1>   0.2700 
@<TRIPOS>BOND
  1   1   2  1   
  2   1   3  1   
  3   2   4  2   
  4   2  27  1   
  5   3   5  2   
  6   3  28  1   
  7   4   5  1   
  8   5   6  1   
  9   6   7  1   
 10   6  29  1   
 11   6  30  1   
 12   7   8  1   
 13   7   9  1   
 14   7  10  1   
 15   8  11  2   
 16   8  12  am  
 17   9  13  1   
 18   9  14  1   
 19   9  31  1   
 20  10  15  1   
 21  10  32  1   
 22  10  33  1   
 23  12  16  1   
 24  12  34  1   
 25  13  15  1   
 26  13  35  1   
 27  13  36  1   
 28  14  17  1   
 29  14  37  1   
 30  14  38  1   
 31  15  17  1   
 32  15  39  1   
 33  16  18  1   
 34  16  40  1   
 35  16  41  1   
 36  17  42  1   
 37  17  43  1   
 38  18  19  ar  
 39  18  20  ar  
 40  19  21  ar  
 41  19  44  1   
 42  20  22  ar  
 43  20  45  1   
 44  21  23  1   
 45  21  24  ar  
 46  22  24  ar  
 47  22  46  1   
 48  23  25  2   
 49  24  26  1   
 50  25  26  1   
 51  25  47  1   
 52  26  48  1   
@<TRIPOS>SUBSTRUCTURE
  1 ****   7 GROUP 4 **** **** 0

# MOE 2024.06 (io_trps.svl 2023.06)
