@<TRIPOS>MOLECULE
NONAME
46 47 1 0 0 
SMALL
USER_CHARGES


@<TRIPOS>ATOM
  1 CL      -0.0250    -0.0380     0.2780 Cl    1 <1>  -0.1770 
  2 C       -0.1680    -1.7740     0.3580 C.ar  1 <1>   0.1770 
  3 C        0.7060    -2.5610    -0.3650 C.ar  1 <1>  -0.1500 
  4 C       -1.1530    -2.3370     1.1450 C.ar  1 <1>  -0.1500 
  5 C        0.6020    -3.9440    -0.3130 C.ar  1 <1>  -0.1440 
  6 C       -1.2650    -3.7140     1.1980 C.ar  1 <1>  -0.1500 
  7 C       -0.4000    -4.5220     0.4670 C.ar  1 <1>  -0.1430 
  8 C        1.6050    -4.7710    -1.1090 C.3   1 <1>  -0.0960 
  9 C       -0.5850    -6.0270     0.5480 C.3   1 <1>   0.4870 
 10 N       -1.2580    -6.4930    -0.6970 N.4   1 <1>  -0.9590 
 11 C       -2.6760    -6.0160    -0.7580 C.3   1 <1>   0.3430 
 12 C       -1.3030    -7.9850    -0.7340 C.3   1 <1>   0.3430 
 13 C       -3.5200    -7.1660    -0.2010 C.3   1 <1>   0.2000 
 14 C       -2.7850    -8.3960    -0.7320 C.3   1 <1>  -0.0800 
 15 O       -3.4410    -7.1380     1.1890 O.3   1 <1>  -0.6800 
 16 C       -3.0550    -9.7160     0.0270 C.3   1 <1>  -0.0550 
 17 S       -2.1020   -11.0800    -0.6360 S.o2  1 <1>   1.3330 
 18 O       -0.7220   -10.7760    -0.3290 O.2   1 <1>  -0.6500 
 19 O       -2.5010   -11.2580    -2.0120 O.2   1 <1>  -0.6500 
 20 N       -2.6140   -12.4040     0.2880 N.am  1 <1>  -0.8490 
 21 C       -3.7980   -13.0770    -0.2620 C.3   1 <1>   0.1160 
 22 C       -1.5450   -13.3870     0.5040 C.3   1 <1>   0.1160 
 23 H        1.4630    -2.0780    -0.9580 H     1 <1>   0.1500 
 24 H       -1.8150    -1.7000     1.7050 H     1 <1>   0.1500 
 25 H       -2.0320    -4.1480     1.8190 H     1 <1>   0.1500 
 26 H        2.4360    -4.1600    -1.4190 H     1 <1>   0.0800 
 27 H        1.1460    -5.1750    -1.9930 H     1 <1>   0.0800 
 28 H        2.0020    -5.5720    -0.5120 H     1 <1>   0.0800 
 29 H       -1.1800    -6.2810     1.4100 H     1 <1>   0.0800 
 30 H        0.3780    -6.5000     0.6500 H     1 <1>   0.0800 
 31 H       -0.7270    -6.1060    -1.4860 H     1 <1>   0.4500 
 32 H       -2.8330    -5.1080    -0.2010 H     1 <1>   0.0800 
 33 H       -2.9510    -5.8480    -1.7860 H     1 <1>   0.0800 
 34 H       -0.8060    -8.3710    -1.6110 H     1 <1>   0.0800 
 35 H       -0.8150    -8.3900     0.1390 H     1 <1>   0.0800 
 36 H       -4.5540    -7.1040    -0.5000 H     1 <1>   0.0800 
 37 H       -3.0740    -8.5390    -1.7600 H     1 <1>   0.0800 
 38 H       -4.1950    -7.6130     1.6000 H     1 <1>   0.4000 
 39 H       -4.0990    -9.9520    -0.0390 H     1 <1>   0.0800 
 40 H       -2.8060    -9.6030     1.0650 H     1 <1>   0.0800 
 41 H       -4.1280   -13.8530     0.4080 H     1 <1>   0.0800 
 42 H       -3.5720   -13.5150    -1.2210 H     1 <1>   0.0800 
 43 H       -4.6030   -12.3730    -0.3870 H     1 <1>   0.0800 
 44 H       -1.9020   -14.1990     1.1140 H     1 <1>   0.0800 
 45 H       -0.7150   -12.9260     1.0130 H     1 <1>   0.0800 
 46 H       -1.1990   -13.7790    -0.4380 H     1 <1>   0.0800 
@<TRIPOS>BOND
  1   1   2  1   
  2   2   3  ar  
  3   2   4  ar  
  4   3   5  ar  
  5   3  23  1   
  6   4   6  ar  
  7   4  24  1   
  8   5   7  ar  
  9   5   8  1   
 10   6   7  ar  
 11   6  25  1   
 12   7   9  1   
 13   8  26  1   
 14   8  27  1   
 15   8  28  1   
 16   9  10  1   
 17   9  29  1   
 18   9  30  1   
 19  10  11  1   
 20  10  12  1   
 21  10  31  1   
 22  11  13  1   
 23  11  32  1   
 24  11  33  1   
 25  12  14  1   
 26  12  34  1   
 27  12  35  1   
 28  13  14  1   
 29  13  15  1   
 30  13  36  1   
 31  14  16  1   
 32  14  37  1   
 33  15  38  1   
 34  16  17  1   
 35  16  39  1   
 36  16  40  1   
 37  17  18  2   
 38  17  19  2   
 39  17  20  am  
 40  20  21  1   
 41  20  22  1   
 42  21  41  1   
 43  21  42  1   
 44  21  43  1   
 45  22  44  1   
 46  22  45  1   
 47  22  46  1   
@<TRIPOS>SUBSTRUCTURE
  1 ****  10 GROUP 4 **** **** 0

# MOE 2024.06 (io_trps.svl 2023.06)
