@<TRIPOS>MOLECULE
NONAME
48 51 1 0 0 
SMALL
USER_CHARGES


@<TRIPOS>ATOM
  1 S       -1.6840     2.4500    -1.1540 S.3   1 <1>  -0.0800 
  2 C       -0.5140     3.3730    -0.2350 C.2   1 <1>  -0.1400 
  3 C       -0.4240     1.9150    -2.2560 C.2   1 <1>  -0.1100 
  4 C        0.7220     3.2570    -0.7380 C.2   1 <1>  -0.1810 
  5 C       -0.8910     4.1930     0.9680 C.3   1 <1>   0.0200 
  6 C        0.7740     2.4230    -1.9050 C.2   1 <1>  -0.1500 
  7 C        1.9090     3.9680    -0.0830 C.3   1 <1>   0.4610 
  8 C        0.2580     5.1820     1.2230 C.3   1 <1>   0.1200 
  9 O        1.5090     4.5410     1.1500 O.3   1 <1>  -0.5600 
 10 C        3.0130     2.9610     0.2570 C.3   1 <1>  -0.1600 
 11 C        2.4610     5.0750    -0.9930 C.3   1 <1>  -0.1600 
 12 C        4.2450     3.6500     0.8460 C.3   1 <1>   0.1400 
 13 C        3.6950     5.7420    -0.3850 C.3   1 <1>   0.1400 
 14 N        4.7210     4.7000    -0.0990 N.am  1 <1>  -0.6600 
 15 C        6.0150     4.7070    -0.5650 C.2   1 <1>   0.5690 
 16 O        6.8010     3.8390    -0.2620 O.2   1 <1>  -0.5700 
 17 C        6.5260     5.7990    -1.5000 C.3   1 <1>   0.0440 
 18 C        6.6000     7.1800    -0.8520 C.ar  1 <1>  -0.1440 
 19 C        6.1630     8.3020    -1.5400 C.ar  1 <1>  -0.1500 
 20 C        7.1090     7.3300     0.4290 C.ar  1 <1>  -0.1500 
 21 C        6.2250     9.5520    -0.9500 C.ar  1 <1>  -0.1500 
 22 C        7.1700     8.5800     1.0180 C.ar  1 <1>  -0.1500 
 23 C        6.7260     9.7000     0.3330 C.ar  1 <1>  -0.1440 
 24 C        6.7940    11.0750     0.9740 C.3   1 <1>   0.2630 
 25 O        7.7720    11.7940     0.3180 O.3   1 <1>  -0.6800 
 26 H       -0.7180     1.2670    -3.0620 H     1 <1>   0.1500 
 27 H       -1.0290     3.5530     1.8210 H     1 <1>   0.0800 
 28 H       -1.8030     4.7320     0.7870 H     1 <1>   0.0800 
 29 H        1.6990     2.2420    -2.4230 H     1 <1>   0.1500 
 30 H        0.1660     5.6130     2.2040 H     1 <1>   0.0800 
 31 H        0.2370     5.9740     0.4960 H     1 <1>   0.0800 
 32 H        3.3130     2.4320    -0.6270 H     1 <1>   0.0800 
 33 H        2.6290     2.2390     0.9540 H     1 <1>   0.0800 
 34 H        1.7010     5.8070    -1.1870 H     1 <1>   0.0800 
 35 H        2.7360     4.6470    -1.9400 H     1 <1>   0.0800 
 36 H        5.0140     2.9180     1.0270 H     1 <1>   0.0800 
 37 H        3.9960     4.1090     1.7880 H     1 <1>   0.0800 
 38 H        3.4320     6.2350     0.5360 H     1 <1>   0.0800 
 39 H        4.0660     6.4860    -1.0640 H     1 <1>   0.0800 
 40 H        5.8950     5.8220    -2.3670 H     1 <1>   0.0800 
 41 H        7.5120     5.5290    -1.8310 H     1 <1>   0.0800 
 42 H        5.7730     8.2120    -2.5380 H     1 <1>   0.1500 
 43 H        7.4600     6.4700     0.9760 H     1 <1>   0.1500 
 44 H        5.8850    10.4170    -1.4950 H     1 <1>   0.1500 
 45 H        7.5680     8.6730     2.0140 H     1 <1>   0.1500 
 46 H        7.0640    11.0090     2.0140 H     1 <1>   0.0800 
 47 H        5.8610    11.6020     0.8760 H     1 <1>   0.0800 
 48 H        8.4700    11.1720     0.0330 H     1 <1>   0.4000 
@<TRIPOS>BOND
  1   1   2  1   
  2   1   3  1   
  3   2   4  2   
  4   2   5  1   
  5   3   6  2   
  6   3  26  1   
  7   4   6  1   
  8   4   7  1   
  9   5   8  1   
 10   5  27  1   
 11   5  28  1   
 12   6  29  1   
 13   7   9  1   
 14   7  10  1   
 15   7  11  1   
 16   8   9  1   
 17   8  30  1   
 18   8  31  1   
 19  10  12  1   
 20  10  32  1   
 21  10  33  1   
 22  11  13  1   
 23  11  34  1   
 24  11  35  1   
 25  12  14  1   
 26  12  36  1   
 27  12  37  1   
 28  13  14  1   
 29  13  38  1   
 30  13  39  1   
 31  14  15  am  
 32  15  16  2   
 33  15  17  1   
 34  17  18  1   
 35  17  40  1   
 36  17  41  1   
 37  18  19  ar  
 38  18  20  ar  
 39  19  21  ar  
 40  19  42  1   
 41  20  22  ar  
 42  20  43  1   
 43  21  23  ar  
 44  21  44  1   
 45  22  23  ar  
 46  22  45  1   
 47  23  24  1   
 48  24  25  1   
 49  24  46  1   
 50  24  47  1   
 51  25  48  1   
@<TRIPOS>SUBSTRUCTURE
  1 ****  13 GROUP 4 **** **** 0

# MOE 2024.06 (io_trps.svl 2023.06)
