@<TRIPOS>MOLECULE
NONAME
37 39 1 0 0 
SMALL
USER_CHARGES


@<TRIPOS>ATOM
  1 CL       0.8760    -1.3100    -0.8620 Cl    1 <1>  -0.1230 
  2 C       -0.5310    -2.1520    -0.2360 C.2   1 <1>   0.1230 
  3 C       -0.7490    -2.4990     1.0880 C.2   1 <1>   0.1390 
  4 C       -1.6020    -2.5850    -0.9250 C.2   1 <1>  -0.3020 
  5 N       -1.8870    -3.1160     1.2300 N.2   1 <1>  -0.7070 
  6 N       -2.4130    -3.1660    -0.0160 N.pl3 1 <1>   0.3140 
  7 C       -3.7170    -3.8000    -0.2690 C.3   1 <1>   0.0960 
  8 C       -3.6200    -5.3010     0.0230 C.3   1 <1>   0.1100 
  9 N       -4.9220    -5.9780    -0.1600 N.3   1 <1>  -0.8100 
 10 C       -4.7470    -7.4460    -0.2400 C.3   1 <1>   0.1100 
 11 C       -5.8880    -5.6260     0.9170 C.3   1 <1>   0.1100 
 12 C       -6.0740    -8.1420    -0.6370 C.3   1 <1>   0.4230 
 13 C       -7.0480    -6.6400     1.0830 C.3   1 <1>   0.3430 
 14 N       -7.3030    -7.4220    -0.1730 N.4   1 <1>  -0.9590 
 15 C       -6.2400    -9.5500    -0.0880 C.3   1 <1>  -0.1600 
 16 C       -8.3960    -8.4210    -0.0130 C.3   1 <1>   0.3430 
 17 C       -7.7440    -9.7930    -0.1700 C.3   1 <1>  -0.1600 
 18 H       -0.0680    -2.2870     1.8940 H     1 <1>   0.1500 
 19 H       -1.8190    -2.5120    -1.9740 H     1 <1>   0.1500 
 20 H       -3.9930    -3.6380    -1.2930 H     1 <1>   0.0800 
 21 H       -4.4350    -3.3330     0.3770 H     1 <1>   0.0800 
 22 H       -3.2630    -5.4570     1.0290 H     1 <1>   0.0800 
 23 H       -2.9000    -5.7240    -0.6580 H     1 <1>   0.0800 
 24 H       -4.3980    -7.8190     0.7080 H     1 <1>   0.0800 
 25 H       -4.0010    -7.6890    -0.9790 H     1 <1>   0.0800 
 26 H       -6.3070    -4.6590     0.7000 H     1 <1>   0.0800 
 27 H       -5.3770    -5.5460     1.8630 H     1 <1>   0.0800 
 28 H       -6.1090    -8.2010    -1.7130 H     1 <1>   0.0800 
 29 H       -7.9390    -6.1150     1.3860 H     1 <1>   0.0800 
 30 H       -6.7890    -7.3230     1.8750 H     1 <1>   0.0800 
 31 H       -7.5200    -6.7360    -0.9070 H     1 <1>   0.4500 
 32 H       -5.9140    -9.5900     0.9380 H     1 <1>   0.0800 
 33 H       -5.6790   -10.2690    -0.6600 H     1 <1>   0.0800 
 34 H       -9.1580    -8.2810    -0.7630 H     1 <1>   0.0800 
 35 H       -8.8450    -8.3330     0.9640 H     1 <1>   0.0800 
 36 H       -8.0860   -10.4810     0.5840 H     1 <1>   0.0800 
 37 H       -8.0030   -10.1920    -1.1360 H     1 <1>   0.0800 
@<TRIPOS>BOND
  1   1   2  1   
  2   2   3  1   
  3   2   4  2   
  4   3   5  2   
  5   3  18  1   
  6   4   6  1   
  7   4  19  1   
  8   5   6  1   
  9   6   7  1   
 10   7   8  1   
 11   7  20  1   
 12   7  21  1   
 13   8   9  1   
 14   8  22  1   
 15   8  23  1   
 16   9  10  1   
 17   9  11  1   
 18  10  12  1   
 19  10  24  1   
 20  10  25  1   
 21  11  13  1   
 22  11  26  1   
 23  11  27  1   
 24  12  14  1   
 25  12  15  1   
 26  12  28  1   
 27  13  14  1   
 28  13  29  1   
 29  13  30  1   
 30  14  16  1   
 31  14  31  1   
 32  15  17  1   
 33  15  32  1   
 34  15  33  1   
 35  16  17  1   
 36  16  34  1   
 37  16  35  1   
 38  17  36  1   
 39  17  37  1   
@<TRIPOS>SUBSTRUCTURE
  1 ****   8 GROUP 4 **** **** 0

# MOE 2024.06 (io_trps.svl 2023.06)
