@<TRIPOS>MOLECULE
NONAME
54 56 1 0 0 
SMALL
USER_CHARGES


@<TRIPOS>ATOM
  1 O        1.8640    -1.0630    -2.7900 O.2   1 <1>  -0.5700 
  2 C        2.4710    -1.6380    -1.9090 C.2   1 <1>   0.5440 
  3 N        3.5010    -0.9770    -1.2800 N.am  1 <1>  -0.6600 
  4 C        2.0920    -2.9840    -1.5240 C.ar  1 <1>   0.0860 
  5 C        3.9420     0.3970    -1.6650 C.3   1 <1>   0.1400 
  6 C        3.9900    -1.2980     0.0840 C.3   1 <1>   0.1400 
  7 C        0.7710    -3.2940    -1.2150 C.ar  1 <1>  -0.1500 
  8 C        3.0320    -4.0120    -1.4490 C.ar  1 <1>  -0.1500 
  9 C        4.2960     1.0860    -0.3390 C.3   1 <1>   0.4240 
 10 C        4.7900    -0.0720     0.5290 C.3   1 <1>  -0.1600 
 11 C        0.3950    -4.5670    -0.8250 C.ar  1 <1>   0.0830 
 12 C        2.6710    -5.2900    -1.0620 C.ar  1 <1>  -0.1500 
 13 O        3.0840     1.4650     0.2100 O.3   1 <1>  -0.6800 
 14 C        5.3270     2.2410    -0.4650 C.ar  1 <1>  -0.1430 
 15 O       -0.9170    -4.7530    -0.5380 O.3   1 <1>  -0.3630 
 16 C        1.3540    -5.5720    -0.7470 C.ar  1 <1>  -0.1500 
 17 C        5.1850     3.5570     0.0070 C.ar  1 <1>  -0.1430 
 18 C        6.5220     1.9190    -1.1110 C.ar  1 <1>  -0.1500 
 19 C       -1.4130    -6.0240    -0.1720 C.3   1 <1>   0.1200 
 20 C        6.2050     4.4780    -0.1930 C.ar  1 <1>  -0.1500 
 21 C        3.9620     4.0830     0.7530 C.3   1 <1>  -0.0970 
 22 C        7.5300     2.8430    -1.3030 C.ar  1 <1>  -0.1500 
 23 C       -2.9160    -5.9120     0.0540 C.3   1 <1>   0.1200 
 24 C        7.3710     4.1310    -0.8430 C.ar  1 <1>  -0.1500 
 25 O       -3.3940    -7.1650     0.4280 O.3   1 <1>  -0.5600 
 26 C       -4.7610    -7.1970     0.6650 C.3   1 <1>   0.1200 
 27 C       -5.1230    -8.6230     1.0610 C.3   1 <1>  -0.2400 
 28 H        3.1770     0.9410    -2.1910 H     1 <1>   0.0800 
 29 H        4.7990     0.3100    -2.3050 H     1 <1>   0.0800 
 30 H        4.6100    -2.1790     0.0720 H     1 <1>   0.0800 
 31 H        3.1500    -1.4580     0.7390 H     1 <1>   0.0800 
 32 H        0.0220    -2.5250    -1.2830 H     1 <1>   0.1500 
 33 H        4.0560    -3.8020    -1.7030 H     1 <1>   0.1500 
 34 H        5.8290    -0.2610     0.3410 H     1 <1>   0.0800 
 35 H        4.6760     0.1350     1.5780 H     1 <1>   0.0800 
 36 H        3.4130    -6.0680    -1.0100 H     1 <1>   0.1500 
 37 H        2.4290     0.7840    -0.0390 H     1 <1>   0.4000 
 38 H        1.0970    -6.5710    -0.4480 H     1 <1>   0.1500 
 39 H        6.6950     0.9240    -1.4800 H     1 <1>   0.1500 
 40 H       -0.9230    -6.3320     0.7350 H     1 <1>   0.0800 
 41 H       -1.2090    -6.7130    -0.9720 H     1 <1>   0.0800 
 42 H        6.1000     5.4880     0.1610 H     1 <1>   0.1500 
 43 H        3.7830     3.4890     1.6300 H     1 <1>   0.0800 
 44 H        3.0980     4.0440     0.1150 H     1 <1>   0.0800 
 45 H        4.0950     5.1010     1.0680 H     1 <1>   0.0800 
 46 H        8.4370     2.5590    -1.8080 H     1 <1>   0.1500 
 47 H       -3.4070    -5.6120    -0.8560 H     1 <1>   0.0800 
 48 H       -3.1220    -5.2130     0.8460 H     1 <1>   0.0800 
 49 H        8.1490     4.8600    -0.9880 H     1 <1>   0.1500 
 50 H       -5.2780    -6.9090    -0.2340 H     1 <1>   0.0800 
 51 H       -4.9930    -6.5110     1.4630 H     1 <1>   0.0800 
 52 H       -4.8740    -9.3010     0.2640 H     1 <1>   0.0800 
 53 H       -6.1780    -8.6920     1.2540 H     1 <1>   0.0800 
 54 H       -4.5900    -8.9050     1.9510 H     1 <1>   0.0800 
@<TRIPOS>BOND
  1   1   2  2   
  2   2   3  am  
  3   2   4  1   
  4   3   5  1   
  5   3   6  1   
  6   4   7  ar  
  7   4   8  ar  
  8   5   9  1   
  9   5  28  1   
 10   5  29  1   
 11   6  10  1   
 12   6  30  1   
 13   6  31  1   
 14   7  11  ar  
 15   7  32  1   
 16   8  12  ar  
 17   8  33  1   
 18   9  10  1   
 19   9  13  1   
 20   9  14  1   
 21  10  34  1   
 22  10  35  1   
 23  11  15  1   
 24  11  16  ar  
 25  12  16  ar  
 26  12  36  1   
 27  13  37  1   
 28  14  17  ar  
 29  14  18  ar  
 30  15  19  1   
 31  16  38  1   
 32  17  20  ar  
 33  17  21  1   
 34  18  22  ar  
 35  18  39  1   
 36  19  23  1   
 37  19  40  1   
 38  19  41  1   
 39  20  24  ar  
 40  20  42  1   
 41  21  43  1   
 42  21  44  1   
 43  21  45  1   
 44  22  24  ar  
 45  22  46  1   
 46  23  25  1   
 47  23  47  1   
 48  23  48  1   
 49  24  49  1   
 50  25  26  1   
 51  26  27  1   
 52  26  50  1   
 53  26  51  1   
 54  27  52  1   
 55  27  53  1   
 56  27  54  1   
@<TRIPOS>SUBSTRUCTURE
  1 ****   2 GROUP 4 **** **** 0

# MOE 2024.06 (io_trps.svl 2023.06)
