@<TRIPOS>MOLECULE
NONAME
39 42 1 0 0 
SMALL
USER_CHARGES


@<TRIPOS>ATOM
  1 S        1.3490     0.0580     1.2070 S.3   1 <1>  -0.0800 
  2 C        0.7910    -1.2700     2.2000 C.2   1 <1>   0.4620 
  3 C        0.9760    -0.8840    -0.2020 C.2   1 <1>  -0.1100 
  4 N        0.3770    -2.2830     1.5440 N.2   1 <1>  -0.5650 
  5 N        0.8370    -1.1430     3.5470 N.pl3 1 <1>  -0.8840 
  6 C        0.4690    -2.0870     0.1540 C.2   1 <1>   0.1410 
  7 C        0.0770    -3.1100    -0.8190 C.2   1 <1>   0.7160 
  8 O        0.5740    -3.0650    -1.9320 O.2   1 <1>  -0.5700 
  9 N       -0.8370    -4.1210    -0.5650 N.am  1 <1>  -0.6600 
 10 C       -1.7760    -4.0930     0.5960 C.3   1 <1>   0.1400 
 11 C       -0.9390    -5.2900    -1.4910 C.3   1 <1>   0.1400 
 12 C       -3.0820    -4.8140     0.2560 C.3   1 <1>  -0.1600 
 13 C       -1.4410    -6.5140    -0.7290 C.3   1 <1>  -0.1600 
 14 C       -2.8540    -6.2740    -0.1810 C.3   1 <1>   0.4600 
 15 O       -3.7270    -6.5390    -1.2610 O.3   1 <1>  -0.5600 
 16 C       -3.1740    -7.2540     0.9450 C.2   1 <1>  -0.1400 
 17 C       -5.0720    -6.8300    -0.9600 C.3   1 <1>   0.1200 
 18 S       -2.2030    -7.3820     2.4050 S.3   1 <1>  -0.0800 
 19 C       -4.2060    -8.1070     0.9880 C.2   1 <1>  -0.1810 
 20 C       -5.1920    -8.1410    -0.1580 C.3   1 <1>   0.0210 
 21 C       -3.2520    -8.6470     3.0300 C.2   1 <1>  -0.1100 
 22 C       -4.2540    -8.9120     2.1690 C.2   1 <1>  -0.1500 
 23 H        1.1740    -0.4580    -1.1690 H     1 <1>   0.1500 
 24 H        0.6110    -1.9490     4.1300 H     1 <1>   0.4000 
 25 H        1.2940    -0.3510     3.9990 H     1 <1>   0.4000 
 26 H       -2.0000    -3.0740     0.8610 H     1 <1>   0.0800 
 27 H       -1.3040    -4.5650     1.4410 H     1 <1>   0.0800 
 28 H        0.0280    -5.5030    -1.9160 H     1 <1>   0.0800 
 29 H       -1.6160    -5.0510    -2.2940 H     1 <1>   0.0800 
 30 H       -3.5610    -4.2660    -0.5360 H     1 <1>   0.0800 
 31 H       -3.7290    -4.7890     1.1140 H     1 <1>   0.0800 
 32 H       -0.7520    -6.7090     0.0720 H     1 <1>   0.0800 
 33 H       -1.4450    -7.3780    -1.3670 H     1 <1>   0.0800 
 34 H       -5.6060    -6.9130    -1.8910 H     1 <1>   0.0800 
 35 H       -5.4800    -6.0070    -0.3990 H     1 <1>   0.0800 
 36 H       -4.9830    -8.9810    -0.7950 H     1 <1>   0.0800 
 37 H       -6.1950    -8.2370     0.2190 H     1 <1>   0.0800 
 38 H       -3.0040    -9.0650     3.9900 H     1 <1>   0.1500 
 39 H       -5.0290    -9.6440     2.3150 H     1 <1>   0.1500 
@<TRIPOS>BOND
  1   1   2  1   
  2   1   3  1   
  3   2   4  2   
  4   2   5  1   
  5   3   6  2   
  6   3  23  1   
  7   4   6  1   
  8   5  24  1   
  9   5  25  1   
 10   6   7  1   
 11   7   8  2   
 12   7   9  am  
 13   9  10  1   
 14   9  11  1   
 15  10  12  1   
 16  10  26  1   
 17  10  27  1   
 18  11  13  1   
 19  11  28  1   
 20  11  29  1   
 21  12  14  1   
 22  12  30  1   
 23  12  31  1   
 24  13  14  1   
 25  13  32  1   
 26  13  33  1   
 27  14  15  1   
 28  14  16  1   
 29  15  17  1   
 30  16  18  1   
 31  16  19  2   
 32  17  20  1   
 33  17  34  1   
 34  17  35  1   
 35  18  21  1   
 36  19  20  1   
 37  19  22  1   
 38  20  36  1   
 39  20  37  1   
 40  21  22  2   
 41  21  38  1   
 42  22  39  1   
@<TRIPOS>SUBSTRUCTURE
  1 ****  10 GROUP 4 **** **** 0

# MOE 2024.06 (io_trps.svl 2023.06)
