@<TRIPOS>MOLECULE
NONAME
44 46 1 0 0 
SMALL
USER_CHARGES


@<TRIPOS>ATOM
  1 O        0.0250     0.9390    -0.0320 O.2   1 <1>  -0.5700 
  2 C       -0.5920     1.9380     0.2600 C.2   1 <1>   0.5690 
  3 N       -1.9630     1.9470     0.2790 N.am  1 <1>  -0.6600 
  4 C        0.1880     3.1950     0.6080 C.3   1 <1>  -0.0990 
  5 C       -2.8150     3.1260     0.6330 C.3   1 <1>   0.1400 
  6 C       -2.7190     0.7020    -0.0630 C.3   1 <1>   0.1400 
  7 C        1.6980     3.0130     0.4800 C.3   1 <1>   0.1200 
  8 C       -3.7550     3.5050    -0.5350 C.3   1 <1>   0.1440 
  9 C       -4.1950     0.9850    -0.3930 C.3   1 <1>  -0.1600 
 10 O        2.3000     4.2310     0.7780 O.3   1 <1>  -0.5600 
 11 C       -4.8330     4.4130     0.0350 C.ar  1 <1>   0.1670 
 12 C       -4.3360     2.2540    -1.2480 C.3   1 <1>  -0.1600 
 13 C       -3.0490     4.4450    -1.5470 C.3   1 <1>  -0.1600 
 14 C        3.6880     4.1990     0.7090 C.3   1 <1>   0.0400 
 15 N       -5.8550     4.0230     0.7660 N.ar  1 <1>  -0.6200 
 16 C       -4.6090     5.7190    -0.2840 C.ar  1 <1>  -0.1430 
 17 C       -3.3610     5.8880    -1.1140 C.3   1 <1>  -0.0170 
 18 C       -6.6560     5.0050     1.1560 C.ar  1 <1>   0.4770 
 19 C       -5.5020     6.6540     0.1760 C.ar  1 <1>   0.1600 
 20 N       -6.5410     6.3020     0.9040 N.ar  1 <1>  -0.6200 
 21 C       -7.8490     4.5990     1.9870 C.3   1 <1>  -0.0970 
 22 H       -0.0410     3.4700     1.6200 H     1 <1>   0.0800 
 23 H       -0.1150     3.9830    -0.0540 H     1 <1>   0.0800 
 24 H       -2.2260     3.9770     0.9170 H     1 <1>   0.0800 
 25 H       -3.4110     2.8580     1.4890 H     1 <1>   0.0800 
 26 H       -2.6520     0.0090     0.7580 H     1 <1>   0.0800 
 27 H       -2.2510     0.2440    -0.9190 H     1 <1>   0.0800 
 28 H        1.9610     2.7290    -0.5250 H     1 <1>   0.0800 
 29 H        2.0490     2.2670     1.1740 H     1 <1>   0.0800 
 30 H       -4.7530     1.0990     0.5210 H     1 <1>   0.0800 
 31 H       -4.6070     0.1410    -0.9160 H     1 <1>   0.0800 
 32 H       -3.8050     2.0800    -2.1670 H     1 <1>   0.0800 
 33 H       -5.3710     2.4170    -1.4970 H     1 <1>   0.0800 
 34 H       -3.4760     4.3030    -2.5250 H     1 <1>   0.0800 
 35 H       -1.9920     4.2590    -1.6120 H     1 <1>   0.0800 
 36 H        4.0590     5.1790     0.9520 H     1 <1>   0.0800 
 37 H        3.9890     3.9340    -0.2900 H     1 <1>   0.0800 
 38 H        4.0630     3.4830     1.4200 H     1 <1>   0.0800 
 39 H       -3.5280     6.5290    -1.9620 H     1 <1>   0.0800 
 40 H       -2.5690     6.2850    -0.5030 H     1 <1>   0.0800 
 41 H       -5.3670     7.6980    -0.0520 H     1 <1>   0.1500 
 42 H       -7.6770     3.6430     2.4460 H     1 <1>   0.0800 
 43 H       -8.7140     4.5370     1.3550 H     1 <1>   0.0800 
 44 H       -8.0240     5.3290     2.7550 H     1 <1>   0.0800 
@<TRIPOS>BOND
  1   1   2  2   
  2   2   3  am  
  3   2   4  1   
  4   3   5  1   
  5   3   6  1   
  6   4   7  1   
  7   4  22  1   
  8   4  23  1   
  9   5   8  1   
 10   5  24  1   
 11   5  25  1   
 12   6   9  1   
 13   6  26  1   
 14   6  27  1   
 15   7  10  1   
 16   7  28  1   
 17   7  29  1   
 18   8  11  1   
 19   8  12  1   
 20   8  13  1   
 21   9  12  1   
 22   9  30  1   
 23   9  31  1   
 24  10  14  1   
 25  11  15  ar  
 26  11  16  ar  
 27  12  32  1   
 28  12  33  1   
 29  13  17  1   
 30  13  34  1   
 31  13  35  1   
 32  14  36  1   
 33  14  37  1   
 34  14  38  1   
 35  15  18  ar  
 36  16  17  1   
 37  16  19  ar  
 38  17  39  1   
 39  17  40  1   
 40  18  20  ar  
 41  18  21  1   
 42  19  20  ar  
 43  19  41  1   
 44  21  42  1   
 45  21  43  1   
 46  21  44  1   
@<TRIPOS>SUBSTRUCTURE
  1 ****   5 GROUP 4 **** **** 0

# MOE 2024.06 (io_trps.svl 2023.06)
