@<TRIPOS>MOLECULE
NONAME
56 60 1 0 0 
SMALL
USER_CHARGES


@<TRIPOS>ATOM
  1 S       -0.8780    -0.9000     1.6780 S.3   1 <1>  -0.0800 
  2 C       -0.3140    -2.0500     0.4590 C.2   1 <1>  -0.0450 
  3 C       -2.4000    -0.6540     0.8530 C.2   1 <1>  -0.1100 
  4 C        0.9900    -2.6460     0.6130 C.2   1 <1>   0.7150 
  5 C       -1.2830    -2.1840    -0.4850 C.2   1 <1>  -0.1500 
  6 C       -2.4540    -1.4000    -0.2640 C.2   1 <1>  -0.1500 
  7 O        1.7200    -2.3790     1.5480 O.2   1 <1>  -0.5700 
  8 N        1.4320    -3.5510    -0.3110 N.am  1 <1>  -0.7300 
  9 C        2.7590    -4.2060    -0.2890 C.3   1 <1>   0.1400 
 10 C        2.6940    -5.5040     0.5290 C.3   1 <1>  -0.0800 
 11 C        1.9000    -6.5970    -0.2030 C.3   1 <1>   0.2000 
 12 C        4.0460    -6.2280     0.7240 C.3   1 <1>  -0.0800 
 13 O        2.8990    -7.1860    -0.9480 O.3   1 <1>  -0.5600 
 14 C        1.5220    -7.7430     0.7460 C.3   1 <1>  -0.1600 
 15 C        3.7670    -7.5720     0.0580 C.3   1 <1>   0.2800 
 16 C        5.2980    -5.7180    -0.0060 C.3   1 <1>   0.1400 
 17 C        2.8650    -8.4610     0.9140 C.3   1 <1>  -0.1600 
 18 C        5.1040    -8.1040    -0.4580 C.3   1 <1>   0.1400 
 19 N        6.0320    -6.9380    -0.4220 N.am  1 <1>  -0.6600 
 20 C        7.4010    -7.0800    -0.3930 C.2   1 <1>   0.5440 
 21 O        7.8670    -8.2020    -0.3190 O.2   1 <1>  -0.5700 
 22 C        8.2800    -5.9370    -0.4250 C.ar  1 <1>   0.0860 
 23 C        9.3790    -5.8680     0.4260 C.ar  1 <1>   0.1600 
 24 C        8.0860    -4.8600    -1.2850 C.ar  1 <1>  -0.1500 
 25 N       10.2280    -4.8600     0.5210 N.ar  1 <1>  -0.6200 
 26 C        8.9610    -3.8050    -1.2040 C.ar  1 <1>  -0.1500 
 27 C       10.0100    -3.8250    -0.2860 C.ar  1 <1>   0.4100 
 28 N       10.8710    -2.7510    -0.1880 N.pl3 1 <1>  -0.8380 
 29 C       10.3500    -1.3660    -0.0510 C.3   1 <1>   0.1290 
 30 C       12.2600    -2.9520     0.3090 C.3   1 <1>   0.1290 
 31 H       -3.1010     0.0320     1.2950 H     1 <1>   0.1500 
 32 H       -1.2180    -2.8190    -1.3500 H     1 <1>   0.1500 
 33 H       -3.2830    -1.4310    -0.9510 H     1 <1>   0.1500 
 34 H        0.8260    -3.7780    -1.0980 H     1 <1>   0.3700 
 35 H        3.0650    -4.4130    -1.3000 H     1 <1>   0.0800 
 36 H        3.4750    -3.5350     0.1560 H     1 <1>   0.0800 
 37 H        2.2520    -5.2860     1.4860 H     1 <1>   0.0800 
 38 H        1.0960    -6.2480    -0.8280 H     1 <1>   0.0800 
 39 H        4.2770    -6.3630     1.7650 H     1 <1>   0.0800 
 40 H        1.1230    -7.3780     1.6760 H     1 <1>   0.0800 
 41 H        0.7990    -8.3860     0.2750 H     1 <1>   0.0800 
 42 H        5.8960    -5.0980     0.6400 H     1 <1>   0.0800 
 43 H        5.0460    -5.1740    -0.8980 H     1 <1>   0.0800 
 44 H        2.8270    -9.4550     0.5030 H     1 <1>   0.0800 
 45 H        3.1930    -8.5030     1.9370 H     1 <1>   0.0800 
 46 H        5.0080    -8.4900    -1.4570 H     1 <1>   0.0800 
 47 H        5.4750    -8.8730     0.1970 H     1 <1>   0.0800 
 48 H        9.5550    -6.7100     1.0740 H     1 <1>   0.1500 
 49 H        7.2770    -4.8660    -1.9930 H     1 <1>   0.1500 
 50 H        8.8590    -2.9550    -1.8510 H     1 <1>   0.1500 
 51 H       10.7480    -0.7510    -0.8400 H     1 <1>   0.0800 
 52 H       10.6450    -0.9570     0.8990 H     1 <1>   0.0800 
 53 H        9.2750    -1.3570    -0.1060 H     1 <1>   0.0800 
 54 H       12.9110    -2.1980    -0.0980 H     1 <1>   0.0800 
 55 H       12.6230    -3.9200     0.0060 H     1 <1>   0.0800 
 56 H       12.2730    -2.8970     1.3830 H     1 <1>   0.0800 
@<TRIPOS>BOND
  1   1   2  1   
  2   1   3  1   
  3   2   4  1   
  4   2   5  2   
  5   3   6  2   
  6   3  31  1   
  7   4   7  2   
  8   4   8  am  
  9   5   6  1   
 10   5  32  1   
 11   6  33  1   
 12   8   9  1   
 13   8  34  1   
 14   9  10  1   
 15   9  35  1   
 16   9  36  1   
 17  10  11  1   
 18  10  12  1   
 19  10  37  1   
 20  11  13  1   
 21  11  14  1   
 22  11  38  1   
 23  12  15  1   
 24  12  16  1   
 25  12  39  1   
 26  13  15  1   
 27  14  17  1   
 28  14  40  1   
 29  14  41  1   
 30  15  17  1   
 31  15  18  1   
 32  16  19  1   
 33  16  42  1   
 34  16  43  1   
 35  17  44  1   
 36  17  45  1   
 37  18  19  1   
 38  18  46  1   
 39  18  47  1   
 40  19  20  am  
 41  20  21  2   
 42  20  22  1   
 43  22  23  ar  
 44  22  24  ar  
 45  23  25  ar  
 46  23  48  1   
 47  24  26  ar  
 48  24  49  1   
 49  25  27  ar  
 50  26  27  ar  
 51  26  50  1   
 52  27  28  1   
 53  28  29  1   
 54  28  30  1   
 55  29  51  1   
 56  29  52  1   
 57  29  53  1   
 58  30  54  1   
 59  30  55  1   
 60  30  56  1   
@<TRIPOS>SUBSTRUCTURE
  1 ****  16 GROUP 4 **** **** 0

# MOE 2024.06 (io_trps.svl 2023.06)
