@<TRIPOS>MOLECULE
NONAME
45 46 1 0 0 
SMALL
USER_CHARGES


@<TRIPOS>ATOM
  1 S       -0.8850    -0.3470    -1.0020 S.o2  1 <1>   1.3330 
  2 O       -2.3000    -0.4980    -1.2430 O.2   1 <1>  -0.6500 
  3 O       -0.0410     0.2990    -1.9750 O.2   1 <1>  -0.6500 
  4 N       -0.2680    -1.9460    -0.7730 N.am  1 <1>  -0.6930 
  5 C       -0.6640     0.3970     0.6000 C.3   1 <1>  -0.1350 
  6 C        0.9650    -2.1720    -0.1700 C.ar  1 <1>   0.1990 
  7 C       -0.6740    -2.9210    -1.8340 C.3   1 <1>   0.2570 
  8 C        2.1290    -1.5630    -0.6260 C.ar  1 <1>  -0.1500 
  9 C        1.0450    -3.0330     0.9220 C.ar  1 <1>  -0.1500 
 10 C       -0.9940    -4.3310    -1.3190 C.2   1 <1>   0.5690 
 11 C        3.3180    -1.8180     0.0240 C.ar  1 <1>   0.1900 
 12 C        2.2490    -3.2810     1.5620 C.ar  1 <1>  -0.1500 
 13 O       -0.1600    -5.1880    -1.5070 O.2   1 <1>  -0.5700 
 14 N       -2.1860    -4.6240    -0.6930 N.am  1 <1>  -0.6600 
 15 F        4.4060    -1.2370    -0.4050 F     1 <1>  -0.1900 
 16 C        3.4060    -2.6650     1.1120 C.ar  1 <1>  -0.1500 
 17 C       -2.5280    -6.0540    -0.3980 C.3   1 <1>   0.1400 
 18 C       -3.1990    -3.5860    -0.3330 C.3   1 <1>   0.1400 
 19 C       -4.0500    -6.2580    -0.3560 C.3   1 <1>  -0.0800 
 20 C       -3.9890    -4.0090     0.9060 C.3   1 <1>  -0.1600 
 21 C       -4.6920    -5.3630     0.7250 C.3   1 <1>   0.2000 
 22 C       -4.4350    -7.7380    -0.1940 C.3   1 <1>   0.1200 
 23 O       -4.6670    -5.9980     1.9530 O.3   1 <1>  -0.6800 
 24 O       -3.9500    -8.4690    -1.2670 O.3   1 <1>  -0.6800 
 25 H       -1.1800    -0.1730     1.3470 H     1 <1>   0.0800 
 26 H       -1.0550     1.3950     0.5980 H     1 <1>   0.0800 
 27 H        0.3780     0.4380     0.8520 H     1 <1>   0.0800 
 28 H       -1.5340    -2.5580    -2.3660 H     1 <1>   0.0800 
 29 H        0.1270    -3.0000    -2.5480 H     1 <1>   0.0800 
 30 H        2.1170    -0.9050    -1.4760 H     1 <1>   0.1500 
 31 H        0.1500    -3.5190     1.2670 H     1 <1>   0.1500 
 32 H        2.2870    -3.9530     2.4020 H     1 <1>   0.1500 
 33 H        4.3540    -2.8390     1.5880 H     1 <1>   0.1500 
 34 H       -2.1010    -6.6870    -1.1580 H     1 <1>   0.0800 
 35 H       -2.0910    -6.3340     0.5450 H     1 <1>   0.0800 
 36 H       -2.7130    -2.6540    -0.1170 H     1 <1>   0.0800 
 37 H       -3.8670    -3.4360    -1.1650 H     1 <1>   0.0800 
 38 H       -4.4390    -5.9340    -1.3050 H     1 <1>   0.0800 
 39 H       -4.7270    -3.2580     1.1230 H     1 <1>   0.0800 
 40 H       -3.3010    -4.0410     1.7330 H     1 <1>   0.0800 
 41 H       -5.7280    -5.2060     0.4760 H     1 <1>   0.0800 
 42 H       -5.5050    -7.8600    -0.1560 H     1 <1>   0.0800 
 43 H       -4.0060    -8.1530     0.7030 H     1 <1>   0.0800 
 44 H       -3.7470    -6.0890     2.2660 H     1 <1>   0.4000 
 45 H       -4.4160    -8.2320    -2.0920 H     1 <1>   0.4000 
@<TRIPOS>BOND
  1   1   2  2   
  2   1   3  2   
  3   1   4  am  
  4   1   5  1   
  5   4   6  1   
  6   4   7  1   
  7   5  25  1   
  8   5  26  1   
  9   5  27  1   
 10   6   8  ar  
 11   6   9  ar  
 12   7  10  1   
 13   7  28  1   
 14   7  29  1   
 15   8  11  ar  
 16   8  30  1   
 17   9  12  ar  
 18   9  31  1   
 19  10  13  2   
 20  10  14  am  
 21  11  15  1   
 22  11  16  ar  
 23  12  16  ar  
 24  12  32  1   
 25  14  17  1   
 26  14  18  1   
 27  16  33  1   
 28  17  19  1   
 29  17  34  1   
 30  17  35  1   
 31  18  20  1   
 32  18  36  1   
 33  18  37  1   
 34  19  21  1   
 35  19  22  1   
 36  19  38  1   
 37  20  21  1   
 38  20  39  1   
 39  20  40  1   
 40  21  23  1   
 41  21  41  1   
 42  22  24  1   
 43  22  42  1   
 44  22  43  1   
 45  23  44  1   
 46  24  45  1   
@<TRIPOS>SUBSTRUCTURE
  1 ****  10 GROUP 4 **** **** 0

# MOE 2024.06 (io_trps.svl 2023.06)
