@<TRIPOS>MOLECULE
NONAME
56 58 1 0 0 
SMALL
USER_CHARGES


@<TRIPOS>ATOM
  1 O       -1.8640     0.4870     2.2730 O.2   1 <1>  -0.5700 
  2 C       -1.9200     0.8520     1.1140 C.2   1 <1>   0.5440 
  3 N       -2.0810    -0.0870     0.1200 N.am  1 <1>  -0.6600 
  4 C       -1.8800     2.2630     0.8280 C.ar  1 <1>   0.0860 
  5 C       -2.0870    -1.5590     0.4260 C.3   1 <1>   0.3640 
  6 C       -2.3750     0.2900    -1.2990 C.3   1 <1>   0.1400 
  7 C       -0.8160     2.8540     0.1360 C.ar  1 <1>   0.3920 
  8 C       -2.9140     3.0920     1.2430 C.ar  1 <1>  -0.1500 
  9 C       -0.7440    -2.2290     0.0800 C.ar  1 <1>  -0.1440 
 10 C       -3.2870    -2.2690    -0.2830 C.3   1 <1>   0.2000 
 11 C       -2.7180    -0.9280    -2.1690 C.3   1 <1>   0.1200 
 12 O        0.2070     2.0580    -0.2420 O.3   1 <1>  -0.3630 
 13 N       -0.7330     4.1430    -0.1850 N.ar  1 <1>  -0.6200 
 14 C       -2.8360     4.4270     0.9290 C.ar  1 <1>  -0.1500 
 15 C       -0.5710    -3.5670     0.4180 C.ar  1 <1>  -0.1500 
 16 C        0.3140    -1.5670    -0.5380 C.ar  1 <1>  -0.1500 
 17 O       -3.6740    -1.7090    -1.5220 O.3   1 <1>  -0.5600 
 18 C       -4.5350    -2.2590     0.6060 C.3   1 <1>   0.1200 
 19 C        1.3740     2.5700    -0.8570 C.3   1 <1>   0.0400 
 20 C       -1.7440     4.9020     0.2200 C.ar  1 <1>   0.3930 
 21 C        0.6020    -4.2400     0.1240 C.ar  1 <1>   0.0830 
 22 C        1.4990    -2.2240    -0.8190 C.ar  1 <1>  -0.1500 
 23 O       -4.3790    -3.1470     1.6670 O.3   1 <1>  -0.6800 
 24 O       -1.7270     6.2170    -0.0650 O.3   1 <1>  -0.3630 
 25 O        0.6590    -5.5570     0.4440 O.3   1 <1>  -0.3630 
 26 C        1.6590    -3.5550    -0.4810 C.ar  1 <1>   0.0830 
 27 C       -0.6480     6.8070    -0.7630 C.3   1 <1>   0.0400 
 28 C        0.7970    -6.4610    -0.6300 C.3   1 <1>   0.0400 
 29 O        2.8570    -4.1300    -0.7480 O.3   1 <1>  -0.3630 
 30 C        3.6300    -4.4980     0.3730 C.3   1 <1>   0.0400 
 31 H       -2.2150    -1.7000     1.4860 H     1 <1>   0.0800 
 32 H       -3.2090     0.9710    -1.3170 H     1 <1>   0.0800 
 33 H       -1.5250     0.7930    -1.7250 H     1 <1>   0.0800 
 34 H       -3.7440     2.6880     1.7970 H     1 <1>   0.1500 
 35 H       -3.0320    -3.2920    -0.4880 H     1 <1>   0.0800 
 36 H       -1.8480    -1.5310    -2.3640 H     1 <1>   0.0800 
 37 H       -3.1320    -0.6100    -3.1090 H     1 <1>   0.0800 
 38 H       -3.6080     5.1140     1.2240 H     1 <1>   0.1500 
 39 H       -1.3530    -4.1090     0.9190 H     1 <1>   0.1500 
 40 H        0.2380    -0.5280    -0.7980 H     1 <1>   0.1500 
 41 H       -5.4040    -2.5580     0.0460 H     1 <1>   0.0800 
 42 H       -4.6900    -1.2750     1.0170 H     1 <1>   0.0800 
 43 H        2.0490     1.7530    -1.0330 H     1 <1>   0.0800 
 44 H        1.8270     3.2880    -0.1960 H     1 <1>   0.0800 
 45 H        1.1020     3.0360    -1.7880 H     1 <1>   0.0800 
 46 H        2.3110    -1.7020    -1.2920 H     1 <1>   0.1500 
 47 H       -4.5080    -4.0690     1.3700 H     1 <1>   0.4000 
 48 H       -0.8490     7.8570    -0.8720 H     1 <1>   0.0800 
 49 H       -0.5650     6.3430    -1.7300 H     1 <1>   0.0800 
 50 H        0.2540     6.6600    -0.1960 H     1 <1>   0.0800 
 51 H        0.6860    -7.4580    -0.2460 H     1 <1>   0.0800 
 52 H        1.7700    -6.3460    -1.0710 H     1 <1>   0.0800 
 53 H        0.0310    -6.2570    -1.3570 H     1 <1>   0.0800 
 54 H        4.5830    -4.8510     0.0230 H     1 <1>   0.0800 
 55 H        3.1260    -5.2780     0.9140 H     1 <1>   0.0800 
 56 H        3.7630    -3.6350     1.0010 H     1 <1>   0.0800 
@<TRIPOS>BOND
  1   1   2  2   
  2   2   3  am  
  3   2   4  1   
  4   3   5  1   
  5   3   6  1   
  6   4   7  ar  
  7   4   8  ar  
  8   5   9  1   
  9   5  10  1   
 10   5  31  1   
 11   6  11  1   
 12   6  32  1   
 13   6  33  1   
 14   7  12  1   
 15   7  13  ar  
 16   8  14  ar  
 17   8  34  1   
 18   9  15  ar  
 19   9  16  ar  
 20  10  17  1   
 21  10  18  1   
 22  10  35  1   
 23  11  17  1   
 24  11  36  1   
 25  11  37  1   
 26  12  19  1   
 27  13  20  ar  
 28  14  20  ar  
 29  14  38  1   
 30  15  21  ar  
 31  15  39  1   
 32  16  22  ar  
 33  16  40  1   
 34  18  23  1   
 35  18  41  1   
 36  18  42  1   
 37  19  43  1   
 38  19  44  1   
 39  19  45  1   
 40  20  24  1   
 41  21  25  1   
 42  21  26  ar  
 43  22  26  ar  
 44  22  46  1   
 45  23  47  1   
 46  24  27  1   
 47  25  28  1   
 48  26  29  1   
 49  27  48  1   
 50  27  49  1   
 51  27  50  1   
 52  28  51  1   
 53  28  52  1   
 54  28  53  1   
 55  29  30  1   
 56  30  54  1   
 57  30  55  1   
 58  30  56  1   
@<TRIPOS>SUBSTRUCTURE
  1 ****   3 GROUP 4 **** **** 0

# MOE 2024.06 (io_trps.svl 2023.06)
