@<TRIPOS>MOLECULE
NONAME
39 41 1 0 0 
SMALL
USER_CHARGES


@<TRIPOS>ATOM
  1 S        1.6170     0.1400    -1.6490 S.3   1 <1>  -0.0800 
  2 C        0.8100    -0.9650    -0.5610 C.2   1 <1>   0.1980 
  3 C        1.4960     1.3790    -0.4340 C.2   1 <1>  -0.1100 
  4 N        0.4920    -0.4630     0.5680 N.2   1 <1>  -0.5650 
  5 C        0.5740    -2.3880    -1.0510 C.3   1 <1>   0.5230 
  6 C        0.8810     0.8690     0.6440 C.2   1 <1>   0.0770 
  7 N       -0.3400    -3.0960    -0.1000 N.4   1 <1>  -0.9590 
  8 C       -0.1260    -4.5890    -0.1300 C.3   1 <1>   0.3430 
  9 C       -1.7560    -2.6580    -0.3170 C.3   1 <1>   0.3430 
 10 C       -1.0420    -5.3930     0.8110 C.3   1 <1>   0.2090 
 11 C       -2.5740    -2.8320     0.9640 C.3   1 <1>  -0.1600 
 12 N       -2.4610    -5.2480     0.3810 N.pl3 1 <1>  -0.8380 
 13 C       -3.2470    -4.2030     1.0810 C.3   1 <1>   0.2090 
 14 C       -3.1500    -6.4290     0.1210 C.ar  1 <1>   0.1000 
 15 C       -3.5880    -6.6960    -1.1730 C.ar  1 <1>  -0.1500 
 16 C       -3.4120    -7.3490     1.1350 C.ar  1 <1>  -0.1500 
 17 C       -4.2730    -7.8640    -1.4600 C.ar  1 <1>  -0.1500 
 18 C       -4.0950    -8.5220     0.8630 C.ar  1 <1>  -0.1500 
 19 C       -4.5130    -8.7570    -0.4330 C.ar  1 <1>   0.1900 
 20 F       -5.1590    -9.8640    -0.6970 F     1 <1>  -0.1900 
 21 H        1.8970     2.3530    -0.6550 H     1 <1>   0.1500 
 22 H        1.5250    -2.8910    -1.0960 H     1 <1>   0.0800 
 23 H        0.1460    -2.3710    -2.0400 H     1 <1>   0.0800 
 24 H        0.6680     1.4080     1.5540 H     1 <1>   0.1500 
 25 H       -0.0750    -2.7190     0.8240 H     1 <1>   0.4500 
 26 H        0.8970    -4.8040     0.1320 H     1 <1>   0.0800 
 27 H       -0.2910    -4.9550    -1.1300 H     1 <1>   0.0800 
 28 H       -2.2080    -3.2130    -1.1240 H     1 <1>   0.0800 
 29 H       -1.7650    -1.6110    -0.5750 H     1 <1>   0.0800 
 30 H       -0.9170    -5.0690     1.8300 H     1 <1>   0.0800 
 31 H       -0.7580    -6.4310     0.7580 H     1 <1>   0.0800 
 32 H       -3.3570    -2.0950     0.9690 H     1 <1>   0.0800 
 33 H       -1.9680    -2.6380     1.8310 H     1 <1>   0.0800 
 34 H       -4.2240    -4.1580     0.6290 H     1 <1>   0.0800 
 35 H       -3.3780    -4.4700     2.1170 H     1 <1>   0.0800 
 36 H       -3.3900    -5.9830    -1.9510 H     1 <1>   0.1500 
 37 H       -3.0820    -7.1440     2.1360 H     1 <1>   0.1500 
 38 H       -4.6170    -8.0830    -2.4550 H     1 <1>   0.1500 
 39 H       -4.3040    -9.2410     1.6340 H     1 <1>   0.1500 
@<TRIPOS>BOND
  1   1   2  1   
  2   1   3  1   
  3   2   4  2   
  4   2   5  1   
  5   3   6  2   
  6   3  21  1   
  7   4   6  1   
  8   5   7  1   
  9   5  22  1   
 10   5  23  1   
 11   6  24  1   
 12   7   8  1   
 13   7   9  1   
 14   7  25  1   
 15   8  10  1   
 16   8  26  1   
 17   8  27  1   
 18   9  11  1   
 19   9  28  1   
 20   9  29  1   
 21  10  12  1   
 22  10  30  1   
 23  10  31  1   
 24  11  13  1   
 25  11  32  1   
 26  11  33  1   
 27  12  13  1   
 28  12  14  1   
 29  13  34  1   
 30  13  35  1   
 31  14  15  ar  
 32  14  16  ar  
 33  15  17  ar  
 34  15  36  1   
 35  16  18  ar  
 36  16  37  1   
 37  17  19  ar  
 38  17  38  1   
 39  18  19  ar  
 40  18  39  1   
 41  19  20  1   
@<TRIPOS>SUBSTRUCTURE
  1 ****  12 GROUP 4 **** **** 0

# MOE 2024.06 (io_trps.svl 2023.06)
