@<TRIPOS>MOLECULE
NONAME
45 47 1 0 0 
SMALL
USER_CHARGES


@<TRIPOS>ATOM
  1 CL       1.1150    -0.6160    -2.5110 Cl    1 <1>  -0.1770 
  2 C        1.6930    -1.7310    -1.2820 C.ar  1 <1>   0.1770 
  3 C        0.8540    -2.6280    -0.6190 C.ar  1 <1>   0.4100 
  4 C        3.0260    -1.7430    -0.9750 C.ar  1 <1>   0.1600 
  5 N        1.3640    -3.4780     0.2590 N.ar  1 <1>  -0.6200 
  6 N       -0.5170    -2.7080    -0.8150 N.pl3 1 <1>  -0.8380 
  7 N        3.5340    -2.5770    -0.0830 N.ar  1 <1>  -0.6200 
  8 C        2.6630    -3.3980     0.4780 C.ar  1 <1>   0.4770 
  9 C       -1.1660    -4.0400    -0.9790 C.3   1 <1>   0.2090 
 10 C       -1.3890    -1.5030    -0.7470 C.3   1 <1>   0.1290 
 11 C        3.2180    -4.3680     1.4930 C.3   1 <1>  -0.0960 
 12 C       -1.7860    -4.5330     0.3420 C.3   1 <1>  -0.0800 
 13 C       -1.8490    -6.0690     0.3520 C.3   1 <1>   0.1400 
 14 C       -3.2540    -4.0850     0.4960 C.3   1 <1>  -0.0990 
 15 N       -3.2390    -6.3760    -0.0370 N.am  1 <1>  -0.6600 
 16 C       -4.0350    -5.2890     0.0520 C.2   1 <1>   0.5690 
 17 C       -3.7210    -7.7310    -0.4130 C.3   1 <1>   0.2200 
 18 O       -5.2170    -5.2470    -0.1900 O.2   1 <1>  -0.5700 
 19 C       -3.4410    -8.7490     0.6910 C.3   1 <1>  -0.1600 
 20 C       -2.9700    -8.2680    -1.6310 C.3   1 <1>  -0.1600 
 21 C       -2.0650    -9.3490     0.3910 C.3   1 <1>  -0.1600 
 22 C       -1.8290    -9.1530    -1.1110 C.3   1 <1>  -0.1600 
 23 H        3.6940    -1.0610    -1.4700 H     1 <1>   0.1500 
 24 H       -0.4090    -4.7350    -1.3020 H     1 <1>   0.0800 
 25 H       -1.9090    -3.9960    -1.7570 H     1 <1>   0.0800 
 26 H       -0.7970    -0.6120    -0.6350 H     1 <1>   0.0800 
 27 H       -2.0420    -1.5700     0.1040 H     1 <1>   0.0800 
 28 H       -1.9750    -1.4230    -1.6460 H     1 <1>   0.0800 
 29 H        2.5880    -4.3820     2.3630 H     1 <1>   0.0800 
 30 H        4.2110    -4.0800     1.7860 H     1 <1>   0.0800 
 31 H        3.2490    -5.3510     1.0630 H     1 <1>   0.0800 
 32 H       -1.1770    -4.1960     1.1620 H     1 <1>   0.0800 
 33 H       -1.6710    -6.4430     1.3460 H     1 <1>   0.0800 
 34 H       -1.1450    -6.5120    -0.3290 H     1 <1>   0.0800 
 35 H       -3.5100    -3.2380    -0.1110 H     1 <1>   0.0800 
 36 H       -3.4870    -3.8840     1.5240 H     1 <1>   0.0800 
 37 H       -4.7780    -7.6820    -0.6160 H     1 <1>   0.0800 
 38 H       -4.1770    -9.5300     0.6170 H     1 <1>   0.0800 
 39 H       -3.5030    -8.3130     1.6720 H     1 <1>   0.0800 
 40 H       -2.6200    -7.4740    -2.2680 H     1 <1>   0.0800 
 41 H       -3.6480    -8.8820    -2.1970 H     1 <1>   0.0800 
 42 H       -2.0280   -10.3900     0.6640 H     1 <1>   0.0800 
 43 H       -1.3090    -8.8240     0.9470 H     1 <1>   0.0800 
 44 H       -0.8760    -8.6810    -1.2780 H     1 <1>   0.0800 
 45 H       -1.8350   -10.1010    -1.6210 H     1 <1>   0.0800 
@<TRIPOS>BOND
  1   1   2  1   
  2   2   3  ar  
  3   2   4  ar  
  4   3   5  ar  
  5   3   6  1   
  6   4   7  ar  
  7   4  23  1   
  8   5   8  ar  
  9   6   9  1   
 10   6  10  1   
 11   7   8  ar  
 12   8  11  1   
 13   9  12  1   
 14   9  24  1   
 15   9  25  1   
 16  10  26  1   
 17  10  27  1   
 18  10  28  1   
 19  11  29  1   
 20  11  30  1   
 21  11  31  1   
 22  12  13  1   
 23  12  14  1   
 24  12  32  1   
 25  13  15  1   
 26  13  33  1   
 27  13  34  1   
 28  14  16  1   
 29  14  35  1   
 30  14  36  1   
 31  15  16  am  
 32  15  17  1   
 33  16  18  2   
 34  17  19  1   
 35  17  20  1   
 36  17  37  1   
 37  19  21  1   
 38  19  38  1   
 39  19  39  1   
 40  20  22  1   
 41  20  40  1   
 42  20  41  1   
 43  21  22  1   
 44  21  42  1   
 45  21  43  1   
 46  22  44  1   
 47  22  45  1   
@<TRIPOS>SUBSTRUCTURE
  1 ****   9 GROUP 4 **** **** 0

# MOE 2024.06 (io_trps.svl 2023.06)
