@<TRIPOS>MOLECULE
NONAME
42 44 1 0 0 
SMALL
USER_CHARGES


@<TRIPOS>ATOM
  1 O       -0.8770    -1.7820    -0.7600 O.2   1 <1>  -0.5700 
  2 C        0.2870    -2.0440    -0.5530 C.2   1 <1>   0.6900 
  3 N        0.7610    -2.6970     0.5450 N.am  1 <1>  -0.4200 
  4 N        1.2910    -1.6750    -1.3730 N.am  1 <1>  -0.7300 
  5 C        2.1240    -2.7060     0.5220 C.2   1 <1>   0.5690 
  6 C       -0.0770    -3.2780     1.6250 C.3   1 <1>   0.2010 
  7 C        2.5950    -2.0310    -0.7590 C.3   1 <1>   0.2010 
  8 O        2.8550    -3.1350     1.3770 O.2   1 <1>  -0.5700 
  9 C       -0.2940    -4.7830     1.4650 C.2   1 <1>   0.5690 
 10 O        0.2810    -5.5200     2.2300 O.2   1 <1>  -0.5700 
 11 N       -1.1330    -5.2910     0.5070 N.am  1 <1>  -0.6600 
 12 C       -2.0800    -4.5410    -0.3600 C.3   1 <1>   0.1400 
 13 C       -1.3170    -6.7530     0.3050 C.3   1 <1>   0.1400 
 14 C       -3.1890    -5.5470    -0.6560 C.3   1 <1>   0.2000 
 15 C       -2.4430    -6.8820    -0.7280 C.3   1 <1>  -0.0800 
 16 O       -4.0560    -5.5590     0.4280 O.3   1 <1>  -0.6800 
 17 C       -3.3120    -8.1390    -0.5440 C.3   1 <1>   0.0210 
 18 C       -2.4690    -9.3960    -0.6330 C.2   1 <1>   0.1080 
 19 N       -1.8810    -9.7730    -1.7260 N.2   1 <1>  -0.7070 
 20 C       -2.2240   -10.2660     0.4240 C.2   1 <1>  -0.1500 
 21 N       -1.2390   -10.9090    -1.3910 N.pl3 1 <1>   0.3000 
 22 C       -1.4300   -11.2270    -0.0930 C.2   1 <1>  -0.3320 
 23 C       -0.8330   -12.4470     0.5830 C.3   1 <1>  -0.0600 
 24 H        1.1670    -0.9890    -2.1200 H     1 <1>   0.3700 
 25 H        0.4110    -3.1070     2.5680 H     1 <1>   0.0800 
 26 H       -1.0290    -2.7810     1.6520 H     1 <1>   0.0800 
 27 H        3.1420    -2.7200    -1.3770 H     1 <1>   0.0800 
 28 H        3.1760    -1.1540    -0.5370 H     1 <1>   0.0800 
 29 H       -2.4680    -3.6570     0.1140 H     1 <1>   0.0800 
 30 H       -1.5810    -4.2730    -1.2750 H     1 <1>   0.0800 
 31 H       -0.4070    -7.2060    -0.0510 H     1 <1>   0.0800 
 32 H       -1.5940    -7.2070     1.2410 H     1 <1>   0.0800 
 33 H       -3.7490    -5.3160    -1.5460 H     1 <1>   0.0800 
 34 H       -1.9770    -6.9440    -1.6960 H     1 <1>   0.0800 
 35 H       -3.5260    -5.6470     1.2450 H     1 <1>   0.4000 
 36 H       -4.0620    -8.1730    -1.3140 H     1 <1>   0.0800 
 37 H       -3.8130    -8.1210     0.4060 H     1 <1>   0.0800 
 38 H       -2.5980   -10.1680     1.4270 H     1 <1>   0.1500 
 39 H       -0.6800   -11.4400    -2.0690 H     1 <1>   0.2700 
 40 H       -1.1300   -12.4790     1.6160 H     1 <1>   0.0800 
 41 H        0.2410   -12.4090     0.5370 H     1 <1>   0.0800 
 42 H       -1.1750   -13.3450     0.1000 H     1 <1>   0.0800 
@<TRIPOS>BOND
  1   1   2  2   
  2   2   3  am  
  3   2   4  am  
  4   3   5  am  
  5   3   6  1   
  6   4   7  1   
  7   4  24  1   
  8   5   7  1   
  9   5   8  2   
 10   6   9  1   
 11   6  25  1   
 12   6  26  1   
 13   7  27  1   
 14   7  28  1   
 15   9  10  2   
 16   9  11  am  
 17  11  12  1   
 18  11  13  1   
 19  12  14  1   
 20  12  29  1   
 21  12  30  1   
 22  13  15  1   
 23  13  31  1   
 24  13  32  1   
 25  14  15  1   
 26  14  16  1   
 27  14  33  1   
 28  15  17  1   
 29  15  34  1   
 30  16  35  1   
 31  17  18  1   
 32  17  36  1   
 33  17  37  1   
 34  18  19  2   
 35  18  20  1   
 36  19  21  1   
 37  20  22  2   
 38  20  38  1   
 39  21  22  1   
 40  21  39  1   
 41  22  23  1   
 42  23  40  1   
 43  23  41  1   
 44  23  42  1   
@<TRIPOS>SUBSTRUCTURE
  1 ****  11 GROUP 4 **** **** 0

# MOE 2024.06 (io_trps.svl 2023.06)
