@<TRIPOS>MOLECULE
NONAME
37 38 1 0 0 
SMALL
USER_CHARGES


@<TRIPOS>ATOM
  1 O       -0.4390     0.6340     1.9970 O.co2 1 <1>  -0.9000 
  2 C       -1.3100     1.3200     1.4570 C.2   1 <1>   0.9060 
  3 O       -2.5060     1.2220     1.7740 O.co2 1 <1>  -0.9000 
  4 C       -0.8780     2.3230     0.4060 C.3   1 <1>  -0.1860 
  5 C       -2.0020     2.9190    -0.4660 C.3   1 <1>   0.2000 
  6 C       -0.0920     3.4080     1.1530 C.3   1 <1>   0.2090 
  7 O       -3.0410     2.0260    -0.6150 O.3   1 <1>  -0.6800 
  8 C       -2.5600     4.2010     0.1440 C.3   1 <1>  -0.1600 
  9 N       -0.1160     4.7140     0.4130 N.pl3 1 <1>  -0.8380 
 10 C       -1.4740     5.2810     0.1530 C.3   1 <1>   0.2090 
 11 C        1.0230     5.4450     0.1390 C.ar  1 <1>   0.7200 
 12 N        2.1990     4.8380     0.2890 N.ar  1 <1>  -0.6200 
 13 N        0.8490     6.7080    -0.2580 N.ar  1 <1>  -0.6200 
 14 C        3.2650     5.5500     0.0250 C.ar  1 <1>   0.1600 
 15 C        1.9350     7.3940    -0.5140 C.ar  1 <1>   0.1600 
 16 C        3.1960     6.8590    -0.3900 C.ar  1 <1>  -0.1430 
 17 C        4.4450     7.6710    -0.6900 C.3   1 <1>  -0.0170 
 18 C        4.9360     8.3890     0.5720 C.3   1 <1>  -0.1600 
 19 C        6.1960     9.2150     0.2950 C.3   1 <1>  -0.2400 
 20 H       -0.1950     1.8120    -0.2440 H     1 <1>   0.0800 
 21 H       -1.6210     3.1350    -1.4490 H     1 <1>   0.0800 
 22 H        0.9100     3.0560     1.3280 H     1 <1>   0.0800 
 23 H       -0.5400     3.5690     2.1190 H     1 <1>   0.0800 
 24 H       -3.1380     1.5840     0.2830 H     1 <1>   0.4000 
 25 H       -3.4010     4.5490    -0.4260 H     1 <1>   0.0800 
 26 H       -2.8850     4.0090     1.1520 H     1 <1>   0.0800 
 27 H       -1.7000     6.0250     0.8970 H     1 <1>   0.0800 
 28 H       -1.4650     5.7610    -0.8110 H     1 <1>   0.0800 
 29 H        4.2220     5.0720     0.1450 H     1 <1>   0.1500 
 30 H        1.8150     8.4150    -0.8320 H     1 <1>   0.1500 
 31 H        5.2180     7.0200    -1.0620 H     1 <1>   0.0800 
 32 H        4.2290     8.3940    -1.4580 H     1 <1>   0.0800 
 33 H        4.1590     9.0380     0.9410 H     1 <1>   0.0800 
 34 H        5.1480     7.6620     1.3380 H     1 <1>   0.0800 
 35 H        5.9990     9.9660    -0.4500 H     1 <1>   0.0800 
 36 H        6.9940     8.5820    -0.0500 H     1 <1>   0.0800 
 37 H        6.5170     9.7060     1.1970 H     1 <1>   0.0800 
@<TRIPOS>BOND
  1   1   2  ar  
  2   2   3  ar  
  3   2   4  1   
  4   4   5  1   
  5   4   6  1   
  6   4  20  1   
  7   5   7  1   
  8   5   8  1   
  9   5  21  1   
 10   6   9  1   
 11   6  22  1   
 12   6  23  1   
 13   7  24  1   
 14   8  10  1   
 15   8  25  1   
 16   8  26  1   
 17   9  10  1   
 18   9  11  1   
 19  10  27  1   
 20  10  28  1   
 21  11  12  ar  
 22  11  13  ar  
 23  12  14  ar  
 24  13  15  ar  
 25  14  16  ar  
 26  14  29  1   
 27  15  16  ar  
 28  15  30  1   
 29  16  17  1   
 30  17  18  1   
 31  17  31  1   
 32  17  32  1   
 33  18  19  1   
 34  18  33  1   
 35  18  34  1   
 36  19  35  1   
 37  19  36  1   
 38  19  37  1   
@<TRIPOS>SUBSTRUCTURE
  1 ****  11 GROUP 4 **** **** 0

# MOE 2024.06 (io_trps.svl 2023.06)
