@<TRIPOS>MOLECULE
NONAME
50 53 1 0 0 
SMALL
USER_CHARGES


@<TRIPOS>ATOM
  1 S        0.1770    -0.4650    -0.9100 S.o2  1 <1>   1.4470 
  2 O        0.7420    -1.7920    -0.7920 O.2   1 <1>  -0.6500 
  3 O       -0.2670    -0.0130    -2.2100 O.2   1 <1>  -0.6500 
  4 N       -1.1150    -0.3320     0.1860 N.am  1 <1>  -0.8490 
  5 C        1.3680     0.7430    -0.2640 C.ar  1 <1>  -0.0090 
  6 C       -2.4460    -0.1200    -0.3970 C.3   1 <1>   0.1960 
  7 C       -1.1380    -1.2840     1.3050 C.3   1 <1>   0.1960 
  8 C        1.0400     2.0970    -0.1480 C.ar  1 <1>   0.0730 
  9 C        2.6370     0.3280     0.1270 C.ar  1 <1>  -0.1500 
 10 C       -3.0390    -1.4410    -0.8900 C.3   1 <1>  -0.1600 
 11 C       -1.7510    -2.6320     0.9010 C.3   1 <1>  -0.1600 
 12 C       -0.2460     2.6160    -0.5230 C.1   1 <1>   0.4840 
 13 C        1.9870     2.9860     0.3520 C.ar  1 <1>  -0.1500 
 14 C        3.5700     1.2210     0.6230 C.ar  1 <1>  -0.1500 
 15 C       -3.1270    -2.4680     0.2480 C.3   1 <1>   0.4240 
 16 N       -1.2590     3.0650    -0.7960 N.1   1 <1>  -0.5570 
 17 C        3.2430     2.5560     0.7360 C.ar  1 <1>  -0.1500 
 18 O       -3.9490    -1.9330     1.2600 O.3   1 <1>  -0.5600 
 19 C       -3.6540    -3.8280    -0.2600 C.ar  1 <1>  -0.1430 
 20 C       -5.3270    -2.0880     1.1190 C.3   1 <1>   0.1200 
 21 C       -4.8560    -4.3530     0.2020 C.ar  1 <1>  -0.1430 
 22 C       -2.9330    -4.5530    -1.2040 C.ar  1 <1>  -0.1500 
 23 C       -5.6670    -3.5720     1.2170 C.3   1 <1>  -0.0170 
 24 C       -5.3180    -5.5760    -0.2580 C.ar  1 <1>  -0.1500 
 25 C       -3.3940    -5.7720    -1.6650 C.ar  1 <1>  -0.1500 
 26 C       -4.5860    -6.2940    -1.1970 C.ar  1 <1>   0.0830 
 27 O       -4.9670    -7.4960    -1.6970 O.3   1 <1>  -0.3620 
 28 C       -6.1530    -8.1270    -1.2680 C.3   1 <1>   0.0400 
 29 H       -2.3980     0.5880    -1.2070 H     1 <1>   0.0800 
 30 H       -3.0910     0.3030     0.3540 H     1 <1>   0.0800 
 31 H       -1.7290    -0.8610     2.1000 H     1 <1>   0.0800 
 32 H       -0.1410    -1.4320     1.6850 H     1 <1>   0.0800 
 33 H        2.9060    -0.7130     0.0430 H     1 <1>   0.1500 
 34 H       -2.4220    -1.8230    -1.6820 H     1 <1>   0.0800 
 35 H       -4.0120    -1.2710    -1.3090 H     1 <1>   0.0800 
 36 H       -1.8510    -3.2570     1.7700 H     1 <1>   0.0800 
 37 H       -1.0820    -3.1370     0.2330 H     1 <1>   0.0800 
 38 H        1.7400     4.0310     0.4430 H     1 <1>   0.1500 
 39 H        4.5470     0.8760     0.9190 H     1 <1>   0.1500 
 40 H        3.9640     3.2590     1.1200 H     1 <1>   0.1500 
 41 H       -5.6350    -1.6810     0.1720 H     1 <1>   0.0800 
 42 H       -5.8040    -1.5390     1.9110 H     1 <1>   0.0800 
 43 H       -2.0020    -4.1760    -1.5910 H     1 <1>   0.1500 
 44 H       -6.7180    -3.7060     1.0370 H     1 <1>   0.0800 
 45 H       -5.4450    -3.9250     2.2080 H     1 <1>   0.0800 
 46 H       -6.2460    -5.9570     0.1220 H     1 <1>   0.1500 
 47 H       -2.8310    -6.3270    -2.3930 H     1 <1>   0.1500 
 48 H       -6.2400    -9.0630    -1.7900 H     1 <1>   0.0800 
 49 H       -6.9900    -7.4960    -1.5080 H     1 <1>   0.0800 
 50 H       -6.0910    -8.3030    -0.2090 H     1 <1>   0.0800 
@<TRIPOS>BOND
  1   1   2  2   
  2   1   3  2   
  3   1   4  am  
  4   1   5  1   
  5   4   6  1   
  6   4   7  1   
  7   5   8  ar  
  8   5   9  ar  
  9   6  10  1   
 10   6  29  1   
 11   6  30  1   
 12   7  11  1   
 13   7  31  1   
 14   7  32  1   
 15   8  12  1   
 16   8  13  ar  
 17   9  14  ar  
 18   9  33  1   
 19  10  15  1   
 20  10  34  1   
 21  10  35  1   
 22  11  15  1   
 23  11  36  1   
 24  11  37  1   
 25  12  16  3   
 26  13  17  ar  
 27  13  38  1   
 28  14  17  ar  
 29  14  39  1   
 30  15  18  1   
 31  15  19  1   
 32  17  40  1   
 33  18  20  1   
 34  19  21  ar  
 35  19  22  ar  
 36  20  23  1   
 37  20  41  1   
 38  20  42  1   
 39  21  23  1   
 40  21  24  ar  
 41  22  25  ar  
 42  22  43  1   
 43  23  44  1   
 44  23  45  1   
 45  24  26  ar  
 46  24  46  1   
 47  25  26  ar  
 48  25  47  1   
 49  26  27  1   
 50  27  28  1   
 51  28  48  1   
 52  28  49  1   
 53  28  50  1   
@<TRIPOS>SUBSTRUCTURE
  1 ****  10 GROUP 4 **** **** 0

# MOE 2024.06 (io_trps.svl 2023.06)
