@<TRIPOS>MOLECULE
NONAME
39 40 1 0 0 
SMALL
USER_CHARGES


@<TRIPOS>ATOM
  1 O       -1.5900    -0.5360     1.8350 O.2   1 <1>  -0.5700 
  2 C       -2.2250     0.3250     1.2640 C.2   1 <1>   0.5690 
  3 N       -3.5860     0.1720     1.0950 N.am  1 <1>  -0.6600 
  4 C       -1.4170     1.5430     0.7560 C.3   1 <1>   0.2510 
  5 C       -4.2510    -1.0760     1.5840 C.3   1 <1>   0.3200 
  6 C       -4.4560     1.0090     0.2120 C.3   1 <1>   0.1400 
  7 N       -1.4900     1.8110    -0.7190 N.3   1 <1>  -0.8100 
  8 C       -1.8060     2.7980     1.5610 C.3   1 <1>   0.1200 
  9 C       -4.0340    -2.2130     0.6000 C.2   1 <1>   0.0060 
 10 C       -5.4570     1.8240     1.0410 C.3   1 <1>   0.1200 
 11 C       -0.7010     3.0130    -1.0450 C.3   1 <1>   0.1100 
 12 C       -1.0330     0.6570    -1.5050 C.3   1 <1>   0.0300 
 13 O       -1.0420     3.9070     1.1740 O.3   1 <1>  -0.5600 
 14 N       -4.9650    -2.7960    -0.0860 N.2   1 <1>  -0.5650 
 15 N       -2.8010    -2.7110     0.3700 N.pl3 1 <1>   0.0330 
 16 O       -6.1340     2.7070     0.2130 O.3   1 <1>  -0.6800 
 17 C       -1.1410     4.2130    -0.1880 C.3   1 <1>   0.1200 
 18 C       -4.3010    -3.7240    -0.8030 C.2   1 <1>   0.0770 
 19 C       -2.9770    -3.6860    -0.5380 C.2   1 <1>  -0.3020 
 20 H       -0.3880     1.3380     0.9990 H     1 <1>   0.0800 
 21 H       -3.8490    -1.3530     2.5430 H     1 <1>   0.0800 
 22 H       -5.3070    -0.9140     1.7060 H     1 <1>   0.0800 
 23 H       -3.8670     1.6820    -0.3770 H     1 <1>   0.0800 
 24 H       -4.9940     0.3650    -0.4640 H     1 <1>   0.0800 
 25 H       -1.6300     2.6320     2.6090 H     1 <1>   0.0800 
 26 H       -2.8420     3.0380     1.4180 H     1 <1>   0.0800 
 27 H       -4.9570     2.3980     1.8010 H     1 <1>   0.0800 
 28 H       -6.1880     1.1810     1.4970 H     1 <1>   0.0800 
 29 H        0.3470     2.8270    -0.8750 H     1 <1>   0.0800 
 30 H       -0.8350     3.2560    -2.0850 H     1 <1>   0.0800 
 31 H       -1.0780     0.8900    -2.5560 H     1 <1>   0.0800 
 32 H       -1.6710    -0.1910    -1.3250 H     1 <1>   0.0800 
 33 H       -0.0200     0.3990    -1.2460 H     1 <1>   0.0800 
 34 H       -1.9380    -2.3630     0.8110 H     1 <1>   0.2700 
 35 H       -5.5200     3.3420    -0.2050 H     1 <1>   0.4000 
 36 H       -2.1580     4.4830    -0.4100 H     1 <1>   0.0800 
 37 H       -0.5060     5.0600    -0.3810 H     1 <1>   0.0800 
 38 H       -4.8200    -4.3800    -1.4830 H     1 <1>   0.1500 
 39 H       -2.1740    -4.2810    -0.9340 H     1 <1>   0.1500 
@<TRIPOS>BOND
  1   1   2  2   
  2   2   3  am  
  3   2   4  1   
  4   3   5  1   
  5   3   6  1   
  6   4   7  1   
  7   4   8  1   
  8   4  20  1   
  9   5   9  1   
 10   5  21  1   
 11   5  22  1   
 12   6  10  1   
 13   6  23  1   
 14   6  24  1   
 15   7  11  1   
 16   7  12  1   
 17   8  13  1   
 18   8  25  1   
 19   8  26  1   
 20   9  14  2   
 21   9  15  1   
 22  10  16  1   
 23  10  27  1   
 24  10  28  1   
 25  11  17  1   
 26  11  29  1   
 27  11  30  1   
 28  12  31  1   
 29  12  32  1   
 30  12  33  1   
 31  13  17  1   
 32  14  18  1   
 33  15  19  1   
 34  15  34  1   
 35  16  35  1   
 36  17  36  1   
 37  17  37  1   
 38  18  19  2   
 39  18  38  1   
 40  19  39  1   
@<TRIPOS>SUBSTRUCTURE
  1 ****   3 GROUP 4 **** **** 0

# MOE 2024.06 (io_trps.svl 2023.06)
