@<TRIPOS>MOLECULE
NONAME
51 53 1 0 0 
SMALL
USER_CHARGES


@<TRIPOS>ATOM
  1 CL      -3.0820    -2.4040     3.2560 Cl    1 <1>  -0.1770 
  2 C       -3.3910    -1.4900     1.7980 C.ar  1 <1>   0.1770 
  3 C       -3.5510    -2.1440     0.5680 C.ar  1 <1>  -0.1520 
  4 C       -3.5000    -0.1240     1.8850 C.ar  1 <1>  -0.1500 
  5 N       -3.4800    -3.4660     0.1910 N.pl3 1 <1>   0.0480 
  6 C       -3.8550    -1.3860    -0.5600 C.ar  1 <1>   0.0000 
  7 C       -3.7840     0.6310     0.7400 C.ar  1 <1>  -0.1500 
  8 C       -3.8110    -3.5540    -1.1440 C.2   1 <1>  -0.2370 
  9 C       -2.9850    -4.5870     1.0250 C.3   1 <1>   0.0160 
 10 C       -3.9620     0.0080    -0.4720 C.ar  1 <1>  -0.1500 
 11 C       -4.0070    -2.2910    -1.6210 C.2   1 <1>  -0.1500 
 12 C       -3.9190    -4.8180    -1.8140 C.2   1 <1>   0.7150 
 13 O       -2.9220    -5.3970    -2.1960 O.2   1 <1>  -0.5700 
 14 N       -5.1450    -5.4210    -1.9460 N.am  1 <1>  -0.6600 
 15 C       -5.1930    -6.9110    -1.9460 C.3   1 <1>   0.3210 
 16 C       -6.4050    -4.6730    -2.2560 C.3   1 <1>   0.1400 
 17 C       -4.8320    -7.4360    -0.5560 C.2   1 <1>   0.0460 
 18 C       -7.5330    -4.8960    -1.2250 C.3   1 <1>   0.3430 
 19 N       -5.6330    -7.2180     0.5130 N.2   1 <1>  -0.5650 
 20 C       -3.7350    -8.1430    -0.1930 C.2   1 <1>  -0.3320 
 21 N       -7.0750    -4.7330     0.1870 N.4   1 <1>  -0.9590 
 22 C       -5.0200    -7.8130     1.4850 C.2   1 <1>   0.0360 
 23 N       -3.8590    -8.3950     1.1220 N.pl3 1 <1>   0.0330 
 24 C       -2.5340    -8.6120    -1.0000 C.3   1 <1>  -0.0600 
 25 C       -8.0670    -5.2940     1.1470 C.3   1 <1>   0.2630 
 26 C       -6.7130    -3.3270     0.5410 C.3   1 <1>   0.2630 
 27 H       -3.3690     0.3700     2.8310 H     1 <1>   0.1500 
 28 H       -3.8590     1.7020     0.8220 H     1 <1>   0.1500 
 29 H       -2.0750    -4.2890     1.5130 H     1 <1>   0.0800 
 30 H       -2.7780    -5.4490     0.4190 H     1 <1>   0.0800 
 31 H       -3.7240    -4.8410     1.7620 H     1 <1>   0.0800 
 32 H       -4.1790     0.5740    -1.3610 H     1 <1>   0.1500 
 33 H       -4.2370    -2.0010    -2.6320 H     1 <1>   0.1500 
 34 H       -4.5000    -7.2920    -2.6760 H     1 <1>   0.0800 
 35 H       -6.1740    -7.2590    -2.2120 H     1 <1>   0.0800 
 36 H       -6.7570    -4.9830    -3.2240 H     1 <1>   0.0800 
 37 H       -6.1990    -3.6210    -2.3250 H     1 <1>   0.0800 
 38 H       -7.9070    -5.8980    -1.3550 H     1 <1>   0.0800 
 39 H       -8.3430    -4.2160    -1.4280 H     1 <1>   0.0800 
 40 H       -6.2270    -5.3440     0.2600 H     1 <1>   0.4500 
 41 H       -5.3780    -7.8590     2.5000 H     1 <1>   0.1500 
 42 H       -3.2140    -8.9230     1.7180 H     1 <1>   0.2700 
 43 H       -2.5910    -8.2640    -2.0160 H     1 <1>   0.0800 
 44 H       -2.4850    -9.6860    -1.0090 H     1 <1>   0.0800 
 45 H       -1.6270    -8.2240    -0.5710 H     1 <1>   0.0800 
 46 H       -8.9990    -4.7550     1.0880 H     1 <1>   0.0800 
 47 H       -7.6880    -5.2250     2.1540 H     1 <1>   0.0800 
 48 H       -8.2470    -6.3330     0.9260 H     1 <1>   0.0800 
 49 H       -7.5920    -2.7050     0.5550 H     1 <1>   0.0800 
 50 H       -6.0210    -2.9250    -0.1770 H     1 <1>   0.0800 
 51 H       -6.2490    -3.2950     1.5130 H     1 <1>   0.0800 
@<TRIPOS>BOND
  1   1   2  1   
  2   2   3  ar  
  3   2   4  ar  
  4   3   5  1   
  5   3   6  ar  
  6   4   7  ar  
  7   4  27  1   
  8   5   8  1   
  9   5   9  1   
 10   6  10  ar  
 11   6  11  1   
 12   7  10  ar  
 13   7  28  1   
 14   8  11  2   
 15   8  12  1   
 16   9  29  1   
 17   9  30  1   
 18   9  31  1   
 19  10  32  1   
 20  11  33  1   
 21  12  13  2   
 22  12  14  am  
 23  14  15  1   
 24  14  16  1   
 25  15  17  1   
 26  15  34  1   
 27  15  35  1   
 28  16  18  1   
 29  16  36  1   
 30  16  37  1   
 31  17  19  1   
 32  17  20  2   
 33  18  21  1   
 34  18  38  1   
 35  18  39  1   
 36  19  22  2   
 37  20  23  1   
 38  20  24  1   
 39  21  25  1   
 40  21  26  1   
 41  21  40  1   
 42  22  23  1   
 43  22  41  1   
 44  23  42  1   
 45  24  43  1   
 46  24  44  1   
 47  24  45  1   
 48  25  46  1   
 49  25  47  1   
 50  25  48  1   
 51  26  49  1   
 52  26  50  1   
 53  26  51  1   
@<TRIPOS>SUBSTRUCTURE
  1 ****   5 GROUP 4 **** **** 0

# MOE 2024.06 (io_trps.svl 2023.06)
