@<TRIPOS>MOLECULE
NONAME
46 49 1 0 0 
SMALL
USER_CHARGES


@<TRIPOS>ATOM
  1 CL      -2.0020     0.5330    -2.0070 Cl    1 <1>  -0.1770 
  2 C       -1.6850     2.0900    -1.2800 C.ar  1 <1>   0.1770 
  3 C       -2.3600     2.4660    -0.1210 C.ar  1 <1>  -0.1440 
  4 C       -0.7610     2.9180    -1.8860 C.ar  1 <1>  -0.1500 
  5 C       -2.0800     3.7040     0.4480 C.ar  1 <1>  -0.1500 
  6 C       -3.3710     1.5340     0.5260 C.3   1 <1>   0.4870 
  7 C       -0.5170     4.1440    -1.3010 C.ar  1 <1>   0.1900 
  8 C       -1.1570     4.5520    -0.1450 C.ar  1 <1>  -0.1500 
  9 N       -4.5140     1.2920    -0.4000 N.4   1 <1>  -0.9590 
 10 F        0.3490     4.9450    -1.8570 F     1 <1>  -0.1900 
 11 C       -5.2910     2.5380    -0.7470 C.3   1 <1>   0.3430 
 12 C       -5.3880     0.1680     0.0750 C.3   1 <1>   0.3430 
 13 C       -6.1490     3.1020     0.4130 C.3   1 <1>   0.1440 
 14 C       -6.6570     0.6420     0.8010 C.3   1 <1>  -0.1600 
 15 C       -7.4170     3.6750    -0.1880 C.ar  1 <1>   0.1670 
 16 C       -6.5120     2.0210     1.4610 C.3   1 <1>  -0.1600 
 17 C       -5.5270     4.3520     1.0920 C.3   1 <1>  -0.1600 
 18 N       -8.1600     3.0720    -1.0880 N.ar  1 <1>  -0.6200 
 19 C       -7.7040     4.9090     0.3110 C.ar  1 <1>  -0.1430 
 20 C       -6.6750     5.3550     1.3180 C.3   1 <1>  -0.0170 
 21 C       -9.2280     3.7660    -1.4650 C.ar  1 <1>   0.4770 
 22 C       -8.8320     5.5390    -0.1510 C.ar  1 <1>   0.1600 
 23 N       -9.6050     4.9670    -1.0500 N.ar  1 <1>  -0.6200 
 24 C      -10.1200     3.1150    -2.4950 C.3   1 <1>  -0.0970 
 25 H       -0.2450     2.6240    -2.7820 H     1 <1>   0.1500 
 26 H       -2.5640     4.0240     1.3560 H     1 <1>   0.1500 
 27 H       -3.7250     1.9630     1.4490 H     1 <1>   0.0800 
 28 H       -2.8840     0.6000     0.7550 H     1 <1>   0.0800 
 29 H       -0.9260     5.5150     0.2790 H     1 <1>   0.1500 
 30 H       -4.0730     0.9700    -1.2760 H     1 <1>   0.4500 
 31 H       -5.9600     2.2920    -1.5560 H     1 <1>   0.0800 
 32 H       -4.6290     3.3050    -1.1120 H     1 <1>   0.0800 
 33 H       -4.8220    -0.4710     0.7340 H     1 <1>   0.0800 
 34 H       -5.6910    -0.4320    -0.7690 H     1 <1>   0.0800 
 35 H       -6.9290    -0.0900     1.5420 H     1 <1>   0.0800 
 36 H       -7.4670     0.6730     0.0920 H     1 <1>   0.0800 
 37 H       -7.4330     2.2850     1.9540 H     1 <1>   0.0800 
 38 H       -5.7530     1.9600     2.2200 H     1 <1>   0.0800 
 39 H       -4.8250     4.8140     0.4190 H     1 <1>   0.0800 
 40 H       -5.0210     4.1290     2.0140 H     1 <1>   0.0800 
 41 H       -6.3610     6.3700     1.1460 H     1 <1>   0.0800 
 42 H       -7.0790     5.2610     2.3120 H     1 <1>   0.0800 
 43 H       -9.1060     6.5160     0.2110 H     1 <1>   0.1500 
 44 H      -10.0140     2.0470    -2.4620 H     1 <1>   0.0800 
 45 H       -9.8510     3.4690    -3.4710 H     1 <1>   0.0800 
 46 H      -11.1460     3.3680    -2.3010 H     1 <1>   0.0800 
@<TRIPOS>BOND
  1   1   2  1   
  2   2   3  ar  
  3   2   4  ar  
  4   3   5  ar  
  5   3   6  1   
  6   4   7  ar  
  7   4  25  1   
  8   5   8  ar  
  9   5  26  1   
 10   6   9  1   
 11   6  27  1   
 12   6  28  1   
 13   7   8  ar  
 14   7  10  1   
 15   8  29  1   
 16   9  11  1   
 17   9  12  1   
 18   9  30  1   
 19  11  13  1   
 20  11  31  1   
 21  11  32  1   
 22  12  14  1   
 23  12  33  1   
 24  12  34  1   
 25  13  15  1   
 26  13  16  1   
 27  13  17  1   
 28  14  16  1   
 29  14  35  1   
 30  14  36  1   
 31  15  18  ar  
 32  15  19  ar  
 33  16  37  1   
 34  16  38  1   
 35  17  20  1   
 36  17  39  1   
 37  17  40  1   
 38  18  21  ar  
 39  19  20  1   
 40  19  22  ar  
 41  20  41  1   
 42  20  42  1   
 43  21  23  ar  
 44  21  24  1   
 45  22  23  ar  
 46  22  43  1   
 47  24  44  1   
 48  24  45  1   
 49  24  46  1   
@<TRIPOS>SUBSTRUCTURE
  1 ****  11 GROUP 4 **** **** 0

# MOE 2024.06 (io_trps.svl 2023.06)
