@<TRIPOS>MOLECULE
NONAME
43 45 1 0 0 
SMALL
USER_CHARGES


@<TRIPOS>ATOM
  1 O       -0.3000     0.1970     0.2800 O.2   1 <1>  -0.5700 
  2 C       -1.3440     0.8250     0.2830 C.2   1 <1>   0.7160 
  3 N       -2.5260     0.1190     0.2830 N.am  1 <1>  -0.6600 
  4 C       -1.3320     2.2710     0.2730 C.2   1 <1>  -0.0860 
  5 C       -3.8370     0.6710    -0.1390 C.3   1 <1>   0.1400 
  6 C       -2.5620    -1.3650     0.2840 C.3   1 <1>   0.1400 
  7 C       -0.4030     3.0970    -0.3730 C.2   1 <1>   0.1080 
  8 C       -2.1740     3.1680     0.8610 C.2   1 <1>  -0.3020 
  9 C       -4.6160    -0.5320    -0.6660 C.3   1 <1>   0.2000 
 10 C       -4.0290    -1.7370     0.0630 C.3   1 <1>  -0.0800 
 11 N       -0.6520     4.3570    -0.2140 N.2   1 <1>  -0.7070 
 12 C        0.7800     2.6190    -1.1870 C.3   1 <1>  -0.0590 
 13 N       -1.7460     4.4000     0.5550 N.pl3 1 <1>   0.3140 
 14 O       -5.9710    -0.4210    -0.4010 O.3   1 <1>  -0.6800 
 15 C       -4.2200    -3.0590    -0.6950 C.3   1 <1>   0.0210 
 16 C       -2.3300     5.6790     0.9720 C.3   1 <1>   0.0160 
 17 C       -3.5040    -4.1980     0.0060 C.2   1 <1>   0.1080 
 18 N       -3.7160    -4.5060     1.2480 N.2   1 <1>  -0.7070 
 19 C       -2.5490    -5.0190    -0.5840 C.2   1 <1>  -0.1500 
 20 N       -2.8930    -5.5450     1.4860 N.pl3 1 <1>   0.3000 
 21 C       -2.1740    -5.8730     0.3910 C.2   1 <1>  -0.3320 
 22 C       -1.1590    -7.0000     0.3450 C.3   1 <1>  -0.0600 
 23 H       -4.3310     1.0960     0.7180 H     1 <1>   0.0800 
 24 H       -3.7120     1.4140    -0.9070 H     1 <1>   0.0800 
 25 H       -1.9450    -1.7340    -0.5180 H     1 <1>   0.0800 
 26 H       -2.1960    -1.7560     1.2190 H     1 <1>   0.0800 
 27 H       -3.0330     2.9810     1.4760 H     1 <1>   0.1500 
 28 H       -4.4820    -0.6100    -1.7320 H     1 <1>   0.0800 
 29 H       -4.4790    -1.8230     1.0370 H     1 <1>   0.0800 
 30 H        0.4610     1.8930    -1.9110 H     1 <1>   0.0800 
 31 H        1.5070     2.1710    -0.5360 H     1 <1>   0.0800 
 32 H        1.2340     3.4480    -1.6990 H     1 <1>   0.0800 
 33 H       -6.1390    -0.5400     0.5540 H     1 <1>   0.4000 
 34 H       -3.8450    -2.9680    -1.6980 H     1 <1>   0.0800 
 35 H       -5.2680    -3.2930    -0.7490 H     1 <1>   0.0800 
 36 H       -3.1920     5.5020     1.5860 H     1 <1>   0.0800 
 37 H       -2.6100     6.2340     0.0960 H     1 <1>   0.0800 
 38 H       -1.5930     6.2310     1.5250 H     1 <1>   0.0800 
 39 H       -2.2010    -4.9630    -1.6000 H     1 <1>   0.1500 
 40 H       -2.8460    -6.0060     2.4020 H     1 <1>   0.2700 
 41 H       -0.7210    -7.0620    -0.6350 H     1 <1>   0.0800 
 42 H       -1.6340    -7.9390     0.5680 H     1 <1>   0.0800 
 43 H       -0.3740    -6.8230     1.0600 H     1 <1>   0.0800 
@<TRIPOS>BOND
  1   1   2  2   
  2   2   3  am  
  3   2   4  1   
  4   3   5  1   
  5   3   6  1   
  6   4   7  1   
  7   4   8  2   
  8   5   9  1   
  9   5  23  1   
 10   5  24  1   
 11   6  10  1   
 12   6  25  1   
 13   6  26  1   
 14   7  11  2   
 15   7  12  1   
 16   8  13  1   
 17   8  27  1   
 18   9  10  1   
 19   9  14  1   
 20   9  28  1   
 21  10  15  1   
 22  10  29  1   
 23  11  13  1   
 24  12  30  1   
 25  12  31  1   
 26  12  32  1   
 27  13  16  1   
 28  14  33  1   
 29  15  17  1   
 30  15  34  1   
 31  15  35  1   
 32  16  36  1   
 33  16  37  1   
 34  16  38  1   
 35  17  18  2   
 36  17  19  1   
 37  18  20  1   
 38  19  21  2   
 39  19  39  1   
 40  20  21  1   
 41  20  40  1   
 42  21  22  1   
 43  22  41  1   
 44  22  42  1   
 45  22  43  1   
@<TRIPOS>SUBSTRUCTURE
  1 ****   3 GROUP 4 **** **** 0

# MOE 2024.06 (io_trps.svl 2023.06)
