@<TRIPOS>MOLECULE
NONAME
41 43 1 0 0 
SMALL
USER_CHARGES


@<TRIPOS>ATOM
  1 O        1.8430     1.7490     1.1060 O.3   1 <1>  -0.0190 
  2 N        2.5930     0.6900     1.0470 N.2   1 <1>  -0.4100 
  3 C        0.8430     1.6900     0.2670 C.2   1 <1>  -0.0400 
  4 C        2.0530    -0.0780     0.1690 C.2   1 <1>   0.1080 
  5 C        0.9150     0.5140    -0.3740 C.2   1 <1>  -0.1500 
  6 C       -0.1300     2.8520     0.1630 C.3   1 <1>   0.0200 
  7 C        2.5880    -1.4390    -0.2170 C.3   1 <1>  -0.0590 
  8 C        0.5470     4.0820    -0.4740 C.3   1 <1>  -0.0800 
  9 C       -0.3280     5.3320    -0.5820 C.3   1 <1>   0.2000 
 10 C        1.7750     4.5660     0.2970 C.3   1 <1>   0.2090 
 11 O       -1.0060     5.4940     0.6320 O.3   1 <1>  -0.5600 
 12 C        0.6990     6.4610    -0.7600 C.3   1 <1>   0.2090 
 13 N        1.9380     5.9990    -0.0630 N.pl3 1 <1>  -0.8380 
 14 C       -2.1360     6.3090     0.5780 C.3   1 <1>   0.0400 
 15 C        2.9550     6.8300     0.2570 C.ar  1 <1>   0.7710 
 16 N        2.9270     8.0830    -0.1770 N.ar  1 <1>  -0.6200 
 17 N        3.9660     6.3500     1.0060 N.ar  1 <1>  -0.1790 
 18 C        3.9330     8.8570     0.1510 C.ar  1 <1>   0.4100 
 19 C        5.0170     7.1290     1.3590 C.ar  1 <1>   0.2110 
 20 N        3.8780    10.1110    -0.3000 N.pl3 1 <1>  -0.9000 
 21 C        5.0150     8.4130     0.9290 C.ar  1 <1>  -0.1500 
 22 H        0.2760     0.0970    -1.1300 H     1 <1>   0.1500 
 23 H       -0.9730     2.5580    -0.4360 H     1 <1>   0.0800 
 24 H       -0.4930     3.0830     1.1500 H     1 <1>   0.0800 
 25 H        1.8290    -2.1850    -0.0680 H     1 <1>   0.0800 
 26 H        3.4400    -1.6860     0.3910 H     1 <1>   0.0800 
 27 H        2.8860    -1.4370    -1.2490 H     1 <1>   0.0800 
 28 H        0.8710     3.8140    -1.4640 H     1 <1>   0.0800 
 29 H       -1.0370     5.2710    -1.3900 H     1 <1>   0.0800 
 30 H        2.6420     3.9880     0.0250 H     1 <1>   0.0800 
 31 H        1.5880     4.4840     1.3560 H     1 <1>   0.0800 
 32 H        0.3390     7.3910    -0.3540 H     1 <1>   0.0800 
 33 H        0.9170     6.5930    -1.8060 H     1 <1>   0.0800 
 34 H       -2.5610     6.3560     1.5660 H     1 <1>   0.0800 
 35 H       -2.8530     5.8800    -0.1010 H     1 <1>   0.0800 
 36 H       -1.8570     7.2980     0.2600 H     1 <1>   0.0800 
 37 H        3.8750     5.3790     1.2880 H     1 <1>   0.4570 
 38 H        5.8090     6.7100     1.9610 H     1 <1>   0.1500 
 39 H        3.0800    10.4140    -0.8660 H     1 <1>   0.4000 
 40 H        4.5790    10.8360    -0.1330 H     1 <1>   0.4000 
 41 H        5.8060     9.1020     1.1600 H     1 <1>   0.1500 
@<TRIPOS>BOND
  1   1   2  1   
  2   1   3  1   
  3   2   4  2   
  4   3   5  2   
  5   3   6  1   
  6   4   5  1   
  7   4   7  1   
  8   5  22  1   
  9   6   8  1   
 10   6  23  1   
 11   6  24  1   
 12   7  25  1   
 13   7  26  1   
 14   7  27  1   
 15   8   9  1   
 16   8  10  1   
 17   8  28  1   
 18   9  11  1   
 19   9  12  1   
 20   9  29  1   
 21  10  13  1   
 22  10  30  1   
 23  10  31  1   
 24  11  14  1   
 25  12  13  1   
 26  12  32  1   
 27  12  33  1   
 28  13  15  1   
 29  14  34  1   
 30  14  35  1   
 31  14  36  1   
 32  15  16  ar  
 33  15  17  ar  
 34  16  18  ar  
 35  17  19  ar  
 36  17  37  1   
 37  18  20  1   
 38  18  21  ar  
 39  19  21  ar  
 40  19  38  1   
 41  20  39  1   
 42  20  40  1   
 43  21  41  1   
@<TRIPOS>SUBSTRUCTURE
  1 ****  10 GROUP 4 **** **** 0

# MOE 2024.06 (io_trps.svl 2023.06)
