@<TRIPOS>MOLECULE
NONAME
42 44 1 0 0 
SMALL
USER_CHARGES


@<TRIPOS>ATOM
  1 CL       0.8330    -0.7900     0.0450 Cl    1 <1>  -0.1770 
  2 C       -0.2970    -2.1130    -0.0830 C.ar  1 <1>   0.1770 
  3 C        0.0650    -3.3640     0.3760 C.ar  1 <1>  -0.1500 
  4 C       -1.5420    -1.8960    -0.6410 C.ar  1 <1>  -0.1500 
  5 C       -0.8360    -4.4090     0.2720 C.ar  1 <1>  -0.1500 
  6 C       -2.4320    -2.9500    -0.7410 C.ar  1 <1>  -0.1500 
  7 C       -2.1050    -4.2300    -0.2860 C.ar  1 <1>   0.0530 
  8 C       -3.0240    -5.3400    -0.3820 C.2   1 <1>   0.0870 
  9 O       -2.5580    -6.5640    -0.4670 O.3   1 <1>  -0.0190 
 10 C       -4.3790    -5.4380    -0.3960 C.2   1 <1>  -0.2330 
 11 N       -3.5020    -7.4640    -0.5370 N.2   1 <1>  -0.4100 
 12 C       -4.6150    -6.8120    -0.4900 C.2   1 <1>   0.3720 
 13 C       -5.3610    -4.4050    -0.3250 C.2   1 <1>   1.0330 
 14 N       -5.8680    -7.4440    -0.5490 N.pl3 1 <1>  -0.8210 
 15 O       -5.9380    -4.1540     0.7490 O.co2 1 <1>  -0.9000 
 16 O       -5.6210    -3.7030    -1.3180 O.co2 1 <1>  -0.9000 
 17 C       -5.9090    -8.9190    -0.6510 C.3   1 <1>   0.2090 
 18 C       -6.8920    -6.9970     0.4320 C.3   1 <1>   0.2090 
 19 C       -7.3220    -9.2930    -0.2170 C.3   1 <1>  -0.0800 
 20 C       -7.6360    -8.2560     0.8670 C.3   1 <1>  -0.1600 
 21 C       -7.5190   -10.7820     0.1620 C.3   1 <1>   0.2800 
 22 O       -8.8140   -10.9360     0.5920 O.3   1 <1>  -0.6800 
 23 C       -7.3660   -11.6920    -1.0580 C.3   1 <1>  -0.2400 
 24 C       -6.6350   -11.2870     1.3060 C.3   1 <1>  -0.2400 
 25 H        1.0380    -3.5140     0.8070 H     1 <1>   0.1500 
 26 H       -1.8140    -0.9180    -0.9930 H     1 <1>   0.1500 
 27 H       -0.5570    -5.3840     0.6320 H     1 <1>   0.1500 
 28 H       -3.3970    -2.7730    -1.1840 H     1 <1>   0.1500 
 29 H       -5.1750    -9.3400     0.0140 H     1 <1>   0.0800 
 30 H       -5.7040    -9.2280    -1.6610 H     1 <1>   0.0800 
 31 H       -7.5580    -6.3000    -0.0490 H     1 <1>   0.0800 
 32 H       -6.4340    -6.5170     1.2810 H     1 <1>   0.0800 
 33 H       -7.9540    -9.0780    -1.0610 H     1 <1>   0.0800 
 34 H       -8.6910    -8.0720     0.9640 H     1 <1>   0.0800 
 35 H       -7.2490    -8.5580     1.8210 H     1 <1>   0.0800 
 36 H       -9.4220   -10.5900    -0.0860 H     1 <1>   0.4000 
 37 H       -8.0090   -11.3730    -1.8580 H     1 <1>   0.0800 
 38 H       -7.6050   -12.7090    -0.7980 H     1 <1>   0.0800 
 39 H       -6.3520   -11.6690    -1.4120 H     1 <1>   0.0800 
 40 H       -6.7780   -10.7000     2.1930 H     1 <1>   0.0800 
 41 H       -5.5970   -11.2480     1.0340 H     1 <1>   0.0800 
 42 H       -6.8780   -12.3100     1.5340 H     1 <1>   0.0800 
@<TRIPOS>BOND
  1   1   2  1   
  2   2   3  ar  
  3   2   4  ar  
  4   3   5  ar  
  5   3  25  1   
  6   4   6  ar  
  7   4  26  1   
  8   5   7  ar  
  9   5  27  1   
 10   6   7  ar  
 11   6  28  1   
 12   7   8  1   
 13   8   9  1   
 14   8  10  2   
 15   9  11  1   
 16  10  12  1   
 17  10  13  1   
 18  11  12  2   
 19  12  14  1   
 20  13  15  ar  
 21  13  16  ar  
 22  14  17  1   
 23  14  18  1   
 24  17  19  1   
 25  17  29  1   
 26  17  30  1   
 27  18  20  1   
 28  18  31  1   
 29  18  32  1   
 30  19  20  1   
 31  19  21  1   
 32  19  33  1   
 33  20  34  1   
 34  20  35  1   
 35  21  22  1   
 36  21  23  1   
 37  21  24  1   
 38  22  36  1   
 39  23  37  1   
 40  23  38  1   
 41  23  39  1   
 42  24  40  1   
 43  24  41  1   
 44  24  42  1   
@<TRIPOS>SUBSTRUCTURE
  1 ****  12 GROUP 4 **** **** 0

# MOE 2024.06 (io_trps.svl 2023.06)
