@<TRIPOS>MOLECULE
NONAME
43 44 1 0 0 
SMALL
USER_CHARGES


@<TRIPOS>ATOM
  1 S       -0.6180     0.5390     1.2800 S.o2  1 <1>   1.4470 
  2 O       -0.3900    -0.6910     2.0100 O.2   1 <1>  -0.6500 
  3 O       -1.2550     1.6340     1.9840 O.2   1 <1>  -0.6500 
  4 N       -1.5500     0.1550    -0.0860 N.am  1 <1>  -0.8490 
  5 C        0.9680     1.0800     0.5830 C.ar  1 <1>  -0.0090 
  6 C       -1.1330    -1.0790    -0.8020 C.3   1 <1>   0.1960 
  7 C       -2.9980     0.2370     0.1220 C.3   1 <1>   0.1960 
  8 C        1.0680     2.2150    -0.2150 C.ar  1 <1>   0.0820 
  9 C        2.1260     0.3500     0.8260 C.ar  1 <1>  -0.1500 
 10 C       -2.1430    -2.2510    -0.7650 C.3   1 <1>   0.2000 
 11 C       -3.5390    -0.9500     0.9370 C.3   1 <1>  -0.1600 
 12 O       -0.0640     2.9260    -0.4490 O.3   1 <1>  -0.3630 
 13 C        2.2990     2.5910    -0.7460 C.ar  1 <1>  -0.1500 
 14 C        3.3540     0.7170     0.3020 C.ar  1 <1>  -0.1440 
 15 O       -3.0670    -2.1030    -1.7900 O.3   1 <1>  -0.6800 
 16 C       -2.8950    -2.3120     0.5690 C.3   1 <1>  -0.1860 
 17 C       -0.0720     4.1260    -1.1890 C.3   1 <1>   0.0400 
 18 C        3.4420     1.8500    -0.4940 C.ar  1 <1>  -0.1440 
 19 C        4.5770    -0.1340     0.6160 C.3   1 <1>  -0.0970 
 20 C       -3.8870    -3.4600     0.5630 C.2   1 <1>   0.9060 
 21 C        4.7670     2.2980    -1.0950 C.3   1 <1>  -0.0960 
 22 O       -3.7990    -4.3360     1.4260 O.co2 1 <1>  -0.9000 
 23 O       -4.7380    -3.4970    -0.3380 O.co2 1 <1>  -0.9000 
 24 H       -0.9420    -0.8320    -1.8320 H     1 <1>   0.0800 
 25 H       -0.2060    -1.4330    -0.3890 H     1 <1>   0.0800 
 26 H       -3.2550     1.1650     0.6030 H     1 <1>   0.0800 
 27 H       -3.4760     0.2410    -0.8430 H     1 <1>   0.0800 
 28 H        2.0580    -0.5290     1.4440 H     1 <1>   0.1500 
 29 H       -1.6330    -3.1830    -0.9400 H     1 <1>   0.0800 
 30 H       -3.3950    -0.7640     1.9860 H     1 <1>   0.0800 
 31 H       -4.6010    -1.0020     0.7700 H     1 <1>   0.0800 
 32 H        2.3820     3.4640    -1.3630 H     1 <1>   0.1500 
 33 H       -3.8740    -2.6320    -1.5020 H     1 <1>   0.4000 
 34 H       -2.1700    -2.5420     1.3270 H     1 <1>   0.0800 
 35 H       -1.0800     4.4990    -1.2030 H     1 <1>   0.0800 
 36 H        0.2540     3.9190    -2.1930 H     1 <1>   0.0800 
 37 H        0.5750     4.8370    -0.7070 H     1 <1>   0.0800 
 38 H        4.3210    -0.9590     1.2570 H     1 <1>   0.0800 
 39 H        5.3210     0.4590     1.1160 H     1 <1>   0.0800 
 40 H        4.9940    -0.5300    -0.2920 H     1 <1>   0.0800 
 41 H        4.6450     3.1870    -1.6870 H     1 <1>   0.0800 
 42 H        5.1650     1.5250    -1.7270 H     1 <1>   0.0800 
 43 H        5.4730     2.5100    -0.3130 H     1 <1>   0.0800 
@<TRIPOS>BOND
  1   1   2  2   
  2   1   3  2   
  3   1   4  am  
  4   1   5  1   
  5   4   6  1   
  6   4   7  1   
  7   5   8  ar  
  8   5   9  ar  
  9   6  10  1   
 10   6  24  1   
 11   6  25  1   
 12   7  11  1   
 13   7  26  1   
 14   7  27  1   
 15   8  12  1   
 16   8  13  ar  
 17   9  14  ar  
 18   9  28  1   
 19  10  15  1   
 20  10  16  1   
 21  10  29  1   
 22  11  16  1   
 23  11  30  1   
 24  11  31  1   
 25  12  17  1   
 26  13  18  ar  
 27  13  32  1   
 28  14  18  ar  
 29  14  19  1   
 30  15  33  1   
 31  16  20  1   
 32  16  34  1   
 33  17  35  1   
 34  17  36  1   
 35  17  37  1   
 36  18  21  1   
 37  19  38  1   
 38  19  39  1   
 39  19  40  1   
 40  20  22  ar  
 41  20  23  ar  
 42  21  41  1   
 43  21  42  1   
 44  21  43  1   
@<TRIPOS>SUBSTRUCTURE
  1 ****   4 GROUP 4 **** **** 0

# MOE 2024.06 (io_trps.svl 2023.06)
