@<TRIPOS>MOLECULE
NONAME
53 55 1 0 0 
SMALL
USER_CHARGES


@<TRIPOS>ATOM
  1 F       -2.8140    -1.8410     2.4040 F     1 <1>  -0.1900 
  2 C       -2.8320    -0.7540     1.6720 C.ar  1 <1>   0.1900 
  3 C       -3.3040    -0.8300     0.3620 C.ar  1 <1>   0.1170 
  4 C       -2.3780     0.4150     2.2470 C.ar  1 <1>  -0.1500 
  5 N       -3.7490    -2.0620    -0.1620 N.am  1 <1>  -0.5470 
  6 C       -3.2940     0.3550    -0.3700 C.ar  1 <1>  -0.1500 
  7 C       -2.3870     1.5750     1.4930 C.ar  1 <1>  -0.1500 
  8 C       -4.4920    -2.3800    -1.2690 C.2   1 <1>   0.5690 
  9 C       -2.8460     1.5460     0.1840 C.ar  1 <1>  -0.1440 
 10 O       -4.8890    -1.5600    -2.0630 O.2   1 <1>  -0.5700 
 11 C       -4.7930    -3.8650    -1.5000 C.3   1 <1>   0.1710 
 12 C       -2.8540     2.8180    -0.6450 C.3   1 <1>  -0.0970 
 13 N       -5.9960    -4.4370    -0.8240 N.3   1 <1>  -0.8100 
 14 C       -5.9560    -5.9240    -0.8820 C.3   1 <1>   0.1100 
 15 C       -6.3260    -3.8570     0.4880 C.3   1 <1>   0.1100 
 16 C       -6.1150    -6.6510     0.4750 C.3   1 <1>  -0.1060 
 17 C       -7.5190    -4.5740     1.1330 C.3   1 <1>  -0.1600 
 18 C       -6.3070    -8.1450     0.2010 C.2   1 <1>   0.9060 
 19 C       -7.4340    -6.1090     1.0660 C.3   1 <1>   0.2000 
 20 C       -4.9170    -6.5090     1.4730 C.3   1 <1>  -0.0170 
 21 O       -5.9010    -8.6400    -0.8570 O.co2 1 <1>  -0.9000 
 22 O       -6.8530    -8.8420     1.0710 O.co2 1 <1>  -0.9000 
 23 O       -7.6330    -6.6370     2.3280 O.3   1 <1>  -0.6800 
 24 C       -3.5540    -6.1480     0.8840 C.ar  1 <1>  -0.1430 
 25 C       -2.8820    -5.0200     1.3330 C.ar  1 <1>  -0.1500 
 26 C       -2.9640    -6.9430    -0.0860 C.ar  1 <1>  -0.1500 
 27 C       -1.6530    -4.6720     0.7970 C.ar  1 <1>  -0.1500 
 28 C       -1.7370    -6.5980    -0.6240 C.ar  1 <1>  -0.1500 
 29 C       -1.0820    -5.4590    -0.1870 C.ar  1 <1>  -0.1500 
 30 H       -2.0250     0.4180     3.2630 H     1 <1>   0.1500 
 31 H       -3.5210    -2.8730     0.4190 H     1 <1>   0.3700 
 32 H       -3.6370     0.3540    -1.3880 H     1 <1>   0.1500 
 33 H       -2.0360     2.4970     1.9250 H     1 <1>   0.1500 
 34 H       -3.9230    -4.4160    -1.1950 H     1 <1>   0.0800 
 35 H       -4.9050    -4.0160    -2.5580 H     1 <1>   0.0800 
 36 H       -3.0570     3.6710    -0.0230 H     1 <1>   0.0800 
 37 H       -3.6130     2.7670    -1.4050 H     1 <1>   0.0800 
 38 H       -1.8980     2.9500    -1.1180 H     1 <1>   0.0800 
 39 H       -6.7710    -6.2340    -1.5140 H     1 <1>   0.0800 
 40 H       -5.0660    -6.2690    -1.3770 H     1 <1>   0.0800 
 41 H       -5.4740    -3.9140     1.1370 H     1 <1>   0.0800 
 42 H       -6.5750    -2.8170     0.3640 H     1 <1>   0.0800 
 43 H       -8.4070    -4.2650     0.6140 H     1 <1>   0.0800 
 44 H       -7.6080    -4.2480     2.1540 H     1 <1>   0.0800 
 45 H       -8.2470    -6.4640     0.4540 H     1 <1>   0.0800 
 46 H       -5.1650    -5.7810     2.2230 H     1 <1>   0.0800 
 47 H       -4.8030    -7.4320     2.0160 H     1 <1>   0.0800 
 48 H       -7.4820    -7.6200     2.2170 H     1 <1>   0.4000 
 49 H       -3.3130    -4.4150     2.1110 H     1 <1>   0.1500 
 50 H       -3.4680    -7.8340    -0.4280 H     1 <1>   0.1500 
 51 H       -1.1390    -3.7950     1.1510 H     1 <1>   0.1500 
 52 H       -1.2970    -7.2210    -1.3830 H     1 <1>   0.1500 
 53 H       -0.1280    -5.1920    -0.6070 H     1 <1>   0.1500 
@<TRIPOS>BOND
  1   1   2  1   
  2   2   3  ar  
  3   2   4  ar  
  4   3   5  1   
  5   3   6  ar  
  6   4   7  ar  
  7   4  30  1   
  8   5   8  am  
  9   5  31  1   
 10   6   9  ar  
 11   6  32  1   
 12   7   9  ar  
 13   7  33  1   
 14   8  10  2   
 15   8  11  1   
 16   9  12  1   
 17  11  13  1   
 18  11  34  1   
 19  11  35  1   
 20  12  36  1   
 21  12  37  1   
 22  12  38  1   
 23  13  14  1   
 24  13  15  1   
 25  14  16  1   
 26  14  39  1   
 27  14  40  1   
 28  15  17  1   
 29  15  41  1   
 30  15  42  1   
 31  16  18  1   
 32  16  19  1   
 33  16  20  1   
 34  17  19  1   
 35  17  43  1   
 36  17  44  1   
 37  18  21  ar  
 38  18  22  ar  
 39  19  23  1   
 40  19  45  1   
 41  20  24  1   
 42  20  46  1   
 43  20  47  1   
 44  23  48  1   
 45  24  25  ar  
 46  24  26  ar  
 47  25  27  ar  
 48  25  49  1   
 49  26  28  ar  
 50  26  50  1   
 51  27  29  ar  
 52  27  51  1   
 53  28  29  ar  
 54  28  52  1   
 55  29  53  1   
@<TRIPOS>SUBSTRUCTURE
  1 ****  11 GROUP 4 **** **** 0

# MOE 2024.06 (io_trps.svl 2023.06)
