@<TRIPOS>MOLECULE
NONAME
39 41 1 0 0 
SMALL
USER_CHARGES


@<TRIPOS>ATOM
  1 O        0.7390     0.2730     1.9300 O.3   1 <1>  -0.6800 
  2 C        1.0090    -0.1270     0.6280 C.3   1 <1>   0.2000 
  3 C        1.6550    -1.5110     0.6900 C.3   1 <1>  -0.0800 
  4 C        2.1260     0.7760     0.0750 C.3   1 <1>   0.3430 
  5 C        3.0720    -1.1420     1.1350 C.3   1 <1>   0.3430 
  6 C        1.5800    -2.2210    -0.6920 C.3   1 <1>  -0.0170 
  7 N        3.4100     0.0350     0.3010 N.4   1 <1>  -0.9590 
  8 C        2.8800    -2.8610    -1.1660 C.ar  1 <1>   0.1670 
  9 C        4.5100     0.8700     0.8370 C.3   1 <1>   0.4860 
 10 N        3.7870    -2.0390    -1.6810 N.ar  1 <1>  -0.6200 
 11 C        3.0610    -4.2390    -1.0580 C.ar  1 <1>   0.1600 
 12 C        4.8640     1.9170    -0.1960 C.ar  1 <1>  -0.1440 
 13 C        4.8590    -2.6930    -2.1110 C.ar  1 <1>   0.1600 
 14 N        4.1450    -4.8800    -1.4540 N.ar  1 <1>  -0.6200 
 15 C        5.5470     1.5480    -1.3460 C.ar  1 <1>   0.1600 
 16 C        4.5160     3.2430    -0.0220 C.ar  1 <1>  -0.1500 
 17 C        5.0330    -4.0670    -1.9970 C.ar  1 <1>   0.1600 
 18 N        5.8880     2.3730    -2.3170 N.ar  1 <1>  -0.6200 
 19 C        4.8730     4.1170    -1.0270 C.ar  1 <1>  -0.1500 
 20 C        5.5460     3.6390    -2.1380 C.ar  1 <1>   0.1600 
 21 H       -0.1050    -0.1060     2.2560 H     1 <1>   0.4000 
 22 H        0.1000    -0.0720     0.0520 H     1 <1>   0.0800 
 23 H        1.1870    -2.1370     1.4300 H     1 <1>   0.0800 
 24 H        2.1170     1.7250     0.5860 H     1 <1>   0.0800 
 25 H        1.9880     0.9400    -0.9810 H     1 <1>   0.0800 
 26 H        3.7710    -1.9500     0.9910 H     1 <1>   0.0800 
 27 H        3.0530    -0.8600     2.1760 H     1 <1>   0.0800 
 28 H        1.2780    -1.5270    -1.4580 H     1 <1>   0.0800 
 29 H        0.8080    -2.9710    -0.6530 H     1 <1>   0.0800 
 30 H        3.7040    -0.3610    -0.6150 H     1 <1>   0.4500 
 31 H        4.2010     1.3450     1.7540 H     1 <1>   0.0800 
 32 H        5.3740     0.2590     1.0400 H     1 <1>   0.0800 
 33 H        2.2790    -4.8420    -0.6290 H     1 <1>   0.1500 
 34 H        5.6420    -2.1200    -2.5780 H     1 <1>   0.1500 
 35 H        5.8300     0.5180    -1.4850 H     1 <1>   0.1500 
 36 H        3.9930     3.5960     0.8510 H     1 <1>   0.1500 
 37 H        5.9410    -4.5090    -2.3700 H     1 <1>   0.1500 
 38 H        4.6350     5.1640    -0.9550 H     1 <1>   0.1500 
 39 H        5.8200     4.3320    -2.9170 H     1 <1>   0.1500 
@<TRIPOS>BOND
  1   1   2  1   
  2   1  21  1   
  3   2   3  1   
  4   2   4  1   
  5   2  22  1   
  6   3   5  1   
  7   3   6  1   
  8   3  23  1   
  9   4   7  1   
 10   4  24  1   
 11   4  25  1   
 12   5   7  1   
 13   5  26  1   
 14   5  27  1   
 15   6   8  1   
 16   6  28  1   
 17   6  29  1   
 18   7   9  1   
 19   7  30  1   
 20   8  10  ar  
 21   8  11  ar  
 22   9  12  1   
 23   9  31  1   
 24   9  32  1   
 25  10  13  ar  
 26  11  14  ar  
 27  11  33  1   
 28  12  15  ar  
 29  12  16  ar  
 30  13  17  ar  
 31  13  34  1   
 32  14  17  ar  
 33  15  18  ar  
 34  15  35  1   
 35  16  19  ar  
 36  16  36  1   
 37  17  37  1   
 38  18  20  ar  
 39  19  20  ar  
 40  19  38  1   
 41  20  39  1   
@<TRIPOS>SUBSTRUCTURE
  1 ****   7 GROUP 4 **** **** 0

# MOE 2024.06 (io_trps.svl 2023.06)
