@<TRIPOS>MOLECULE
NONAME
55 58 1 0 0 
SMALL
USER_CHARGES


@<TRIPOS>ATOM
  1 O        1.7740     0.7930    -3.4080 O.co2 1 <1>  -0.9020 
  2 C        1.9320    -0.1900    -2.6690 C.2   1 <1>   0.9770 
  3 O        1.0310    -1.0310    -2.5440 O.co2 1 <1>  -0.9020 
  4 C        3.1760    -0.3430    -1.9520 C.ar  1 <1>  -0.1860 
  5 C        3.3710    -1.4480    -1.1060 C.ar  1 <1>   0.1530 
  6 C        4.1980     0.5870    -2.0780 C.ar  1 <1>  -0.1160 
  7 N        4.4620    -1.6970    -0.3990 N.ar  1 <1>  -0.5830 
  8 C        5.3380     0.3420    -1.3480 C.ar  1 <1>   0.3030 
  9 C        5.4100    -0.7850    -0.5520 C.ar  1 <1>   0.6150 
 10 N        6.5350     1.0070    -1.1970 N.pl3 1 <1>  -0.7030 
 11 N        6.6410    -0.7860     0.0670 N.pl3 1 <1>  -0.7670 
 12 C        7.2990     0.3050    -0.3630 C.cat 1 <1>   1.0690 
 13 C        6.8910    -1.6700     1.2270 C.3   1 <1>   0.3490 
 14 N        8.5450     0.6980    -0.0350 N.pl3 1 <1>  -0.5960 
 15 C        6.4810    -0.9430     2.5040 C.3   1 <1>  -0.2460 
 16 C        8.9620     2.1360    -0.0130 C.3   1 <1>   0.1610 
 17 C        9.6880    -0.2200     0.2280 C.3   1 <1>   0.1610 
 18 C        9.5560     2.5040     1.3590 C.3   1 <1>   0.0930 
 19 C       10.2710     0.0720     1.6140 C.3   1 <1>  -0.1670 
 20 C       10.0250     3.9520     1.3590 C.2   1 <1>   0.2920 
 21 C       10.7010     1.5440     1.7370 C.3   1 <1>  -0.1670 
 22 O       10.4170     4.4810     2.4900 O.3   1 <1>  -0.0270 
 23 N       10.0660     4.7250     0.3480 N.2   1 <1>  -0.5690 
 24 N       10.7370     5.6970     2.1720 N.2   1 <1>  -0.4150 
 25 C       10.5270     5.8290     0.9240 C.2   1 <1>   0.3290 
 26 C       10.7750     7.1010     0.1320 C.3   1 <1>   0.0140 
 27 C        9.6090     8.1060     0.2140 C.3   1 <1>  -0.0870 
 28 C        8.3190     7.5460    -0.4040 C.3   1 <1>  -0.2460 
 29 C        9.9850     9.4170    -0.4870 C.3   1 <1>  -0.2460 
 30 H        2.5580    -2.1560    -1.0280 H     1 <1>   0.1430 
 31 H        4.0900     1.4500    -2.7150 H     1 <1>   0.1430 
 32 H        6.8040     1.8540    -1.6910 H     1 <1>   0.4450 
 33 H        7.9220    -1.9570     1.2880 H     1 <1>   0.0730 
 34 H        6.3150    -2.5770     1.1290 H     1 <1>   0.0730 
 35 H        7.0520    -0.0420     2.6360 H     1 <1>   0.0730 
 36 H        6.6560    -1.5820     3.3510 H     1 <1>   0.0730 
 37 H        5.4320    -0.7060     2.4770 H     1 <1>   0.0730 
 38 H        8.1260     2.7840    -0.2110 H     1 <1>   0.0730 
 39 H        9.7020     2.3000    -0.7800 H     1 <1>   0.0730 
 40 H       10.4510    -0.0420    -0.5130 H     1 <1>   0.0730 
 41 H        9.4000    -1.2500     0.1320 H     1 <1>   0.0730 
 42 H        8.7770     2.4230     2.0960 H     1 <1>   0.0730 
 43 H       11.1270    -0.5610     1.7780 H     1 <1>   0.0730 
 44 H        9.5460    -0.1640     2.3720 H     1 <1>   0.0730 
 45 H       11.0240     1.7420     2.7460 H     1 <1>   0.0730 
 46 H       11.5410     1.7240     1.0860 H     1 <1>   0.0730 
 47 H       10.9670     6.8440    -0.8950 H     1 <1>   0.0730 
 48 H       11.6640     7.5630     0.5230 H     1 <1>   0.0730 
 49 H        9.4220     8.3210     1.2540 H     1 <1>   0.0730 
 50 H        8.4760     7.2830    -1.4350 H     1 <1>   0.0730 
 51 H        7.5330     8.2790    -0.3510 H     1 <1>   0.0730 
 52 H        7.9930     6.6720     0.1310 H     1 <1>   0.0730 
 53 H       10.1770     9.2470    -1.5320 H     1 <1>   0.0730 
 54 H       10.8660     9.8430    -0.0390 H     1 <1>   0.0730 
 55 H        9.1850    10.1310    -0.3970 H     1 <1>   0.0730 
@<TRIPOS>BOND
  1   1   2  ar  
  2   2   3  ar  
  3   2   4  1   
  4   4   5  ar  
  5   4   6  ar  
  6   5   7  ar  
  7   5  30  1   
  8   6   8  ar  
  9   6  31  1   
 10   7   9  ar  
 11   8   9  ar  
 12   8  10  1   
 13   9  11  1   
 14  10  12  ar  
 15  10  32  1   
 16  11  12  ar  
 17  11  13  1   
 18  12  14  ar  
 19  13  15  1   
 20  13  33  1   
 21  13  34  1   
 22  14  16  1   
 23  14  17  1   
 24  15  35  1   
 25  15  36  1   
 26  15  37  1   
 27  16  18  1   
 28  16  38  1   
 29  16  39  1   
 30  17  19  1   
 31  17  40  1   
 32  17  41  1   
 33  18  20  1   
 34  18  21  1   
 35  18  42  1   
 36  19  21  1   
 37  19  43  1   
 38  19  44  1   
 39  20  22  1   
 40  20  23  2   
 41  21  45  1   
 42  21  46  1   
 43  22  24  1   
 44  23  25  1   
 45  24  25  2   
 46  25  26  1   
 47  26  27  1   
 48  26  47  1   
 49  26  48  1   
 50  27  28  1   
 51  27  29  1   
 52  27  49  1   
 53  28  50  1   
 54  28  51  1   
 55  28  52  1   
 56  29  53  1   
 57  29  54  1   
 58  29  55  1   
@<TRIPOS>SUBSTRUCTURE
  1 ****  16 GROUP 4 **** **** 0

# MOE 2024.06 (io_trps.svl 2023.06)
