@<TRIPOS>MOLECULE
NONAME
58 61 1 0 0 
SMALL
USER_CHARGES


@<TRIPOS>ATOM
  1 F       -1.4140    -1.2380     0.0700 F     1 <1>  -0.1900 
  2 C       -1.9990    -0.0830     0.2300 C.ar  1 <1>   0.1900 
  3 C       -1.8720     0.8670    -0.7640 C.ar  1 <1>  -0.1500 
  4 C       -2.7180     0.1500     1.3830 C.ar  1 <1>  -0.1500 
  5 C       -2.4830     2.1030    -0.6030 C.ar  1 <1>  -0.1440 
  6 C       -3.3320     1.3790     1.5400 C.ar  1 <1>  -0.1500 
  7 C       -3.2320     2.3630     0.5560 C.ar  1 <1>  -0.0230 
  8 C       -2.3130     3.1440    -1.7040 C.3   1 <1>   0.4870 
  9 N       -3.8900     3.6110     0.7660 N.pl3 1 <1>   0.5930 
 10 N       -1.4070     4.2280    -1.2410 N.4   1 <1>  -0.9590 
 11 N       -3.2040     4.7820     0.8530 N.2   1 <1>  -0.7070 
 12 C       -5.2260     3.8520     0.8330 C.2   1 <1>  -0.3320 
 13 C       -1.3380     5.3530    -2.2060 C.3   1 <1>   0.3430 
 14 C       -0.0720     3.7500    -0.7900 C.3   1 <1>   0.3430 
 15 C       -4.1020     5.7010     1.0110 C.2   1 <1>   0.1080 
 16 C       -5.3890     5.1810     0.9980 C.2   1 <1>  -0.1500 
 17 C       -6.3080     2.7860     0.7380 C.3   1 <1>  -0.0600 
 18 C       -0.6170     6.5270    -1.5510 C.3   1 <1>  -0.1600 
 19 C        0.6710     4.9020    -0.1180 C.3   1 <1>  -0.1600 
 20 C       -3.7650     7.1650     1.1880 C.3   1 <1>  -0.0590 
 21 C        0.7790     6.1310    -1.0360 C.3   1 <1>   0.1000 
 22 C        1.4720     7.2800    -0.3110 C.2   1 <1>   0.2980 
 23 O        2.7430     7.1470    -0.0260 O.3   1 <1>  -0.0190 
 24 N        0.9400     8.3770     0.0550 N.2   1 <1>  -0.5650 
 25 N        3.0470     8.2550     0.5730 N.2   1 <1>  -0.4100 
 26 C        1.9900     8.9680     0.6160 C.2   1 <1>   0.3350 
 27 C        1.8730    10.3680     1.2230 C.3   1 <1>   0.1010 
 28 C        2.0210    11.4420     0.1360 C.3   1 <1>  -0.2400 
 29 C        2.8970    10.6120     2.3440 C.3   1 <1>  -0.2400 
 30 H       -1.2980     0.6210    -1.6410 H     1 <1>   0.1500 
 31 H       -2.7920    -0.6150     2.1370 H     1 <1>   0.1500 
 32 H       -3.8920     1.5760     2.4400 H     1 <1>   0.1500 
 33 H       -3.2790     3.5580    -1.9500 H     1 <1>   0.0800 
 34 H       -1.9090     2.6780    -2.5880 H     1 <1>   0.0800 
 35 H       -1.8780     4.6030    -0.3880 H     1 <1>   0.4500 
 36 H       -2.3340     5.6610    -2.4860 H     1 <1>   0.0800 
 37 H       -0.8090     5.0470    -3.0940 H     1 <1>   0.0800 
 38 H        0.4940     3.3880    -1.6330 H     1 <1>   0.0800 
 39 H       -0.1860     2.9440    -0.0820 H     1 <1>   0.0800 
 40 H       -6.3010     5.7430     1.1030 H     1 <1>   0.1500 
 41 H       -6.2130     2.2310    -0.1790 H     1 <1>   0.0800 
 42 H       -7.2820     3.2420     0.7600 H     1 <1>   0.0800 
 43 H       -6.2380     2.1030     1.5670 H     1 <1>   0.0800 
 44 H       -1.2180     6.8950    -0.7360 H     1 <1>   0.0800 
 45 H       -0.5210     7.3270    -2.2640 H     1 <1>   0.0800 
 46 H        1.6570     4.5690     0.1570 H     1 <1>   0.0800 
 47 H        0.1580     5.1710     0.7910 H     1 <1>   0.0800 
 48 H       -2.8530     7.2650     1.7490 H     1 <1>   0.0800 
 49 H       -4.5520     7.6640     1.7220 H     1 <1>   0.0800 
 50 H       -3.6410     7.6330     0.2300 H     1 <1>   0.0800 
 51 H        1.3910     5.8750    -1.8840 H     1 <1>   0.0800 
 52 H        0.8890    10.4520     1.6510 H     1 <1>   0.0800 
 53 H        2.9930    11.3770    -0.3200 H     1 <1>   0.0800 
 54 H        1.8980    12.4240     0.5570 H     1 <1>   0.0800 
 55 H        1.2750    11.2990    -0.6250 H     1 <1>   0.0800 
 56 H        3.8990    10.5610     1.9560 H     1 <1>   0.0800 
 57 H        2.7890     9.8620     3.1080 H     1 <1>   0.0800 
 58 H        2.7450    11.5790     2.7880 H     1 <1>   0.0800 
@<TRIPOS>BOND
  1   1   2  1   
  2   2   3  ar  
  3   2   4  ar  
  4   3   5  ar  
  5   3  30  1   
  6   4   6  ar  
  7   4  31  1   
  8   5   7  ar  
  9   5   8  1   
 10   6   7  ar  
 11   6  32  1   
 12   7   9  1   
 13   8  10  1   
 14   8  33  1   
 15   8  34  1   
 16   9  11  1   
 17   9  12  1   
 18  10  13  1   
 19  10  14  1   
 20  10  35  1   
 21  11  15  2   
 22  12  16  2   
 23  12  17  1   
 24  13  18  1   
 25  13  36  1   
 26  13  37  1   
 27  14  19  1   
 28  14  38  1   
 29  14  39  1   
 30  15  16  1   
 31  15  20  1   
 32  16  40  1   
 33  17  41  1   
 34  17  42  1   
 35  17  43  1   
 36  18  21  1   
 37  18  44  1   
 38  18  45  1   
 39  19  21  1   
 40  19  46  1   
 41  19  47  1   
 42  20  48  1   
 43  20  49  1   
 44  20  50  1   
 45  21  22  1   
 46  21  51  1   
 47  22  23  1   
 48  22  24  2   
 49  23  25  1   
 50  24  26  1   
 51  25  26  2   
 52  26  27  1   
 53  27  28  1   
 54  27  29  1   
 55  27  52  1   
 56  28  53  1   
 57  28  54  1   
 58  28  55  1   
 59  29  56  1   
 60  29  57  1   
 61  29  58  1   
@<TRIPOS>SUBSTRUCTURE
  1 ****  10 GROUP 4 **** **** 0

# MOE 2024.06 (io_trps.svl 2023.06)
