@<TRIPOS>MOLECULE
NONAME
58 61 1 0 0 
SMALL
USER_CHARGES


@<TRIPOS>ATOM
  1 O        0.2390    -0.4060     0.4370 O.2   1 <1>  -0.5700 
  2 C        1.3000    -0.9060     0.1010 C.2   1 <1>   0.7150 
  3 N        2.4250    -0.1090     0.0950 N.am  1 <1>  -0.6600 
  4 C        1.3130    -2.3010    -0.2960 C.2   1 <1>   0.0550 
  5 C        2.2430     1.3820     0.1640 C.3   1 <1>   0.3210 
  6 C        3.8250    -0.6490     0.0270 C.3   1 <1>   0.1400 
  7 O        0.4710    -3.1570     0.2760 O.3   1 <1>  -0.2800 
  8 C        2.0320    -2.9880    -1.2290 C.2   1 <1>  -0.1500 
  9 C        3.5390     2.1340     0.4210 C.2   1 <1>  -0.1810 
 10 C        4.7490     0.0160     1.0510 C.3   1 <1>   0.0210 
 11 C        0.6110    -4.3450    -0.2630 C.2   1 <1>  -0.0400 
 12 C        1.5800    -4.3100    -1.2050 C.2   1 <1>  -0.1500 
 13 C        3.8730     3.4430     0.3240 C.2   1 <1>  -0.3320 
 14 C        4.6990     1.5050     0.8400 C.2   1 <1>   0.1080 
 15 C       -0.2820    -5.4780     0.2150 C.3   1 <1>   0.5230 
 16 N        5.1760     3.5230     0.6770 N.pl3 1 <1>   0.3000 
 17 C        3.0720     4.6710    -0.0850 C.3   1 <1>   0.1000 
 18 N        5.6900     2.3210     0.9970 N.2   1 <1>  -0.7070 
 19 N       -1.7070    -5.1530    -0.0870 N.4   1 <1>  -0.9590 
 20 C        1.6790     4.6730     0.5480 C.3   1 <1>  -0.2400 
 21 C        2.9770     4.7360    -1.6090 C.3   1 <1>  -0.2400 
 22 C       -2.2710    -4.1660     0.8860 C.3   1 <1>   0.3430 
 23 C       -2.5430    -6.3810    -0.1850 C.3   1 <1>   0.3430 
 24 C       -3.6790    -3.7610     0.4510 C.3   1 <1>  -0.1600 
 25 C       -3.9540    -6.0100    -0.6420 C.3   1 <1>  -0.1600 
 26 C       -4.6010    -4.9800     0.2950 C.3   1 <1>  -0.0800 
 27 C       -5.9730    -4.5530    -0.2350 C.3   1 <1>  -0.2400 
 28 H        1.5560     1.6170     0.9580 H     1 <1>   0.0800 
 29 H        1.8140     1.7240    -0.7610 H     1 <1>   0.0800 
 30 H        4.2160    -0.4710    -0.9610 H     1 <1>   0.0800 
 31 H        3.8310    -1.7080     0.2110 H     1 <1>   0.0800 
 32 H        2.7930    -2.6070    -1.8870 H     1 <1>   0.1500 
 33 H        5.7570    -0.3310     0.9180 H     1 <1>   0.0800 
 34 H        4.4320    -0.2180     2.0500 H     1 <1>   0.0800 
 35 H        1.9530    -5.1000    -1.8350 H     1 <1>   0.1500 
 36 H       -0.1480    -5.6280     1.2740 H     1 <1>   0.0800 
 37 H        0.0050    -6.3800    -0.2980 H     1 <1>   0.0800 
 38 H        5.7410     4.3800     0.7090 H     1 <1>   0.2700 
 39 H        3.5880     5.5510     0.2630 H     1 <1>   0.0800 
 40 H       -1.7070    -4.6840    -1.0020 H     1 <1>   0.4500 
 41 H        1.0670     3.8910     0.1400 H     1 <1>   0.0800 
 42 H        1.1920     5.6130     0.3620 H     1 <1>   0.0800 
 43 H        1.7590     4.5340     1.6110 H     1 <1>   0.0800 
 44 H        2.4640     3.8700    -1.9900 H     1 <1>   0.0800 
 45 H        3.9620     4.7640    -2.0400 H     1 <1>   0.0800 
 46 H        2.4430     5.6180    -1.9150 H     1 <1>   0.0800 
 47 H       -1.6550    -3.2820     0.9320 H     1 <1>   0.0800 
 48 H       -2.3090    -4.6020     1.8710 H     1 <1>   0.0800 
 49 H       -2.5960    -6.8640     0.7780 H     1 <1>   0.0800 
 50 H       -2.1100    -7.0710    -0.8910 H     1 <1>   0.0800 
 51 H       -3.6190    -3.2150    -0.4740 H     1 <1>   0.0800 
 52 H       -4.0900    -3.0940     1.1900 H     1 <1>   0.0800 
 53 H       -4.5580    -6.9010    -0.6640 H     1 <1>   0.0800 
 54 H       -3.9120    -5.6250    -1.6470 H     1 <1>   0.0800 
 55 H       -4.7410    -5.4320     1.2640 H     1 <1>   0.0800 
 56 H       -5.8870    -4.0910    -1.2040 H     1 <1>   0.0800 
 57 H       -6.4330    -3.8500     0.4370 H     1 <1>   0.0800 
 58 H       -6.6250    -5.4060    -0.3220 H     1 <1>   0.0800 
@<TRIPOS>BOND
  1   1   2  2   
  2   2   3  am  
  3   2   4  1   
  4   3   5  1   
  5   3   6  1   
  6   4   7  1   
  7   4   8  2   
  8   5   9  1   
  9   5  28  1   
 10   5  29  1   
 11   6  10  1   
 12   6  30  1   
 13   6  31  1   
 14   7  11  1   
 15   8  12  1   
 16   8  32  1   
 17   9  13  2   
 18   9  14  1   
 19  10  14  1   
 20  10  33  1   
 21  10  34  1   
 22  11  12  2   
 23  11  15  1   
 24  12  35  1   
 25  13  16  1   
 26  13  17  1   
 27  14  18  2   
 28  15  19  1   
 29  15  36  1   
 30  15  37  1   
 31  16  18  1   
 32  16  38  1   
 33  17  20  1   
 34  17  21  1   
 35  17  39  1   
 36  19  22  1   
 37  19  23  1   
 38  19  40  1   
 39  20  41  1   
 40  20  42  1   
 41  20  43  1   
 42  21  44  1   
 43  21  45  1   
 44  21  46  1   
 45  22  24  1   
 46  22  47  1   
 47  22  48  1   
 48  23  25  1   
 49  23  49  1   
 50  23  50  1   
 51  24  26  1   
 52  24  51  1   
 53  24  52  1   
 54  25  26  1   
 55  25  53  1   
 56  25  54  1   
 57  26  27  1   
 58  26  55  1   
 59  27  56  1   
 60  27  57  1   
 61  27  58  1   
@<TRIPOS>SUBSTRUCTURE
  1 ****   2 GROUP 4 **** **** 0

# MOE 2024.06 (io_trps.svl 2023.06)
