@<TRIPOS>MOLECULE
NONAME
48 50 1 0 0 
SMALL
USER_CHARGES


@<TRIPOS>ATOM
  1 O        0.3750     0.3420    -0.8550 O.2   1 <1>  -0.5700 
  2 C        0.7470     1.4130    -0.4180 C.2   1 <1>   0.6900 
  3 N       -0.0420     2.2340     0.3300 N.am  1 <1>  -0.4200 
  4 N        2.0010     1.9210    -0.5880 N.am  1 <1>  -0.6600 
  5 C        0.6710     3.3250     0.7200 C.2   1 <1>   0.5690 
  6 C       -1.4450     1.9380     0.7000 C.3   1 <1>   0.0600 
  7 C        2.0920     3.2410     0.1280 C.3   1 <1>   0.3610 
  8 C        3.1370     1.1120    -1.1120 C.3   1 <1>   0.0600 
  9 O        0.2470     4.2150     1.4200 O.2   1 <1>  -0.5700 
 10 C        2.3100     4.4010    -0.8620 C.3   1 <1>  -0.1600 
 11 C        3.1510     3.2270     1.2460 C.3   1 <1>  -0.1600 
 12 C        3.7520     4.5320    -1.3420 C.3   1 <1>   0.2090 
 13 C        4.5840     3.3890     0.7380 C.3   1 <1>   0.2090 
 14 N        4.6510     4.5550    -0.1690 N.pl3 1 <1>  -0.8380 
 15 C        5.7750     5.3570    -0.1620 C.ar  1 <1>   0.4100 
 16 N        6.9250     4.6910    -0.2250 N.ar  1 <1>  -0.6200 
 17 C        5.6910     6.7590    -0.1110 C.ar  1 <1>   0.0860 
 18 C        8.0350     5.4000    -0.2440 C.ar  1 <1>   0.1670 
 19 C        4.4320     7.4540    -0.0430 C.2   1 <1>   0.5440 
 20 C        6.8780     7.4760    -0.1330 C.ar  1 <1>  -0.1500 
 21 C        8.0720     6.7900    -0.1990 C.ar  1 <1>  -0.1440 
 22 C        9.3150     4.5870    -0.3150 C.3   1 <1>  -0.0970 
 23 O        3.6700     7.3550     0.8950 O.2   1 <1>  -0.5700 
 24 N        4.0540     8.3070    -1.0260 N.am  1 <1>  -0.8000 
 25 C        9.3790     7.5730    -0.2120 C.3   1 <1>  -0.0970 
 26 H       -2.0060     1.6980    -0.1860 H     1 <1>   0.0800 
 27 H       -1.8900     2.7910     1.1820 H     1 <1>   0.0800 
 28 H       -1.4680     1.0970     1.3700 H     1 <1>   0.0800 
 29 H        2.7590     0.2740    -1.6730 H     1 <1>   0.0800 
 30 H        3.7240     0.7340    -0.2950 H     1 <1>   0.0800 
 31 H        3.7580     1.6970    -1.7620 H     1 <1>   0.0800 
 32 H        2.0570     5.3220    -0.3650 H     1 <1>   0.0800 
 33 H        1.6490     4.2970    -1.7030 H     1 <1>   0.0800 
 34 H        3.0630     2.3300     1.8300 H     1 <1>   0.0800 
 35 H        2.9580     4.0580     1.9030 H     1 <1>   0.0800 
 36 H        3.8620     5.4410    -1.9070 H     1 <1>   0.0800 
 37 H        4.0220     3.7160    -1.9840 H     1 <1>   0.0800 
 38 H        4.9230     2.5150     0.2150 H     1 <1>   0.0800 
 39 H        5.2440     3.5470     1.5750 H     1 <1>   0.0800 
 40 H        6.8520     8.5500    -0.0880 H     1 <1>   0.1500 
 41 H        9.0940     3.5600    -0.5430 H     1 <1>   0.0800 
 42 H        9.8200     4.6240     0.6320 H     1 <1>   0.0800 
 43 H        9.9620     4.9680    -1.0820 H     1 <1>   0.0800 
 44 H        3.1700     8.8060    -0.9240 H     1 <1>   0.3700 
 45 H        4.6080     8.4970    -1.8590 H     1 <1>   0.3700 
 46 H       10.0270     7.2260     0.5730 H     1 <1>   0.0800 
 47 H        9.2030     8.6220    -0.0600 H     1 <1>   0.0800 
 48 H        9.8760     7.4460    -1.1570 H     1 <1>   0.0800 
@<TRIPOS>BOND
  1   1   2  2   
  2   2   3  am  
  3   2   4  am  
  4   3   5  am  
  5   3   6  1   
  6   4   7  1   
  7   4   8  1   
  8   5   7  1   
  9   5   9  2   
 10   6  26  1   
 11   6  27  1   
 12   6  28  1   
 13   7  10  1   
 14   7  11  1   
 15   8  29  1   
 16   8  30  1   
 17   8  31  1   
 18  10  12  1   
 19  10  32  1   
 20  10  33  1   
 21  11  13  1   
 22  11  34  1   
 23  11  35  1   
 24  12  14  1   
 25  12  36  1   
 26  12  37  1   
 27  13  14  1   
 28  13  38  1   
 29  13  39  1   
 30  14  15  1   
 31  15  16  ar  
 32  15  17  ar  
 33  16  18  ar  
 34  17  19  1   
 35  17  20  ar  
 36  18  21  ar  
 37  18  22  1   
 38  19  23  2   
 39  19  24  am  
 40  20  21  ar  
 41  20  40  1   
 42  21  25  1   
 43  22  41  1   
 44  22  42  1   
 45  22  43  1   
 46  24  44  1   
 47  24  45  1   
 48  25  46  1   
 49  25  47  1   
 50  25  48  1   
@<TRIPOS>SUBSTRUCTURE
  1 ****  14 GROUP 4 **** **** 0

# MOE 2024.06 (io_trps.svl 2023.06)
