@<TRIPOS>MOLECULE
Untitled Document
48 50 1 0 0 
SMALL
USER_CHARGES


@<TRIPOS>ATOM
  1 CL       2.4650     2.3830    -2.8290 Cl    1 <1>  -0.1770 
  2 C        1.8120     2.7810    -1.2570 C.ar  1 <1>   0.1770 
  3 C        2.0460     1.9400    -0.1650 C.ar  1 <1>   0.0540 
  4 C        1.0620     3.9360    -1.1480 C.ar  1 <1>  -0.1500 
  5 C        2.8310     0.7350    -0.2580 C.2   1 <1>  -0.0540 
  6 C        1.4740     2.2990     1.0560 C.ar  1 <1>  -0.1500 
  7 C        0.5220     4.2610     0.0800 C.ar  1 <1>   0.1770 
  8 C        2.4020    -0.5420    -0.0370 C.2   1 <1>  -0.0260 
  9 C        4.1860     0.5860    -0.5680 C.2   1 <1>   0.1080 
 10 C        0.7190     3.4520     1.1840 C.ar  1 <1>  -0.1500 
 11 CL      -0.4260     5.7160     0.2410 Cl    1 <1>  -0.1770 
 12 N        1.1810    -1.0470     0.3220 N.2   1 <1>  -0.5760 
 13 N        3.4660    -1.3650    -0.2360 N.pl3 1 <1>   0.5610 
 14 N        4.5840    -0.6480    -0.5600 N.2   1 <1>  -0.7070 
 15 C        5.1490     1.7120    -0.8770 C.3   1 <1>  -0.0590 
 16 C        1.1000    -2.3320     0.4550 C.2   1 <1>   0.6000 
 17 C        3.2660    -2.7480    -0.0630 C.2   1 <1>   0.5090 
 18 N        2.1020    -3.2300     0.2800 N.2   1 <1>  -0.6610 
 19 C       -0.2250    -2.9330     0.8460 C.3   1 <1>  -0.1790 
 20 N        4.3110    -3.6140    -0.2520 N.pl3 1 <1>  -0.8190 
 21 C        4.3730    -5.0290     0.1870 C.3   1 <1>   0.2890 
 22 C        5.8390    -5.4970     0.1970 C.3   1 <1>   0.1200 
 23 C        3.5280    -5.9180    -0.7430 C.3   1 <1>   0.1200 
 24 O        6.6690    -4.5060     0.7380 O.3   1 <1>  -0.5600 
 25 O        3.6690    -7.2720    -0.4070 O.3   1 <1>  -0.5600 
 26 C        8.0150    -4.8540     0.7680 C.3   1 <1>   0.0400 
 27 C        2.8060    -7.7150     0.5930 C.3   1 <1>   0.0400 
 28 H        0.8980     4.5670    -2.0020 H     1 <1>   0.1500 
 29 H        1.6250     1.6570     1.9070 H     1 <1>   0.1500 
 30 H        0.2820     3.7220     2.1290 H     1 <1>   0.1500 
 31 H        4.7580     2.6530    -0.5400 H     1 <1>   0.0800 
 32 H        5.3180     1.7580    -1.9370 H     1 <1>   0.0800 
 33 H        6.0860     1.5290    -0.3840 H     1 <1>   0.0800 
 34 H       -0.5460    -3.6180     0.0840 H     1 <1>   0.0800 
 35 H       -0.9660    -2.1640     0.9610 H     1 <1>   0.0800 
 36 H       -0.1190    -3.4610     1.7750 H     1 <1>   0.0800 
 37 H        5.2530    -3.1960    -0.2910 H     1 <1>   0.4000 
 38 H        3.9790    -5.0910     1.1860 H     1 <1>   0.0800 
 39 H        6.1620    -5.7000    -0.8090 H     1 <1>   0.0800 
 40 H        5.9330    -6.3950     0.7840 H     1 <1>   0.0800 
 41 H        3.8770    -5.8050    -1.7540 H     1 <1>   0.0800 
 42 H        2.4880    -5.6470    -0.7040 H     1 <1>   0.0800 
 43 H        8.5630    -4.0340     1.1990 H     1 <1>   0.0800 
 44 H        8.3590    -5.0330    -0.2360 H     1 <1>   0.0800 
 45 H        8.1420    -5.7330     1.3760 H     1 <1>   0.0800 
 46 H        3.0050    -8.7580     0.7680 H     1 <1>   0.0800 
 47 H        1.7890    -7.5930     0.2630 H     1 <1>   0.0800 
 48 H        2.9800    -7.1570     1.4960 H     1 <1>   0.0800 
@<TRIPOS>BOND
  1   1   2  1   
  2   2   3  ar  
  3   2   4  ar  
  4   3   5  1   
  5   3   6  ar  
  6   4   7  ar  
  7   4  28  1   
  8   5   8  2   
  9   5   9  1   
 10   6  10  ar  
 11   6  29  1   
 12   7  10  ar  
 13   7  11  1   
 14   8  12  1   
 15   8  13  1   
 16   9  14  2   
 17   9  15  1   
 18  10  30  1   
 19  12  16  2   
 20  13  14  1   
 21  13  17  1   
 22  15  31  1   
 23  15  32  1   
 24  15  33  1   
 25  16  18  1   
 26  16  19  1   
 27  17  18  2   
 28  17  20  1   
 29  19  34  1   
 30  19  35  1   
 31  19  36  1   
 32  20  21  1   
 33  20  37  1   
 34  21  22  1   
 35  21  23  1   
 36  21  38  1   
 37  22  24  1   
 38  22  39  1   
 39  22  40  1   
 40  23  25  1   
 41  23  41  1   
 42  23  42  1   
 43  24  26  1   
 44  25  27  1   
 45  26  43  1   
 46  26  44  1   
 47  26  45  1   
 48  27  46  1   
 49  27  47  1   
 50  27  48  1   
@<TRIPOS>SUBSTRUCTURE
  1 ****  13 GROUP 4 **** **** 0

# MOE 2024.06 (io_trps.svl 2023.06)
