@<TRIPOS>MOLECULE
NONAME
46 47 1 0 0 
SMALL
USER_CHARGES


@<TRIPOS>ATOM
  1 S        0.1280     0.0860     0.8320 S.o2  1 <1>   1.3330 
  2 O       -0.9830     0.2100     1.7480 O.2   1 <1>  -0.6500 
  3 O        1.4820     0.1110     1.3380 O.2   1 <1>  -0.6500 
  4 N       -0.0690    -1.3420    -0.0640 N.am  1 <1>  -0.8490 
  5 C       -0.0520     1.3640    -0.4100 C.3   1 <1>  -0.0550 
  6 C        1.1630    -1.7970    -0.7160 C.3   1 <1>   0.1160 
  7 C       -0.6360    -2.4280     0.7420 C.3   1 <1>   0.1160 
  8 C       -0.0420     2.7850     0.1780 C.3   1 <1>  -0.0800 
  9 C       -0.3060     3.8540    -0.8780 C.3   1 <1>   0.2000 
 10 C        1.2920     3.2030     0.8020 C.3   1 <1>   0.1400 
 11 O       -1.6670     3.9740    -1.1040 O.3   1 <1>  -0.6800 
 12 C        0.2940     5.1390    -0.3110 C.3   1 <1>   0.1400 
 13 N        1.3530     4.6730     0.6170 N.am  1 <1>  -0.6600 
 14 C        2.4030     5.4390     1.0640 C.2   1 <1>   0.5440 
 15 O        3.3310     4.8900     1.6230 O.2   1 <1>  -0.5700 
 16 C        2.4080     6.8740     0.8720 C.ar  1 <1>   0.0860 
 17 C        3.3350     7.5150     0.0430 C.ar  1 <1>   0.1670 
 18 C        1.4660     7.6690     1.5090 C.ar  1 <1>  -0.1500 
 19 N        3.3650     8.8190    -0.1870 N.ar  1 <1>  -0.6200 
 20 C        4.4070     6.7140    -0.6760 C.3   1 <1>  -0.0970 
 21 C        1.4950     9.0260     1.2800 C.ar  1 <1>  -0.1500 
 22 C        2.4540     9.5500     0.4300 C.ar  1 <1>   0.1670 
 23 C        2.5080    11.0380     0.1600 C.3   1 <1>  -0.0970 
 24 H        0.7300     1.2710    -1.1370 H     1 <1>   0.0800 
 25 H       -0.9870     1.2150    -0.9160 H     1 <1>   0.0800 
 26 H        0.9590    -2.6510    -1.3380 H     1 <1>   0.0800 
 27 H        1.9020    -2.0690     0.0210 H     1 <1>   0.0800 
 28 H        1.5670    -1.0150    -1.3360 H     1 <1>   0.0800 
 29 H       -0.7630    -3.3120     0.1410 H     1 <1>   0.0800 
 30 H       -1.6020    -2.1400     1.1220 H     1 <1>   0.0800 
 31 H        0.0090    -2.6530     1.5740 H     1 <1>   0.0800 
 32 H       -0.7900     2.8560     0.9500 H     1 <1>   0.0800 
 33 H        0.1730     3.6120    -1.8120 H     1 <1>   0.0800 
 34 H        2.1250     2.7510     0.2910 H     1 <1>   0.0800 
 35 H        1.3420     2.9490     1.8490 H     1 <1>   0.0800 
 36 H       -2.1460     4.1160    -0.2640 H     1 <1>   0.4000 
 37 H       -0.4420     5.6950     0.2430 H     1 <1>   0.0800 
 38 H        0.7120     5.7470    -1.0950 H     1 <1>   0.0800 
 39 H        0.7380     7.2270     2.1680 H     1 <1>   0.1500 
 40 H        3.9850     5.8390    -1.1350 H     1 <1>   0.0800 
 41 H        5.1600     6.4110     0.0290 H     1 <1>   0.0800 
 42 H        4.8730     7.3080    -1.4410 H     1 <1>   0.0800 
 43 H        0.7810     9.6700     1.7590 H     1 <1>   0.1500 
 44 H        1.7360    11.5590     0.6950 H     1 <1>   0.0800 
 45 H        2.3850    11.2160    -0.8920 H     1 <1>   0.0800 
 46 H        3.4640    11.4220     0.4660 H     1 <1>   0.0800 
@<TRIPOS>BOND
  1   1   2  2   
  2   1   3  2   
  3   1   4  am  
  4   1   5  1   
  5   4   6  1   
  6   4   7  1   
  7   5   8  1   
  8   5  24  1   
  9   5  25  1   
 10   6  26  1   
 11   6  27  1   
 12   6  28  1   
 13   7  29  1   
 14   7  30  1   
 15   7  31  1   
 16   8   9  1   
 17   8  10  1   
 18   8  32  1   
 19   9  11  1   
 20   9  12  1   
 21   9  33  1   
 22  10  13  1   
 23  10  34  1   
 24  10  35  1   
 25  11  36  1   
 26  12  13  1   
 27  12  37  1   
 28  12  38  1   
 29  13  14  am  
 30  14  15  2   
 31  14  16  1   
 32  16  17  ar  
 33  16  18  ar  
 34  17  19  ar  
 35  17  20  1   
 36  18  21  ar  
 37  18  39  1   
 38  19  22  ar  
 39  20  40  1   
 40  20  41  1   
 41  20  42  1   
 42  21  22  ar  
 43  21  43  1   
 44  22  23  1   
 45  23  44  1   
 46  23  45  1   
 47  23  46  1   
@<TRIPOS>SUBSTRUCTURE
  1 ****  13 GROUP 4 **** **** 0

# MOE 2024.06 (io_trps.svl 2023.06)
