@<TRIPOS>MOLECULE
NONAME
44 46 1 0 0 
SMALL
USER_CHARGES


@<TRIPOS>ATOM
  1 S       -0.8680    -0.0130    -0.5290 S.3   1 <1>  -0.0800 
  2 C       -1.6100     0.7320     0.8780 C.2   1 <1>  -0.1400 
  3 C        0.6140     0.8910    -0.2820 C.2   1 <1>  -0.1400 
  4 C       -0.7560     1.5920     1.4640 C.2   1 <1>  -0.1500 
  5 C       -3.0270     0.3120     1.1940 C.3   1 <1>   0.5230 
  6 C        0.5090     1.6830     0.8010 C.2   1 <1>  -0.1500 
  7 C        1.7400     0.6600    -1.2670 C.3   1 <1>  -0.0600 
  8 N       -3.9200     0.7510     0.0860 N.4   1 <1>  -0.8520 
  9 C       -4.0720     2.2150     0.0130 C.3   1 <1>   0.2960 
 10 C       -5.2510     0.0400     0.1080 C.3   1 <1>   0.4040 
 11 C       -4.5410     2.7970    -1.2780 C.3   1 <1>  -0.2000 
 12 C       -3.1250     2.9990    -0.8300 C.3   1 <1>  -0.2000 
 13 C       -5.1480    -1.4740    -0.1480 C.2   1 <1>   0.5690 
 14 O       -4.1070    -1.8920    -0.5940 O.2   1 <1>  -0.5700 
 15 N       -6.1840    -2.3010     0.1400 N.am  1 <1>  -0.7300 
 16 C       -6.1760    -3.7660    -0.1020 C.3   1 <1>   0.3200 
 17 C       -7.5580    -4.2200    -0.5250 C.2   1 <1>  -0.0400 
 18 O       -7.8780    -5.4760    -0.3050 O.3   1 <1>  -0.2800 
 19 C       -8.5900    -3.5720    -1.1080 C.2   1 <1>  -0.1500 
 20 C       -9.1240    -5.6920    -0.7280 C.2   1 <1>  -0.0920 
 21 C       -9.6030    -4.5240    -1.2390 C.2   1 <1>  -0.1500 
 22 C       -9.7860    -6.9850    -0.6230 C.2   1 <1>   1.0320 
 23 O      -10.9530    -7.1150    -1.0450 O.co2 1 <1>  -0.9000 
 24 O       -9.2260    -7.9770    -0.1180 O.co2 1 <1>  -0.9000 
 25 H       -0.9450     2.1830     2.3440 H     1 <1>   0.1500 
 26 H       -3.3420     0.7500     2.1260 H     1 <1>   0.0800 
 27 H       -3.0500    -0.7620     1.2890 H     1 <1>   0.0800 
 28 H        1.2810     2.3360     1.1710 H     1 <1>   0.1500 
 29 H        1.4190     0.9160    -2.2610 H     1 <1>   0.0800 
 30 H        2.0330    -0.3750    -1.2520 H     1 <1>   0.0800 
 31 H        2.5900     1.2650    -1.0100 H     1 <1>   0.0800 
 32 H       -3.4300     0.4310    -0.7650 H     1 <1>   0.4500 
 33 H       -4.4250     2.6620     0.9310 H     1 <1>   0.1000 
 34 H       -5.8820     0.4550    -0.6580 H     1 <1>   0.0800 
 35 H       -5.7310     0.2000     1.0580 H     1 <1>   0.0800 
 36 H       -5.1880     3.6580    -1.2660 H     1 <1>   0.1000 
 37 H       -4.7040     2.1730    -2.1390 H     1 <1>   0.1000 
 38 H       -2.3390     2.4990    -1.3690 H     1 <1>   0.1000 
 39 H       -2.8320     3.9820    -0.5050 H     1 <1>   0.1000 
 40 H       -7.0840    -1.9850     0.5130 H     1 <1>   0.3700 
 41 H       -5.9080    -4.2730     0.8090 H     1 <1>   0.0800 
 42 H       -5.4600    -4.0300    -0.8630 H     1 <1>   0.0800 
 43 H       -8.6660    -2.5510    -1.4280 H     1 <1>   0.1500 
 44 H      -10.5810    -4.3740    -1.6620 H     1 <1>   0.1500 
@<TRIPOS>BOND
  1   1   2  1   
  2   1   3  1   
  3   2   4  2   
  4   2   5  1   
  5   3   6  2   
  6   3   7  1   
  7   4   6  1   
  8   4  25  1   
  9   5   8  1   
 10   5  26  1   
 11   5  27  1   
 12   6  28  1   
 13   7  29  1   
 14   7  30  1   
 15   7  31  1   
 16   8   9  1   
 17   8  10  1   
 18   8  32  1   
 19   9  11  1   
 20   9  12  1   
 21   9  33  1   
 22  10  13  1   
 23  10  34  1   
 24  10  35  1   
 25  11  12  1   
 26  11  36  1   
 27  11  37  1   
 28  12  38  1   
 29  12  39  1   
 30  13  14  2   
 31  13  15  am  
 32  15  16  1   
 33  15  40  1   
 34  16  17  1   
 35  16  41  1   
 36  16  42  1   
 37  17  18  1   
 38  17  19  2   
 39  18  20  1   
 40  19  21  1   
 41  19  43  1   
 42  20  21  2   
 43  20  22  1   
 44  21  44  1   
 45  22  23  ar  
 46  22  24  ar  
@<TRIPOS>SUBSTRUCTURE
  1 ****  13 GROUP 4 **** **** 0

# MOE 2024.06 (io_trps.svl 2023.06)
