@<TRIPOS>MOLECULE
NONAME
51 54 1 0 0 
SMALL
USER_CHARGES


@<TRIPOS>ATOM
  1 O       -2.3330    -0.1930    -0.8960 O.2   1 <1>  -0.5700 
  2 C       -2.2870     0.9960    -1.1650 C.2   1 <1>   0.5440 
  3 N       -2.9290     1.4490    -2.2940 N.am  1 <1>  -0.6600 
  4 C       -1.6140     1.8980    -0.2590 C.ar  1 <1>   0.0860 
  5 C       -3.5620     0.5000    -3.2570 C.3   1 <1>   0.1400 
  6 C       -3.3570     2.8660    -2.4600 C.3   1 <1>   0.1400 
  7 C       -2.2450     2.3660     0.8820 C.ar  1 <1>  -0.1500 
  8 C       -0.2900     2.3130    -0.5150 C.ar  1 <1>  -0.1500 
  9 C       -4.9230    -0.0310    -2.7630 C.3   1 <1>   0.1400 
 10 C       -4.6730     3.1460    -1.7150 C.3   1 <1>  -0.1600 
 11 C       -1.5680     3.2110     1.7560 C.ar  1 <1>   0.2270 
 12 C        0.3830     3.1550     0.3400 C.ar  1 <1>  -0.1500 
 13 N       -5.5180     0.7910    -1.6560 N.am  1 <1>  -0.6600 
 14 C       -5.8410     2.1970    -2.0340 C.3   1 <1>   0.1400 
 15 N       -1.9670     3.7700     2.9240 N.2   1 <1>  -0.2270 
 16 C       -0.2810     3.5970     1.4880 C.ar  1 <1>  -0.1520 
 17 C       -5.5420     0.3970    -0.3380 C.2   1 <1>   0.5690 
 18 N       -1.0020     4.4740     3.3830 N.2   1 <1>  -0.4180 
 19 N        0.0330     4.3900     2.5320 N.pl3 1 <1>   0.3000 
 20 O       -5.8980     1.1480     0.5470 O.2   1 <1>  -0.5700 
 21 C       -5.1040    -1.0190     0.1180 C.3   1 <1>   0.4840 
 22 N       -4.7690    -1.0840     1.5880 N.4   1 <1>  -0.9590 
 23 C       -6.2110    -2.0550    -0.0650 C.3   1 <1>  -0.1600 
 24 C       -5.4000    -2.2880     2.1890 C.3   1 <1>   0.3430 
 25 C       -3.2990    -1.0070     1.8260 C.3   1 <1>   0.2630 
 26 C       -5.9470    -3.0920     1.0190 C.3   1 <1>  -0.1600 
 27 H       -3.6950     0.9870    -4.2070 H     1 <1>   0.0800 
 28 H       -2.8990    -0.3320    -3.4250 H     1 <1>   0.0800 
 29 H       -2.5900     3.5250    -2.0920 H     1 <1>   0.0800 
 30 H       -3.4840     3.0800    -3.5080 H     1 <1>   0.0800 
 31 H       -3.2580     2.0950     1.1140 H     1 <1>   0.1500 
 32 H        0.1930     1.9480    -1.4060 H     1 <1>   0.1500 
 33 H       -4.7860    -1.0480    -2.4480 H     1 <1>   0.0800 
 34 H       -5.6100    -0.0580    -3.5920 H     1 <1>   0.0800 
 35 H       -4.9830     4.1450    -1.9640 H     1 <1>   0.0800 
 36 H       -4.4970     3.1430    -0.6570 H     1 <1>   0.0800 
 37 H        1.3940     3.4660     0.1390 H     1 <1>   0.1500 
 38 H       -6.0820     2.2490    -3.0820 H     1 <1>   0.0800 
 39 H       -6.7110     2.5160    -1.4840 H     1 <1>   0.0800 
 40 H        0.9230     4.8720     2.6900 H     1 <1>   0.2700 
 41 H       -4.2430    -1.3240    -0.4510 H     1 <1>   0.0800 
 42 H       -5.2200    -0.2300     1.9690 H     1 <1>   0.4500 
 43 H       -7.1690    -1.5890     0.0970 H     1 <1>   0.0800 
 44 H       -6.1970    -2.4830    -1.0510 H     1 <1>   0.0800 
 45 H       -4.6920    -2.8660     2.7620 H     1 <1>   0.0800 
 46 H       -6.2110    -1.9850     2.8320 H     1 <1>   0.0800 
 47 H       -2.7980    -1.8380     1.3570 H     1 <1>   0.0800 
 48 H       -3.0880    -1.0220     2.8830 H     1 <1>   0.0800 
 49 H       -2.9010    -0.0970     1.4110 H     1 <1>   0.0800 
 50 H       -5.1990    -3.7930     0.6920 H     1 <1>   0.0800 
 51 H       -6.8360    -3.6350     1.2930 H     1 <1>   0.0800 
@<TRIPOS>BOND
  1   1   2  2   
  2   2   3  am  
  3   2   4  1   
  4   3   5  1   
  5   3   6  1   
  6   4   7  ar  
  7   4   8  ar  
  8   5   9  1   
  9   5  27  1   
 10   5  28  1   
 11   6  10  1   
 12   6  29  1   
 13   6  30  1   
 14   7  11  ar  
 15   7  31  1   
 16   8  12  ar  
 17   8  32  1   
 18   9  13  1   
 19   9  33  1   
 20   9  34  1   
 21  10  14  1   
 22  10  35  1   
 23  10  36  1   
 24  11  15  1   
 25  11  16  ar  
 26  12  16  ar  
 27  12  37  1   
 28  13  14  1   
 29  13  17  am  
 30  14  38  1   
 31  14  39  1   
 32  15  18  2   
 33  16  19  1   
 34  17  20  2   
 35  17  21  1   
 36  18  19  1   
 37  19  40  1   
 38  21  22  1   
 39  21  23  1   
 40  21  41  1   
 41  22  24  1   
 42  22  25  1   
 43  22  42  1   
 44  23  26  1   
 45  23  43  1   
 46  23  44  1   
 47  24  26  1   
 48  24  45  1   
 49  24  46  1   
 50  25  47  1   
 51  25  48  1   
 52  25  49  1   
 53  26  50  1   
 54  26  51  1   
@<TRIPOS>SUBSTRUCTURE
  1 ****   2 GROUP 4 **** **** 0

# MOE 2024.06 (io_trps.svl 2023.06)
