@<TRIPOS>MOLECULE
NONAME
47 49 1 0 0 
SMALL
USER_CHARGES


@<TRIPOS>ATOM
  1 S       -0.2730     0.0670     1.0060 S.o2  1 <1>   1.4470 
  2 O        0.0010    -1.3100     1.3670 O.2   1 <1>  -0.6500 
  3 O       -0.7460     0.9780     2.0200 O.2   1 <1>  -0.6500 
  4 N       -1.4500    -0.0050    -0.2260 N.am  1 <1>  -0.8490 
  5 C        1.1650     0.7840     0.1610 C.ar  1 <1>  -0.0090 
  6 C       -1.6200    -1.3340    -0.8350 C.3   1 <1>   0.1960 
  7 C       -2.7400     0.6310     0.0890 C.3   1 <1>   0.1960 
  8 C        1.0240     1.9040    -0.6550 C.ar  1 <1>  -0.1500 
  9 C        2.4410     0.2370     0.3230 C.ar  1 <1>  -0.1500 
 10 C       -2.4520    -2.2900     0.0700 C.3   1 <1>   0.4230 
 11 C       -3.5780    -0.2630     1.0170 C.3   1 <1>  -0.1600 
 12 C        2.1290     2.4400    -1.2890 C.ar  1 <1>   0.1900 
 13 C        3.5530     0.7740    -0.3120 C.ar  1 <1>  -0.1500 
 14 N       -2.5180    -3.7290    -0.4260 N.4   1 <1>  -0.9590 
 15 C       -3.8350    -1.6820     0.4370 C.3   1 <1>   0.0000 
 16 F        1.9670     3.4870    -2.0550 F     1 <1>  -0.1900 
 17 C        3.3830     1.8800    -1.1210 C.ar  1 <1>   0.1900 
 18 C       -3.6140    -4.5390     0.2030 C.3   1 <1>   0.3430 
 19 C       -2.5400    -3.9090    -1.9150 C.3   1 <1>   0.2630 
 20 C       -4.5070    -2.5590     1.5340 C.3   1 <1>  -0.1600 
 21 C       -4.7420    -1.6040    -0.8240 C.3   1 <1>   0.1200 
 22 F        4.4250     2.3890    -1.7250 F     1 <1>  -0.1900 
 23 C       -3.9690    -4.0030     1.5890 C.3   1 <1>  -0.1600 
 24 O       -5.8810    -0.8530    -0.5900 O.3   1 <1>  -0.6800 
 25 H       -2.1050    -1.2040    -1.7850 H     1 <1>   0.0800 
 26 H       -0.6490    -1.7620    -1.0190 H     1 <1>   0.0800 
 27 H       -2.5820     1.5940     0.5480 H     1 <1>   0.0800 
 28 H       -3.2820     0.8090    -0.8250 H     1 <1>   0.0800 
 29 H        0.0590     2.3610    -0.7980 H     1 <1>   0.1500 
 30 H        2.5690    -0.6240     0.9600 H     1 <1>   0.1500 
 31 H       -1.9220    -2.3340     1.0060 H     1 <1>   0.0800 
 32 H       -3.0670    -0.3350     1.9610 H     1 <1>   0.0800 
 33 H       -4.5090     0.2370     1.2210 H     1 <1>   0.0800 
 34 H        4.5320     0.3460    -0.1830 H     1 <1>   0.1500 
 35 H       -1.6380    -4.1480    -0.0860 H     1 <1>   0.4500 
 36 H       -4.4970    -4.4980    -0.4140 H     1 <1>   0.0800 
 37 H       -3.3090    -5.5710     0.2770 H     1 <1>   0.0800 
 38 H       -3.4230    -3.4580    -2.3380 H     1 <1>   0.0800 
 39 H       -2.5400    -4.9580    -2.1630 H     1 <1>   0.0800 
 40 H       -1.6710    -3.4570    -2.3650 H     1 <1>   0.0800 
 41 H       -4.3580    -2.1270     2.5100 H     1 <1>   0.0800 
 42 H       -5.5720    -2.5890     1.3830 H     1 <1>   0.0800 
 43 H       -5.0620    -2.5800    -1.1420 H     1 <1>   0.0800 
 44 H       -4.2360    -1.1300    -1.6460 H     1 <1>   0.0800 
 45 H       -4.7140    -4.6390     2.0350 H     1 <1>   0.0800 
 46 H       -3.0970    -4.0500     2.2190 H     1 <1>   0.0800 
 47 H       -6.4470    -1.2430     0.1070 H     1 <1>   0.4000 
@<TRIPOS>BOND
  1   1   2  2   
  2   1   3  2   
  3   1   4  am  
  4   1   5  1   
  5   4   6  1   
  6   4   7  1   
  7   5   8  ar  
  8   5   9  ar  
  9   6  10  1   
 10   6  25  1   
 11   6  26  1   
 12   7  11  1   
 13   7  27  1   
 14   7  28  1   
 15   8  12  ar  
 16   8  29  1   
 17   9  13  ar  
 18   9  30  1   
 19  10  14  1   
 20  10  15  1   
 21  10  31  1   
 22  11  15  1   
 23  11  32  1   
 24  11  33  1   
 25  12  16  1   
 26  12  17  ar  
 27  13  17  ar  
 28  13  34  1   
 29  14  18  1   
 30  14  19  1   
 31  14  35  1   
 32  15  20  1   
 33  15  21  1   
 34  17  22  1   
 35  18  23  1   
 36  18  36  1   
 37  18  37  1   
 38  19  38  1   
 39  19  39  1   
 40  19  40  1   
 41  20  23  1   
 42  20  41  1   
 43  20  42  1   
 44  21  24  1   
 45  21  43  1   
 46  21  44  1   
 47  23  45  1   
 48  23  46  1   
 49  24  47  1   
@<TRIPOS>SUBSTRUCTURE
  1 ****   4 GROUP 4 **** **** 0

# MOE 2024.06 (io_trps.svl 2023.06)
