@<TRIPOS>MOLECULE
NONAME
60 62 1 0 0 
SMALL
USER_CHARGES


@<TRIPOS>ATOM
  1 O       -2.0350     2.0630     1.7240 O.2   1 <1>  -0.5700 
  2 C       -2.2110     1.6290     0.6100 C.2   1 <1>   0.5690 
  3 N       -3.3590     0.9680     0.2620 N.am  1 <1>  -0.6600 
  4 C       -1.1110     1.8570    -0.4080 C.3   1 <1>  -0.0990 
  5 C       -3.6370     0.3330    -1.0610 C.3   1 <1>   0.1400 
  6 C       -4.4630     0.7620     1.2470 C.3   1 <1>   0.1400 
  7 C        0.0190     2.7610     0.1230 C.3   1 <1>   0.4230 
  8 C       -3.8470    -1.1710    -0.8670 C.3   1 <1>  -0.1600 
  9 C       -4.6830    -0.7380     1.4620 C.3   1 <1>  -0.1600 
 10 N       -0.2620     4.2300    -0.0600 N.4   1 <1>  -0.9590 
 11 C        1.3180     2.4260    -0.6200 C.3   1 <1>  -0.2400 
 12 C       -4.9680    -1.4680     0.1390 C.3   1 <1>   0.4240 
 13 C        0.7810     5.0820     0.5970 C.3   1 <1>   0.2630 
 14 C       -1.5980     4.6530     0.4800 C.3   1 <1>   0.2630 
 15 O       -6.1280    -0.9090    -0.4310 O.3   1 <1>  -0.5600 
 16 C       -5.1100    -2.9900     0.3520 C.ar  1 <1>  -0.1440 
 17 C       -7.3590    -1.3980     0.0050 C.3   1 <1>   0.1200 
 18 C       -6.3020    -3.6490     0.0820 C.ar  1 <1>  -0.1440 
 19 C       -4.0410    -3.7390     0.8280 C.ar  1 <1>  -0.1500 
 20 C       -7.4900    -2.8550    -0.4250 C.3   1 <1>  -0.0170 
 21 C       -6.4130    -5.0160     0.2760 C.ar  1 <1>  -0.1500 
 22 C       -4.1300    -5.1070     1.0220 C.ar  1 <1>   0.0820 
 23 C       -5.3410    -5.7650     0.7530 C.ar  1 <1>   0.0820 
 24 O       -2.9810    -5.6850     1.4770 O.3   1 <1>  -0.3630 
 25 O       -5.4570    -7.1080     0.9740 O.3   1 <1>  -0.3620 
 26 C       -2.6780    -7.0400     1.2280 C.3   1 <1>   0.0400 
 27 C       -6.6870    -7.7890     0.8530 C.3   1 <1>   0.0400 
 28 H       -1.5130     2.2640    -1.3160 H     1 <1>   0.0800 
 29 H       -0.7130     0.8830    -0.6280 H     1 <1>   0.0800 
 30 H       -2.8340     0.4890    -1.7550 H     1 <1>   0.0800 
 31 H       -4.5280     0.7710    -1.4810 H     1 <1>   0.0800 
 32 H       -5.3640     1.2130     0.8670 H     1 <1>   0.0800 
 33 H       -4.2320     1.2270     2.1900 H     1 <1>   0.0800 
 34 H        0.1600     2.5480     1.1720 H     1 <1>   0.0800 
 35 H       -2.9230    -1.6030    -0.5310 H     1 <1>   0.0800 
 36 H       -4.0940    -1.6300    -1.8070 H     1 <1>   0.0800 
 37 H       -5.4910    -0.8960     2.1510 H     1 <1>   0.0800 
 38 H       -3.8000    -1.1450     1.9170 H     1 <1>   0.0800 
 39 H       -0.2480     4.4230    -1.0700 H     1 <1>   0.4500 
 40 H        1.2390     2.6660    -1.6660 H     1 <1>   0.0800 
 41 H        1.5250     1.3740    -0.5350 H     1 <1>   0.0800 
 42 H        2.1620     2.9360    -0.1950 H     1 <1>   0.0800 
 43 H        0.8400     4.8520     1.6490 H     1 <1>   0.0800 
 44 H        0.5350     6.1260     0.4870 H     1 <1>   0.0800 
 45 H        1.7470     4.9150     0.1510 H     1 <1>   0.0800 
 46 H       -1.6650     4.4220     1.5320 H     1 <1>   0.0800 
 47 H       -2.3950     4.1390    -0.0310 H     1 <1>   0.0800 
 48 H       -1.7380     5.7140     0.3500 H     1 <1>   0.0800 
 49 H       -8.1310    -0.8000    -0.4470 H     1 <1>   0.0800 
 50 H       -7.4210    -1.3030     1.0750 H     1 <1>   0.0800 
 51 H       -3.1040    -3.2670     1.0580 H     1 <1>   0.1500 
 52 H       -7.5310    -2.9090    -1.4990 H     1 <1>   0.0800 
 53 H       -8.4050    -3.2590    -0.0300 H     1 <1>   0.0800 
 54 H       -7.3520    -5.4810     0.0490 H     1 <1>   0.1500 
 55 H       -1.6270    -7.1840     1.3960 H     1 <1>   0.0800 
 56 H       -2.9250    -7.2730     0.2070 H     1 <1>   0.0800 
 57 H       -3.2420    -7.6510     1.9080 H     1 <1>   0.0800 
 58 H       -6.5290    -8.8140     1.1340 H     1 <1>   0.0800 
 59 H       -7.0160    -7.7380    -0.1700 H     1 <1>   0.0800 
 60 H       -7.4040    -7.3360     1.5140 H     1 <1>   0.0800 
@<TRIPOS>BOND
  1   1   2  2   
  2   2   3  am  
  3   2   4  1   
  4   3   5  1   
  5   3   6  1   
  6   4   7  1   
  7   4  28  1   
  8   4  29  1   
  9   5   8  1   
 10   5  30  1   
 11   5  31  1   
 12   6   9  1   
 13   6  32  1   
 14   6  33  1   
 15   7  10  1   
 16   7  11  1   
 17   7  34  1   
 18   8  12  1   
 19   8  35  1   
 20   8  36  1   
 21   9  12  1   
 22   9  37  1   
 23   9  38  1   
 24  10  13  1   
 25  10  14  1   
 26  10  39  1   
 27  11  40  1   
 28  11  41  1   
 29  11  42  1   
 30  12  15  1   
 31  12  16  1   
 32  13  43  1   
 33  13  44  1   
 34  13  45  1   
 35  14  46  1   
 36  14  47  1   
 37  14  48  1   
 38  15  17  1   
 39  16  18  ar  
 40  16  19  ar  
 41  17  20  1   
 42  17  49  1   
 43  17  50  1   
 44  18  20  1   
 45  18  21  ar  
 46  19  22  ar  
 47  19  51  1   
 48  20  52  1   
 49  20  53  1   
 50  21  23  ar  
 51  21  54  1   
 52  22  23  ar  
 53  22  24  1   
 54  23  25  1   
 55  24  26  1   
 56  25  27  1   
 57  26  55  1   
 58  26  56  1   
 59  26  57  1   
 60  27  58  1   
 61  27  59  1   
 62  27  60  1   
@<TRIPOS>SUBSTRUCTURE
  1 ****   8 GROUP 4 **** **** 0

# MOE 2024.06 (io_trps.svl 2023.06)
