@<TRIPOS>MOLECULE
NONAME
50 53 1 0 0 
SMALL
USER_CHARGES


@<TRIPOS>ATOM
  1 S        2.5980    -0.6030     2.1380 S.3   1 <1>  -0.0800 
  2 C        1.7830    -0.8840     0.6200 C.2   1 <1>   0.1980 
  3 C        1.9910    -2.1220     2.7090 C.2   1 <1>  -0.1100 
  4 N        1.1420    -1.9810     0.5670 N.2   1 <1>  -0.5650 
  5 C        1.9200     0.1740    -0.4580 C.3   1 <1>   0.0200 
  6 C        1.2380    -2.7250     1.7610 C.2   1 <1>   0.1410 
  7 C        1.0730     1.4150    -0.1430 C.3   1 <1>  -0.1600 
  8 C        0.5950    -4.0280     1.9470 C.2   1 <1>   0.7160 
  9 C        1.1900     2.4740    -1.2450 C.3   1 <1>  -0.2400 
 10 O        0.8940    -4.6940     2.9240 O.2   1 <1>  -0.5700 
 11 N       -0.3530    -4.5580     1.0930 N.am  1 <1>  -0.6600 
 12 C       -1.0870    -3.8340     0.0270 C.3   1 <1>   0.1400 
 13 C       -0.8480    -5.9550     1.2000 C.3   1 <1>   0.1400 
 14 C       -2.3270    -4.6870    -0.2320 C.3   1 <1>   0.2000 
 15 C       -1.8800    -6.1190     0.0720 C.3   1 <1>  -0.0800 
 16 O       -3.3010    -4.3410     0.6910 O.3   1 <1>  -0.6800 
 17 C       -1.2640    -6.7780    -1.1780 C.3   1 <1>  -0.0170 
 18 C       -0.9300    -8.2410    -0.9380 C.ar  1 <1>   0.1670 
 19 N        0.3060    -8.5420    -0.6810 N.ar  1 <1>  -0.6200 
 20 C       -1.9630    -9.1900    -1.0020 C.ar  1 <1>  -0.1500 
 21 C        0.6080    -9.8460    -0.4590 C.ar  1 <1>   0.3100 
 22 C       -1.6890   -10.5070    -0.7860 C.ar  1 <1>  -0.1500 
 23 C       -0.3620   -10.8710    -0.5010 C.ar  1 <1>   0.0000 
 24 C        1.9370   -10.1960    -0.1730 C.ar  1 <1>  -0.1500 
 25 C        0.0350   -12.2010    -0.2590 C.ar  1 <1>  -0.1500 
 26 C        2.3040   -11.4960     0.0600 C.ar  1 <1>  -0.1500 
 27 C        1.3400   -12.5090     0.0160 C.ar  1 <1>  -0.1500 
 28 H        2.2520    -2.4360     3.7030 H     1 <1>   0.1500 
 29 H        2.9560     0.4470    -0.5510 H     1 <1>   0.0800 
 30 H        1.6020    -0.2500    -1.3940 H     1 <1>   0.0800 
 31 H        0.0420     1.1220    -0.0380 H     1 <1>   0.0800 
 32 H        1.3920     1.8420     0.7930 H     1 <1>   0.0800 
 33 H        0.8510     2.0780    -2.1870 H     1 <1>   0.0800 
 34 H        2.2110     2.7970    -1.3510 H     1 <1>   0.0800 
 35 H        0.5850     3.3290    -0.9990 H     1 <1>   0.0800 
 36 H       -1.3510    -2.8340     0.3270 H     1 <1>   0.0800 
 37 H       -0.4720    -3.7940    -0.8540 H     1 <1>   0.0800 
 38 H       -0.0300    -6.6500     1.1190 H     1 <1>   0.0800 
 39 H       -1.3190    -6.0870     2.1600 H     1 <1>   0.0800 
 40 H       -2.7360    -4.5540    -1.2190 H     1 <1>   0.0800 
 41 H       -2.7110    -6.7180     0.3990 H     1 <1>   0.0800 
 42 H       -2.8930    -4.3170     1.5810 H     1 <1>   0.4000 
 43 H       -0.3700    -6.2550    -1.4710 H     1 <1>   0.0800 
 44 H       -1.9570    -6.7180    -1.9980 H     1 <1>   0.0800 
 45 H       -2.9630    -8.8650    -1.2220 H     1 <1>   0.1500 
 46 H       -2.4530   -11.2620    -0.8270 H     1 <1>   0.1500 
 47 H        2.6610    -9.4030    -0.1440 H     1 <1>   0.1500 
 48 H       -0.7100   -12.9760    -0.2930 H     1 <1>   0.1500 
 49 H        3.3270   -11.7500     0.2780 H     1 <1>   0.1500 
 50 H        1.6420   -13.5260     0.2010 H     1 <1>   0.1500 
@<TRIPOS>BOND
  1   1   2  1   
  2   1   3  1   
  3   2   4  2   
  4   2   5  1   
  5   3   6  2   
  6   3  28  1   
  7   4   6  1   
  8   5   7  1   
  9   5  29  1   
 10   5  30  1   
 11   6   8  1   
 12   7   9  1   
 13   7  31  1   
 14   7  32  1   
 15   8  10  2   
 16   8  11  am  
 17   9  33  1   
 18   9  34  1   
 19   9  35  1   
 20  11  12  1   
 21  11  13  1   
 22  12  14  1   
 23  12  36  1   
 24  12  37  1   
 25  13  15  1   
 26  13  38  1   
 27  13  39  1   
 28  14  15  1   
 29  14  16  1   
 30  14  40  1   
 31  15  17  1   
 32  15  41  1   
 33  16  42  1   
 34  17  18  1   
 35  17  43  1   
 36  17  44  1   
 37  18  19  ar  
 38  18  20  ar  
 39  19  21  ar  
 40  20  22  ar  
 41  20  45  1   
 42  21  23  ar  
 43  21  24  ar  
 44  22  23  ar  
 45  22  46  1   
 46  23  25  ar  
 47  24  26  ar  
 48  24  47  1   
 49  25  27  ar  
 50  25  48  1   
 51  26  27  ar  
 52  26  49  1   
 53  27  50  1   
@<TRIPOS>SUBSTRUCTURE
  1 ****  13 GROUP 4 **** **** 0

# MOE 2024.06 (io_trps.svl 2023.06)
