@<TRIPOS>MOLECULE
NONAME
42 44 1 0 0 
SMALL
USER_CHARGES


@<TRIPOS>ATOM
  1 O       -1.1400     0.1660    -1.4860 O.2   1 <1>  -0.5700 
  2 C       -1.8420    -0.0600    -0.5240 C.2   1 <1>   0.5690 
  3 N       -1.7270    -1.2560     0.1530 N.am  1 <1>  -0.6600 
  4 C       -2.8600     1.0190    -0.0610 C.3   1 <1>   0.2510 
  5 C       -2.5630    -1.7040     1.3090 C.3   1 <1>   0.1400 
  6 C       -0.7240    -2.2870    -0.2600 C.3   1 <1>   0.1400 
  7 N       -2.5950     2.4170    -0.4640 N.3   1 <1>  -0.8100 
  8 C       -4.2650     0.7840    -0.6110 C.3   1 <1>  -0.1600 
  9 C       -3.1300    -3.1110     1.0540 C.3   1 <1>   0.1200 
 10 C       -1.3920    -3.6620    -0.4220 C.3   1 <1>   0.1200 
 11 C       -3.8370     3.1540    -0.2510 C.3   1 <1>   0.1100 
 12 C       -1.4120     2.9980     0.1820 C.3   1 <1>   0.1100 
 13 C       -4.9510     2.1490    -0.5360 C.3   1 <1>  -0.1600 
 14 O       -2.1040    -4.0050     0.7340 O.3   1 <1>  -0.5600 
 15 C       -0.8780     4.1520    -0.6650 C.3   1 <1>   0.0960 
 16 N        0.3070     4.7390    -0.0170 N.pl3 1 <1>   0.0480 
 17 C        0.3730     5.8600     0.7360 C.2   1 <1>   0.0360 
 18 C        1.5640     4.2590    -0.0220 C.2   1 <1>  -0.3020 
 19 N        1.5540     6.1170     1.1970 N.2   1 <1>  -0.5650 
 20 C        2.3070     5.1090     0.7190 C.2   1 <1>   0.0770 
 21 H       -2.9030     1.0010     1.0130 H     1 <1>   0.0800 
 22 H       -1.9530    -1.7300     2.1950 H     1 <1>   0.0800 
 23 H       -3.3790    -1.0310     1.4880 H     1 <1>   0.0800 
 24 H       -0.2540    -2.0160    -1.1890 H     1 <1>   0.0800 
 25 H        0.0440    -2.3540     0.4900 H     1 <1>   0.0800 
 26 H       -4.1860     0.4740    -1.6390 H     1 <1>   0.0800 
 27 H       -4.7950     0.0290    -0.0590 H     1 <1>   0.0800 
 28 H       -3.8380    -3.0950     0.2430 H     1 <1>   0.0800 
 29 H       -3.6220    -3.4800     1.9360 H     1 <1>   0.0800 
 30 H       -0.6470    -4.4200    -0.5870 H     1 <1>   0.0800 
 31 H       -2.0700    -3.6560    -1.2580 H     1 <1>   0.0800 
 32 H       -3.9020     3.4870     0.7720 H     1 <1>   0.0800 
 33 H       -3.8940     4.0020    -0.9120 H     1 <1>   0.0800 
 34 H       -1.6540     3.3330     1.1760 H     1 <1>   0.0800 
 35 H       -0.6380     2.2510     0.2470 H     1 <1>   0.0800 
 36 H       -5.6840     2.1800     0.2510 H     1 <1>   0.0800 
 37 H       -5.4340     2.3810    -1.4700 H     1 <1>   0.0800 
 38 H       -1.6280     4.9130    -0.7760 H     1 <1>   0.0800 
 39 H       -0.5980     3.7860    -1.6360 H     1 <1>   0.0800 
 40 H       -0.4920     6.4700     0.9250 H     1 <1>   0.1500 
 41 H        1.8520     3.3620    -0.5400 H     1 <1>   0.1500 
 42 H        3.3600     5.0470     0.9370 H     1 <1>   0.1500 
@<TRIPOS>BOND
  1   1   2  2   
  2   2   3  am  
  3   2   4  1   
  4   3   5  1   
  5   3   6  1   
  6   4   7  1   
  7   4   8  1   
  8   4  21  1   
  9   5   9  1   
 10   5  22  1   
 11   5  23  1   
 12   6  10  1   
 13   6  24  1   
 14   6  25  1   
 15   7  11  1   
 16   7  12  1   
 17   8  13  1   
 18   8  26  1   
 19   8  27  1   
 20   9  14  1   
 21   9  28  1   
 22   9  29  1   
 23  10  14  1   
 24  10  30  1   
 25  10  31  1   
 26  11  13  1   
 27  11  32  1   
 28  11  33  1   
 29  12  15  1   
 30  12  34  1   
 31  12  35  1   
 32  13  36  1   
 33  13  37  1   
 34  15  16  1   
 35  15  38  1   
 36  15  39  1   
 37  16  17  1   
 38  16  18  1   
 39  17  19  2   
 40  17  40  1   
 41  18  20  2   
 42  18  41  1   
 43  19  20  1   
 44  20  42  1   
@<TRIPOS>SUBSTRUCTURE
  1 ****   4 GROUP 4 **** **** 0

# MOE 2024.06 (io_trps.svl 2023.06)
