@<TRIPOS>MOLECULE
NONAME
42 44 1 0 0 
SMALL
USER_CHARGES


@<TRIPOS>ATOM
  1 O        0.9550    -2.0670     1.0280 O.2   1 <1>  -0.5700 
  2 C        1.8160    -1.7590     0.2330 C.2   1 <1>   0.4230 
  3 C        2.3950    -0.4260     0.1460 C.ar  1 <1>   0.3960 
  4 C        2.2920    -2.8840    -0.6970 C.3   1 <1>  -0.0190 
  5 N        3.3240    -0.1740    -0.7890 N.ar  1 <1>  -0.6200 
  6 C        1.9750     0.5680     1.0340 C.ar  1 <1>  -0.1500 
  7 C        1.0670    -3.6340    -1.2460 C.3   1 <1>   0.3430 
  8 C        3.2700    -3.8280     0.0510 C.3   1 <1>  -0.1600 
  9 C        3.8240     1.0490    -0.8310 C.ar  1 <1>   0.1600 
 10 C        2.5010     1.8400     0.9810 C.ar  1 <1>  -0.1500 
 11 N        0.5490    -4.5460    -0.1870 N.4   1 <1>  -0.9590 
 12 C        2.9520    -5.3100    -0.2080 C.3   1 <1>  -0.1600 
 13 C        3.4530     2.0770     0.0160 C.ar  1 <1>  -0.1500 
 14 C        1.4920    -5.6710     0.1190 C.3   1 <1>   0.3430 
 15 C       -0.8370    -5.0070    -0.5000 C.3   1 <1>   0.3430 
 16 C       -1.5710    -5.5420     0.7350 C.3   1 <1>   0.0200 
 17 C       -2.9500    -6.0190     0.3250 C.2   1 <1>   0.0060 
 18 N       -3.3210    -6.1260    -0.9100 N.2   1 <1>  -0.5650 
 19 N       -3.9090    -6.3750     1.2100 N.pl3 1 <1>   0.0330 
 20 C       -4.5890    -6.5760    -0.8300 C.2   1 <1>   0.0770 
 21 C       -4.9640    -6.7330     0.4570 C.2   1 <1>  -0.3020 
 22 H        2.7970    -2.4730    -1.5520 H     1 <1>   0.0800 
 23 H        1.2280     0.3380     1.7740 H     1 <1>   0.1500 
 24 H        1.3450    -4.2070    -2.1150 H     1 <1>   0.0800 
 25 H        0.3100    -2.9210    -1.5320 H     1 <1>   0.0800 
 26 H        3.2100    -3.6510     1.1130 H     1 <1>   0.0800 
 27 H        4.2820    -3.6100    -0.2490 H     1 <1>   0.0800 
 28 H        4.5720     1.2490    -1.5810 H     1 <1>   0.1500 
 29 H        2.1840     2.6130     1.6610 H     1 <1>   0.1500 
 30 H        0.5030    -3.9240     0.6470 H     1 <1>   0.4500 
 31 H        3.6060    -5.9320     0.3780 H     1 <1>   0.0800 
 32 H        3.1460    -5.5430    -1.2410 H     1 <1>   0.0800 
 33 H        3.9060     3.0480    -0.0800 H     1 <1>   0.1500 
 34 H        1.2170    -6.5460    -0.4480 H     1 <1>   0.0800 
 35 H        1.4150    -5.9170     1.1650 H     1 <1>   0.0800 
 36 H       -0.8080    -5.7760    -1.2550 H     1 <1>   0.0800 
 37 H       -1.4130    -4.1860    -0.8970 H     1 <1>   0.0800 
 38 H       -1.6700    -4.7580     1.4640 H     1 <1>   0.0800 
 39 H       -1.0360    -6.3700     1.1620 H     1 <1>   0.0800 
 40 H       -3.8570    -6.3770     2.2340 H     1 <1>   0.2700 
 41 H       -5.1750    -6.7650    -1.7150 H     1 <1>   0.1500 
 42 H       -5.9000    -7.0710     0.8640 H     1 <1>   0.1500 
@<TRIPOS>BOND
  1   1   2  2   
  2   2   3  1   
  3   2   4  1   
  4   3   5  ar  
  5   3   6  ar  
  6   4   7  1   
  7   4   8  1   
  8   4  22  1   
  9   5   9  ar  
 10   6  10  ar  
 11   6  23  1   
 12   7  11  1   
 13   7  24  1   
 14   7  25  1   
 15   8  12  1   
 16   8  26  1   
 17   8  27  1   
 18   9  13  ar  
 19   9  28  1   
 20  10  13  ar  
 21  10  29  1   
 22  11  14  1   
 23  11  15  1   
 24  11  30  1   
 25  12  14  1   
 26  12  31  1   
 27  12  32  1   
 28  13  33  1   
 29  14  34  1   
 30  14  35  1   
 31  15  16  1   
 32  15  36  1   
 33  15  37  1   
 34  16  17  1   
 35  16  38  1   
 36  16  39  1   
 37  17  18  2   
 38  17  19  1   
 39  18  20  1   
 40  19  21  1   
 41  19  40  1   
 42  20  21  2   
 43  20  41  1   
 44  21  42  1   
@<TRIPOS>SUBSTRUCTURE
  1 ****  11 GROUP 4 **** **** 0

# MOE 2024.06 (io_trps.svl 2023.06)
