@<TRIPOS>MOLECULE
NONAME
48 51 1 0 0 
SMALL
USER_CHARGES


@<TRIPOS>ATOM
  1 O        3.8290    -0.5220    -1.8070 O.3   1 <1>  -0.6800 
  2 C        2.5420    -0.5090    -1.2740 C.3   1 <1>   0.2800 
  3 C        2.4440     0.5120    -0.1050 C.3   1 <1>  -0.0800 
  4 C        2.2460    -1.9220    -0.7380 C.3   1 <1>  -0.1600 
  5 C        1.5690    -0.2090    -2.4390 C.3   1 <1>  -0.1600 
  6 C        2.9810     0.0110     1.2650 C.3   1 <1>  -0.0800 
  7 C        3.1510     1.8510    -0.3550 C.3   1 <1>   0.2090 
  8 C        3.1630    -2.3970     0.4050 C.3   1 <1>  -0.1600 
  9 C        1.7750     1.1060    -3.2110 C.3   1 <1>  -0.2400 
 10 C        3.8540    -1.2540     1.1610 C.3   1 <1>  -0.1600 
 11 C        3.7980     1.1790     1.8270 C.3   1 <1>   0.2090 
 12 N        4.2670     1.8720     0.6140 N.pl3 1 <1>  -0.8380 
 13 C        5.5820     1.8230     0.2720 C.ar  1 <1>   0.7710 
 14 N        5.9070     1.0930    -0.8340 N.ar  1 <1>  -0.1790 
 15 N        6.4720     2.4260     1.0130 N.ar  1 <1>  -0.5670 
 16 C        7.1570     0.9660    -1.2890 C.ar  1 <1>   0.4610 
 17 C        7.7530     2.3310     0.5770 C.ar  1 <1>   0.1050 
 18 N        7.4140     0.2310    -2.3830 N.pl3 1 <1>  -0.9000 
 19 C        8.1360     1.6330    -0.5430 C.ar  1 <1>   0.0000 
 20 N        8.8800     2.8680     1.1060 N.pl3 1 <1>   0.3140 
 21 C        9.5260     1.8150    -0.5980 C.2   1 <1>   0.1390 
 22 N        9.9720     2.5410     0.3710 N.2   1 <1>  -0.7070 
 23 C        8.9930     3.7080     2.3080 C.3   1 <1>   0.0160 
 24 H        3.8460    -1.2520    -2.4620 H     1 <1>   0.4000 
 25 H        1.3990     0.7290     0.0300 H     1 <1>   0.0800 
 26 H        1.2380    -1.9180    -0.3610 H     1 <1>   0.0800 
 27 H        2.2660    -2.6450    -1.5360 H     1 <1>   0.0800 
 28 H        1.6200    -1.0180    -3.1470 H     1 <1>   0.0800 
 29 H        0.5630    -0.2120    -2.0540 H     1 <1>   0.0800 
 30 H        2.1600    -0.2020     1.9280 H     1 <1>   0.0800 
 31 H        2.4810     2.6650    -0.1280 H     1 <1>   0.0800 
 32 H        3.4960     1.9720    -1.3660 H     1 <1>   0.0800 
 33 H        2.5750    -2.9770     1.0970 H     1 <1>   0.0800 
 34 H        3.9210    -3.0520     0.0100 H     1 <1>   0.0800 
 35 H        2.7820     1.1910    -3.5780 H     1 <1>   0.0800 
 36 H        1.5420     1.9570    -2.5980 H     1 <1>   0.0800 
 37 H        1.1110     1.1290    -4.0590 H     1 <1>   0.0800 
 38 H        4.7710    -1.0200     0.6530 H     1 <1>   0.0800 
 39 H        4.1210    -1.5960     2.1470 H     1 <1>   0.0800 
 40 H        4.6150     0.8490     2.4490 H     1 <1>   0.0800 
 41 H        3.1680     1.8440     2.3950 H     1 <1>   0.0800 
 42 H        5.1240     0.5760    -1.2410 H     1 <1>   0.4570 
 43 H        6.7150    -0.2630    -2.9480 H     1 <1>   0.4000 
 44 H        8.3640     0.1090    -2.7560 H     1 <1>   0.4000 
 45 H       10.1610     1.3970    -1.3620 H     1 <1>   0.1500 
 46 H        8.0180     3.8890     2.7200 H     1 <1>   0.0800 
 47 H        9.4520     4.6410     2.0390 H     1 <1>   0.0800 
 48 H        9.6060     3.2020     3.0300 H     1 <1>   0.0800 
@<TRIPOS>BOND
  1   1   2  1   
  2   1  24  1   
  3   2   3  1   
  4   2   4  1   
  5   2   5  1   
  6   3   6  1   
  7   3   7  1   
  8   3  25  1   
  9   4   8  1   
 10   4  26  1   
 11   4  27  1   
 12   5   9  1   
 13   5  28  1   
 14   5  29  1   
 15   6  10  1   
 16   6  11  1   
 17   6  30  1   
 18   7  12  1   
 19   7  31  1   
 20   7  32  1   
 21   8  10  1   
 22   8  33  1   
 23   8  34  1   
 24   9  35  1   
 25   9  36  1   
 26   9  37  1   
 27  10  38  1   
 28  10  39  1   
 29  11  12  1   
 30  11  40  1   
 31  11  41  1   
 32  12  13  1   
 33  13  14  ar  
 34  13  15  ar  
 35  14  16  ar  
 36  14  42  1   
 37  15  17  ar  
 38  16  18  1   
 39  16  19  ar  
 40  17  19  ar  
 41  17  20  1   
 42  18  43  1   
 43  18  44  1   
 44  19  21  1   
 45  20  22  1   
 46  20  23  1   
 47  21  22  2   
 48  21  45  1   
 49  23  46  1   
 50  23  47  1   
 51  23  48  1   
@<TRIPOS>SUBSTRUCTURE
  1 ****  14 GROUP 4 **** **** 0

# MOE 2024.06 (io_trps.svl 2023.06)
