@<TRIPOS>MOLECULE
NONAME
50 53 1 0 0 
SMALL
USER_CHARGES


@<TRIPOS>ATOM
  1 CL      -0.0790    -0.5960     1.3490 Cl    1 <1>  -0.1770 
  2 C       -0.8450    -1.8550     0.4100 C.ar  1 <1>   0.1770 
  3 C       -0.8810    -3.1380     0.8960 C.ar  1 <1>  -0.1500 
  4 C       -1.4070    -1.5130    -0.8250 C.ar  1 <1>  -0.1500 
  5 C       -1.5020    -4.1280     0.1240 C.ar  1 <1>   0.0000 
  6 C       -2.0180    -2.4810    -1.5900 C.ar  1 <1>  -0.1500 
  7 C       -2.0610    -3.7920    -1.1040 C.ar  1 <1>  -0.1520 
  8 C       -1.7190    -5.5070     0.2940 C.2   1 <1>  -0.1500 
  9 N       -2.5940    -4.9270    -1.6520 N.pl3 1 <1>   0.0330 
 10 C       -2.3990    -5.9820    -0.7920 C.2   1 <1>  -0.2370 
 11 C       -2.8680    -7.2990    -1.1230 C.2   1 <1>   0.7150 
 12 O       -3.3010    -7.5350    -2.2340 O.2   1 <1>  -0.5700 
 13 N       -2.9230    -8.3050    -0.1890 N.am  1 <1>  -0.6600 
 14 C       -3.6320    -8.0930     1.1070 C.3   1 <1>   0.1400 
 15 C       -2.9080    -9.7260    -0.6400 C.3   1 <1>   0.1400 
 16 C       -5.0700    -8.6670     1.0620 C.3   1 <1>   0.4230 
 17 C       -4.3460   -10.2670    -0.7320 C.3   1 <1>   0.3430 
 18 N       -5.1010   -10.1070     0.5720 N.4   1 <1>  -0.9590 
 19 C       -5.9950    -7.7720     0.2040 C.3   1 <1>   0.1200 
 20 C       -6.5320   -10.5710     0.4910 C.3   1 <1>   0.4230 
 21 O       -7.2930    -8.2920     0.1910 O.3   1 <1>  -0.5600 
 22 C       -7.4030    -9.5870    -0.3290 C.3   1 <1>   0.1200 
 23 C       -6.6070   -12.0150    -0.0330 C.3   1 <1>  -0.1600 
 24 C       -7.9770   -12.6610     0.2240 C.3   1 <1>  -0.1600 
 25 C       -7.9860   -14.1220    -0.2350 C.3   1 <1>  -0.2400 
 26 H       -0.4440    -3.3860     1.8440 H     1 <1>   0.1500 
 27 H       -1.3490    -0.4920    -1.1580 H     1 <1>   0.1500 
 28 H       -2.4550    -2.2420    -2.5430 H     1 <1>   0.1500 
 29 H       -1.3750    -6.0580     1.1520 H     1 <1>   0.1500 
 30 H       -3.0330    -5.0030    -2.5770 H     1 <1>   0.2700 
 31 H       -3.0760    -8.5710     1.8940 H     1 <1>   0.0800 
 32 H       -3.6800    -7.0430     1.3400 H     1 <1>   0.0800 
 33 H       -2.4370    -9.7990    -1.6070 H     1 <1>   0.0800 
 34 H       -2.3300   -10.3180     0.0480 H     1 <1>   0.0800 
 35 H       -5.4600    -8.6340     2.0660 H     1 <1>   0.0800 
 36 H       -4.3070   -11.3060    -1.0130 H     1 <1>   0.0800 
 37 H       -4.8540    -9.7320    -1.5180 H     1 <1>   0.0800 
 38 H       -4.6310   -10.6850     1.2770 H     1 <1>   0.4500 
 39 H       -5.6450    -7.6930    -0.8110 H     1 <1>   0.0800 
 40 H       -6.0490    -6.7820     0.6220 H     1 <1>   0.0800 
 41 H       -6.9370   -10.5770     1.4900 H     1 <1>   0.0800 
 42 H       -8.4400    -9.8650    -0.2690 H     1 <1>   0.0800 
 43 H       -7.1150    -9.5710    -1.3660 H     1 <1>   0.0800 
 44 H       -6.4130   -12.0390    -1.0920 H     1 <1>   0.0800 
 45 H       -5.8630   -12.6100     0.4670 H     1 <1>   0.0800 
 46 H       -8.2120   -12.6270     1.2760 H     1 <1>   0.0800 
 47 H       -8.7520   -12.1340    -0.3070 H     1 <1>   0.0800 
 48 H       -7.2490   -14.6960     0.2990 H     1 <1>   0.0800 
 49 H       -7.7830   -14.1930    -1.2900 H     1 <1>   0.0800 
 50 H       -8.9510   -14.5590    -0.0490 H     1 <1>   0.0800 
@<TRIPOS>BOND
  1   1   2  1   
  2   2   3  ar  
  3   2   4  ar  
  4   3   5  ar  
  5   3  26  1   
  6   4   6  ar  
  7   4  27  1   
  8   5   7  ar  
  9   5   8  1   
 10   6   7  ar  
 11   6  28  1   
 12   7   9  1   
 13   8  10  2   
 14   8  29  1   
 15   9  10  1   
 16   9  30  1   
 17  10  11  1   
 18  11  12  2   
 19  11  13  am  
 20  13  14  1   
 21  13  15  1   
 22  14  16  1   
 23  14  31  1   
 24  14  32  1   
 25  15  17  1   
 26  15  33  1   
 27  15  34  1   
 28  16  18  1   
 29  16  19  1   
 30  16  35  1   
 31  17  18  1   
 32  17  36  1   
 33  17  37  1   
 34  18  20  1   
 35  18  38  1   
 36  19  21  1   
 37  19  39  1   
 38  19  40  1   
 39  20  22  1   
 40  20  23  1   
 41  20  41  1   
 42  21  22  1   
 43  22  42  1   
 44  22  43  1   
 45  23  24  1   
 46  23  44  1   
 47  23  45  1   
 48  24  25  1   
 49  24  46  1   
 50  24  47  1   
 51  25  48  1   
 52  25  49  1   
 53  25  50  1   
@<TRIPOS>SUBSTRUCTURE
  1 ****  11 GROUP 4 **** **** 0

# MOE 2024.06 (io_trps.svl 2023.06)
