@<TRIPOS>MOLECULE
NONAME
50 52 1 0 0 
SMALL
USER_CHARGES


@<TRIPOS>ATOM
  1 O        0.1860    -0.3200    -0.3690 O.2   1 <1>  -0.5700 
  2 C        1.2700    -0.8730    -0.3950 C.2   1 <1>   0.5440 
  3 N        2.4180    -0.1290    -0.2920 N.am  1 <1>  -0.4930 
  4 C        1.3520    -2.3140    -0.5120 C.ar  1 <1>   0.0860 
  5 C        2.5760     1.2780    -0.2200 C.2   1 <1>   0.0630 
  6 C        0.3440    -3.1330     0.0020 C.ar  1 <1>  -0.1500 
  7 C        2.4280    -2.9540    -1.1350 C.ar  1 <1>  -0.1500 
  8 C        1.6170     2.2890    -0.2980 C.2   1 <1>   0.1390 
  9 C        3.7430     1.9340    -0.0570 C.2   1 <1>  -0.3020 
 10 C        0.4110    -4.5090    -0.0840 C.ar  1 <1>  -0.1500 
 11 C        2.4970    -4.3300    -1.2220 C.ar  1 <1>  -0.1500 
 12 N        2.1400     3.4750    -0.1950 N.2   1 <1>  -0.7070 
 13 N        3.4630     3.2580    -0.0430 N.pl3 1 <1>   0.3140 
 14 C        1.4940    -5.1340    -0.6950 C.ar  1 <1>   0.1000 
 15 C        4.4580     4.3570     0.1170 C.3   1 <1>   0.1760 
 16 N        1.5850    -6.5150    -0.7860 N.pl3 1 <1>  -0.8380 
 17 C        4.1690     5.1700     1.3870 C.3   1 <1>  -0.2400 
 18 C        4.4680     5.2650    -1.1210 C.3   1 <1>  -0.2400 
 19 C        2.7480    -7.2330    -0.1860 C.3   1 <1>   0.2090 
 20 C        0.4200    -7.3520    -1.2050 C.3   1 <1>   0.2090 
 21 C        2.2860    -8.2230     0.9050 C.3   1 <1>   0.3430 
 22 C        0.0150    -8.3430    -0.0930 C.3   1 <1>   0.3430 
 23 N        1.1850    -9.1430     0.4320 N.4   1 <1>  -0.9590 
 24 C        0.7580   -10.0780     1.5170 C.3   1 <1>   0.2630 
 25 H        3.2830    -0.6550    -0.2040 H     1 <1>   0.3700 
 26 H       -0.5040    -2.6680     0.4760 H     1 <1>   0.1500 
 27 H        3.2160    -2.3670    -1.5740 H     1 <1>   0.1500 
 28 H        0.5630     2.1130    -0.4300 H     1 <1>   0.1500 
 29 H        4.7370     1.5460     0.0480 H     1 <1>   0.1500 
 30 H       -0.3820    -5.1000     0.3320 H     1 <1>   0.1500 
 31 H        3.3310    -4.7950    -1.7160 H     1 <1>   0.1500 
 32 H        5.4280     3.9040     0.2160 H     1 <1>   0.0800 
 33 H        3.2040     5.6420     1.3150 H     1 <1>   0.0800 
 34 H        4.9150     5.9320     1.5200 H     1 <1>   0.0800 
 35 H        4.1790     4.5260     2.2490 H     1 <1>   0.0800 
 36 H        3.5100     5.7390    -1.2430 H     1 <1>   0.0800 
 37 H        4.6870     4.6870    -2.0020 H     1 <1>   0.0800 
 38 H        5.2180     6.0280    -1.0170 H     1 <1>   0.0800 
 39 H        3.4280    -6.5200     0.2510 H     1 <1>   0.0800 
 40 H        3.2780    -7.7610    -0.9600 H     1 <1>   0.0800 
 41 H        0.6830    -7.8960    -2.0960 H     1 <1>   0.0800 
 42 H       -0.4170    -6.7200    -1.4510 H     1 <1>   0.0800 
 43 H        1.9360    -7.6490     1.7470 H     1 <1>   0.0800 
 44 H        3.1340    -8.8030     1.2320 H     1 <1>   0.0800 
 45 H       -0.7420    -9.0070    -0.4760 H     1 <1>   0.0800 
 46 H       -0.4220    -7.7770     0.7140 H     1 <1>   0.0800 
 47 H        1.5600    -9.6920    -0.3550 H     1 <1>   0.4500 
 48 H        0.3630    -9.5250     2.3540 H     1 <1>   0.0800 
 49 H        1.5970   -10.6640     1.8580 H     1 <1>   0.0800 
 50 H       -0.0040   -10.7490     1.1560 H     1 <1>   0.0800 
@<TRIPOS>BOND
  1   1   2  2   
  2   2   3  am  
  3   2   4  1   
  4   3   5  1   
  5   3  25  1   
  6   4   6  ar  
  7   4   7  ar  
  8   5   8  1   
  9   5   9  2   
 10   6  10  ar  
 11   6  26  1   
 12   7  11  ar  
 13   7  27  1   
 14   8  12  2   
 15   8  28  1   
 16   9  13  1   
 17   9  29  1   
 18  10  14  ar  
 19  10  30  1   
 20  11  14  ar  
 21  11  31  1   
 22  12  13  1   
 23  13  15  1   
 24  14  16  1   
 25  15  17  1   
 26  15  18  1   
 27  15  32  1   
 28  16  19  1   
 29  16  20  1   
 30  17  33  1   
 31  17  34  1   
 32  17  35  1   
 33  18  36  1   
 34  18  37  1   
 35  18  38  1   
 36  19  21  1   
 37  19  39  1   
 38  19  40  1   
 39  20  22  1   
 40  20  41  1   
 41  20  42  1   
 42  21  23  1   
 43  21  43  1   
 44  21  44  1   
 45  22  23  1   
 46  22  45  1   
 47  22  46  1   
 48  23  24  1   
 49  23  47  1   
 50  24  48  1   
 51  24  49  1   
 52  24  50  1   
@<TRIPOS>SUBSTRUCTURE
  1 ****   4 GROUP 4 **** **** 0

# MOE 2024.06 (io_trps.svl 2023.06)
