@<TRIPOS>MOLECULE
NONAME
43 45 1 0 0 
SMALL
USER_CHARGES


@<TRIPOS>ATOM
  1 O        0.7090     0.1630     0.7950 O.3   1 <1>  -0.6800 
  2 C        1.4300    -0.3440    -0.2830 C.3   1 <1>   0.2000 
  3 C        2.1190    -1.6300     0.1700 C.3   1 <1>  -0.0800 
  4 C        2.6040     0.5970    -0.5630 C.3   1 <1>   0.3430 
  5 C        3.3570    -1.1370     0.9340 C.3   1 <1>   0.3430 
  6 C        2.5090    -2.5220    -1.0250 C.3   1 <1>  -0.0170 
  7 N        3.6340     0.2510     0.4600 N.4   1 <1>  -0.9590 
  8 C        3.3420    -3.7080    -0.5660 C.ar  1 <1>  -0.1440 
  9 C        3.6070     1.2440     1.5770 C.3   1 <1>   0.4860 
 10 C        4.6840    -3.8240    -0.8720 C.ar  1 <1>  -0.1500 
 11 C        2.7980    -4.7310     0.1850 C.ar  1 <1>  -0.1500 
 12 C        4.2550     2.5420     1.1040 C.ar  1 <1>   0.1670 
 13 C        5.4000    -4.9160    -0.4110 C.ar  1 <1>   0.1600 
 14 C        3.6020    -5.7810     0.5980 C.ar  1 <1>   0.1600 
 15 N        5.3260     2.4140     0.3250 N.ar  1 <1>  -0.6200 
 16 C        3.7100     3.7600     1.4840 C.ar  1 <1>  -0.1500 
 17 N        4.8910    -5.8900     0.3240 N.ar  1 <1>  -0.6200 
 18 C        5.8840     3.5430    -0.0820 C.ar  1 <1>   0.1670 
 19 C        4.2970     4.9270     1.0480 C.ar  1 <1>  -0.1500 
 20 C        5.4110     4.8040     0.2480 C.ar  1 <1>  -0.1500 
 21 C        7.1120     3.4010    -0.9580 C.3   1 <1>  -0.0970 
 22 H       -0.1540    -0.2960     0.8900 H     1 <1>   0.4000 
 23 H        0.7700    -0.4580    -1.1270 H     1 <1>   0.0800 
 24 H        1.4830    -2.2010     0.8240 H     1 <1>   0.0800 
 25 H        2.3030     1.6310    -0.5120 H     1 <1>   0.0800 
 26 H        2.9960     0.3940    -1.5460 H     1 <1>   0.0800 
 27 H        4.2040    -1.7820     0.7660 H     1 <1>   0.0800 
 28 H        3.1370    -1.1260     1.9900 H     1 <1>   0.0800 
 29 H        3.0640    -1.9610    -1.7570 H     1 <1>   0.0800 
 30 H        1.6190    -2.8900    -1.5090 H     1 <1>   0.0800 
 31 H        4.5790     0.3760     0.0540 H     1 <1>   0.4500 
 32 H        2.5940     1.4220     1.8980 H     1 <1>   0.0800 
 33 H        4.1760     0.8690     2.4100 H     1 <1>   0.0800 
 34 H        5.1870    -3.0840    -1.4680 H     1 <1>   0.1500 
 35 H        1.7580    -4.7320     0.4550 H     1 <1>   0.1500 
 36 H        6.4450    -4.9950    -0.6600 H     1 <1>   0.1500 
 37 H        3.1640    -6.5720     1.1830 H     1 <1>   0.1500 
 38 H        2.8390     3.8080     2.1130 H     1 <1>   0.1500 
 39 H        3.9070     5.8940     1.3210 H     1 <1>   0.1500 
 40 H        5.9090     5.6860    -0.1150 H     1 <1>   0.1500 
 41 H        7.5010     4.3630    -1.2390 H     1 <1>   0.0800 
 42 H        6.8610     2.8570    -1.8490 H     1 <1>   0.0800 
 43 H        7.8750     2.8640    -0.4250 H     1 <1>   0.0800 
@<TRIPOS>BOND
  1   1   2  1   
  2   1  22  1   
  3   2   3  1   
  4   2   4  1   
  5   2  23  1   
  6   3   5  1   
  7   3   6  1   
  8   3  24  1   
  9   4   7  1   
 10   4  25  1   
 11   4  26  1   
 12   5   7  1   
 13   5  27  1   
 14   5  28  1   
 15   6   8  1   
 16   6  29  1   
 17   6  30  1   
 18   7   9  1   
 19   7  31  1   
 20   8  10  ar  
 21   8  11  ar  
 22   9  12  1   
 23   9  32  1   
 24   9  33  1   
 25  10  13  ar  
 26  10  34  1   
 27  11  14  ar  
 28  11  35  1   
 29  12  15  ar  
 30  12  16  ar  
 31  13  17  ar  
 32  13  36  1   
 33  14  17  ar  
 34  14  37  1   
 35  15  18  ar  
 36  16  19  ar  
 37  16  38  1   
 38  18  20  ar  
 39  18  21  1   
 40  19  20  ar  
 41  19  39  1   
 42  20  40  1   
 43  21  41  1   
 44  21  42  1   
 45  21  43  1   
@<TRIPOS>SUBSTRUCTURE
  1 ****   7 GROUP 4 **** **** 0

# MOE 2024.06 (io_trps.svl 2023.06)
