@<TRIPOS>MOLECULE
NONAME
35 36 1 0 0 
SMALL
USER_CHARGES


@<TRIPOS>ATOM
  1 S       -2.6130    -0.7240    -1.9240 S.3   1 <1>  -0.0800 
  2 C       -1.7970    -1.0330    -0.4140 C.2   1 <1>  -0.1400 
  3 C       -2.5950     0.9840    -1.5550 C.2   1 <1>   0.2280 
  4 C       -1.5900     0.1410     0.2080 C.2   1 <1>   0.0460 
  5 C       -1.4840    -2.4800    -0.0910 C.3   1 <1>   0.0200 
  6 N       -2.0500     1.2700    -0.4420 N.2   1 <1>  -0.5650 
  7 C       -0.9100     0.3900     1.5390 C.3   1 <1>  -0.0590 
  8 C       -2.7980    -3.2480     0.0910 C.3   1 <1>   0.3430 
  9 N       -2.5890    -4.7280     0.2680 N.4   1 <1>  -0.9590 
 10 C       -3.9110    -5.4290     0.1090 C.3   1 <1>   0.3430 
 11 C       -1.9390    -5.0320     1.5890 C.3   1 <1>   0.2630 
 12 C       -3.7810    -6.9560     0.0090 C.3   1 <1>   0.0960 
 13 N       -5.1190    -7.5230    -0.2150 N.pl3 1 <1>   0.0480 
 14 C       -6.0380    -7.8710     0.6880 C.2   1 <1>   0.0370 
 15 C       -5.7420    -7.7560    -1.3720 C.2   1 <1>   0.0370 
 16 N       -7.1260    -8.2660     0.1300 N.2   1 <1>  -0.3380 
 17 N       -6.9370    -8.1930    -1.1880 N.2   1 <1>  -0.3380 
 18 H       -3.0350     1.6510    -2.2750 H     1 <1>   0.1500 
 19 H       -0.8940    -2.5220     0.8060 H     1 <1>   0.0800 
 20 H       -0.9150    -2.8950    -0.9040 H     1 <1>   0.0800 
 21 H       -0.5740    -0.5230     1.9890 H     1 <1>   0.0800 
 22 H       -1.5970     0.8780     2.2080 H     1 <1>   0.0800 
 23 H       -0.0640     1.0360     1.3910 H     1 <1>   0.0800 
 24 H       -3.4050    -3.0780    -0.7830 H     1 <1>   0.0800 
 25 H       -3.3290    -2.8440     0.9390 H     1 <1>   0.0800 
 26 H       -1.9610    -5.0350    -0.4920 H     1 <1>   0.4500 
 27 H       -4.3920    -5.0740    -0.7890 H     1 <1>   0.0800 
 28 H       -4.5490    -5.1840     0.9440 H     1 <1>   0.0800 
 29 H       -2.5650    -4.6990     2.4010 H     1 <1>   0.0800 
 30 H       -0.9860    -4.5340     1.6650 H     1 <1>   0.0800 
 31 H       -1.7720    -6.0920     1.6950 H     1 <1>   0.0800 
 32 H       -3.3840    -7.3720     0.9170 H     1 <1>   0.0800 
 33 H       -3.1510    -7.2300    -0.8180 H     1 <1>   0.0800 
 34 H       -5.8880    -7.8240     1.7520 H     1 <1>   0.1500 
 35 H       -5.2990    -7.5960    -2.3390 H     1 <1>   0.1500 
@<TRIPOS>BOND
  1   1   2  1   
  2   1   3  1   
  3   2   4  2   
  4   2   5  1   
  5   3   6  2   
  6   3  18  1   
  7   4   6  1   
  8   4   7  1   
  9   5   8  1   
 10   5  19  1   
 11   5  20  1   
 12   7  21  1   
 13   7  22  1   
 14   7  23  1   
 15   8   9  1   
 16   8  24  1   
 17   8  25  1   
 18   9  10  1   
 19   9  11  1   
 20   9  26  1   
 21  10  12  1   
 22  10  27  1   
 23  10  28  1   
 24  11  29  1   
 25  11  30  1   
 26  11  31  1   
 27  12  13  1   
 28  12  32  1   
 29  12  33  1   
 30  13  14  1   
 31  13  15  1   
 32  14  16  2   
 33  14  34  1   
 34  15  17  2   
 35  15  35  1   
 36  16  17  1   
@<TRIPOS>SUBSTRUCTURE
  1 ****   8 GROUP 4 **** **** 0

# MOE 2024.06 (io_trps.svl 2023.06)
