@<TRIPOS>MOLECULE
NONAME
47 50 1 0 0 
SMALL
USER_CHARGES


@<TRIPOS>ATOM
  1 CL      -0.7550    -0.4090     1.7570 Cl    1 <1>  -0.1770 
  2 C       -2.1190    -0.0260     0.7330 C.ar  1 <1>   0.1770 
  3 C       -2.2720     1.2570     0.2290 C.ar  1 <1>  -0.1440 
  4 C       -3.0250    -1.0280     0.4490 C.ar  1 <1>  -0.1500 
  5 C       -3.3680     1.5150    -0.5780 C.ar  1 <1>  -0.1500 
  6 C       -1.2700     2.3570     0.5470 C.3   1 <1>  -0.0960 
  7 C       -4.1320    -0.7820    -0.3610 C.ar  1 <1>   0.0530 
  8 C       -4.2780     0.5110    -0.8650 C.ar  1 <1>  -0.1500 
  9 C       -5.0880    -1.8240    -0.6660 C.2   1 <1>   0.0870 
 10 O       -4.8920    -3.0610    -0.2260 O.3   1 <1>  -0.2800 
 11 C       -6.2510    -1.7980    -1.3710 C.2   1 <1>  -0.1500 
 12 C       -5.8900    -3.8230    -0.6230 C.2   1 <1>  -0.0400 
 13 C       -6.7680    -3.0950    -1.3440 C.2   1 <1>  -0.1500 
 14 C       -5.8820    -5.2960    -0.2380 C.3   1 <1>   0.2900 
 15 N       -7.2110    -5.9180    -0.3950 N.3   1 <1>  -0.8100 
 16 C       -7.1030    -7.3980    -0.3430 C.3   1 <1>   0.1100 
 17 C       -8.1470    -5.4470     0.6520 C.3   1 <1>   0.1100 
 18 C       -8.4820    -8.0790    -0.4660 C.3   1 <1>   0.2510 
 19 C       -9.5260    -6.1250     0.5330 C.3   1 <1>   0.1100 
 20 N       -9.3920    -7.5880     0.6220 N.3   1 <1>  -0.8100 
 21 C       -8.3600    -9.6180    -0.4980 C.2   1 <1>   0.5690 
 22 C      -10.6820    -8.2930     0.5540 C.3   1 <1>   0.1100 
 23 O       -7.4020   -10.1570    -1.0000 O.2   1 <1>  -0.5700 
 24 N       -9.3630   -10.3720     0.0230 N.am  1 <1>  -0.7300 
 25 C      -10.5010    -9.8070     0.8000 C.3   1 <1>   0.1400 
 26 H       -2.8670    -2.0080     0.8610 H     1 <1>   0.1500 
 27 H       -3.5190     2.4990    -0.9870 H     1 <1>   0.1500 
 28 H       -0.2930     2.0740     0.1990 H     1 <1>   0.0800 
 29 H       -1.2270     2.5170     1.6100 H     1 <1>   0.0800 
 30 H       -1.5470     3.2810     0.0740 H     1 <1>   0.0800 
 31 H       -5.1180     0.7390    -1.4950 H     1 <1>   0.1500 
 32 H       -6.7130    -0.9640    -1.8670 H     1 <1>   0.1500 
 33 H       -7.6780    -3.4310    -1.8090 H     1 <1>   0.1500 
 34 H       -5.5520    -5.3970     0.7810 H     1 <1>   0.0800 
 35 H       -5.1710    -5.7980    -0.8710 H     1 <1>   0.0800 
 36 H       -6.6470    -7.7070     0.5810 H     1 <1>   0.0800 
 37 H       -6.4790    -7.7340    -1.1540 H     1 <1>   0.0800 
 38 H       -8.2780    -4.3820     0.5690 H     1 <1>   0.0800 
 39 H       -7.7430    -5.6570     1.6270 H     1 <1>   0.0800 
 40 H       -8.8940    -7.7910    -1.4160 H     1 <1>   0.0800 
 41 H       -9.9780    -5.8480    -0.4040 H     1 <1>   0.0800 
 42 H      -10.1560    -5.7750     1.3320 H     1 <1>   0.0800 
 43 H      -11.1320    -8.1380    -0.4130 H     1 <1>   0.0800 
 44 H      -11.3490    -7.8960     1.2990 H     1 <1>   0.0800 
 45 H       -9.2270   -11.3840     0.0270 H     1 <1>   0.3700 
 46 H      -11.4070   -10.3220     0.5350 H     1 <1>   0.0800 
 47 H      -10.3170    -9.9680     1.8480 H     1 <1>   0.0800 
@<TRIPOS>BOND
  1   1   2  1   
  2   2   3  ar  
  3   2   4  ar  
  4   3   5  ar  
  5   3   6  1   
  6   4   7  ar  
  7   4  26  1   
  8   5   8  ar  
  9   5  27  1   
 10   6  28  1   
 11   6  29  1   
 12   6  30  1   
 13   7   8  ar  
 14   7   9  1   
 15   8  31  1   
 16   9  10  1   
 17   9  11  2   
 18  10  12  1   
 19  11  13  1   
 20  11  32  1   
 21  12  13  2   
 22  12  14  1   
 23  13  33  1   
 24  14  15  1   
 25  14  34  1   
 26  14  35  1   
 27  15  16  1   
 28  15  17  1   
 29  16  18  1   
 30  16  36  1   
 31  16  37  1   
 32  17  19  1   
 33  17  38  1   
 34  17  39  1   
 35  18  20  1   
 36  18  21  1   
 37  18  40  1   
 38  19  20  1   
 39  19  41  1   
 40  19  42  1   
 41  20  22  1   
 42  21  23  2   
 43  21  24  am  
 44  22  25  1   
 45  22  43  1   
 46  22  44  1   
 47  24  25  1   
 48  24  45  1   
 49  25  46  1   
 50  25  47  1   
@<TRIPOS>SUBSTRUCTURE
  1 ****  12 GROUP 4 **** **** 0

# MOE 2024.06 (io_trps.svl 2023.06)
