@<TRIPOS>MOLECULE
NONAME
58 61 1 0 0 
SMALL
USER_CHARGES


@<TRIPOS>ATOM
  1 O        0.7450    -1.5040    -1.6570 O.3   1 <1>  -0.6800 
  2 C        0.3540    -2.0030    -0.4220 C.3   1 <1>   0.1200 
  3 C        1.5070    -1.9280     0.6220 C.3   1 <1>   0.0000 
  4 C        2.8660    -2.4820     0.1010 C.3   1 <1>   0.4230 
  5 C        1.7010    -0.4520     1.0650 C.3   1 <1>  -0.1600 
  6 C        1.0860    -2.7570     1.8700 C.3   1 <1>  -0.1600 
  7 N        2.7980    -3.9480    -0.3290 N.4   1 <1>  -0.9590 
  8 C        3.5550    -1.5120    -0.9140 C.3   1 <1>   0.3430 
  9 C        2.3030     0.4500    -0.0160 C.3   1 <1>   0.3430 
 10 C        1.6530    -4.1920     1.8850 C.3   1 <1>  -0.1600 
 11 C        1.8380    -4.7750     0.4840 C.3   1 <1>   0.3430 
 12 C        2.5100    -4.1720    -1.7870 C.3   1 <1>   0.2630 
 13 N        3.6360    -0.0810    -0.4390 N.4   1 <1>  -0.9590 
 14 C        4.2290     0.8050    -1.4860 C.3   1 <1>   0.4860 
 15 C        4.4850     2.1670    -0.8730 C.ar  1 <1>  -0.1430 
 16 C        3.6760     3.2460    -1.2010 C.ar  1 <1>  -0.1500 
 17 C        5.5290     2.3490     0.0230 C.ar  1 <1>  -0.1500 
 18 C        3.9000     4.4870    -0.6290 C.ar  1 <1>  -0.1500 
 19 C        5.7480     3.5900     0.5940 C.ar  1 <1>  -0.1500 
 20 C        4.9360     4.6660     0.2730 C.ar  1 <1>  -0.1430 
 21 C        5.1920     6.0310     0.9090 C.3   1 <1>   0.2390 
 22 N        6.5680     6.5000     0.6420 N.pl3 1 <1>   0.3140 
 23 N        7.5020     6.5610     1.6130 N.2   1 <1>  -0.7070 
 24 C        7.0660     6.9220    -0.5380 C.2   1 <1>  -0.3020 
 25 C        8.5650     7.0190     1.0250 C.2   1 <1>   0.1390 
 26 C        8.3540     7.2650    -0.3260 C.2   1 <1>  -0.1500 
 27 H       -0.0400    -1.4040    -2.2450 H     1 <1>   0.4000 
 28 H       -0.4940    -1.4290    -0.0850 H     1 <1>   0.0800 
 29 H        0.0230    -3.0160    -0.5730 H     1 <1>   0.0800 
 30 H        3.5090    -2.4670     0.9650 H     1 <1>   0.0800 
 31 H        2.3410    -0.3970     1.9300 H     1 <1>   0.0800 
 32 H        0.7520    -0.0380     1.3600 H     1 <1>   0.0800 
 33 H        1.4110    -2.2790     2.7800 H     1 <1>   0.0800 
 34 H        0.0100    -2.8010     1.9320 H     1 <1>   0.0800 
 35 H        3.7260    -4.3580    -0.1410 H     1 <1>   0.4500 
 36 H        3.0030    -1.5340    -1.8380 H     1 <1>   0.0800 
 37 H        4.5510    -1.8730    -1.1130 H     1 <1>   0.0800 
 38 H        2.4130     1.4500     0.3770 H     1 <1>   0.0800 
 39 H        1.6390     0.5000    -0.8640 H     1 <1>   0.0800 
 40 H        0.9850    -4.8260     2.4440 H     1 <1>   0.0800 
 41 H        2.5990    -4.2120     2.4000 H     1 <1>   0.0800 
 42 H        0.8770    -4.8030    -0.0030 H     1 <1>   0.0800 
 43 H        2.1970    -5.7900     0.5560 H     1 <1>   0.0800 
 44 H        1.5480    -3.7630    -2.0510 H     1 <1>   0.0800 
 45 H        2.5000    -5.2280    -2.0080 H     1 <1>   0.0800 
 46 H        3.2620    -3.7090    -2.4030 H     1 <1>   0.0800 
 47 H        4.2630     0.0090     0.3720 H     1 <1>   0.4500 
 48 H        5.1630     0.3980    -1.8390 H     1 <1>   0.0800 
 49 H        3.5570     0.8990    -2.3250 H     1 <1>   0.0800 
 50 H        2.8680     3.1410    -1.9050 H     1 <1>   0.1500 
 51 H        6.1910     1.5430     0.2860 H     1 <1>   0.1500 
 52 H        3.2630     5.3140    -0.8960 H     1 <1>   0.1500 
 53 H        6.5640     3.7230     1.2880 H     1 <1>   0.1500 
 54 H        5.0600     5.9660     1.9740 H     1 <1>   0.0800 
 55 H        4.5070     6.7650     0.5270 H     1 <1>   0.0800 
 56 H        6.4900     6.9520    -1.4440 H     1 <1>   0.1500 
 57 H        9.4990     7.1860     1.5360 H     1 <1>   0.1500 
 58 H        9.0800     7.6450    -1.0230 H     1 <1>   0.1500 
@<TRIPOS>BOND
  1   1   2  1   
  2   1  27  1   
  3   2   3  1   
  4   2  28  1   
  5   2  29  1   
  6   3   4  1   
  7   3   5  1   
  8   3   6  1   
  9   4   7  1   
 10   4   8  1   
 11   4  30  1   
 12   5   9  1   
 13   5  31  1   
 14   5  32  1   
 15   6  10  1   
 16   6  33  1   
 17   6  34  1   
 18   7  11  1   
 19   7  12  1   
 20   7  35  1   
 21   8  13  1   
 22   8  36  1   
 23   8  37  1   
 24   9  13  1   
 25   9  38  1   
 26   9  39  1   
 27  10  11  1   
 28  10  40  1   
 29  10  41  1   
 30  11  42  1   
 31  11  43  1   
 32  12  44  1   
 33  12  45  1   
 34  12  46  1   
 35  13  14  1   
 36  13  47  1   
 37  14  15  1   
 38  14  48  1   
 39  14  49  1   
 40  15  16  ar  
 41  15  17  ar  
 42  16  18  ar  
 43  16  50  1   
 44  17  19  ar  
 45  17  51  1   
 46  18  20  ar  
 47  18  52  1   
 48  19  20  ar  
 49  19  53  1   
 50  20  21  1   
 51  21  22  1   
 52  21  54  1   
 53  21  55  1   
 54  22  23  1   
 55  22  24  1   
 56  23  25  2   
 57  24  26  2   
 58  24  56  1   
 59  25  26  1   
 60  25  57  1   
 61  26  58  1   
@<TRIPOS>SUBSTRUCTURE
  1 ****  15 GROUP 4 **** **** 0

# MOE 2024.06 (io_trps.svl 2023.06)
