@<TRIPOS>MOLECULE
NONAME
50 52 1 0 0 
SMALL
USER_CHARGES


@<TRIPOS>ATOM
  1 S        0.7820     1.1960     0.4490 S.o2  1 <1>   1.3330 
  2 O        1.7580     2.0360     1.1110 O.2   1 <1>  -0.6500 
  3 O       -0.3100     0.6490     1.2160 O.2   1 <1>  -0.6500 
  4 N        1.5720    -0.0270    -0.4120 N.am  1 <1>  -0.8490 
  5 C        0.0820     2.2420    -0.8260 C.3   1 <1>  -0.0550 
  6 C        2.7360    -0.5600     0.3060 C.3   1 <1>   0.1160 
  7 C        0.6850    -1.1340    -0.7960 C.3   1 <1>   0.1160 
  8 C       -0.9430     3.2820    -0.3030 C.3   1 <1>  -0.0800 
  9 C       -1.0160     4.4740    -1.2530 C.3   1 <1>   0.2000 
 10 C       -0.5630     3.9380     1.0350 C.3   1 <1>   0.3430 
 11 O       -2.2510     5.0910    -1.1100 O.3   1 <1>  -0.6800 
 12 C        0.0990     5.4080    -0.7640 C.3   1 <1>   0.3430 
 13 N        0.2650     5.1350     0.7030 N.4   1 <1>  -0.9590 
 14 C        1.6940     4.9640     1.1080 C.3   1 <1>   0.5230 
 15 C        2.3460     6.3290     1.1540 C.2   1 <1>  -0.1400 
 16 S        2.8880     7.0370    -0.3570 S.3   1 <1>  -0.0800 
 17 C        2.6240     7.1600     2.1770 C.2   1 <1>  -0.1500 
 18 C        3.4830     8.4940     0.4440 C.2   1 <1>  -0.0130 
 19 C        3.2570     8.3730     1.7750 C.2   1 <1>  -0.1500 
 20 C        4.0740     9.5520    -0.3430 C.ar  1 <1>   0.0530 
 21 C        4.7020     9.3130    -1.5660 C.ar  1 <1>  -0.1500 
 22 C        4.0360    10.8700     0.1100 C.ar  1 <1>  -0.1500 
 23 C        5.2600    10.3410    -2.3030 C.ar  1 <1>  -0.1500 
 24 C        4.5920    11.9030    -0.6210 C.ar  1 <1>  -0.1500 
 25 C        5.2060    11.6400    -1.8330 C.ar  1 <1>  -0.1500 
 26 H        0.8930     2.7350    -1.3260 H     1 <1>   0.0800 
 27 H       -0.4090     1.6260    -1.5560 H     1 <1>   0.0800 
 28 H        3.2270    -1.3130    -0.2860 H     1 <1>   0.0800 
 29 H        2.4330    -0.9920     1.2460 H     1 <1>   0.0800 
 30 H        3.4450     0.2280     0.5000 H     1 <1>   0.0800 
 31 H        1.2200    -1.8420    -1.4070 H     1 <1>   0.0800 
 32 H       -0.1530    -0.7650    -1.3620 H     1 <1>   0.0800 
 33 H        0.3130    -1.6410     0.0800 H     1 <1>   0.0800 
 34 H       -1.8970     2.7890    -0.2090 H     1 <1>   0.0800 
 35 H       -0.9030     4.2080    -2.2920 H     1 <1>   0.0800 
 36 H       -0.0570     3.2670     1.7090 H     1 <1>   0.0800 
 37 H       -1.4680     4.2640     1.5210 H     1 <1>   0.0800 
 38 H       -2.4740     5.3230    -0.1880 H     1 <1>   0.4000 
 39 H       -0.1450     6.4400    -0.9590 H     1 <1>   0.0800 
 40 H        1.0110     5.1630    -1.2820 H     1 <1>   0.0800 
 41 H       -0.0730     5.9510     1.2300 H     1 <1>   0.4500 
 42 H        1.7430     4.5200     2.0890 H     1 <1>   0.0800 
 43 H        2.2180     4.3180     0.4220 H     1 <1>   0.0800 
 44 H        2.4140     6.9790     3.2180 H     1 <1>   0.1500 
 45 H        3.5280     9.1170     2.5050 H     1 <1>   0.1500 
 46 H        4.7670     8.3110    -1.9480 H     1 <1>   0.1500 
 47 H        3.5600    11.0930     1.0470 H     1 <1>   0.1500 
 48 H        5.7390    10.1320    -3.2440 H     1 <1>   0.1500 
 49 H        4.5490    12.9130    -0.2510 H     1 <1>   0.1500 
 50 H        5.6400    12.4420    -2.4050 H     1 <1>   0.1500 
@<TRIPOS>BOND
  1   1   2  2   
  2   1   3  2   
  3   1   4  am  
  4   1   5  1   
  5   4   6  1   
  6   4   7  1   
  7   5   8  1   
  8   5  26  1   
  9   5  27  1   
 10   6  28  1   
 11   6  29  1   
 12   6  30  1   
 13   7  31  1   
 14   7  32  1   
 15   7  33  1   
 16   8   9  1   
 17   8  10  1   
 18   8  34  1   
 19   9  11  1   
 20   9  12  1   
 21   9  35  1   
 22  10  13  1   
 23  10  36  1   
 24  10  37  1   
 25  11  38  1   
 26  12  13  1   
 27  12  39  1   
 28  12  40  1   
 29  13  14  1   
 30  13  41  1   
 31  14  15  1   
 32  14  42  1   
 33  14  43  1   
 34  15  16  1   
 35  15  17  2   
 36  16  18  1   
 37  17  19  1   
 38  17  44  1   
 39  18  19  2   
 40  18  20  1   
 41  19  45  1   
 42  20  21  ar  
 43  20  22  ar  
 44  21  23  ar  
 45  21  46  1   
 46  22  24  ar  
 47  22  47  1   
 48  23  25  ar  
 49  23  48  1   
 50  24  25  ar  
 51  24  49  1   
 52  25  50  1   
@<TRIPOS>SUBSTRUCTURE
  1 ****  14 GROUP 4 **** **** 0

# MOE 2024.06 (io_trps.svl 2023.06)
