@<TRIPOS>MOLECULE
NONAME
48 50 1 0 0 
SMALL
USER_CHARGES


@<TRIPOS>ATOM
  1 F       -0.7020    -1.6290     1.9280 F     1 <1>  -0.1900 
  2 C       -1.6760    -1.6450     1.0610 C.ar  1 <1>   0.1900 
  3 C       -2.3510    -0.4720     0.7950 C.ar  1 <1>  -0.1500 
  4 C       -1.9910    -2.8470     0.4470 C.ar  1 <1>  -0.1500 
  5 C       -3.3740    -0.5420    -0.1290 C.ar  1 <1>   0.1900 
  6 C       -3.0330    -2.8910    -0.4760 C.ar  1 <1>  -0.1440 
  7 F       -4.0420     0.5410    -0.4110 F     1 <1>  -0.1900 
  8 C       -3.7240    -1.7200    -0.7690 C.ar  1 <1>  -0.1500 
  9 C       -3.4080    -4.1960    -1.1550 C.3   1 <1>   0.4870 
 10 N       -4.1720    -5.0410    -0.1870 N.4   1 <1>  -0.9590 
 11 C       -4.3470    -6.4460    -0.7150 C.3   1 <1>   0.3430 
 12 C       -5.4840    -4.3980     0.1350 C.3   1 <1>   0.3430 
 13 C       -5.2100    -7.3710     0.2050 C.3   1 <1>   0.4230 
 14 C       -6.2610    -5.2640     1.1300 C.3   1 <1>  -0.1600 
 15 N       -5.3750    -8.8130    -0.2760 N.4   1 <1>  -0.9590 
 16 C       -6.5520    -6.7040     0.6260 C.3   1 <1>   0.0000 
 17 C       -6.4730    -9.5650     0.4270 C.3   1 <1>   0.3430 
 18 C       -5.5560    -8.9770    -1.7600 C.3   1 <1>   0.2630 
 19 C       -7.1570    -7.5180     1.8050 C.3   1 <1>  -0.1600 
 20 C       -7.6100    -6.6450    -0.5150 C.3   1 <1>   0.1200 
 21 C       -6.7250    -9.0000     1.8250 C.3   1 <1>  -0.1600 
 22 O       -7.0680    -6.1510    -1.6940 O.3   1 <1>  -0.6800 
 23 H       -2.0930     0.4510     1.2820 H     1 <1>   0.1500 
 24 H       -1.4100    -3.7160     0.6990 H     1 <1>   0.1500 
 25 H       -4.5280    -1.6930    -1.4850 H     1 <1>   0.1500 
 26 H       -2.5080    -4.7020    -1.4640 H     1 <1>   0.0800 
 27 H       -4.0050    -3.9970    -2.0320 H     1 <1>   0.0800 
 28 H       -3.6150    -5.0410     0.6790 H     1 <1>   0.4500 
 29 H       -4.8160    -6.3920    -1.6820 H     1 <1>   0.0800 
 30 H       -3.3770    -6.8970    -0.8420 H     1 <1>   0.0800 
 31 H       -5.3220    -3.4220     0.5670 H     1 <1>   0.0800 
 32 H       -6.0640    -4.2670    -0.7660 H     1 <1>   0.0800 
 33 H       -4.6470    -7.4390     1.1210 H     1 <1>   0.0800 
 34 H       -5.7000    -5.2910     2.0490 H     1 <1>   0.0800 
 35 H       -7.1910    -4.7680     1.3550 H     1 <1>   0.0800 
 36 H       -4.5090    -9.3150    -0.0240 H     1 <1>   0.4500 
 37 H       -7.3870    -9.4920    -0.1400 H     1 <1>   0.0800 
 38 H       -6.2160   -10.6110     0.4970 H     1 <1>   0.0800 
 39 H       -6.4500    -8.4740    -2.0910 H     1 <1>   0.0800 
 40 H       -5.6430   -10.0230    -2.0110 H     1 <1>   0.0800 
 41 H       -4.7140    -8.5730    -2.2970 H     1 <1>   0.0800 
 42 H       -6.8720    -7.0940     2.7550 H     1 <1>   0.0800 
 43 H       -8.2330    -7.4640     1.7720 H     1 <1>   0.0800 
 44 H       -8.4310    -6.0040    -0.2330 H     1 <1>   0.0800 
 45 H       -8.0160    -7.6190    -0.7280 H     1 <1>   0.0800 
 46 H       -7.4940    -9.5820     2.3060 H     1 <1>   0.0800 
 47 H       -5.8340    -9.1200     2.4170 H     1 <1>   0.0800 
 48 H       -7.7860    -5.9750    -2.3480 H     1 <1>   0.4000 
@<TRIPOS>BOND
  1   1   2  1   
  2   2   3  ar  
  3   2   4  ar  
  4   3   5  ar  
  5   3  23  1   
  6   4   6  ar  
  7   4  24  1   
  8   5   7  1   
  9   5   8  ar  
 10   6   8  ar  
 11   6   9  1   
 12   8  25  1   
 13   9  10  1   
 14   9  26  1   
 15   9  27  1   
 16  10  11  1   
 17  10  12  1   
 18  10  28  1   
 19  11  13  1   
 20  11  29  1   
 21  11  30  1   
 22  12  14  1   
 23  12  31  1   
 24  12  32  1   
 25  13  15  1   
 26  13  16  1   
 27  13  33  1   
 28  14  16  1   
 29  14  34  1   
 30  14  35  1   
 31  15  17  1   
 32  15  18  1   
 33  15  36  1   
 34  16  19  1   
 35  16  20  1   
 36  17  21  1   
 37  17  37  1   
 38  17  38  1   
 39  18  39  1   
 40  18  40  1   
 41  18  41  1   
 42  19  21  1   
 43  19  42  1   
 44  19  43  1   
 45  20  22  1   
 46  20  44  1   
 47  20  45  1   
 48  21  46  1   
 49  21  47  1   
 50  22  48  1   
@<TRIPOS>SUBSTRUCTURE
  1 ****  10 GROUP 4 **** **** 0

# MOE 2024.06 (io_trps.svl 2023.06)
