@<TRIPOS>MOLECULE
NONAME
49 52 1 0 0 
SMALL
USER_CHARGES


@<TRIPOS>ATOM
  1 O       -0.7620     0.0320    -0.7790 O.2   1 <1>  -0.5700 
  2 C       -1.7440     0.7510    -0.7840 C.2   1 <1>   0.7160 
  3 N       -2.9810     0.1880    -1.0160 N.am  1 <1>  -0.6600 
  4 C       -1.6000     2.1670    -0.5350 C.2   1 <1>  -0.0860 
  5 C       -4.2560     0.7630    -0.4870 C.3   1 <1>   0.1400 
  6 C       -3.1330    -1.2110    -1.5230 C.3   1 <1>   0.1400 
  7 C       -0.8260     2.8190     0.3760 C.2   1 <1>  -0.0400 
  8 C       -2.2580     3.2060    -1.2290 C.2   1 <1>  -0.1500 
  9 C       -4.9000    -0.1850     0.5430 C.3   1 <1>   0.1900 
 10 C       -3.8120    -2.1050    -0.4730 C.3   1 <1>   0.1100 
 11 O       -0.9840     4.1180     0.2880 O.3   1 <1>  -0.2800 
 12 C        0.1360     2.2880     1.4180 C.3   1 <1>  -0.0600 
 13 C       -1.8420     4.3620    -0.6770 C.2   1 <1>  -0.0400 
 14 N       -5.1060    -1.5360    -0.0360 N.3   1 <1>  -0.8100 
 15 C       -6.2350     0.3990     1.0480 C.3   1 <1>   0.1200 
 16 C       -2.1890     5.8000    -0.9910 C.3   1 <1>  -0.0600 
 17 C       -5.7860    -2.4080     0.9510 C.3   1 <1>   0.3330 
 18 O       -6.8220    -0.4590     1.9840 O.3   1 <1>  -0.5600 
 19 C       -6.1300    -3.7660     0.3390 C.ar  1 <1>  -0.1430 
 20 C       -7.0770    -1.7420     1.4740 C.3   1 <1>   0.1200 
 21 C       -6.7480    -3.8520    -0.9010 C.ar  1 <1>  -0.1500 
 22 C       -5.8300    -4.9340     1.0240 C.ar  1 <1>  -0.1500 
 23 C       -7.0620    -5.0840    -1.4480 C.ar  1 <1>  -0.1500 
 24 C       -6.1430    -6.1680     0.4790 C.ar  1 <1>  -0.1500 
 25 C       -6.7590    -6.2430    -0.7570 C.ar  1 <1>  -0.1500 
 26 H       -4.0780     1.7110    -0.0150 H     1 <1>   0.0800 
 27 H       -4.9370     0.9170    -1.3060 H     1 <1>   0.0800 
 28 H       -3.7360    -1.1980    -2.4130 H     1 <1>   0.0800 
 29 H       -2.1760    -1.6290    -1.7820 H     1 <1>   0.0800 
 30 H       -2.9470     3.0590    -2.0410 H     1 <1>   0.1500 
 31 H       -4.2350    -0.2550     1.3870 H     1 <1>   0.0800 
 32 H       -3.1520    -2.2210     0.3700 H     1 <1>   0.0800 
 33 H       -3.9680    -3.0770    -0.9090 H     1 <1>   0.0800 
 34 H        0.1630     1.2140     1.4000 H     1 <1>   0.0800 
 35 H       -0.1700     2.6140     2.3940 H     1 <1>   0.0800 
 36 H        1.1240     2.6610     1.2190 H     1 <1>   0.0800 
 37 H       -6.9220     0.5390     0.2320 H     1 <1>   0.0800 
 38 H       -6.0710     1.3440     1.5340 H     1 <1>   0.0800 
 39 H       -2.8950     5.8450    -1.7990 H     1 <1>   0.0800 
 40 H       -1.2990     6.3330    -1.2710 H     1 <1>   0.0800 
 41 H       -2.6170     6.2660    -0.1220 H     1 <1>   0.0800 
 42 H       -5.1320    -2.5610     1.7920 H     1 <1>   0.0800 
 43 H       -7.5010    -2.3330     2.2650 H     1 <1>   0.0800 
 44 H       -7.8010    -1.6590     0.6820 H     1 <1>   0.0800 
 45 H       -6.9790    -2.9510    -1.4450 H     1 <1>   0.1500 
 46 H       -5.3510    -4.8920     1.9870 H     1 <1>   0.1500 
 47 H       -7.5400    -5.1390    -2.4100 H     1 <1>   0.1500 
 48 H       -5.9070    -7.0690     1.0170 H     1 <1>   0.1500 
 49 H       -7.0030    -7.2020    -1.1810 H     1 <1>   0.1500 
@<TRIPOS>BOND
  1   1   2  2   
  2   2   3  am  
  3   2   4  1   
  4   3   5  1   
  5   3   6  1   
  6   4   7  2   
  7   4   8  1   
  8   5   9  1   
  9   5  26  1   
 10   5  27  1   
 11   6  10  1   
 12   6  28  1   
 13   6  29  1   
 14   7  11  1   
 15   7  12  1   
 16   8  13  2   
 17   8  30  1   
 18   9  14  1   
 19   9  15  1   
 20   9  31  1   
 21  10  14  1   
 22  10  32  1   
 23  10  33  1   
 24  11  13  1   
 25  12  34  1   
 26  12  35  1   
 27  12  36  1   
 28  13  16  1   
 29  14  17  1   
 30  15  18  1   
 31  15  37  1   
 32  15  38  1   
 33  16  39  1   
 34  16  40  1   
 35  16  41  1   
 36  17  19  1   
 37  17  20  1   
 38  17  42  1   
 39  18  20  1   
 40  19  21  ar  
 41  19  22  ar  
 42  20  43  1   
 43  20  44  1   
 44  21  23  ar  
 45  21  45  1   
 46  22  24  ar  
 47  22  46  1   
 48  23  25  ar  
 49  23  47  1   
 50  24  25  ar  
 51  24  48  1   
 52  25  49  1   
@<TRIPOS>SUBSTRUCTURE
  1 ****   9 GROUP 4 **** **** 0

# MOE 2024.06 (io_trps.svl 2023.06)
