@<TRIPOS>MOLECULE
NONAME
44 45 1 0 0 
SMALL
USER_CHARGES


@<TRIPOS>ATOM
  1 CL      -1.4340     0.8390    -1.5900 Cl    1 <1>  -0.1770 
  2 C       -1.8830    -0.5200    -0.5870 C.ar  1 <1>   0.1770 
  3 C       -1.7540    -0.4390     0.7930 C.ar  1 <1>  -0.1440 
  4 C       -2.3640    -1.6560    -1.2040 C.ar  1 <1>  -0.1500 
  5 C       -2.1200    -1.5410     1.5490 C.ar  1 <1>  -0.1500 
  6 C       -1.2240     0.8180     1.4660 C.3   1 <1>  -0.0960 
  7 C       -2.7450    -2.7650    -0.4530 C.ar  1 <1>   0.0860 
  8 C       -2.6030    -2.6830     0.9330 C.ar  1 <1>  -0.1500 
  9 C       -3.2600    -3.9580    -1.1020 C.2   1 <1>   0.5440 
 10 O       -2.6490    -4.4290    -2.0440 O.2   1 <1>  -0.5700 
 11 N       -4.4240    -4.5650    -0.6900 N.am  1 <1>  -0.6600 
 12 C       -4.7840    -5.9410    -1.1810 C.3   1 <1>   0.1400 
 13 C       -5.4280    -3.8940     0.2000 C.3   1 <1>   0.1400 
 14 C       -5.7440    -6.6180    -0.1950 C.3   1 <1>   0.2000 
 15 C       -6.8430    -4.3180    -0.2000 C.3   1 <1>  -0.1600 
 16 O       -5.9850    -7.9380    -0.5370 O.3   1 <1>  -0.6800 
 17 C       -7.0790    -5.8490     0.0040 C.3   1 <1>  -0.1060 
 18 C       -7.4440    -6.1780     1.4620 C.2   1 <1>   0.9060 
 19 C       -8.2610    -6.2970    -0.9190 C.3   1 <1>  -0.1600 
 20 O       -7.4380    -5.2910     2.3250 O.co2 1 <1>  -0.9000 
 21 O       -7.6720    -7.3620     1.7510 O.co2 1 <1>  -0.9000 
 22 C       -8.0080    -6.2920    -2.4400 C.3   1 <1>  -0.1600 
 23 C       -9.2650    -6.7230    -3.2010 C.3   1 <1>  -0.2400 
 24 H       -2.4460    -1.6900    -2.2750 H     1 <1>   0.1500 
 25 H       -2.0310    -1.5190     2.6220 H     1 <1>   0.1500 
 26 H       -1.1960     0.7020     2.5340 H     1 <1>   0.0800 
 27 H       -1.8570     1.6550     1.2300 H     1 <1>   0.0800 
 28 H       -0.2280     1.0280     1.1190 H     1 <1>   0.0800 
 29 H       -2.8760    -3.5350     1.5330 H     1 <1>   0.1500 
 30 H       -5.2440    -5.8580    -2.1480 H     1 <1>   0.0800 
 31 H       -3.8910    -6.5340    -1.2690 H     1 <1>   0.0800 
 32 H       -5.2490    -4.1710     1.2260 H     1 <1>   0.0800 
 33 H       -5.3440    -2.8250     0.1150 H     1 <1>   0.0800 
 34 H       -5.2220    -6.6570     0.7480 H     1 <1>   0.0800 
 35 H       -7.5590    -3.7610     0.3780 H     1 <1>   0.0800 
 36 H       -6.9820    -4.0280    -1.2220 H     1 <1>   0.0800 
 37 H       -6.6290    -8.2670     0.1410 H     1 <1>   0.4000 
 38 H       -8.5540    -7.2950    -0.6420 H     1 <1>   0.0800 
 39 H       -9.1060    -5.6660    -0.7030 H     1 <1>   0.0800 
 40 H       -7.7180    -5.3160    -2.7820 H     1 <1>   0.0800 
 41 H       -7.2130    -6.9780    -2.6760 H     1 <1>   0.0800 
 42 H      -10.0750    -6.0450    -3.0000 H     1 <1>   0.0800 
 43 H       -9.5580    -7.7140    -2.9010 H     1 <1>   0.0800 
 44 H       -9.0710    -6.7280    -4.2590 H     1 <1>   0.0800 
@<TRIPOS>BOND
  1   1   2  1   
  2   2   3  ar  
  3   2   4  ar  
  4   3   5  ar  
  5   3   6  1   
  6   4   7  ar  
  7   4  24  1   
  8   5   8  ar  
  9   5  25  1   
 10   6  26  1   
 11   6  27  1   
 12   6  28  1   
 13   7   8  ar  
 14   7   9  1   
 15   8  29  1   
 16   9  10  2   
 17   9  11  am  
 18  11  12  1   
 19  11  13  1   
 20  12  14  1   
 21  12  30  1   
 22  12  31  1   
 23  13  15  1   
 24  13  32  1   
 25  13  33  1   
 26  14  16  1   
 27  14  17  1   
 28  14  34  1   
 29  15  17  1   
 30  15  35  1   
 31  15  36  1   
 32  16  37  1   
 33  17  18  1   
 34  17  19  1   
 35  18  20  ar  
 36  18  21  ar  
 37  19  22  1   
 38  19  38  1   
 39  19  39  1   
 40  22  23  1   
 41  22  40  1   
 42  22  41  1   
 43  23  42  1   
 44  23  43  1   
 45  23  44  1   
@<TRIPOS>SUBSTRUCTURE
  1 ****  11 GROUP 4 **** **** 0

# MOE 2024.06 (io_trps.svl 2023.06)
