@<TRIPOS>MOLECULE
NONAME
50 52 1 0 0 
SMALL
USER_CHARGES


@<TRIPOS>ATOM
  1 O       -3.6390     0.8310    -1.6100 O.2   1 <1>  -0.5700 
  2 C       -2.8890     1.2440    -0.7440 C.2   1 <1>   0.5440 
  3 N       -3.0300     0.6470     0.4760 N.am  1 <1>  -0.6600 
  4 C       -1.9940     2.3620    -0.9950 C.ar  1 <1>   0.0860 
  5 C       -2.3650    -0.6600     0.7370 C.3   1 <1>   0.3210 
  6 C       -3.8130     1.2760     1.5790 C.3   1 <1>   0.1400 
  7 C       -0.7960     2.5800    -0.2970 C.ar  1 <1>   0.0820 
  8 C       -2.3340     3.2910    -1.9860 C.ar  1 <1>  -0.1500 
  9 C       -3.3490    -1.8280     0.7190 C.2   1 <1>   0.0460 
 10 C       -5.2560     0.7360     1.6230 C.3   1 <1>   0.3430 
 11 O       -0.3970     1.7100     0.6680 O.3   1 <1>  -0.3630 
 12 C        0.0060     3.6890    -0.5940 C.ar  1 <1>   0.0820 
 13 C       -1.5470     4.3910    -2.2670 C.ar  1 <1>  -0.1500 
 14 N       -4.0480    -2.1780     1.8220 N.2   1 <1>  -0.5650 
 15 C       -3.6240    -2.6690    -0.3060 C.2   1 <1>  -0.3320 
 16 N       -5.8100     0.5780     0.2420 N.4   1 <1>  -0.9590 
 17 C        0.6560     2.0900     1.5350 C.3   1 <1>   0.1200 
 18 O        1.1800     3.9090     0.0490 O.3   1 <1>  -0.3630 
 19 C       -0.3730     4.5940    -1.5650 C.ar  1 <1>  -0.1500 
 20 C       -4.6880    -3.2420     1.4610 C.2   1 <1>   0.0360 
 21 N       -4.4770    -3.5920     0.1750 N.pl3 1 <1>   0.0330 
 22 C       -3.1140    -2.6860    -1.7380 C.3   1 <1>  -0.0600 
 23 C       -6.3910     1.8300    -0.3170 C.3   1 <1>   0.2630 
 24 C       -6.7360    -0.5800     0.1530 C.3   1 <1>   0.2630 
 25 C        1.7470     2.8210     0.7480 C.3   1 <1>   0.1200 
 26 H       -1.8650    -0.6300     1.6880 H     1 <1>   0.0800 
 27 H       -1.6150    -0.8270    -0.0150 H     1 <1>   0.0800 
 28 H       -3.8400     2.3410     1.4310 H     1 <1>   0.0800 
 29 H       -3.3280     1.0900     2.5220 H     1 <1>   0.0800 
 30 H       -3.2370     3.1450    -2.5530 H     1 <1>   0.1500 
 31 H       -5.8800     1.3850     2.2120 H     1 <1>   0.0800 
 32 H       -5.2360    -0.2230     2.1110 H     1 <1>   0.0800 
 33 H       -1.8400     5.0890    -3.0330 H     1 <1>   0.1500 
 34 H       -4.9680     0.3450    -0.3420 H     1 <1>   0.4500 
 35 H        1.0480     1.2010     1.9950 H     1 <1>   0.0800 
 36 H        0.2510     2.7340     2.2950 H     1 <1>   0.0800 
 37 H        0.2520     5.4440    -1.7740 H     1 <1>   0.1500 
 38 H       -5.3290    -3.8150     2.1090 H     1 <1>   0.1500 
 39 H       -4.8580    -4.4060    -0.3170 H     1 <1>   0.2700 
 40 H       -2.4890    -1.8320    -1.9320 H     1 <1>   0.0800 
 41 H       -3.9380    -2.6580    -2.4280 H     1 <1>   0.0800 
 42 H       -2.5380    -3.5770    -1.9180 H     1 <1>   0.0800 
 43 H       -7.2510     2.1340     0.2550 H     1 <1>   0.0800 
 44 H       -6.6890     1.6710    -1.3410 H     1 <1>   0.0800 
 45 H       -5.6570     2.6190    -0.2980 H     1 <1>   0.0800 
 46 H       -7.6120    -0.4080     0.7550 H     1 <1>   0.0800 
 47 H       -6.2400    -1.4700     0.5030 H     1 <1>   0.0800 
 48 H       -7.0370    -0.7350    -0.8700 H     1 <1>   0.0800 
 49 H        2.2020     2.1610     0.0310 H     1 <1>   0.0800 
 50 H        2.5040     3.2070     1.4060 H     1 <1>   0.0800 
@<TRIPOS>BOND
  1   1   2  2   
  2   2   3  am  
  3   2   4  1   
  4   3   5  1   
  5   3   6  1   
  6   4   7  ar  
  7   4   8  ar  
  8   5   9  1   
  9   5  26  1   
 10   5  27  1   
 11   6  10  1   
 12   6  28  1   
 13   6  29  1   
 14   7  11  1   
 15   7  12  ar  
 16   8  13  ar  
 17   8  30  1   
 18   9  14  1   
 19   9  15  2   
 20  10  16  1   
 21  10  31  1   
 22  10  32  1   
 23  11  17  1   
 24  12  18  1   
 25  12  19  ar  
 26  13  19  ar  
 27  13  33  1   
 28  14  20  2   
 29  15  21  1   
 30  15  22  1   
 31  16  23  1   
 32  16  24  1   
 33  16  34  1   
 34  17  25  1   
 35  17  35  1   
 36  17  36  1   
 37  18  25  1   
 38  19  37  1   
 39  20  21  1   
 40  20  38  1   
 41  21  39  1   
 42  22  40  1   
 43  22  41  1   
 44  22  42  1   
 45  23  43  1   
 46  23  44  1   
 47  23  45  1   
 48  24  46  1   
 49  24  47  1   
 50  24  48  1   
 51  25  49  1   
 52  25  50  1   
@<TRIPOS>SUBSTRUCTURE
  1 ****   3 GROUP 4 **** **** 0

# MOE 2024.06 (io_trps.svl 2023.06)
