@<TRIPOS>MOLECULE
NONAME
48 50 1 0 0 
SMALL
USER_CHARGES


@<TRIPOS>ATOM
  1 F        0.5370    -0.7410     0.6610 F     1 <1>  -0.1900 
  2 C        0.1580    -1.9890     0.5830 C.ar  1 <1>   0.1900 
  3 C       -0.5400    -2.4050    -0.5360 C.ar  1 <1>  -0.1500 
  4 C        0.4690    -2.8460     1.6210 C.ar  1 <1>  -0.1500 
  5 C       -0.9420    -3.7280    -0.6180 C.ar  1 <1>  -0.1500 
  6 C        0.0630    -4.1670     1.5310 C.ar  1 <1>  -0.1500 
  7 C       -0.6410    -4.6130     0.4190 C.ar  1 <1>   0.0830 
  8 O       -1.0010    -5.9210     0.4200 O.3   1 <1>  -0.3630 
  9 C       -1.7990    -6.4660    -0.6030 C.3   1 <1>   0.1200 
 10 C       -2.0690    -7.9290    -0.2410 C.3   1 <1>   0.3430 
 11 N       -2.8650    -8.6570    -1.2870 N.4   1 <1>  -0.9590 
 12 C       -4.2850    -8.1660    -1.3450 C.3   1 <1>   0.3430 
 13 C       -2.9460   -10.1090    -0.9150 C.3   1 <1>   0.3430 
 14 C       -5.0990    -9.1210    -0.4730 C.3   1 <1>   0.2000 
 15 C       -4.4300   -10.4590    -0.7690 C.3   1 <1>  -0.0800 
 16 O       -4.8670    -8.7770     0.8630 O.3   1 <1>  -0.5600 
 17 C       -4.6830   -11.5840     0.2520 C.3   1 <1>   0.0200 
 18 C       -6.0120    -8.6620     1.6560 C.3   1 <1>   0.0400 
 19 C       -3.7960   -12.7760    -0.0520 C.2   1 <1>  -0.0400 
 20 O       -3.7210   -13.2360    -1.2720 O.3   1 <1>  -0.0190 
 21 C       -2.9850   -13.5160     0.7190 C.2   1 <1>  -0.1500 
 22 N       -2.8900   -14.2300    -1.3630 N.2   1 <1>  -0.4100 
 23 C       -2.4380   -14.4310    -0.1770 C.2   1 <1>   0.1080 
 24 C       -1.4480   -15.5160     0.1830 C.3   1 <1>  -0.0590 
 25 H       -0.7580    -1.7020    -1.3200 H     1 <1>   0.1500 
 26 H        1.0130    -2.4860     2.4750 H     1 <1>   0.1500 
 27 H       -1.4800    -4.0410    -1.4920 H     1 <1>   0.1500 
 28 H        0.2910    -4.8560     2.3240 H     1 <1>   0.1500 
 29 H       -2.7120    -5.9000    -0.6470 H     1 <1>   0.0800 
 30 H       -1.2510    -6.3920    -1.5260 H     1 <1>   0.0800 
 31 H       -2.5970    -7.9630     0.6990 H     1 <1>   0.0800 
 32 H       -1.1190    -8.4220    -0.1110 H     1 <1>   0.0800 
 33 H       -2.4080    -8.5640    -2.2040 H     1 <1>   0.4500 
 34 H       -4.3870    -7.1510    -0.9980 H     1 <1>   0.0800 
 35 H       -4.6450    -8.2300    -2.3590 H     1 <1>   0.0800 
 36 H       -2.4820   -10.7360    -1.6610 H     1 <1>   0.0800 
 37 H       -2.4530   -10.2750     0.0290 H     1 <1>   0.0800 
 38 H       -6.1520    -9.1000    -0.7020 H     1 <1>   0.0800 
 39 H       -4.7740   -10.8000    -1.7310 H     1 <1>   0.0800 
 40 H       -5.7130   -11.8910     0.2070 H     1 <1>   0.0800 
 41 H       -4.4750   -11.2520     1.2540 H     1 <1>   0.0800 
 42 H       -5.7040    -8.4210     2.6590 H     1 <1>   0.0800 
 43 H       -6.5450    -9.5970     1.6580 H     1 <1>   0.0800 
 44 H       -6.6360    -7.8720     1.2730 H     1 <1>   0.0800 
 45 H       -2.7770   -13.4540     1.7720 H     1 <1>   0.1500 
 46 H       -0.5810   -15.0840     0.6490 H     1 <1>   0.0800 
 47 H       -1.1400   -16.0420    -0.7030 H     1 <1>   0.0800 
 48 H       -1.9030   -16.2150     0.8600 H     1 <1>   0.0800 
@<TRIPOS>BOND
  1   1   2  1   
  2   2   3  ar  
  3   2   4  ar  
  4   3   5  ar  
  5   3  25  1   
  6   4   6  ar  
  7   4  26  1   
  8   5   7  ar  
  9   5  27  1   
 10   6   7  ar  
 11   6  28  1   
 12   7   8  1   
 13   8   9  1   
 14   9  10  1   
 15   9  29  1   
 16   9  30  1   
 17  10  11  1   
 18  10  31  1   
 19  10  32  1   
 20  11  12  1   
 21  11  13  1   
 22  11  33  1   
 23  12  14  1   
 24  12  34  1   
 25  12  35  1   
 26  13  15  1   
 27  13  36  1   
 28  13  37  1   
 29  14  15  1   
 30  14  16  1   
 31  14  38  1   
 32  15  17  1   
 33  15  39  1   
 34  16  18  1   
 35  17  19  1   
 36  17  40  1   
 37  17  41  1   
 38  18  42  1   
 39  18  43  1   
 40  18  44  1   
 41  19  20  1   
 42  19  21  2   
 43  20  22  1   
 44  21  23  1   
 45  21  45  1   
 46  22  23  2   
 47  23  24  1   
 48  24  46  1   
 49  24  47  1   
 50  24  48  1   
@<TRIPOS>SUBSTRUCTURE
  1 ****  10 GROUP 4 **** **** 0

# MOE 2024.06 (io_trps.svl 2023.06)
