@<TRIPOS>MOLECULE
NONAME
48 49 1 0 0 
SMALL
USER_CHARGES


@<TRIPOS>ATOM
  1 F       -3.4900    -1.8020     0.3090 F     1 <1>  -0.3400 
  2 C       -3.4440    -0.7670     1.1380 C.3   1 <1>   0.8800 
  3 F       -3.2650    -1.2790     2.3450 F     1 <1>  -0.3400 
  4 O       -4.7040    -0.1370     1.1270 O.3   1 <1>  -0.3630 
  5 C       -5.0300     0.5610     0.0230 C.ar  1 <1>   0.0820 
  6 C       -6.0020     0.0860    -0.8760 C.ar  1 <1>   0.0860 
  7 C       -4.3810     1.7710    -0.1840 C.ar  1 <1>  -0.1500 
  8 C       -6.7480    -1.1550    -0.7060 C.2   1 <1>   0.5440 
  9 C       -6.2430     0.8770    -2.0050 C.ar  1 <1>  -0.1500 
 10 C       -4.6560     2.5280    -1.3040 C.ar  1 <1>  -0.1500 
 11 O       -7.3780    -1.6360    -1.6290 O.2   1 <1>  -0.5700 
 12 N       -6.8910    -1.8040     0.4880 N.am  1 <1>  -0.6600 
 13 C       -5.5870     2.0750    -2.2200 C.ar  1 <1>  -0.1500 
 14 C       -6.3670    -3.1940     0.6460 C.3   1 <1>   0.3210 
 15 C       -7.6160    -1.1910     1.6420 C.3   1 <1>   0.1400 
 16 C       -7.4650    -4.2560     0.5880 C.2   1 <1>   0.0460 
 17 C       -9.1090    -1.5760     1.6390 C.3   1 <1>   0.3430 
 18 N       -8.2040    -4.5670     1.6760 N.2   1 <1>  -0.5650 
 19 C       -7.8120    -5.0370    -0.4630 C.2   1 <1>  -0.3320 
 20 N       -9.6490    -1.6470     0.2430 N.4   1 <1>  -0.9590 
 21 C       -8.9430    -5.5530     1.2800 C.2   1 <1>   0.0360 
 22 N       -8.7570    -5.8830    -0.0140 N.pl3 1 <1>   0.0330 
 23 C       -7.2920    -5.0700    -1.8910 C.3   1 <1>  -0.0600 
 24 C      -10.0430    -0.3230    -0.3150 C.3   1 <1>   0.2630 
 25 C      -10.7260    -2.6630     0.1250 C.3   1 <1>   0.2630 
 26 H       -2.6290    -0.1130     0.8820 H     1 <1>   0.0800 
 27 H       -3.6630     2.1320     0.5320 H     1 <1>   0.1500 
 28 H       -6.9590     0.5470    -2.7380 H     1 <1>   0.1500 
 29 H       -4.1510     3.4660    -1.4680 H     1 <1>   0.1500 
 30 H       -5.7990     2.6570    -3.1010 H     1 <1>   0.1500 
 31 H       -5.8420    -3.2780     1.5810 H     1 <1>   0.0800 
 32 H       -5.6570    -3.3900    -0.1380 H     1 <1>   0.0800 
 33 H       -7.5310    -0.1200     1.5850 H     1 <1>   0.0800 
 34 H       -7.1630    -1.5040     2.5670 H     1 <1>   0.0800 
 35 H       -9.6750    -0.8770     2.2310 H     1 <1>   0.0800 
 36 H       -9.2020    -2.5410     2.1050 H     1 <1>   0.0800 
 37 H       -8.8360    -1.9940    -0.3230 H     1 <1>   0.4500 
 38 H       -9.6430    -6.0790     1.9070 H     1 <1>   0.1500 
 39 H       -9.2120    -6.6420    -0.5330 H     1 <1>   0.2700 
 40 H       -6.5680    -4.2920    -2.0540 H     1 <1>   0.0800 
 41 H       -8.1000    -4.9220    -2.5850 H     1 <1>   0.0800 
 42 H       -6.8250    -6.0170    -2.0960 H     1 <1>   0.0800 
 43 H      -10.8690     0.0880     0.2400 H     1 <1>   0.0800 
 44 H      -10.3330    -0.4310    -1.3470 H     1 <1>   0.0800 
 45 H       -9.2110     0.3610    -0.2670 H     1 <1>   0.0800 
 46 H      -11.5840    -2.3710     0.7080 H     1 <1>   0.0800 
 47 H      -10.3690    -3.6150     0.4820 H     1 <1>   0.0800 
 48 H      -11.0210    -2.7720    -0.9050 H     1 <1>   0.0800 
@<TRIPOS>BOND
  1   1   2  1   
  2   2   3  1   
  3   2   4  1   
  4   2  26  1   
  5   4   5  1   
  6   5   6  ar  
  7   5   7  ar  
  8   6   8  1   
  9   6   9  ar  
 10   7  10  ar  
 11   7  27  1   
 12   8  11  2   
 13   8  12  am  
 14   9  13  ar  
 15   9  28  1   
 16  10  13  ar  
 17  10  29  1   
 18  12  14  1   
 19  12  15  1   
 20  13  30  1   
 21  14  16  1   
 22  14  31  1   
 23  14  32  1   
 24  15  17  1   
 25  15  33  1   
 26  15  34  1   
 27  16  18  1   
 28  16  19  2   
 29  17  20  1   
 30  17  35  1   
 31  17  36  1   
 32  18  21  2   
 33  19  22  1   
 34  19  23  1   
 35  20  24  1   
 36  20  25  1   
 37  20  37  1   
 38  21  22  1   
 39  21  38  1   
 40  22  39  1   
 41  23  40  1   
 42  23  41  1   
 43  23  42  1   
 44  24  43  1   
 45  24  44  1   
 46  24  45  1   
 47  25  46  1   
 48  25  47  1   
 49  25  48  1   
@<TRIPOS>SUBSTRUCTURE
  1 ****  12 GROUP 4 **** **** 0

# MOE 2024.06 (io_trps.svl 2023.06)
