@<TRIPOS>MOLECULE
NONAME
44 45 1 0 0 
SMALL
USER_CHARGES


@<TRIPOS>ATOM
  1 O       -0.2980     0.7590    -0.2280 O.2   1 <1>  -0.5700 
  2 C       -0.3020     1.9640    -0.3130 C.2   1 <1>   0.5690 
  3 N       -1.0480     2.7550     0.5200 N.am  1 <1>  -0.6600 
  4 C        0.5500     2.6120    -1.4080 C.3   1 <1>   0.1810 
  5 C       -1.0400     4.2480     0.3820 C.3   1 <1>   0.3640 
  6 C       -1.8240     2.2010     1.6680 C.3   1 <1>   0.0600 
  7 O        0.8880     3.9460    -1.1170 O.3   1 <1>  -0.5600 
  8 C       -2.4600     4.8330     0.3800 C.ar  1 <1>  -0.1430 
  9 C       -0.2300     4.7680    -0.8310 C.3   1 <1>   0.2610 
 10 C       -3.5030     4.3940    -0.4430 C.ar  1 <1>  -0.1430 
 11 C       -2.6990     5.8820     1.2620 C.ar  1 <1>  -0.1500 
 12 C        0.1760     6.2310    -0.5990 C.2   1 <1>   0.5690 
 13 C       -4.7440     5.0090    -0.3550 C.ar  1 <1>  -0.1500 
 14 C       -3.3700     3.2520    -1.4460 C.3   1 <1>  -0.0960 
 15 C       -3.9390     6.4860     1.3390 C.ar  1 <1>  -0.1500 
 16 O       -0.3390     7.0610    -1.3170 O.2   1 <1>  -0.5700 
 17 N        1.0720     6.6200     0.3760 N.am  1 <1>  -0.6600 
 18 C       -4.9650     6.0480     0.5280 C.ar  1 <1>  -0.1500 
 19 C        1.3590     8.0840     0.5840 C.3   1 <1>   0.2010 
 20 C        2.0250     5.7160     1.0860 C.3   1 <1>   0.0600 
 21 C        2.3530     8.6570    -0.4300 C.2   1 <1>   0.5690 
 22 O        3.4230     9.0680    -0.0590 O.2   1 <1>  -0.5700 
 23 N        2.0170     8.6980    -1.7330 N.am  1 <1>  -0.8000 
 24 H        0.0190     2.5880    -2.3420 H     1 <1>   0.0800 
 25 H        1.4660     2.0600    -1.5170 H     1 <1>   0.0800 
 26 H       -0.5470     4.6150     1.2640 H     1 <1>   0.0800 
 27 H       -1.4930     2.6550     2.5850 H     1 <1>   0.0800 
 28 H       -1.6860     1.1360     1.7430 H     1 <1>   0.0800 
 29 H       -2.8730     2.4010     1.5360 H     1 <1>   0.0800 
 30 H       -0.8570     4.7560    -1.7030 H     1 <1>   0.0800 
 31 H       -1.9150     6.2470     1.9030 H     1 <1>   0.1500 
 32 H       -5.5570     4.6810    -0.9780 H     1 <1>   0.1500 
 33 H       -4.2000     3.2420    -2.1290 H     1 <1>   0.0800 
 34 H       -3.3550     2.3090    -0.9300 H     1 <1>   0.0800 
 35 H       -2.4750     3.3440    -2.0280 H     1 <1>   0.0800 
 36 H       -4.1050     7.2970     2.0260 H     1 <1>   0.1500 
 37 H       -5.9330     6.5140     0.5810 H     1 <1>   0.1500 
 38 H        0.4430     8.6410     0.5040 H     1 <1>   0.0800 
 39 H        1.7480     8.2410     1.5730 H     1 <1>   0.0800 
 40 H        2.0910     5.9960     2.1230 H     1 <1>   0.0800 
 41 H        3.0010     5.8050     0.6400 H     1 <1>   0.0800 
 42 H        1.7190     4.6880     1.0350 H     1 <1>   0.0800 
 43 H        2.6710     9.0400    -2.4360 H     1 <1>   0.3700 
 44 H        1.1400     8.2720    -2.0610 H     1 <1>   0.3700 
@<TRIPOS>BOND
  1   1   2  2   
  2   2   3  am  
  3   2   4  1   
  4   3   5  1   
  5   3   6  1   
  6   4   7  1   
  7   4  24  1   
  8   4  25  1   
  9   5   8  1   
 10   5   9  1   
 11   5  26  1   
 12   6  27  1   
 13   6  28  1   
 14   6  29  1   
 15   7   9  1   
 16   8  10  ar  
 17   8  11  ar  
 18   9  12  1   
 19   9  30  1   
 20  10  13  ar  
 21  10  14  1   
 22  11  15  ar  
 23  11  31  1   
 24  12  16  2   
 25  12  17  am  
 26  13  18  ar  
 27  13  32  1   
 28  14  33  1   
 29  14  34  1   
 30  14  35  1   
 31  15  18  ar  
 32  15  36  1   
 33  17  19  1   
 34  17  20  1   
 35  18  37  1   
 36  19  21  1   
 37  19  38  1   
 38  19  39  1   
 39  20  40  1   
 40  20  41  1   
 41  20  42  1   
 42  21  22  2   
 43  21  23  am  
 44  23  43  1   
 45  23  44  1   
@<TRIPOS>SUBSTRUCTURE
  1 ****   9 GROUP 4 **** **** 0

# MOE 2024.06 (io_trps.svl 2023.06)
