@<TRIPOS>MOLECULE
NONAME
40 43 1 0 0 
SMALL
USER_CHARGES


@<TRIPOS>ATOM
  1 S        0.2480     0.7500    -1.5740 S.3   1 <1>  -0.0800 
  2 C        0.2870     0.0710     0.0330 C.2   1 <1>   0.1980 
  3 C        0.2850    -0.8590    -2.2170 C.2   1 <1>  -0.1100 
  4 N        0.3170    -1.1980     0.0660 N.2   1 <1>  -0.5650 
  5 C        0.2820     1.0380     1.1940 C.3   1 <1>  -0.0600 
  6 C        0.3150    -1.7740    -1.2220 C.2   1 <1>   0.1410 
  7 C        0.3670    -3.2190    -1.4610 C.2   1 <1>   0.7160 
  8 O        0.8200    -3.6000    -2.5290 O.2   1 <1>  -0.5700 
  9 N       -0.0790    -4.1810    -0.5640 N.am  1 <1>  -0.6600 
 10 C       -0.8670    -3.8280     0.6550 C.3   1 <1>   0.1400 
 11 C        0.0520    -5.6380    -0.8540 C.3   1 <1>   0.1400 
 12 C       -1.6120    -5.0330     1.2390 C.3   1 <1>  -0.1600 
 13 C       -1.3320    -6.2920    -0.9540 C.3   1 <1>  -0.1600 
 14 C       -2.3210    -5.8360     0.1400 C.3   1 <1>   0.4600 
 15 O       -3.2530    -4.9840    -0.5020 O.3   1 <1>  -0.5600 
 16 C       -3.0790    -7.0200     0.7340 C.2   1 <1>  -0.1400 
 17 C       -4.5130    -4.7930     0.0970 C.3   1 <1>   0.1200 
 18 S       -2.2710    -8.3780     1.5040 S.3   1 <1>  -0.0800 
 19 C       -4.4090    -7.1830     0.7640 C.2   1 <1>  -0.1810 
 20 C       -5.3030    -6.1130     0.1790 C.3   1 <1>   0.0210 
 21 C       -3.8160    -9.1540     1.8290 C.2   1 <1>  -0.1100 
 22 C       -4.8380    -8.4010     1.3780 C.2   1 <1>  -0.1500 
 23 H        0.2850    -0.9830    -3.2850 H     1 <1>   0.1500 
 24 H       -0.6100     1.6360     1.1660 H     1 <1>   0.0800 
 25 H        1.1420     1.6780     1.1370 H     1 <1>   0.0800 
 26 H        0.3110     0.4930     2.1200 H     1 <1>   0.0800 
 27 H       -1.5880    -3.0720     0.3910 H     1 <1>   0.0800 
 28 H       -0.2070    -3.4190     1.4000 H     1 <1>   0.0800 
 29 H        0.6120    -6.0950    -0.0570 H     1 <1>   0.0800 
 30 H        0.5950    -5.8110    -1.7670 H     1 <1>   0.0800 
 31 H       -2.3190    -4.7050     1.9770 H     1 <1>   0.0800 
 32 H       -0.9090    -5.6680     1.7460 H     1 <1>   0.0800 
 33 H       -1.1890    -7.3540    -0.9030 H     1 <1>   0.0800 
 34 H       -1.7470    -6.0840    -1.9240 H     1 <1>   0.0800 
 35 H       -5.0500    -4.0750    -0.4970 H     1 <1>   0.0800 
 36 H       -4.3640    -4.3830     1.0800 H     1 <1>   0.0800 
 37 H       -5.6290    -6.4060    -0.8030 H     1 <1>   0.0800 
 38 H       -6.1680    -5.9720     0.8000 H     1 <1>   0.0800 
 39 H       -3.7950   -10.1060     2.3300 H     1 <1>   0.1500 
 40 H       -5.8810    -8.6520     1.4520 H     1 <1>   0.1500 
@<TRIPOS>BOND
  1   1   2  1   
  2   1   3  1   
  3   2   4  2   
  4   2   5  1   
  5   3   6  2   
  6   3  23  1   
  7   4   6  1   
  8   5  24  1   
  9   5  25  1   
 10   5  26  1   
 11   6   7  1   
 12   7   8  2   
 13   7   9  am  
 14   9  10  1   
 15   9  11  1   
 16  10  12  1   
 17  10  27  1   
 18  10  28  1   
 19  11  13  1   
 20  11  29  1   
 21  11  30  1   
 22  12  14  1   
 23  12  31  1   
 24  12  32  1   
 25  13  14  1   
 26  13  33  1   
 27  13  34  1   
 28  14  15  1   
 29  14  16  1   
 30  15  17  1   
 31  16  18  1   
 32  16  19  2   
 33  17  20  1   
 34  17  35  1   
 35  17  36  1   
 36  18  21  1   
 37  19  20  1   
 38  19  22  1   
 39  20  37  1   
 40  20  38  1   
 41  21  22  2   
 42  21  39  1   
 43  22  40  1   
@<TRIPOS>SUBSTRUCTURE
  1 ****  10 GROUP 4 **** **** 0

# MOE 2024.06 (io_trps.svl 2023.06)
