@<TRIPOS>MOLECULE
NONAME
50 53 1 0 0 
SMALL
USER_CHARGES


@<TRIPOS>ATOM
  1 O       -0.9760    -0.6500     0.0760 O.3   1 <1>  -0.5600 
  2 C       -1.9810    -1.6200     0.1500 C.3   1 <1>   0.1200 
  3 C        0.2030    -1.0980    -0.5220 C.3   1 <1>   0.1200 
  4 C       -1.5100    -2.8260     0.9820 C.3   1 <1>   0.2090 
  5 C        0.8040    -2.2680     0.2800 C.3   1 <1>   0.2090 
  6 N       -0.2010    -3.3760     0.4620 N.pl3 1 <1>  -0.8380 
  7 C       -0.0380    -4.7000     0.1960 C.ar  1 <1>   0.7710 
  8 N       -1.0820    -5.5130     0.2710 N.ar  1 <1>  -0.6200 
  9 N        1.1840    -5.1600    -0.1330 N.ar  1 <1>  -0.1790 
 10 C       -0.9030    -6.7850     0.0100 C.ar  1 <1>   0.4100 
 11 C        1.4140    -6.4660    -0.4110 C.ar  1 <1>   0.2180 
 12 N       -2.0050    -7.5410     0.1030 N.pl3 1 <1>  -0.8690 
 13 C        0.3540    -7.3080    -0.3430 C.ar  1 <1>  -0.1500 
 14 C        2.8260    -6.9100    -0.7760 C.3   1 <1>  -0.0170 
 15 C       -2.2030    -8.9980    -0.0550 C.3   1 <1>   0.3890 
 16 C        3.8120    -6.7100     0.3830 C.3   1 <1>  -0.2400 
 17 C       -3.6160    -9.3810     0.3550 C.2   1 <1>   0.0060 
 18 N       -4.5910    -8.5900     0.6040 N.2   1 <1>  -0.3380 
 19 N       -4.0000   -10.6420     0.4940 N.pl3 1 <1>   0.5930 
 20 N       -5.6160    -9.3770     0.9060 N.2   1 <1>   0.0000 
 21 N       -5.2740   -10.6120     0.8410 N.2   1 <1>  -0.4180 
 22 C       -3.2280   -11.8190     0.3090 C.ar  1 <1>  -0.0230 
 23 C       -2.3820   -12.2730     1.3170 C.ar  1 <1>  -0.1500 
 24 C       -3.2900   -12.5240    -0.8880 C.ar  1 <1>  -0.1500 
 25 C       -1.6020   -13.3990     1.1230 C.ar  1 <1>  -0.1500 
 26 C       -2.5110   -13.6500    -1.0800 C.ar  1 <1>  -0.1500 
 27 C       -1.6640   -14.0860    -0.0760 C.ar  1 <1>  -0.1500 
 28 H       -2.2460    -1.9260    -0.8480 H     1 <1>   0.0800 
 29 H       -2.8410    -1.1660     0.6100 H     1 <1>   0.0800 
 30 H        0.8890    -0.2700    -0.5450 H     1 <1>   0.0800 
 31 H       -0.0150    -1.3940    -1.5340 H     1 <1>   0.0800 
 32 H       -2.2930    -3.5640     0.9770 H     1 <1>   0.0800 
 33 H       -1.3800    -2.5080     2.0020 H     1 <1>   0.0800 
 34 H        1.1030    -1.8990     1.2470 H     1 <1>   0.0800 
 35 H        1.6830    -2.6100    -0.2320 H     1 <1>   0.0800 
 36 H        1.9300    -4.4780    -0.1300 H     1 <1>   0.4570 
 37 H       -2.8820    -7.0630     0.3560 H     1 <1>   0.4000 
 38 H        0.4460    -8.3570    -0.5480 H     1 <1>   0.1500 
 39 H        3.1660    -6.3670    -1.6410 H     1 <1>   0.0800 
 40 H        2.8140    -7.9540    -1.0410 H     1 <1>   0.0800 
 41 H       -1.4910    -9.5220     0.5600 H     1 <1>   0.0800 
 42 H       -2.0440    -9.2700    -1.0840 H     1 <1>   0.0800 
 43 H        3.9190    -5.6720     0.6390 H     1 <1>   0.0800 
 44 H        4.7820    -7.0860     0.1030 H     1 <1>   0.0800 
 45 H        3.4850    -7.2520     1.2550 H     1 <1>   0.0800 
 46 H       -2.3350   -11.7520     2.2590 H     1 <1>   0.1500 
 47 H       -3.9530   -12.1980    -1.6730 H     1 <1>   0.1500 
 48 H       -0.9500   -13.7460     1.9070 H     1 <1>   0.1500 
 49 H       -2.5640   -14.1930    -2.0090 H     1 <1>   0.1500 
 50 H       -1.0590   -14.9650    -0.2250 H     1 <1>   0.1500 
@<TRIPOS>BOND
  1   1   2  1   
  2   1   3  1   
  3   2   4  1   
  4   2  28  1   
  5   2  29  1   
  6   3   5  1   
  7   3  30  1   
  8   3  31  1   
  9   4   6  1   
 10   4  32  1   
 11   4  33  1   
 12   5   6  1   
 13   5  34  1   
 14   5  35  1   
 15   6   7  1   
 16   7   8  ar  
 17   7   9  ar  
 18   8  10  ar  
 19   9  11  ar  
 20   9  36  1   
 21  10  12  1   
 22  10  13  ar  
 23  11  13  ar  
 24  11  14  1   
 25  12  15  1   
 26  12  37  1   
 27  13  38  1   
 28  14  16  1   
 29  14  39  1   
 30  14  40  1   
 31  15  17  1   
 32  15  41  1   
 33  15  42  1   
 34  16  43  1   
 35  16  44  1   
 36  16  45  1   
 37  17  18  2   
 38  17  19  1   
 39  18  20  1   
 40  19  21  1   
 41  19  22  1   
 42  20  21  2   
 43  22  23  ar  
 44  22  24  ar  
 45  23  25  ar  
 46  23  46  1   
 47  24  26  ar  
 48  24  47  1   
 49  25  27  ar  
 50  25  48  1   
 51  26  27  ar  
 52  26  49  1   
 53  27  50  1   
@<TRIPOS>SUBSTRUCTURE
  1 ****  12 GROUP 4 **** **** 0

# MOE 2024.06 (io_trps.svl 2023.06)
