@<TRIPOS>MOLECULE
NONAME
47 48 1 0 0 
SMALL
USER_CHARGES


@<TRIPOS>ATOM
  1 S        1.2680     0.0580    -0.6570 S.o2  1 <1>   1.3330 
  2 O        1.4750     0.8210    -1.8620 O.2   1 <1>  -0.6500 
  3 O        2.1250    -1.0520    -0.3130 O.2   1 <1>  -0.6500 
  4 N        1.2880     1.1480     0.6950 N.am  1 <1>  -0.6930 
  5 C       -0.4150    -0.5230    -0.6380 C.3   1 <1>  -0.1350 
  6 C        1.1980     2.5300     0.5480 C.ar  1 <1>   0.1990 
  7 C        1.6680     0.5590     2.0050 C.3   1 <1>   0.1160 
  8 C        2.1070     3.3820     1.1700 C.ar  1 <1>  -0.1500 
  9 C        0.1950     3.1170    -0.2190 C.ar  1 <1>  -0.1500 
 10 C        2.0120     4.7550     1.0420 C.ar  1 <1>  -0.1500 
 11 C        0.1010     4.4880    -0.3480 C.ar  1 <1>  -0.1500 
 12 C        1.0060     5.3490     0.2760 C.ar  1 <1>   0.0860 
 13 C        0.8910     6.7870     0.1290 C.2   1 <1>   0.5440 
 14 O       -0.1810     7.3060    -0.1150 O.2   1 <1>  -0.5700 
 15 N        1.9810     7.5970     0.2530 N.am  1 <1>  -0.7300 
 16 C        1.9760     9.0430    -0.0190 C.3   1 <1>   0.4000 
 17 C        3.4290     9.4660    -0.1960 C.2   1 <1>  -0.3320 
 18 C        1.2850     9.8010     1.1290 C.3   1 <1>   0.1200 
 19 N        3.8080    10.5460    -0.9190 N.pl3 1 <1>   0.3140 
 20 C        4.5640     8.9160     0.2960 C.2   1 <1>  -0.1500 
 21 O        1.1700    11.1620     0.8210 O.3   1 <1>  -0.5600 
 22 N        5.1450    10.6900    -0.9180 N.2   1 <1>  -0.7070 
 23 C        2.9650    11.5110    -1.6440 C.3   1 <1>   0.0160 
 24 C        5.5890     9.7170    -0.1880 C.2   1 <1>   0.1390 
 25 C        0.5680    11.9110     1.8260 C.3   1 <1>   0.0400 
 26 H       -0.5620    -1.2370    -1.4240 H     1 <1>   0.0800 
 27 H       -1.0960     0.2910    -0.7820 H     1 <1>   0.0800 
 28 H       -0.6330    -0.9960     0.2990 H     1 <1>   0.0800 
 29 H        1.1090    -0.3450     2.1760 H     1 <1>   0.0800 
 30 H        1.4600     1.2500     2.8030 H     1 <1>   0.0800 
 31 H        2.7180     0.3210     2.0010 H     1 <1>   0.0800 
 32 H        2.9030     2.9620     1.7560 H     1 <1>   0.1500 
 33 H       -0.5190     2.4960    -0.7230 H     1 <1>   0.1500 
 34 H        2.7270     5.3770     1.5490 H     1 <1>   0.1500 
 35 H       -0.6880     4.9130    -0.9460 H     1 <1>   0.1500 
 36 H        2.9120     7.1940     0.1700 H     1 <1>   0.3700 
 37 H        1.4210     9.2060    -0.9270 H     1 <1>   0.0800 
 38 H        1.8650     9.7000     2.0290 H     1 <1>   0.0800 
 39 H        0.2950     9.4080     1.2810 H     1 <1>   0.0800 
 40 H        4.6980     8.0580     0.9280 H     1 <1>   0.1500 
 41 H        2.1080    11.0140    -2.0550 H     1 <1>   0.0800 
 42 H        3.5410    11.9510    -2.4360 H     1 <1>   0.0800 
 43 H        2.6510    12.2780    -0.9620 H     1 <1>   0.0800 
 44 H        6.6350     9.5610     0.0130 H     1 <1>   0.1500 
 45 H        0.5200    12.9350     1.4990 H     1 <1>   0.0800 
 46 H        1.1610    11.8450     2.7220 H     1 <1>   0.0800 
 47 H       -0.4270    11.5390     2.0000 H     1 <1>   0.0800 
@<TRIPOS>BOND
  1   1   2  2   
  2   1   3  2   
  3   1   4  am  
  4   1   5  1   
  5   4   6  1   
  6   4   7  1   
  7   5  26  1   
  8   5  27  1   
  9   5  28  1   
 10   6   8  ar  
 11   6   9  ar  
 12   7  29  1   
 13   7  30  1   
 14   7  31  1   
 15   8  10  ar  
 16   8  32  1   
 17   9  11  ar  
 18   9  33  1   
 19  10  12  ar  
 20  10  34  1   
 21  11  12  ar  
 22  11  35  1   
 23  12  13  1   
 24  13  14  2   
 25  13  15  am  
 26  15  16  1   
 27  15  36  1   
 28  16  17  1   
 29  16  18  1   
 30  16  37  1   
 31  17  19  1   
 32  17  20  2   
 33  18  21  1   
 34  18  38  1   
 35  18  39  1   
 36  19  22  1   
 37  19  23  1   
 38  20  24  1   
 39  20  40  1   
 40  21  25  1   
 41  22  24  2   
 42  23  41  1   
 43  23  42  1   
 44  23  43  1   
 45  24  44  1   
 46  25  45  1   
 47  25  46  1   
 48  25  47  1   
@<TRIPOS>SUBSTRUCTURE
  1 ****  12 GROUP 4 **** **** 0

# MOE 2024.06 (io_trps.svl 2023.06)
