@<TRIPOS>MOLECULE
NONAME
43 44 1 0 0 
SMALL
USER_CHARGES


@<TRIPOS>ATOM
  1 O       -0.1710     0.0040     0.3170 O.2   1 <1>  -0.5700 
  2 C       -0.0750     1.2340     0.2270 C.2   1 <1>   0.3890 
  3 C       -1.2010     2.0550     0.0670 C.3   1 <1>  -0.7150 
  4 C        1.2410     1.8150     0.3320 C.ar  1 <1>   0.0860 
  5 C       -1.0570     3.4340     0.3110 C.2   1 <1>   0.5350 
  6 C       -2.4300     1.5050    -0.3410 C.2   1 <1>   0.5350 
  7 C        1.3650     3.2010     0.4930 C.ar  1 <1>   0.1170 
  8 C        2.4000     1.0350     0.2710 C.ar  1 <1>  -0.1500 
  9 O       -2.0250     4.2010     0.3140 O.2   1 <1>  -0.5700 
 10 N        0.1970     3.9810     0.5790 N.am  1 <1>  -0.4770 
 11 O       -2.5330     0.7020    -1.2630 O.2   1 <1>  -0.5700 
 12 N       -3.5640     1.9400     0.2710 N.am  1 <1>  -0.7300 
 13 C        2.6500     3.7540     0.5570 C.ar  1 <1>  -0.1500 
 14 C        3.6560     1.5960     0.3510 C.ar  1 <1>  -0.1500 
 15 C        0.2580     5.3930     1.0570 C.3   1 <1>   0.1400 
 16 C       -4.9030     1.7710    -0.2880 C.3   1 <1>   0.2200 
 17 C        3.7800     2.9670     0.4910 C.ar  1 <1>  -0.1500 
 18 C        0.4140     6.3500    -0.1310 C.3   1 <1>  -0.1600 
 19 C       -5.2210     2.9920    -1.1440 C.3   1 <1>  -0.2400 
 20 C       -5.8850     1.6330     0.8710 C.3   1 <1>  -0.2400 
 21 C        0.5590     7.8040     0.3380 C.3   1 <1>  -0.1600 
 22 C        0.7190     8.7530    -0.8520 C.3   1 <1>  -0.2400 
 23 H        2.2930    -0.0300     0.1540 H     1 <1>   0.1500 
 24 H       -3.3820     2.8640     0.6730 H     1 <1>   0.3700 
 25 H        2.7790     4.8140     0.6540 H     1 <1>   0.1500 
 26 H        4.5320     0.9740     0.3000 H     1 <1>   0.1500 
 27 H        1.0700     5.5080     1.7500 H     1 <1>   0.0800 
 28 H       -0.6430     5.6320     1.5970 H     1 <1>   0.0800 
 29 H       -4.9320     0.8790    -0.8930 H     1 <1>   0.0800 
 30 H        4.7580     3.4140     0.5460 H     1 <1>   0.1500 
 31 H       -0.4570     6.2600    -0.7580 H     1 <1>   0.0800 
 32 H        1.2760     6.0690    -0.7090 H     1 <1>   0.0800 
 33 H       -5.1740     3.8900    -0.5540 H     1 <1>   0.0800 
 34 H       -6.2020     2.9000    -1.5710 H     1 <1>   0.0800 
 35 H       -4.5040     3.0610    -1.9430 H     1 <1>   0.0800 
 36 H       -5.8590     2.5110     1.4910 H     1 <1>   0.0800 
 37 H       -5.6210     0.7740     1.4610 H     1 <1>   0.0800 
 38 H       -6.8810     1.4980     0.4940 H     1 <1>   0.0800 
 39 H        1.4170     7.8940     0.9820 H     1 <1>   0.0800 
 40 H       -0.3150     8.0860     0.9020 H     1 <1>   0.0800 
 41 H        1.5960     8.4980    -1.4210 H     1 <1>   0.0800 
 42 H        0.8160     9.7670    -0.5070 H     1 <1>   0.0800 
 43 H       -0.1410     8.6910    -1.4970 H     1 <1>   0.0800 
@<TRIPOS>BOND
  1   1   2  2   
  2   2   3  1   
  3   2   4  1   
  4   3   5  1   
  5   3   6  1   
  6   4   7  ar  
  7   4   8  ar  
  8   5   9  2   
  9   5  10  am  
 10   6  11  2   
 11   6  12  am  
 12   7  10  1   
 13   7  13  ar  
 14   8  14  ar  
 15   8  23  1   
 16  10  15  1   
 17  12  16  1   
 18  12  24  1   
 19  13  17  ar  
 20  13  25  1   
 21  14  17  ar  
 22  14  26  1   
 23  15  18  1   
 24  15  27  1   
 25  15  28  1   
 26  16  19  1   
 27  16  20  1   
 28  16  29  1   
 29  17  30  1   
 30  18  21  1   
 31  18  31  1   
 32  18  32  1   
 33  19  33  1   
 34  19  34  1   
 35  19  35  1   
 36  20  36  1   
 37  20  37  1   
 38  20  38  1   
 39  21  22  1   
 40  21  39  1   
 41  21  40  1   
 42  22  41  1   
 43  22  42  1   
 44  22  43  1   
@<TRIPOS>SUBSTRUCTURE
  1 ****   5 GROUP 4 **** **** 0

# MOE 2024.06 (io_trps.svl 2023.06)
