@<TRIPOS>MOLECULE
NONAME
48 51 1 0 0 
SMALL
USER_CHARGES


@<TRIPOS>ATOM
  1 S       -1.6710     2.0760    -0.6770 S.3   1 <1>  -0.0800 
  2 C       -0.4650     2.8920     0.2940 C.2   1 <1>  -0.1400 
  3 C       -0.5700     2.0400    -2.0470 C.2   1 <1>  -0.1100 
  4 C        0.6710     3.0950    -0.3850 C.2   1 <1>  -0.1810 
  5 C       -0.7140     3.3050     1.7200 C.3   1 <1>   0.0200 
  6 C        0.6090     2.6120    -1.7350 C.2   1 <1>  -0.1500 
  7 C        1.8720     3.7800     0.2740 C.3   1 <1>   0.4610 
  8 C        0.3530     4.3490     2.0840 C.3   1 <1>   0.1200 
  9 O        1.6330     3.9390     1.6620 O.3   1 <1>  -0.5600 
 10 C        2.1340     5.1570    -0.3520 C.3   1 <1>  -0.1600 
 11 C        3.1200     2.8970     0.1610 C.3   1 <1>  -0.1600 
 12 C        3.3790     5.8180     0.2420 C.3   1 <1>   0.1400 
 13 C        4.3550     3.5850     0.7430 C.3   1 <1>   0.1400 
 14 N        4.5420     4.9030     0.0750 N.am  1 <1>  -0.6600 
 15 C        5.7160     5.2240    -0.5650 C.2   1 <1>   0.5690 
 16 O        6.6300     4.4330    -0.6410 O.2   1 <1>  -0.5700 
 17 C        5.9250     6.5800    -1.2270 C.3   1 <1>   0.0440 
 18 C        6.0670     7.7240    -0.2180 C.ar  1 <1>  -0.1430 
 19 C        5.2910     8.8800    -0.2930 C.ar  1 <1>   0.0820 
 20 C        7.0080     7.5990     0.7930 C.ar  1 <1>  -0.1500 
 21 O        4.3800     8.9770    -1.2980 O.3   1 <1>  -0.3630 
 22 C        5.4680     9.8890     0.6530 C.ar  1 <1>  -0.1500 
 23 C        7.1780     8.6040     1.7280 C.ar  1 <1>  -0.1500 
 24 C        3.6500    10.1620    -1.5280 C.3   1 <1>   0.0400 
 25 C        6.4070     9.7500     1.6580 C.ar  1 <1>  -0.1500 
 26 H       -0.9290     1.5890    -2.9550 H     1 <1>   0.1500 
 27 H       -0.6380     2.4510     2.3680 H     1 <1>   0.0800 
 28 H       -1.6940     3.7330     1.8220 H     1 <1>   0.0800 
 29 H        1.4450     2.7130    -2.4040 H     1 <1>   0.1500 
 30 H        0.3880     4.4880     3.1500 H     1 <1>   0.0800 
 31 H        0.1270     5.2930     1.6220 H     1 <1>   0.0800 
 32 H        1.2800     5.7930    -0.2230 H     1 <1>   0.0800 
 33 H        2.2840     5.0400    -1.4090 H     1 <1>   0.0800 
 34 H        3.3160     2.6700    -0.8700 H     1 <1>   0.0800 
 35 H        2.9430     1.9680     0.6710 H     1 <1>   0.0800 
 36 H        3.2310     6.0090     1.2920 H     1 <1>   0.0800 
 37 H        3.5440     6.7600    -0.2440 H     1 <1>   0.0800 
 38 H        5.2180     2.9570     0.6020 H     1 <1>   0.0800 
 39 H        4.2270     3.7420     1.8010 H     1 <1>   0.0800 
 40 H        5.1170     6.7450    -1.9130 H     1 <1>   0.0800 
 41 H        6.8240     6.5380    -1.8130 H     1 <1>   0.0800 
 42 H        7.6160     6.7120     0.8590 H     1 <1>   0.1500 
 43 H        4.8850    10.7890     0.6260 H     1 <1>   0.1500 
 44 H        7.9110     8.4930     2.5080 H     1 <1>   0.1500 
 45 H        3.0430    10.0160    -2.4030 H     1 <1>   0.0800 
 46 H        4.3400    10.9700    -1.6940 H     1 <1>   0.0800 
 47 H        3.0220    10.3580    -0.6770 H     1 <1>   0.0800 
 48 H        6.5400    10.5310     2.3860 H     1 <1>   0.1500 
@<TRIPOS>BOND
  1   1   2  1   
  2   1   3  1   
  3   2   4  2   
  4   2   5  1   
  5   3   6  2   
  6   3  26  1   
  7   4   6  1   
  8   4   7  1   
  9   5   8  1   
 10   5  27  1   
 11   5  28  1   
 12   6  29  1   
 13   7   9  1   
 14   7  10  1   
 15   7  11  1   
 16   8   9  1   
 17   8  30  1   
 18   8  31  1   
 19  10  12  1   
 20  10  32  1   
 21  10  33  1   
 22  11  13  1   
 23  11  34  1   
 24  11  35  1   
 25  12  14  1   
 26  12  36  1   
 27  12  37  1   
 28  13  14  1   
 29  13  38  1   
 30  13  39  1   
 31  14  15  am  
 32  15  16  2   
 33  15  17  1   
 34  17  18  1   
 35  17  40  1   
 36  17  41  1   
 37  18  19  ar  
 38  18  20  ar  
 39  19  21  1   
 40  19  22  ar  
 41  20  23  ar  
 42  20  42  1   
 43  21  24  1   
 44  22  25  ar  
 45  22  43  1   
 46  23  25  ar  
 47  23  44  1   
 48  24  45  1   
 49  24  46  1   
 50  24  47  1   
 51  25  48  1   
@<TRIPOS>SUBSTRUCTURE
  1 ****  12 GROUP 4 **** **** 0

# MOE 2024.06 (io_trps.svl 2023.06)
