@<TRIPOS>MOLECULE
NONAME
48 50 1 0 0 
SMALL
USER_CHARGES


@<TRIPOS>ATOM
  1 S        0.0600     0.1020     0.1850 S.o2  1 <1>   1.2040 
  2 O        1.3800     0.4980    -0.2510 O.2   1 <1>  -0.6500 
  3 O       -0.5200     0.6880     1.3720 O.2   1 <1>  -0.6500 
  4 C       -0.0240    -1.7040     0.2990 C.ar  1 <1>  -0.0090 
  5 C       -1.0570     0.4400    -1.1620 C.3   1 <1>  -0.1350 
  6 C        0.7850    -2.5140    -0.4880 C.ar  1 <1>  -0.1500 
  7 C       -0.9150    -2.3310     1.1610 C.ar  1 <1>  -0.1500 
  8 C        0.7010    -3.8930    -0.4220 C.ar  1 <1>  -0.1500 
  9 C       -0.9980    -3.7110     1.2290 C.ar  1 <1>  -0.1500 
 10 C       -0.1990    -4.5270     0.4300 C.ar  1 <1>   0.0860 
 11 C       -0.2840    -5.9750     0.4880 C.2   1 <1>   0.5440 
 12 O        0.7350    -6.6360     0.5450 O.2   1 <1>  -0.5700 
 13 N       -1.4970    -6.6240     0.4610 N.am  1 <1>  -0.6600 
 14 C       -2.7290    -6.0830    -0.1710 C.3   1 <1>   0.1400 
 15 C       -1.6390    -8.0870     0.6560 C.3   1 <1>   0.1400 
 16 C       -3.6890    -7.2720    -0.3100 C.3   1 <1>   0.2000 
 17 C       -2.7700    -8.4970    -0.2880 C.3   1 <1>  -0.0800 
 18 O       -4.5360    -7.3210     0.8030 O.3   1 <1>  -0.5600 
 19 C       -3.4620    -9.8120     0.1150 C.3   1 <1>   0.0200 
 20 C       -5.7080    -6.5750     0.6920 C.3   1 <1>   0.0400 
 21 C       -2.5670   -11.0310    -0.0410 C.2   1 <1>  -0.0400 
 22 O       -3.0190   -12.1940     0.3450 O.3   1 <1>  -0.0190 
 23 C       -1.3270   -11.2160    -0.5220 C.2   1 <1>  -0.1500 
 24 N       -2.1500   -13.1450     0.1520 N.2   1 <1>  -0.4100 
 25 C       -1.1200   -12.5830    -0.3690 C.2   1 <1>   0.1080 
 26 C        0.1440   -13.3170    -0.7590 C.3   1 <1>  -0.0590 
 27 H       -0.7210    -0.0440    -2.0580 H     1 <1>   0.0800 
 28 H       -1.1020     1.4970    -1.3420 H     1 <1>   0.0800 
 29 H       -2.0440     0.0920    -0.9260 H     1 <1>   0.0800 
 30 H        1.4990    -2.0590    -1.1560 H     1 <1>   0.1500 
 31 H       -1.5460    -1.7310     1.7970 H     1 <1>   0.1500 
 32 H        1.3480    -4.5010    -1.0340 H     1 <1>   0.1500 
 33 H       -1.6850    -4.1700     1.9190 H     1 <1>   0.1500 
 34 H       -3.1610    -5.3030     0.4290 H     1 <1>   0.0800 
 35 H       -2.4790    -5.6990    -1.1450 H     1 <1>   0.0800 
 36 H       -0.7230    -8.6070     0.4360 H     1 <1>   0.0800 
 37 H       -1.9170    -8.2720     1.6800 H     1 <1>   0.0800 
 38 H       -4.2810    -7.2300    -1.2090 H     1 <1>   0.0800 
 39 H       -2.3520    -8.6110    -1.2720 H     1 <1>   0.0800 
 40 H       -4.3360    -9.9550    -0.4940 H     1 <1>   0.0800 
 41 H       -3.7860    -9.7540     1.1400 H     1 <1>   0.0800 
 42 H       -6.2570    -6.6800     1.6120 H     1 <1>   0.0800 
 43 H       -6.2970    -6.9580    -0.1240 H     1 <1>   0.0800 
 44 H       -5.4650    -5.5400     0.5330 H     1 <1>   0.0800 
 45 H       -0.6260   -10.5140    -0.9350 H     1 <1>   0.1500 
 46 H        0.9840   -12.8980    -0.2360 H     1 <1>   0.0800 
 47 H        0.3030   -13.2300    -1.8170 H     1 <1>   0.0800 
 48 H        0.0580   -14.3570    -0.5020 H     1 <1>   0.0800 
@<TRIPOS>BOND
  1   1   2  2   
  2   1   3  2   
  3   1   4  1   
  4   1   5  1   
  5   4   6  ar  
  6   4   7  ar  
  7   5  27  1   
  8   5  28  1   
  9   5  29  1   
 10   6   8  ar  
 11   6  30  1   
 12   7   9  ar  
 13   7  31  1   
 14   8  10  ar  
 15   8  32  1   
 16   9  10  ar  
 17   9  33  1   
 18  10  11  1   
 19  11  12  2   
 20  11  13  am  
 21  13  14  1   
 22  13  15  1   
 23  14  16  1   
 24  14  34  1   
 25  14  35  1   
 26  15  17  1   
 27  15  36  1   
 28  15  37  1   
 29  16  17  1   
 30  16  18  1   
 31  16  38  1   
 32  17  19  1   
 33  17  39  1   
 34  18  20  1   
 35  19  21  1   
 36  19  40  1   
 37  19  41  1   
 38  20  42  1   
 39  20  43  1   
 40  20  44  1   
 41  21  22  1   
 42  21  23  2   
 43  22  24  1   
 44  23  25  1   
 45  23  45  1   
 46  24  25  2   
 47  25  26  1   
 48  26  46  1   
 49  26  47  1   
 50  26  48  1   
@<TRIPOS>SUBSTRUCTURE
  1 ****  13 GROUP 4 **** **** 0

# MOE 2024.06 (io_trps.svl 2023.06)
