@<TRIPOS>MOLECULE
NONAME
50 52 1 0 0 
SMALL
USER_CHARGES


@<TRIPOS>ATOM
  1 O        4.3330     2.5570     1.6770 O.co2 1 <1>  -0.9000 
  2 C        4.3360     1.3650     1.3470 C.2   1 <1>   0.9060 
  3 O        5.1450     0.5900     1.8880 O.co2 1 <1>  -0.9000 
  4 C        3.3360     0.8160     0.2970 C.3   1 <1>  -0.1060 
  5 C        3.9940    -0.3530    -0.4830 C.3   1 <1>   0.4230 
  6 C        2.9020     1.9130    -0.7340 C.3   1 <1>  -0.1600 
  7 C        2.0690     0.2960     1.0200 C.3   1 <1>  -0.1600 
  8 N        4.3230    -1.4810     0.4600 N.4   1 <1>  -0.9590 
  9 C        5.1830     0.1120    -1.3900 C.3   1 <1>   0.2090 
 10 C        3.8090     2.0370    -1.9730 C.3   1 <1>   0.2090 
 11 C        2.3770    -0.9270     1.8990 C.3   1 <1>  -0.1600 
 12 C        3.1130    -2.0270     1.1310 C.3   1 <1>   0.3430 
 13 C        5.1910    -2.5620    -0.0830 C.3   1 <1>   0.2630 
 14 N        5.1920     1.6090    -1.6210 N.pl3 1 <1>  -0.8380 
 15 C        6.0960     2.4210    -0.9890 C.ar  1 <1>   0.4100 
 16 N        7.0210     1.7840    -0.2590 N.ar  1 <1>  -0.6200 
 17 C        5.9830     3.8260    -0.8680 C.ar  1 <1>  -0.1430 
 18 C        7.3370     2.3280     0.8760 C.ar  1 <1>   0.5280 
 19 C        6.3490     4.3720     0.3360 C.ar  1 <1>   0.2180 
 20 C        5.4780     4.7090    -2.0090 C.3   1 <1>  -0.0970 
 21 N        6.9620     3.5680     1.2250 N.ar  1 <1>  -0.1790 
 22 C        8.1610     1.5270     1.8600 C.3   1 <1>  -0.0970 
 23 C        6.1150     5.8140     0.7650 C.3   1 <1>  -0.0970 
 24 H        3.2450    -0.7210    -1.1610 H     1 <1>   0.0800 
 25 H        2.8530     2.8710    -0.2470 H     1 <1>   0.0800 
 26 H        1.9080     1.7190    -1.0950 H     1 <1>   0.0800 
 27 H        1.6600     1.0820     1.6340 H     1 <1>   0.0800 
 28 H        1.3180     0.0190     0.3010 H     1 <1>   0.0800 
 29 H        4.8520    -0.9590     1.2100 H     1 <1>   0.4500 
 30 H        5.0920    -0.3700    -2.3470 H     1 <1>   0.0800 
 31 H        6.1090    -0.2230    -0.9660 H     1 <1>   0.0800 
 32 H        3.7560     3.0270    -2.3700 H     1 <1>   0.0800 
 33 H        3.4400     1.3880    -2.7490 H     1 <1>   0.0800 
 34 H        1.4570    -1.3260     2.2890 H     1 <1>   0.0800 
 35 H        2.9730    -0.6300     2.7450 H     1 <1>   0.0800 
 36 H        2.4530    -2.4530     0.3940 H     1 <1>   0.0800 
 37 H        3.3990    -2.8030     1.8220 H     1 <1>   0.0800 
 38 H        4.7060    -3.0520    -0.9110 H     1 <1>   0.0800 
 39 H        5.3910    -3.2920     0.6840 H     1 <1>   0.0800 
 40 H        6.1320    -2.1590    -0.4150 H     1 <1>   0.0800 
 41 H        6.0950     5.5840    -2.1070 H     1 <1>   0.0800 
 42 H        4.4640     5.0210    -1.8280 H     1 <1>   0.0800 
 43 H        5.5310     4.1800    -2.9440 H     1 <1>   0.0800 
 44 H        7.1040     3.8650     2.1840 H     1 <1>   0.4570 
 45 H        8.3940     0.5640     1.4440 H     1 <1>   0.0800 
 46 H        7.5950     1.3730     2.7600 H     1 <1>   0.0800 
 47 H        9.0780     2.0370     2.0880 H     1 <1>   0.0800 
 48 H        5.5000     6.3450     0.0630 H     1 <1>   0.0800 
 49 H        7.0520     6.3320     0.8600 H     1 <1>   0.0800 
 50 H        5.6050     5.8300     1.7130 H     1 <1>   0.0800 
@<TRIPOS>BOND
  1   1   2  ar  
  2   2   3  ar  
  3   2   4  1   
  4   4   5  1   
  5   4   6  1   
  6   4   7  1   
  7   5   8  1   
  8   5   9  1   
  9   5  24  1   
 10   6  10  1   
 11   6  25  1   
 12   6  26  1   
 13   7  11  1   
 14   7  27  1   
 15   7  28  1   
 16   8  12  1   
 17   8  13  1   
 18   8  29  1   
 19   9  14  1   
 20   9  30  1   
 21   9  31  1   
 22  10  14  1   
 23  10  32  1   
 24  10  33  1   
 25  11  12  1   
 26  11  34  1   
 27  11  35  1   
 28  12  36  1   
 29  12  37  1   
 30  13  38  1   
 31  13  39  1   
 32  13  40  1   
 33  14  15  1   
 34  15  16  ar  
 35  15  17  ar  
 36  16  18  ar  
 37  17  19  ar  
 38  17  20  1   
 39  18  21  ar  
 40  18  22  1   
 41  19  21  ar  
 42  19  23  1   
 43  20  41  1   
 44  20  42  1   
 45  20  43  1   
 46  21  44  1   
 47  22  45  1   
 48  22  46  1   
 49  22  47  1   
 50  23  48  1   
 51  23  49  1   
 52  23  50  1   
@<TRIPOS>SUBSTRUCTURE
  1 ****   2 GROUP 4 **** **** 0

# MOE 2024.06 (io_trps.svl 2023.06)
