@<TRIPOS>MOLECULE
NONAME
35 35 1 0 0 
SMALL
USER_CHARGES


@<TRIPOS>ATOM
  1 O        1.1150    -0.7150     1.2960 O.2   1 <1>  -0.5700 
  2 C        1.1430    -0.6610     0.0850 C.2   1 <1>   0.7800 
  3 O        1.8100     0.2870    -0.5680 O.3   1 <1>  -0.4300 
  4 N        0.5060    -1.5570    -0.7140 N.am  1 <1>  -0.5470 
  5 C        2.5190     1.3700    -0.0040 C.3   1 <1>   0.2800 
  6 C       -0.2710    -2.6550    -0.3450 C.ar  1 <1>   0.1170 
  7 C        3.0620     2.1570    -1.1970 C.3   1 <1>  -0.2400 
  8 C        3.6910     0.8560     0.8390 C.3   1 <1>  -0.2400 
  9 C        1.5660     2.2630     0.7990 C.3   1 <1>  -0.2400 
 10 C       -1.5070    -2.5600     0.2880 C.ar  1 <1>  -0.1440 
 11 C        0.1770    -3.9310    -0.6300 C.ar  1 <1>  -0.1500 
 12 C       -2.1850    -3.7310     0.5900 C.ar  1 <1>   0.1600 
 13 C       -2.1480    -1.2190     0.6420 C.3   1 <1>  -0.0170 
 14 C       -0.5900    -5.0240    -0.2830 C.ar  1 <1>   0.1600 
 15 N       -1.7650    -4.9560     0.3190 N.ar  1 <1>  -0.6200 
 16 C       -2.7030    -0.5400    -0.6110 C.3   1 <1>   0.1200 
 17 O       -3.3040     0.6560    -0.2560 O.3   1 <1>  -0.6800 
 18 H        0.7510    -1.4580    -1.6950 H     1 <1>   0.3700 
 19 H        3.7140     1.5390    -1.7880 H     1 <1>   0.0800 
 20 H        3.6210     3.0110    -0.8580 H     1 <1>   0.0800 
 21 H        2.2540     2.5060    -1.8140 H     1 <1>   0.0800 
 22 H        4.2980     0.1790     0.2650 H     1 <1>   0.0800 
 23 H        3.3440     0.3550     1.7240 H     1 <1>   0.0800 
 24 H        4.3050     1.6800     1.1540 H     1 <1>   0.0800 
 25 H        0.7190     2.5430     0.2000 H     1 <1>   0.0800 
 26 H        2.0750     3.1580     1.1070 H     1 <1>   0.0800 
 27 H        1.2220     1.7660     1.6870 H     1 <1>   0.0800 
 28 H        1.1240    -4.0730    -1.1140 H     1 <1>   0.1500 
 29 H       -3.1400    -3.6630     1.0830 H     1 <1>   0.1500 
 30 H       -1.4270    -0.5760     1.1110 H     1 <1>   0.0800 
 31 H       -2.9460    -1.3770     1.3440 H     1 <1>   0.0800 
 32 H       -0.2200    -6.0100    -0.5100 H     1 <1>   0.1500 
 33 H       -3.4370    -1.1600    -1.0960 H     1 <1>   0.0800 
 34 H       -1.9120    -0.3170    -1.3060 H     1 <1>   0.0800 
 35 H       -4.0660     0.5040     0.3370 H     1 <1>   0.4000 
@<TRIPOS>BOND
  1   1   2  2   
  2   2   3  1   
  3   2   4  am  
  4   3   5  1   
  5   4   6  1   
  6   4  18  1   
  7   5   7  1   
  8   5   8  1   
  9   5   9  1   
 10   6  10  ar  
 11   6  11  ar  
 12   7  19  1   
 13   7  20  1   
 14   7  21  1   
 15   8  22  1   
 16   8  23  1   
 17   8  24  1   
 18   9  25  1   
 19   9  26  1   
 20   9  27  1   
 21  10  12  ar  
 22  10  13  1   
 23  11  14  ar  
 24  11  28  1   
 25  12  15  ar  
 26  12  29  1   
 27  13  16  1   
 28  13  30  1   
 29  13  31  1   
 30  14  15  ar  
 31  14  32  1   
 32  16  17  1   
 33  16  33  1   
 34  16  34  1   
 35  17  35  1   
@<TRIPOS>SUBSTRUCTURE
  1 ****   4 GROUP 4 **** **** 0

# MOE 2024.06 (io_trps.svl 2023.06)
