@<TRIPOS>MOLECULE
NONAME
48 50 1 0 0 
SMALL
USER_CHARGES


@<TRIPOS>ATOM
  1 O        0.4260     1.1560    -1.3200 O.2   1 <1>  -0.5700 
  2 C        0.1900     2.3370    -1.2070 C.2   1 <1>   0.5690 
  3 N       -0.8410     2.8110    -0.4400 N.am  1 <1>  -0.6600 
  4 C        1.0790     3.3240    -1.9650 C.3   1 <1>   0.1810 
  5 C       -1.1240     4.2830    -0.3310 C.3   1 <1>   0.3640 
  6 C       -1.6920     1.9100     0.3910 C.3   1 <1>   0.0600 
  7 O        1.0610     4.6110    -1.3970 O.3   1 <1>  -0.5600 
  8 C       -2.6130     4.5390    -0.6020 C.ar  1 <1>  -0.1440 
  9 C       -0.2440     5.1520    -1.2660 C.3   1 <1>   0.2610 
 10 C       -3.4270     5.2410     0.2880 C.ar  1 <1>  -0.1440 
 11 C       -3.1680     4.0500    -1.7800 C.ar  1 <1>  -0.1500 
 12 C       -0.1670     6.5780    -0.7180 C.2   1 <1>   0.5690 
 13 C       -4.7660     5.4380    -0.0200 C.ar  1 <1>  -0.1500 
 14 C       -2.9050     5.8130     1.6000 C.3   1 <1>  -0.0960 
 15 C       -4.5020     4.2510    -2.0780 C.ar  1 <1>  -0.1500 
 16 O       -1.0110     7.3880    -1.0180 O.2   1 <1>  -0.5700 
 17 N        0.8620     6.9110     0.1030 N.am  1 <1>  -0.7300 
 18 C       -5.3030     4.9480    -1.1950 C.ar  1 <1>  -0.1500 
 19 C        1.1540     8.2700     0.5890 C.3   1 <1>   0.2350 
 20 C        2.6480     8.4350     0.9360 C.3   1 <1>  -0.1900 
 21 C        3.4130     7.3220     1.5870 C.3   1 <1>  -0.2000 
 22 C        3.6950     7.6970     0.1540 C.3   1 <1>  -0.2000 
 23 C        2.9770     9.8780     1.3480 C.3   1 <1>   0.2150 
 24 O        2.4020    10.1460     2.5780 O.3   1 <1>  -0.6800 
 25 H        0.7530     3.3930    -2.9870 H     1 <1>   0.0800 
 26 H        2.0940     2.9730    -1.9470 H     1 <1>   0.0800 
 27 H       -0.8860     4.5640     0.6770 H     1 <1>   0.0800 
 28 H       -1.7340     2.2740     1.4020 H     1 <1>   0.0800 
 29 H       -1.2910     0.9110     0.4020 H     1 <1>   0.0800 
 30 H       -2.6900     1.8730    -0.0110 H     1 <1>   0.0800 
 31 H       -0.6830     5.1970    -2.2460 H     1 <1>   0.0800 
 32 H       -2.5600     3.4990    -2.4760 H     1 <1>   0.1500 
 33 H       -5.4040     5.9800     0.6550 H     1 <1>   0.1500 
 34 H       -3.6870     6.3160     2.1390 H     1 <1>   0.0800 
 35 H       -2.1250     6.5280     1.4090 H     1 <1>   0.0800 
 36 H       -2.5240     5.0260     2.2250 H     1 <1>   0.0800 
 37 H       -4.9160     3.8670    -2.9930 H     1 <1>   0.1500 
 38 H        1.6360     6.2470     0.1960 H     1 <1>   0.3700 
 39 H       -6.3430     5.1100    -1.4220 H     1 <1>   0.1500 
 40 H        0.8750     8.9810    -0.1710 H     1 <1>   0.0800 
 41 H        0.5520     8.4560     1.4620 H     1 <1>   0.0800 
 42 H        4.1360     7.5750     2.3440 H     1 <1>   0.1000 
 43 H        2.9250     6.3860     1.7970 H     1 <1>   0.1000 
 44 H        3.4090     7.0140    -0.6270 H     1 <1>   0.1000 
 45 H        4.6320     8.1800    -0.0650 H     1 <1>   0.1000 
 46 H        2.6040    10.5880     0.6300 H     1 <1>   0.0800 
 47 H        4.0400    10.0130     1.4540 H     1 <1>   0.0800 
 48 H        1.4350    10.0430     2.5380 H     1 <1>   0.4000 
@<TRIPOS>BOND
  1   1   2  2   
  2   2   3  am  
  3   2   4  1   
  4   3   5  1   
  5   3   6  1   
  6   4   7  1   
  7   4  25  1   
  8   4  26  1   
  9   5   8  1   
 10   5   9  1   
 11   5  27  1   
 12   6  28  1   
 13   6  29  1   
 14   6  30  1   
 15   7   9  1   
 16   8  10  ar  
 17   8  11  ar  
 18   9  12  1   
 19   9  31  1   
 20  10  13  ar  
 21  10  14  1   
 22  11  15  ar  
 23  11  32  1   
 24  12  16  2   
 25  12  17  am  
 26  13  18  ar  
 27  13  33  1   
 28  14  34  1   
 29  14  35  1   
 30  14  36  1   
 31  15  18  ar  
 32  15  37  1   
 33  17  19  1   
 34  17  38  1   
 35  18  39  1   
 36  19  20  1   
 37  19  40  1   
 38  19  41  1   
 39  20  21  1   
 40  20  22  1   
 41  20  23  1   
 42  21  22  1   
 43  21  42  1   
 44  21  43  1   
 45  22  44  1   
 46  22  45  1   
 47  23  24  1   
 48  23  46  1   
 49  23  47  1   
 50  24  48  1   
@<TRIPOS>SUBSTRUCTURE
  1 ****   9 GROUP 4 **** **** 0

# MOE 2024.06 (io_trps.svl 2023.06)
