@<TRIPOS>MOLECULE
NONAME
57 60 1 0 0 
SMALL
USER_CHARGES


@<TRIPOS>ATOM
  1 O       -2.7180     0.3870     1.5800 O.2   1 <1>  -0.5700 
  2 C       -1.9830     0.7920     0.7010 C.2   1 <1>   0.7160 
  3 N       -1.3440    -0.1250    -0.0830 N.am  1 <1>  -0.7300 
  4 C       -1.7490     2.1850     0.4640 C.2   1 <1>  -0.0860 
  5 C       -1.4270    -1.5910     0.0320 C.3   1 <1>   0.2200 
  6 C       -2.6380     3.2700     0.5560 C.2   1 <1>   0.3720 
  7 C       -0.5900     2.7680     0.0560 C.2   1 <1>   0.0870 
  8 C       -0.0460    -2.1020     0.4680 C.3   1 <1>  -0.1600 
  9 C       -1.8400    -2.1260    -1.3470 C.3   1 <1>  -0.1600 
 10 N       -2.0470     4.3690     0.2260 N.2   1 <1>  -0.4100 
 11 N       -3.9880     3.2320     0.9450 N.pl3 1 <1>  -0.8210 
 12 O       -0.8200     4.0460    -0.0780 O.3   1 <1>  -0.0190 
 13 C        0.7140     2.2290    -0.2150 C.ar  1 <1>   0.0530 
 14 C       -0.0590    -3.4510     1.2050 C.3   1 <1>  -0.1600 
 15 C       -2.2400    -3.6080    -1.3780 C.3   1 <1>  -0.1600 
 16 C       -4.8650     2.1610     0.4070 C.3   1 <1>   0.2090 
 17 C       -4.7470     4.5080     1.0090 C.3   1 <1>   0.2090 
 18 C        1.3420     1.3680     0.6850 C.ar  1 <1>  -0.1500 
 19 C        1.3870     2.5350    -1.3970 C.ar  1 <1>  -0.1500 
 20 C       -1.0430    -4.5110     0.6880 C.3   1 <1>  -0.1600 
 21 C       -1.1770    -4.5780    -0.8400 C.3   1 <1>  -0.1600 
 22 C       -6.1600     2.8540    -0.0010 C.3   1 <1>  -0.1600 
 23 C       -6.2070     4.1070     0.8620 C.3   1 <1>  -0.1600 
 24 C        2.5770     0.8130     0.4110 C.ar  1 <1>  -0.1500 
 25 C        2.6220     1.9830    -1.6780 C.ar  1 <1>  -0.1500 
 26 C        3.2260     1.1150    -0.7830 C.ar  1 <1>   0.0830 
 27 O        4.4310     0.6100    -1.1360 O.3   1 <1>  -0.3630 
 28 C        5.1500    -0.2550    -0.2860 C.3   1 <1>   0.0400 
 29 H       -0.6640     0.2130    -0.7640 H     1 <1>   0.3700 
 30 H       -2.1690    -1.8510     0.7690 H     1 <1>   0.0800 
 31 H        0.4000    -1.3880     1.1370 H     1 <1>   0.0800 
 32 H        0.5950    -2.1770    -0.3930 H     1 <1>   0.0800 
 33 H       -1.0390    -1.9680    -2.0480 H     1 <1>   0.0800 
 34 H       -2.6890    -1.5600    -1.6890 H     1 <1>   0.0800 
 35 H       -0.2840    -3.2740     2.2430 H     1 <1>   0.0800 
 36 H        0.9370    -3.8580     1.1680 H     1 <1>   0.0800 
 37 H       -2.4510    -3.8730    -2.4000 H     1 <1>   0.0800 
 38 H       -3.1560    -3.7400    -0.8260 H     1 <1>   0.0800 
 39 H       -5.0570     1.4470     1.1900 H     1 <1>   0.0800 
 40 H       -4.4130     1.6610    -0.4320 H     1 <1>   0.0800 
 41 H       -4.4620     5.1500     0.1930 H     1 <1>   0.0800 
 42 H       -4.5640     5.0100     1.9440 H     1 <1>   0.0800 
 43 H        0.8500     1.1330     1.6140 H     1 <1>   0.1500 
 44 H        0.9310     3.2090    -2.1010 H     1 <1>   0.1500 
 45 H       -2.0130    -4.3420     1.1260 H     1 <1>   0.0800 
 46 H       -0.7090    -5.4700     1.0460 H     1 <1>   0.0800 
 47 H       -0.2270    -4.4110    -1.3170 H     1 <1>   0.0800 
 48 H       -1.4900    -5.5750    -1.0980 H     1 <1>   0.0800 
 49 H       -7.0150     2.2180     0.1480 H     1 <1>   0.0800 
 50 H       -6.0970     3.1250    -1.0400 H     1 <1>   0.0800 
 51 H       -6.7950     4.8920     0.4210 H     1 <1>   0.0800 
 52 H       -6.6020     3.8710     1.8350 H     1 <1>   0.0800 
 53 H        3.0200     0.1520     1.1320 H     1 <1>   0.1500 
 54 H        3.1310     2.2220    -2.5950 H     1 <1>   0.1500 
 55 H        6.0740    -0.5110    -0.7740 H     1 <1>   0.0800 
 56 H        4.5680    -1.1440    -0.1180 H     1 <1>   0.0800 
 57 H        5.3550     0.2540     0.6390 H     1 <1>   0.0800 
@<TRIPOS>BOND
  1   1   2  2   
  2   2   3  am  
  3   2   4  1   
  4   3   5  1   
  5   3  29  1   
  6   4   6  1   
  7   4   7  2   
  8   5   8  1   
  9   5   9  1   
 10   5  30  1   
 11   6  10  2   
 12   6  11  1   
 13   7  12  1   
 14   7  13  1   
 15   8  14  1   
 16   8  31  1   
 17   8  32  1   
 18   9  15  1   
 19   9  33  1   
 20   9  34  1   
 21  10  12  1   
 22  11  16  1   
 23  11  17  1   
 24  13  18  ar  
 25  13  19  ar  
 26  14  20  1   
 27  14  35  1   
 28  14  36  1   
 29  15  21  1   
 30  15  37  1   
 31  15  38  1   
 32  16  22  1   
 33  16  39  1   
 34  16  40  1   
 35  17  23  1   
 36  17  41  1   
 37  17  42  1   
 38  18  24  ar  
 39  18  43  1   
 40  19  25  ar  
 41  19  44  1   
 42  20  21  1   
 43  20  45  1   
 44  20  46  1   
 45  21  47  1   
 46  21  48  1   
 47  22  23  1   
 48  22  49  1   
 49  22  50  1   
 50  23  51  1   
 51  23  52  1   
 52  24  26  ar  
 53  24  53  1   
 54  25  26  ar  
 55  25  54  1   
 56  26  27  1   
 57  27  28  1   
 58  28  55  1   
 59  28  56  1   
 60  28  57  1   
@<TRIPOS>SUBSTRUCTURE
  1 ****   3 GROUP 4 **** **** 0

# MOE 2024.06 (io_trps.svl 2023.06)
