@<TRIPOS>MOLECULE
NONAME
53 56 1 0 0 
SMALL
USER_CHARGES


@<TRIPOS>ATOM
  1 O       -0.1150     0.8480    -0.4440 O.2   1 <1>  -0.5700 
  2 C       -0.0800     2.0210    -0.1750 C.2   1 <1>   0.5690 
  3 N       -1.1600     2.6430     0.3450 N.am  1 <1>  -0.7300 
  4 C        1.1840     2.8370    -0.4600 C.3   1 <1>   0.1810 
  5 C       -1.1980     4.0850     0.6880 C.3   1 <1>   0.3640 
  6 O        1.2230     4.0640     0.2370 O.3   1 <1>  -0.5600 
  7 C       -2.4900     4.6790     0.1280 C.ar  1 <1>  -0.1440 
  8 C        0.0390     4.8470     0.1400 C.3   1 <1>   0.2610 
  9 C       -3.2500     5.5350     0.9130 C.ar  1 <1>  -0.1500 
 10 C       -2.9220     4.3880    -1.1610 C.ar  1 <1>  -0.1500 
 11 C        0.2340     6.2060     0.8390 C.2   1 <1>   0.5690 
 12 C       -4.4190     6.0900     0.4220 C.ar  1 <1>  -0.1500 
 13 C       -4.0910     4.9420    -1.6530 C.ar  1 <1>  -0.1500 
 14 O       -0.3430     6.4150     1.8840 O.2   1 <1>  -0.5700 
 15 N        1.0570     7.1680     0.2960 N.am  1 <1>  -0.6600 
 16 C       -4.8400     5.7940    -0.8620 C.ar  1 <1>  -0.1500 
 17 C        2.0400     6.9290    -0.8080 C.3   1 <1>   0.1400 
 18 C        1.2850     8.4750     0.9890 C.3   1 <1>   0.1400 
 19 C        3.4800     6.9820    -0.2660 C.3   1 <1>   0.2090 
 20 C        2.7230     8.5580     1.5320 C.3   1 <1>   0.2090 
 21 N        3.7330     8.2690     0.4590 N.pl3 1 <1>  -0.8380 
 22 C        4.8650     8.9960     0.2910 C.ar  1 <1>   0.1000 
 23 C        4.8650    10.3440    -0.1140 C.ar  1 <1>  -0.1430 
 24 C        6.1050     8.3930     0.5270 C.ar  1 <1>  -0.1500 
 25 C        6.0570    11.0160    -0.2410 C.ar  1 <1>   0.2110 
 26 C        3.5560    11.0590    -0.4410 C.3   1 <1>  -0.0970 
 27 C        7.2710     9.0970     0.3870 C.ar  1 <1>   0.2110 
 28 N        7.2380    10.3980     0.0100 N.ar  1 <1>  -0.1790 
 29 H       -2.0070     2.1010     0.5220 H     1 <1>   0.3700 
 30 H        1.2450     3.0410    -1.5130 H     1 <1>   0.0800 
 31 H        2.0450     2.2660    -0.1660 H     1 <1>   0.0800 
 32 H       -1.2110     4.1580     1.7620 H     1 <1>   0.0800 
 33 H       -0.1300     5.0440    -0.9020 H     1 <1>   0.0800 
 34 H       -2.9340     5.7820     1.9130 H     1 <1>   0.1500 
 35 H       -2.3550     3.7250    -1.7910 H     1 <1>   0.1500 
 36 H       -4.9990     6.7540     1.0390 H     1 <1>   0.1500 
 37 H       -4.4200     4.7090    -2.6510 H     1 <1>   0.1500 
 38 H       -5.7500     6.2260    -1.2430 H     1 <1>   0.1500 
 39 H        1.8780     5.9800    -1.2810 H     1 <1>   0.0800 
 40 H        1.9200     7.6920    -1.5570 H     1 <1>   0.0800 
 41 H        1.1200     9.2770     0.2920 H     1 <1>   0.0800 
 42 H        0.5920     8.6040     1.8020 H     1 <1>   0.0800 
 43 H        4.1720     6.8830    -1.0840 H     1 <1>   0.0800 
 44 H        3.6310     6.1550     0.4070 H     1 <1>   0.0800 
 45 H        2.8320     7.8340     2.3220 H     1 <1>   0.0800 
 46 H        2.8980     9.5300     1.9560 H     1 <1>   0.0800 
 47 H        6.1200     7.3620     0.8340 H     1 <1>   0.1500 
 48 H        6.0770    12.0490    -0.5480 H     1 <1>   0.1500 
 49 H        2.9330    10.4260    -1.0480 H     1 <1>   0.0800 
 50 H        3.7310    11.9710    -0.9850 H     1 <1>   0.0800 
 51 H        3.0260    11.3010     0.4620 H     1 <1>   0.0800 
 52 H        8.2250     8.6310     0.5750 H     1 <1>   0.1500 
 53 H        8.1160    10.9210    -0.0910 H     1 <1>   0.4570 
@<TRIPOS>BOND
  1   1   2  2   
  2   2   3  am  
  3   2   4  1   
  4   3   5  1   
  5   3  29  1   
  6   4   6  1   
  7   4  30  1   
  8   4  31  1   
  9   5   7  1   
 10   5   8  1   
 11   5  32  1   
 12   6   8  1   
 13   7   9  ar  
 14   7  10  ar  
 15   8  11  1   
 16   8  33  1   
 17   9  12  ar  
 18   9  34  1   
 19  10  13  ar  
 20  10  35  1   
 21  11  14  2   
 22  11  15  am  
 23  12  16  ar  
 24  12  36  1   
 25  13  16  ar  
 26  13  37  1   
 27  15  17  1   
 28  15  18  1   
 29  16  38  1   
 30  17  19  1   
 31  17  39  1   
 32  17  40  1   
 33  18  20  1   
 34  18  41  1   
 35  18  42  1   
 36  19  21  1   
 37  19  43  1   
 38  19  44  1   
 39  20  21  1   
 40  20  45  1   
 41  20  46  1   
 42  21  22  1   
 43  22  23  ar  
 44  22  24  ar  
 45  23  25  ar  
 46  23  26  1   
 47  24  27  ar  
 48  24  47  1   
 49  25  28  ar  
 50  25  48  1   
 51  26  49  1   
 52  26  50  1   
 53  26  51  1   
 54  27  28  ar  
 55  27  52  1   
 56  28  53  1   
@<TRIPOS>SUBSTRUCTURE
  1 ****  15 GROUP 4 **** **** 0

# MOE 2024.06 (io_trps.svl 2023.06)
