@<TRIPOS>MOLECULE
NONAME
41 43 1 0 0 
SMALL
USER_CHARGES


@<TRIPOS>ATOM
  1 CL       2.0830    -1.0800    -1.7480 Cl    1 <1>  -0.1770 
  2 C        2.6730     0.2660    -0.8020 C.ar  1 <1>   0.1770 
  3 C        2.1790     1.5410    -1.0240 C.ar  1 <1>   0.1600 
  4 C        3.6320     0.0450     0.1630 C.ar  1 <1>  -0.1500 
  5 N        2.5630     2.6280    -0.3610 N.ar  1 <1>  -0.6200 
  6 C        4.0260     1.1680     0.8480 C.ar  1 <1>   0.1900 
  7 C        3.4860     2.4380     0.5810 C.ar  1 <1>   0.4100 
  8 F        4.9430     1.0350     1.7790 F     1 <1>  -0.1900 
  9 N        3.8980     3.5490     1.2960 N.pl3 1 <1>  -0.8690 
 10 C        3.7180     4.9340     0.8220 C.3   1 <1>   0.2890 
 11 C        4.8450     5.2860    -0.1480 C.3   1 <1>  -0.1600 
 12 C        3.7190     5.8660     2.0320 C.3   1 <1>  -0.1600 
 13 C        4.7390     6.7480    -0.5760 C.3   1 <1>   0.2090 
 14 C        3.6260     7.3220     1.5800 C.3   1 <1>   0.2090 
 15 N        4.7310     7.6070     0.6330 N.pl3 1 <1>  -0.8380 
 16 C        5.0390     8.9480     0.4360 C.ar  1 <1>   0.1000 
 17 C        4.1780     9.8000    -0.2470 C.ar  1 <1>  -0.1500 
 18 C        6.2310     9.4560     0.9290 C.ar  1 <1>  -0.1500 
 19 C        4.4980    11.1350    -0.4360 C.ar  1 <1>  -0.1430 
 20 C        6.5600    10.7870     0.7460 C.ar  1 <1>  -0.1500 
 21 C        5.6940    11.6250     0.0650 C.ar  1 <1>  -0.1500 
 22 C        3.5570    12.0630    -1.1810 C.3   1 <1>  -0.0970 
 23 H        1.4300     1.6700    -1.7870 H     1 <1>   0.1500 
 24 H        4.0390    -0.9290     0.3610 H     1 <1>   0.1500 
 25 H        4.7400     3.4160     1.8610 H     1 <1>   0.4000 
 26 H        2.7700     5.0280     0.3170 H     1 <1>   0.0800 
 27 H        4.7800     4.6590    -1.0180 H     1 <1>   0.0800 
 28 H        5.8000     5.1330     0.3200 H     1 <1>   0.0800 
 29 H        4.6250     5.7410     2.5970 H     1 <1>   0.0800 
 30 H        2.8810     5.6360     2.6640 H     1 <1>   0.0800 
 31 H        3.8330     6.9070    -1.1370 H     1 <1>   0.0800 
 32 H        5.5780     7.0110    -1.1980 H     1 <1>   0.0800 
 33 H        3.7050     7.9780     2.4310 H     1 <1>   0.0800 
 34 H        2.6810     7.5030     1.0960 H     1 <1>   0.0800 
 35 H        3.2570     9.4040    -0.6270 H     1 <1>   0.1500 
 36 H        6.8930     8.7940     1.4560 H     1 <1>   0.1500 
 37 H        7.4870    11.1690     1.1340 H     1 <1>   0.1500 
 38 H        5.9540    12.6600    -0.0750 H     1 <1>   0.1500 
 39 H        2.7010    11.5270    -1.5510 H     1 <1>   0.0800 
 40 H        4.0680    12.5090    -2.0150 H     1 <1>   0.0800 
 41 H        3.2160    12.8420    -0.5240 H     1 <1>   0.0800 
@<TRIPOS>BOND
  1   1   2  1   
  2   2   3  ar  
  3   2   4  ar  
  4   3   5  ar  
  5   3  23  1   
  6   4   6  ar  
  7   4  24  1   
  8   5   7  ar  
  9   6   7  ar  
 10   6   8  1   
 11   7   9  1   
 12   9  10  1   
 13   9  25  1   
 14  10  11  1   
 15  10  12  1   
 16  10  26  1   
 17  11  13  1   
 18  11  27  1   
 19  11  28  1   
 20  12  14  1   
 21  12  29  1   
 22  12  30  1   
 23  13  15  1   
 24  13  31  1   
 25  13  32  1   
 26  14  15  1   
 27  14  33  1   
 28  14  34  1   
 29  15  16  1   
 30  16  17  ar  
 31  16  18  ar  
 32  17  19  ar  
 33  17  35  1   
 34  18  20  ar  
 35  18  36  1   
 36  19  21  ar  
 37  19  22  1   
 38  20  21  ar  
 39  20  37  1   
 40  21  38  1   
 41  22  39  1   
 42  22  40  1   
 43  22  41  1   
@<TRIPOS>SUBSTRUCTURE
  1 ****  11 GROUP 4 **** **** 0

# MOE 2024.06 (io_trps.svl 2023.06)
