@<TRIPOS>MOLECULE
NONAME
42 44 1 0 0 
SMALL
USER_CHARGES


@<TRIPOS>ATOM
  1 CL      -4.0310     1.8510     4.2860 Cl    1 <1>  -0.1770 
  2 C       -3.7170     1.7360     2.5710 C.ar  1 <1>   0.1770 
  3 C       -2.5830     2.3020     2.0140 C.ar  1 <1>   0.1770 
  4 C       -4.6310     1.0700     1.7740 C.ar  1 <1>  -0.1500 
  5 CL      -1.4230     3.1500     3.0080 Cl    1 <1>  -0.1770 
  6 C       -2.3520     2.2030     0.6540 C.ar  1 <1>  -0.1500 
  7 C       -4.4100     0.9700     0.4050 C.ar  1 <1>  -0.1440 
  8 C       -3.2670     1.5370    -0.1480 C.ar  1 <1>  -0.1500 
  9 C       -5.4160     0.2480    -0.4750 C.3   1 <1>   0.4870 
 10 N       -6.6530     1.0600    -0.5390 N.4   1 <1>  -0.9590 
 11 C       -7.8200     0.3150    -1.0740 C.3   1 <1>   0.3430 
 12 C       -6.4650     2.4000    -1.1760 C.3   1 <1>   0.3430 
 13 C       -9.1140     1.0410    -0.6310 C.3   1 <1>   0.0000 
 14 C       -7.8000     2.9860    -1.6650 C.3   1 <1>  -0.1600 
 15 C       -9.4970     0.6360     0.8060 C.3   1 <1>   0.2000 
 16 C       -8.9830     2.5840    -0.7680 C.3   1 <1>  -0.1600 
 17 C      -10.2900     0.4720    -1.4360 C.3   1 <1>  -0.1600 
 18 O       -8.3870     0.5720     1.6410 O.3   1 <1>  -0.6800 
 19 C      -10.1660    -0.7340     0.6980 C.3   1 <1>  -0.1600 
 20 C      -10.6330    -0.8610    -0.7600 C.3   1 <1>  -0.1600 
 21 H       -5.5010     0.6370     2.2390 H     1 <1>   0.1500 
 22 H       -1.4640     2.6440     0.2350 H     1 <1>   0.1500 
 23 H       -3.0700     1.4650    -1.2060 H     1 <1>   0.1500 
 24 H       -5.6320    -0.7170    -0.0460 H     1 <1>   0.0800 
 25 H       -5.0130     0.1030    -1.4640 H     1 <1>   0.0800 
 26 H       -6.9400     1.2270     0.4450 H     1 <1>   0.4500 
 27 H       -7.7680     0.2780    -2.1490 H     1 <1>   0.0800 
 28 H       -7.8330    -0.6930    -0.6930 H     1 <1>   0.0800 
 29 H       -6.0230     3.0690    -0.4550 H     1 <1>   0.0800 
 30 H       -5.7900     2.3230    -2.0130 H     1 <1>   0.0800 
 31 H       -7.7180     4.0590    -1.7020 H     1 <1>   0.0800 
 32 H       -7.9840     2.6520    -2.6710 H     1 <1>   0.0800 
 33 H      -10.1960     1.3480     1.2170 H     1 <1>   0.0800 
 34 H       -9.8920     3.0160    -1.1520 H     1 <1>   0.0800 
 35 H       -8.8190     3.0190     0.2040 H     1 <1>   0.0800 
 36 H      -11.1460     1.1220    -1.3470 H     1 <1>   0.0800 
 37 H      -10.0670     0.3490    -2.4820 H     1 <1>   0.0800 
 38 H       -8.6840     0.3490     2.5510 H     1 <1>   0.4000 
 39 H       -9.4780    -1.5290     0.9290 H     1 <1>   0.0800 
 40 H      -11.0090    -0.7890     1.3670 H     1 <1>   0.0800 
 41 H      -10.1090    -1.6690    -1.2420 H     1 <1>   0.0800 
 42 H      -11.6910    -1.0610    -0.8180 H     1 <1>   0.0800 
@<TRIPOS>BOND
  1   1   2  1   
  2   2   3  ar  
  3   2   4  ar  
  4   3   5  1   
  5   3   6  ar  
  6   4   7  ar  
  7   4  21  1   
  8   6   8  ar  
  9   6  22  1   
 10   7   8  ar  
 11   7   9  1   
 12   8  23  1   
 13   9  10  1   
 14   9  24  1   
 15   9  25  1   
 16  10  11  1   
 17  10  12  1   
 18  10  26  1   
 19  11  13  1   
 20  11  27  1   
 21  11  28  1   
 22  12  14  1   
 23  12  29  1   
 24  12  30  1   
 25  13  15  1   
 26  13  16  1   
 27  13  17  1   
 28  14  16  1   
 29  14  31  1   
 30  14  32  1   
 31  15  18  1   
 32  15  19  1   
 33  15  33  1   
 34  16  34  1   
 35  16  35  1   
 36  17  20  1   
 37  17  36  1   
 38  17  37  1   
 39  18  38  1   
 40  19  20  1   
 41  19  39  1   
 42  19  40  1   
 43  20  41  1   
 44  20  42  1   
@<TRIPOS>SUBSTRUCTURE
  1 ****  10 GROUP 4 **** **** 0

# MOE 2024.06 (io_trps.svl 2023.06)
