@<TRIPOS>MOLECULE
NONAME
49 52 1 0 0 
SMALL
USER_CHARGES


@<TRIPOS>ATOM
  1 O        0.3360     0.6980    -0.1370 O.3   1 <1>  -0.6800 
  2 C        1.5360     0.5030    -0.8090 C.3   1 <1>   0.2000 
  3 C        2.1310    -0.8200    -0.3300 C.3   1 <1>  -0.0800 
  4 C        2.5380     1.5620    -0.3150 C.3   1 <1>   0.3430 
  5 C        2.7170    -0.4140     1.0240 C.3   1 <1>   0.3430 
  6 C        3.1960    -1.3350    -1.3290 C.3   1 <1>  -0.0170 
  7 N        3.3260     0.9110     0.7750 N.4   1 <1>  -0.9590 
  8 C        4.1570    -2.3320    -0.7050 C.ar  1 <1>   0.1670 
  9 C        3.5230     1.7600     1.9640 C.3   1 <1>   0.5240 
 10 N        5.1690    -1.8060    -0.0300 N.ar  1 <1>  -0.6200 
 11 C        3.9480    -3.6930    -0.8610 C.ar  1 <1>  -0.1500 
 12 C        4.5040     2.8500     1.5930 C.2   1 <1>  -0.1810 
 13 C        6.0150    -2.6760     0.5020 C.ar  1 <1>   0.1600 
 14 C        4.8330    -4.5850    -0.2940 C.ar  1 <1>  -0.1500 
 15 C        5.5310     2.7790     0.7050 C.2   1 <1>  -0.0260 
 16 C        4.5560     4.1370     2.1010 C.2   1 <1>   0.1390 
 17 C        5.8940    -4.0510     0.4040 C.ar  1 <1>  -0.1500 
 18 N        5.9430     1.7340    -0.0970 N.2   1 <1>  -0.5760 
 19 N        6.1490     4.0100     0.7310 N.pl3 1 <1>   0.6010 
 20 N        5.5260     4.8440     1.5940 N.2   1 <1>  -0.7070 
 21 C        6.9840     1.9510    -0.8340 C.2   1 <1>   0.3750 
 22 C        7.2600     4.2300    -0.0720 C.2   1 <1>  -0.1690 
 23 C        7.6770     3.1960    -0.8520 C.2   1 <1>  -0.1360 
 24 C        7.4900     0.8350    -1.7210 C.3   1 <1>  -0.1790 
 25 C        7.9340     5.5940    -0.0260 C.3   1 <1>  -0.1020 
 26 H       -0.3870     0.1690    -0.5370 H     1 <1>   0.4000 
 27 H        1.3560     0.5610    -1.8690 H     1 <1>   0.0800 
 28 H        1.3800    -1.5790    -0.1990 H     1 <1>   0.0800 
 29 H        2.0110     2.4330     0.0380 H     1 <1>   0.0800 
 30 H        3.2050     1.8470    -1.1110 H     1 <1>   0.0800 
 31 H        3.4350    -1.1250     1.3990 H     1 <1>   0.0800 
 32 H        1.9120    -0.3140     1.7350 H     1 <1>   0.0800 
 33 H        3.7840    -0.5210    -1.7150 H     1 <1>   0.0800 
 34 H        2.7040    -1.7910    -2.1700 H     1 <1>   0.0800 
 35 H        4.2910     0.7560     0.4060 H     1 <1>   0.4500 
 36 H        2.5840     2.1830     2.2810 H     1 <1>   0.0800 
 37 H        3.9360     1.1750     2.7690 H     1 <1>   0.0800 
 38 H        3.1080    -4.0610    -1.4210 H     1 <1>   0.1500 
 39 H        6.8530    -2.2730     1.0470 H     1 <1>   0.1500 
 40 H        4.7050    -5.6500    -0.3940 H     1 <1>   0.1500 
 41 H        3.8810     4.5410     2.8400 H     1 <1>   0.1500 
 42 H        6.6230    -4.6930     0.8660 H     1 <1>   0.1500 
 43 H        8.5310     3.2840    -1.4990 H     1 <1>   0.1500 
 44 H        8.5080     0.6020    -1.4690 H     1 <1>   0.0800 
 45 H        7.4400     1.1340    -2.7510 H     1 <1>   0.0800 
 46 H        6.8940    -0.0510    -1.5890 H     1 <1>   0.0800 
 47 H        7.2350     6.3600    -0.3130 H     1 <1>   0.0800 
 48 H        8.7780     5.6310    -0.6910 H     1 <1>   0.0800 
 49 H        8.2750     5.8030     0.9740 H     1 <1>   0.0800 
@<TRIPOS>BOND
  1   1   2  1   
  2   1  26  1   
  3   2   3  1   
  4   2   4  1   
  5   2  27  1   
  6   3   5  1   
  7   3   6  1   
  8   3  28  1   
  9   4   7  1   
 10   4  29  1   
 11   4  30  1   
 12   5   7  1   
 13   5  31  1   
 14   5  32  1   
 15   6   8  1   
 16   6  33  1   
 17   6  34  1   
 18   7   9  1   
 19   7  35  1   
 20   8  10  ar  
 21   8  11  ar  
 22   9  12  1   
 23   9  36  1   
 24   9  37  1   
 25  10  13  ar  
 26  11  14  ar  
 27  11  38  1   
 28  12  15  2   
 29  12  16  1   
 30  13  17  ar  
 31  13  39  1   
 32  14  17  ar  
 33  14  40  1   
 34  15  18  1   
 35  15  19  1   
 36  16  20  2   
 37  16  41  1   
 38  17  42  1   
 39  18  21  2   
 40  19  20  1   
 41  19  22  1   
 42  21  23  1   
 43  21  24  1   
 44  22  23  2   
 45  22  25  1   
 46  23  43  1   
 47  24  44  1   
 48  24  45  1   
 49  24  46  1   
 50  25  47  1   
 51  25  48  1   
 52  25  49  1   
@<TRIPOS>SUBSTRUCTURE
  1 ****  18 GROUP 4 **** **** 0

# MOE 2024.06 (io_trps.svl 2023.06)
