@<TRIPOS>MOLECULE
NONAME
53 55 1 0 0 
SMALL
USER_CHARGES


@<TRIPOS>ATOM
  1 S       -1.1210    -0.4380    -0.0470 S.3   1 <1>  -0.0800 
  2 C       -1.0170    -1.7520     1.0770 C.2   1 <1>   0.4420 
  3 C       -0.4410     0.5710     1.1830 C.2   1 <1>   0.1980 
  4 N       -0.5200    -1.3900     2.2040 N.2   1 <1>  -0.3380 
  5 N       -1.4470    -2.9810     0.6300 N.am  1 <1>  -0.4940 
  6 N       -0.1950    -0.0610     2.2580 N.2   1 <1>  -0.3380 
  7 C       -0.2230     2.0390     0.8730 C.3   1 <1>   0.0200 
  8 C       -1.7320    -4.1220     1.3230 C.2   1 <1>   0.5690 
  9 C        0.9470     2.2450    -0.1010 C.3   1 <1>  -0.1600 
 10 O       -1.7950    -4.1320     2.5300 O.2   1 <1>  -0.5700 
 11 C       -1.9550    -5.4360     0.5230 C.3   1 <1>   0.2810 
 12 C        1.1800     3.7330    -0.3950 C.3   1 <1>  -0.1600 
 13 N       -3.2230    -5.5010    -0.3080 N.am  1 <1>  -0.6600 
 14 C       -1.9000    -6.6610     1.4660 C.3   1 <1>  -0.1600 
 15 C        2.3480     3.9250    -1.3690 C.3   1 <1>  -0.1600 
 16 C       -3.7860    -4.3920    -0.8870 C.2   1 <1>   0.5440 
 17 C       -3.4840    -6.8000    -0.9900 C.3   1 <1>   0.1400 
 18 C       -2.1200    -7.9980     0.7510 C.3   1 <1>  -0.1600 
 19 C        2.5810     5.4090    -1.6640 C.3   1 <1>  -0.2400 
 20 O       -3.0450    -3.6100    -1.4560 O.2   1 <1>  -0.5700 
 21 C       -5.2250    -4.1890    -0.8760 C.ar  1 <1>   0.0860 
 22 C       -3.4520    -7.9620     0.0010 C.3   1 <1>  -0.1600 
 23 C       -5.8540    -3.4220    -1.8580 C.ar  1 <1>  -0.1500 
 24 C       -6.0360    -4.7510     0.1120 C.ar  1 <1>  -0.1500 
 25 C       -7.2240    -3.2330    -1.8620 C.ar  1 <1>  -0.1500 
 26 C       -7.4070    -4.5670     0.1150 C.ar  1 <1>  -0.1500 
 27 C       -8.0040    -3.8070    -0.8750 C.ar  1 <1>  -0.1500 
 28 H       -1.7430    -3.0100    -0.3540 H     1 <1>   0.3700 
 29 H       -0.0170     2.5550     1.7940 H     1 <1>   0.0800 
 30 H       -1.1270     2.4460     0.4570 H     1 <1>   0.0800 
 31 H        0.7410     1.7270    -1.0220 H     1 <1>   0.0800 
 32 H        1.8380     1.8180     0.3280 H     1 <1>   0.0800 
 33 H       -1.1280    -5.5210    -0.1600 H     1 <1>   0.0800 
 34 H        1.3950     4.2510     0.5250 H     1 <1>   0.0800 
 35 H        0.2880     4.1600    -0.8210 H     1 <1>   0.0800 
 36 H       -2.6510    -6.5450     2.2290 H     1 <1>   0.0800 
 37 H       -0.9450    -6.6780     1.9620 H     1 <1>   0.0800 
 38 H        2.1400     3.4090    -2.2910 H     1 <1>   0.0800 
 39 H        3.2450     3.5040    -0.9460 H     1 <1>   0.0800 
 40 H       -2.7310    -6.9500    -1.7460 H     1 <1>   0.0800 
 41 H       -4.4430    -6.7730    -1.4790 H     1 <1>   0.0800 
 42 H       -2.1280    -8.7980     1.4710 H     1 <1>   0.0800 
 43 H       -1.3150    -8.1780     0.0590 H     1 <1>   0.0800 
 44 H        1.7040     5.8470    -2.1080 H     1 <1>   0.0800 
 45 H        3.4030     5.5230    -2.3480 H     1 <1>   0.0800 
 46 H        2.8130     5.9410    -0.7580 H     1 <1>   0.0800 
 47 H       -3.5920    -8.8860    -0.5310 H     1 <1>   0.0800 
 48 H       -4.2670    -7.8570     0.6970 H     1 <1>   0.0800 
 49 H       -5.2550    -2.9690    -2.6300 H     1 <1>   0.1500 
 50 H       -5.5840    -5.3380     0.8930 H     1 <1>   0.1500 
 51 H       -7.6840    -2.6380    -2.6320 H     1 <1>   0.1500 
 52 H       -8.0100    -5.0110     0.8880 H     1 <1>   0.1500 
 53 H       -9.0710    -3.6620    -0.8760 H     1 <1>   0.1500 
@<TRIPOS>BOND
  1   1   2  1   
  2   1   3  1   
  3   2   4  2   
  4   2   5  1   
  5   3   6  2   
  6   3   7  1   
  7   4   6  1   
  8   5   8  am  
  9   5  28  1   
 10   7   9  1   
 11   7  29  1   
 12   7  30  1   
 13   8  10  2   
 14   8  11  1   
 15   9  12  1   
 16   9  31  1   
 17   9  32  1   
 18  11  13  1   
 19  11  14  1   
 20  11  33  1   
 21  12  15  1   
 22  12  34  1   
 23  12  35  1   
 24  13  16  am  
 25  13  17  1   
 26  14  18  1   
 27  14  36  1   
 28  14  37  1   
 29  15  19  1   
 30  15  38  1   
 31  15  39  1   
 32  16  20  2   
 33  16  21  1   
 34  17  22  1   
 35  17  40  1   
 36  17  41  1   
 37  18  22  1   
 38  18  42  1   
 39  18  43  1   
 40  19  44  1   
 41  19  45  1   
 42  19  46  1   
 43  21  23  ar  
 44  21  24  ar  
 45  22  47  1   
 46  22  48  1   
 47  23  25  ar  
 48  23  49  1   
 49  24  26  ar  
 50  24  50  1   
 51  25  27  ar  
 52  25  51  1   
 53  26  27  ar  
 54  26  52  1   
 55  27  53  1   
@<TRIPOS>SUBSTRUCTURE
  1 ****   5 GROUP 4 **** **** 0

# MOE 2024.06 (io_trps.svl 2023.06)
