@<TRIPOS>MOLECULE
NONAME
57 59 1 0 0 
SMALL
USER_CHARGES


@<TRIPOS>ATOM
  1 O        3.5380     3.1340     0.9960 O.co2 1 <1>  -0.9000 
  2 C        3.3900     1.9200     1.2070 C.2   1 <1>   0.9060 
  3 O        3.9990     1.4030     2.1500 O.co2 1 <1>  -0.9000 
  4 C        2.6200     1.0390     0.2090 C.3   1 <1>  -0.1060 
  5 C        3.2290    -0.3900     0.2330 C.3   1 <1>   0.2000 
  6 C        2.7950     1.5900    -1.2350 C.3   1 <1>  -0.1600 
  7 C        1.1280     0.9930     0.6480 C.3   1 <1>  -0.0160 
  8 O        2.5500    -1.2030    -0.6740 O.3   1 <1>  -0.6800 
  9 C        4.7270    -0.4310    -0.1480 C.3   1 <1>   0.1400 
 10 C        4.2240     1.4670    -1.8020 C.3   1 <1>   0.1400 
 11 C        0.2750     2.1710     0.1790 C.ar  1 <1>  -0.1440 
 12 N        5.1980     0.7790    -0.8980 N.am  1 <1>  -0.6600 
 13 C        0.3820     3.4110     0.7890 C.ar  1 <1>  -0.1500 
 14 C       -0.6250     2.0070    -0.8630 C.ar  1 <1>  -0.1500 
 15 C        6.3020     1.4110    -0.3940 C.2   1 <1>   0.5690 
 16 C       -0.3980     4.4720     0.3630 C.ar  1 <1>  -0.1500 
 17 C       -1.4080     3.0660    -1.2900 C.ar  1 <1>  -0.1500 
 18 O        7.4040     0.9080    -0.4520 O.2   1 <1>  -0.5700 
 19 C        6.1620     2.7590     0.3310 C.3   1 <1>   0.4040 
 20 C       -1.2940     4.3010    -0.6770 C.ar  1 <1>  -0.1500 
 21 N        7.4390     3.5140     0.5800 N.4   1 <1>  -0.9590 
 22 C        7.1550     4.5850     1.5680 C.3   1 <1>   0.3430 
 23 C        8.0390     4.0010    -0.6850 C.3   1 <1>   0.3430 
 24 C        8.4480     5.3300     1.9000 C.3   1 <1>  -0.1600 
 25 C        9.3440     4.7360    -0.3780 C.3   1 <1>  -0.1600 
 26 C        9.1320     5.8720     0.6350 C.3   1 <1>  -0.0800 
 27 C       10.4670     6.5380     0.9870 C.3   1 <1>  -0.2400 
 28 H        3.1020    -0.8330     1.2070 H     1 <1>   0.0800 
 29 H        2.5120     2.6290    -1.2600 H     1 <1>   0.0800 
 30 H        2.1160     1.0900    -1.9020 H     1 <1>   0.0800 
 31 H        0.6630     0.0950     0.2860 H     1 <1>   0.0800 
 32 H        1.0810     0.9380     1.7220 H     1 <1>   0.0800 
 33 H        2.6170    -0.8050    -1.5600 H     1 <1>   0.4000 
 34 H        4.9460    -1.3180    -0.7150 H     1 <1>   0.0800 
 35 H        5.2860    -0.4960     0.7710 H     1 <1>   0.0800 
 36 H        4.5890     2.4520    -2.0350 H     1 <1>   0.0800 
 37 H        4.1850     0.9190    -2.7280 H     1 <1>   0.0800 
 38 H        1.0810     3.5570     1.5950 H     1 <1>   0.1500 
 39 H       -0.7200     1.0510    -1.3460 H     1 <1>   0.1500 
 40 H       -0.3000     5.4290     0.8440 H     1 <1>   0.1500 
 41 H       -2.1040     2.9300    -2.0980 H     1 <1>   0.1500 
 42 H        5.7180     2.5430     1.2860 H     1 <1>   0.0800 
 43 H        5.4650     3.3760    -0.2090 H     1 <1>   0.0800 
 44 H       -1.9000     5.1270    -1.0060 H     1 <1>   0.1500 
 45 H        8.0810     2.8210     0.9900 H     1 <1>   0.4500 
 46 H        6.4320     5.2720     1.1580 H     1 <1>   0.0800 
 47 H        6.7340     4.1560     2.4650 H     1 <1>   0.0800 
 48 H        8.2370     3.1680    -1.3420 H     1 <1>   0.0800 
 49 H        7.3530     4.6720    -1.1760 H     1 <1>   0.0800 
 50 H        8.2150     6.1450     2.5620 H     1 <1>   0.0800 
 51 H        9.1100     4.6640     2.4260 H     1 <1>   0.0800 
 52 H       10.0630     4.0300    -0.0020 H     1 <1>   0.0800 
 53 H        9.7380     5.1400    -1.2950 H     1 <1>   0.0800 
 54 H        8.4910     6.6160     0.1900 H     1 <1>   0.0800 
 55 H       11.1430     5.8310     1.4360 H     1 <1>   0.0800 
 56 H       10.3110     7.3480     1.6780 H     1 <1>   0.0800 
 57 H       10.9300     6.9380     0.1020 H     1 <1>   0.0800 
@<TRIPOS>BOND
  1   1   2  ar  
  2   2   3  ar  
  3   2   4  1   
  4   4   5  1   
  5   4   6  1   
  6   4   7  1   
  7   5   8  1   
  8   5   9  1   
  9   5  28  1   
 10   6  10  1   
 11   6  29  1   
 12   6  30  1   
 13   7  11  1   
 14   7  31  1   
 15   7  32  1   
 16   8  33  1   
 17   9  12  1   
 18   9  34  1   
 19   9  35  1   
 20  10  12  1   
 21  10  36  1   
 22  10  37  1   
 23  11  13  ar  
 24  11  14  ar  
 25  12  15  am  
 26  13  16  ar  
 27  13  38  1   
 28  14  17  ar  
 29  14  39  1   
 30  15  18  2   
 31  15  19  1   
 32  16  20  ar  
 33  16  40  1   
 34  17  20  ar  
 35  17  41  1   
 36  19  21  1   
 37  19  42  1   
 38  19  43  1   
 39  20  44  1   
 40  21  22  1   
 41  21  23  1   
 42  21  45  1   
 43  22  24  1   
 44  22  46  1   
 45  22  47  1   
 46  23  25  1   
 47  23  48  1   
 48  23  49  1   
 49  24  26  1   
 50  24  50  1   
 51  24  51  1   
 52  25  26  1   
 53  25  52  1   
 54  25  53  1   
 55  26  27  1   
 56  26  54  1   
 57  27  55  1   
 58  27  56  1   
 59  27  57  1   
@<TRIPOS>SUBSTRUCTURE
  1 ****   1 GROUP 4 **** **** 0

# MOE 2024.06 (io_trps.svl 2023.06)
