@<TRIPOS>MOLECULE
NONAME
51 54 1 0 0 
SMALL
USER_CHARGES


@<TRIPOS>ATOM
  1 S       -1.1910     0.2520    -1.3920 S.3   1 <1>  -0.4600 
  2 C       -2.0760    -0.5330    -0.0170 C.3   1 <1>   0.0700 
  3 C       -0.5430     1.8080    -0.7080 C.3   1 <1>   0.0700 
  4 C       -3.4210     0.1880     0.1970 C.3   1 <1>   0.4230 
  5 C       -1.4660     2.9830    -1.0630 C.3   1 <1>   0.0700 
  6 N       -4.4030    -0.6480     0.9760 N.4   1 <1>  -0.9590 
  7 C       -3.1900     1.5630     0.8600 C.3   1 <1>   0.0700 
  8 S       -3.1830     2.8170    -0.4500 S.3   1 <1>  -0.4600 
  9 C       -5.7410     0.0250     1.0630 C.3   1 <1>   0.3430 
 10 C       -4.6710    -1.9680     0.3320 C.3   1 <1>   0.3430 
 11 C       -6.8110    -1.0600     0.9450 C.3   1 <1>  -0.0800 
 12 C       -6.0460    -2.3880     0.8310 C.3   1 <1>  -0.0800 
 13 C       -7.7380    -0.7670    -0.2530 C.3   1 <1>   0.4240 
 14 C       -6.7150    -3.4360    -0.0810 C.3   1 <1>  -0.1600 
 15 O       -6.9340    -0.7080    -1.3800 O.3   1 <1>  -0.6800 
 16 C       -8.4280     0.5980    -0.0660 C.ar  1 <1>  -0.1440 
 17 C       -8.7390    -1.9250    -0.4870 C.3   1 <1>  -0.1600 
 18 C       -8.2420    -3.3140    -0.0290 C.3   1 <1>  -0.1600 
 19 C       -8.1290     1.7100    -0.8540 C.ar  1 <1>  -0.1500 
 20 C       -9.3680     0.7550     0.9490 C.ar  1 <1>  -0.1500 
 21 C       -8.7530     2.9260    -0.6370 C.ar  1 <1>  -0.1500 
 22 C       -9.9920     1.9700     1.1670 C.ar  1 <1>  -0.1500 
 23 C       -9.6850     3.0580     0.3740 C.ar  1 <1>  -0.1500 
 24 H       -2.2080    -1.5530    -0.3230 H     1 <1>   0.0800 
 25 H       -1.4400    -0.4880     0.8490 H     1 <1>   0.0800 
 26 H       -0.4060     1.6930     0.3500 H     1 <1>   0.0800 
 27 H        0.4200     1.9560    -1.1650 H     1 <1>   0.0800 
 28 H       -3.8510     0.3640    -0.7770 H     1 <1>   0.0800 
 29 H       -1.5340     3.0950    -2.1310 H     1 <1>   0.0800 
 30 H       -1.0810     3.8960    -0.6440 H     1 <1>   0.0800 
 31 H       -4.0600    -0.8150     1.9290 H     1 <1>   0.4500 
 32 H       -2.2650     1.6290     1.4000 H     1 <1>   0.0800 
 33 H       -3.9950     1.8450     1.5120 H     1 <1>   0.0800 
 34 H       -5.8450     0.5620     1.9910 H     1 <1>   0.0800 
 35 H       -5.8530     0.7250     0.2490 H     1 <1>   0.0800 
 36 H       -4.7150    -1.8430    -0.7390 H     1 <1>   0.0800 
 37 H       -3.9180    -2.7000     0.5770 H     1 <1>   0.0800 
 38 H       -7.4080    -1.0690     1.8390 H     1 <1>   0.0800 
 39 H       -5.9380    -2.8070     1.8180 H     1 <1>   0.0800 
 40 H       -6.4010    -3.3050    -1.1040 H     1 <1>   0.0800 
 41 H       -6.4180    -4.4270     0.2200 H     1 <1>   0.0800 
 42 H       -7.5080    -0.5160    -2.1480 H     1 <1>   0.4000 
 43 H       -9.6560    -1.7310     0.0380 H     1 <1>   0.0800 
 44 H       -8.9990    -1.9610    -1.5300 H     1 <1>   0.0800 
 45 H       -8.5660    -3.4900     0.9840 H     1 <1>   0.0800 
 46 H       -8.6920    -4.0760    -0.6440 H     1 <1>   0.0800 
 47 H       -7.4060     1.6630    -1.6490 H     1 <1>   0.1500 
 48 H       -9.6310    -0.0680     1.5890 H     1 <1>   0.1500 
 49 H       -8.5110     3.7740    -1.2560 H     1 <1>   0.1500 
 50 H      -10.7200     2.0710     1.9540 H     1 <1>   0.1500 
 51 H      -10.1710     4.0050     0.5410 H     1 <1>   0.1500 
@<TRIPOS>BOND
  1   1   2  1   
  2   1   3  1   
  3   2   4  1   
  4   2  24  1   
  5   2  25  1   
  6   3   5  1   
  7   3  26  1   
  8   3  27  1   
  9   4   6  1   
 10   4   7  1   
 11   4  28  1   
 12   5   8  1   
 13   5  29  1   
 14   5  30  1   
 15   6   9  1   
 16   6  10  1   
 17   6  31  1   
 18   7   8  1   
 19   7  32  1   
 20   7  33  1   
 21   9  11  1   
 22   9  34  1   
 23   9  35  1   
 24  10  12  1   
 25  10  36  1   
 26  10  37  1   
 27  11  12  1   
 28  11  13  1   
 29  11  38  1   
 30  12  14  1   
 31  12  39  1   
 32  13  15  1   
 33  13  16  1   
 34  13  17  1   
 35  14  18  1   
 36  14  40  1   
 37  14  41  1   
 38  15  42  1   
 39  16  19  ar  
 40  16  20  ar  
 41  17  18  1   
 42  17  43  1   
 43  17  44  1   
 44  18  45  1   
 45  18  46  1   
 46  19  21  ar  
 47  19  47  1   
 48  20  22  ar  
 49  20  48  1   
 50  21  23  ar  
 51  21  49  1   
 52  22  23  ar  
 53  22  50  1   
 54  23  51  1   
@<TRIPOS>SUBSTRUCTURE
  1 ****   9 GROUP 4 **** **** 0

# MOE 2024.06 (io_trps.svl 2023.06)
