@<TRIPOS>MOLECULE
NONAME
51 54 1 0 0 
SMALL
USER_CHARGES


@<TRIPOS>ATOM
  1 F        0.6140    -2.1840     1.8350 F     1 <1>  -0.1900 
  2 C        1.5100    -2.1790     0.8820 C.ar  1 <1>   0.1900 
  3 C        1.1080    -2.3470    -0.4360 C.ar  1 <1>  -0.0320 
  4 C        2.8330    -2.0070     1.2420 C.ar  1 <1>  -0.1500 
  5 C        2.0930    -2.3540    -1.4140 C.ar  1 <1>  -0.1500 
  6 C       -0.3640    -2.5320    -0.7960 C.3   1 <1>   0.0320 
  7 C        3.7990    -2.0070     0.2510 C.ar  1 <1>  -0.1500 
  8 C        3.4270    -2.1830    -1.0730 C.ar  1 <1>  -0.1500 
  9 C       -0.8590    -3.9530    -0.4710 C.2   1 <1>   0.6300 
 10 C       -1.2270    -1.3100    -0.6130 C.3   1 <1>  -0.2000 
 11 C       -0.9330    -1.8120    -1.9910 C.3   1 <1>  -0.2000 
 12 O       -0.1300    -4.8950    -0.6980 O.2   1 <1>  -0.5700 
 13 N       -2.0990    -4.1800     0.0660 N.am  1 <1>  -0.6600 
 14 C       -2.1920    -5.2890     1.0680 C.3   1 <1>   0.1400 
 15 C       -3.2970    -4.0270    -0.8310 C.3   1 <1>   0.1400 
 16 C       -2.7230    -6.5120     0.3050 C.3   1 <1>   0.4230 
 17 C       -4.5180    -4.8470    -0.3700 C.3   1 <1>  -0.1600 
 18 N       -2.4260    -7.8730     0.8540 N.4   1 <1>  -0.9590 
 19 C       -4.2300    -6.3190     0.0720 C.3   1 <1>  -0.1060 
 20 C       -2.8260    -8.9280    -0.1170 C.3   1 <1>   0.3430 
 21 C       -1.0300    -8.0450     1.3340 C.3   1 <1>   0.2630 
 22 C       -5.0090    -6.5940     1.3720 C.2   1 <1>   0.9060 
 23 C       -4.6430    -7.3380    -1.0140 C.3   1 <1>  -0.1600 
 24 C       -4.2880    -8.7690    -0.5630 C.3   1 <1>  -0.1600 
 25 O       -6.2230    -6.4020     1.3820 O.co2 1 <1>  -0.9000 
 26 O       -4.4120    -7.0430     2.3630 O.co2 1 <1>  -0.9000 
 27 H        3.0970    -1.8780     2.2760 H     1 <1>   0.1500 
 28 H        1.8260    -2.4980    -2.4460 H     1 <1>   0.1500 
 29 H        4.8370    -1.8740     0.5060 H     1 <1>   0.1500 
 30 H        4.1790    -2.1880    -1.8440 H     1 <1>   0.1500 
 31 H       -2.2060    -1.4250    -0.1860 H     1 <1>   0.1000 
 32 H       -0.7560    -0.3990    -0.2890 H     1 <1>   0.1000 
 33 H       -0.2800    -1.2270    -2.6130 H     1 <1>   0.1000 
 34 H       -1.7250    -2.2730    -2.5530 H     1 <1>   0.1000 
 35 H       -1.2180    -5.4710     1.4820 H     1 <1>   0.0800 
 36 H       -2.8540    -5.0060     1.8690 H     1 <1>   0.0800 
 37 H       -3.5790    -2.9900    -0.8820 H     1 <1>   0.0800 
 38 H       -3.0250    -4.3420    -1.8250 H     1 <1>   0.0800 
 39 H       -2.2410    -6.4670    -0.6570 H     1 <1>   0.0800 
 40 H       -4.9420    -4.3100     0.4630 H     1 <1>   0.0800 
 41 H       -5.2740    -4.8310    -1.1350 H     1 <1>   0.0800 
 42 H       -3.0910    -7.9100     1.6730 H     1 <1>   0.4500 
 43 H       -2.1880    -8.8670    -0.9840 H     1 <1>   0.0800 
 44 H       -2.6970    -9.9000     0.3290 H     1 <1>   0.0800 
 45 H       -0.3330    -7.8390     0.5360 H     1 <1>   0.0800 
 46 H       -0.8790    -9.0520     1.6840 H     1 <1>   0.0800 
 47 H       -0.8330    -7.3690     2.1500 H     1 <1>   0.0800 
 48 H       -5.7060    -7.2730    -1.1820 H     1 <1>   0.0800 
 49 H       -4.1440    -7.1120    -1.9400 H     1 <1>   0.0800 
 50 H       -4.4850    -9.4540    -1.3680 H     1 <1>   0.0800 
 51 H       -4.9280    -9.0560     0.2540 H     1 <1>   0.0800 
@<TRIPOS>BOND
  1   1   2  1   
  2   2   3  ar  
  3   2   4  ar  
  4   3   5  ar  
  5   3   6  1   
  6   4   7  ar  
  7   4  27  1   
  8   5   8  ar  
  9   5  28  1   
 10   6   9  1   
 11   6  10  1   
 12   6  11  1   
 13   7   8  ar  
 14   7  29  1   
 15   8  30  1   
 16   9  12  2   
 17   9  13  am  
 18  10  11  1   
 19  10  31  1   
 20  10  32  1   
 21  11  33  1   
 22  11  34  1   
 23  13  14  1   
 24  13  15  1   
 25  14  16  1   
 26  14  35  1   
 27  14  36  1   
 28  15  17  1   
 29  15  37  1   
 30  15  38  1   
 31  16  18  1   
 32  16  19  1   
 33  16  39  1   
 34  17  19  1   
 35  17  40  1   
 36  17  41  1   
 37  18  20  1   
 38  18  21  1   
 39  18  42  1   
 40  19  22  1   
 41  19  23  1   
 42  20  24  1   
 43  20  43  1   
 44  20  44  1   
 45  21  45  1   
 46  21  46  1   
 47  21  47  1   
 48  22  25  ar  
 49  22  26  ar  
 50  23  24  1   
 51  23  48  1   
 52  23  49  1   
 53  24  50  1   
 54  24  51  1   
@<TRIPOS>SUBSTRUCTURE
  1 ****  13 GROUP 4 **** **** 0

# MOE 2024.06 (io_trps.svl 2023.06)
