@<TRIPOS>MOLECULE
NONAME
44 45 1 0 0 
SMALL
USER_CHARGES


@<TRIPOS>ATOM
  1 O        0.3000     1.2050    -1.0070 O.3   1 <1>  -0.6800 
  2 C       -0.4600     2.3750    -1.0900 C.3   1 <1>   0.2000 
  3 C       -1.4580     2.4480     0.1070 C.3   1 <1>   0.0000 
  4 C        0.5660     3.5230    -1.0730 C.3   1 <1>   0.3430 
  5 C       -0.6690     2.6870     1.4260 C.3   1 <1>  -0.1600 
  6 C       -2.2020     1.0850     0.2240 C.3   1 <1>   0.1200 
  7 C       -2.5620     3.5360    -0.1110 C.3   1 <1>  -0.1600 
  8 N        1.3370     3.4890     0.2070 N.4   1 <1>  -0.9590 
  9 C        0.4300     3.7520     1.3590 C.3   1 <1>   0.3430 
 10 O       -3.1300     1.0930     1.2560 O.3   1 <1>  -0.6800 
 11 C       -2.1790     4.9620    -0.5470 C.3   1 <1>  -0.1600 
 12 C        2.5290     4.3900     0.1770 C.3   1 <1>   0.4860 
 13 C       -3.4100     5.8720    -0.5460 C.3   1 <1>  -0.2400 
 14 C        2.1040     5.8340    -0.0260 C.ar  1 <1>  -0.1440 
 15 C        1.8170     6.6330     1.0720 C.ar  1 <1>   0.1600 
 16 C        1.9940     6.3810    -1.2910 C.ar  1 <1>  -0.1500 
 17 N        1.4010     7.8830     1.0060 N.ar  1 <1>  -0.6200 
 18 C        1.5750     7.6920    -1.3730 C.ar  1 <1>  -0.1500 
 19 C        1.2910     8.3880    -0.2110 C.ar  1 <1>   0.1600 
 20 H       -0.2140     0.4270    -1.3140 H     1 <1>   0.4000 
 21 H       -0.9890     2.3640    -2.0290 H     1 <1>   0.0800 
 22 H        0.0850     4.4770    -1.1830 H     1 <1>   0.0800 
 23 H        1.2330     3.3930    -1.9090 H     1 <1>   0.0800 
 24 H       -0.1980     1.7670     1.7270 H     1 <1>   0.0800 
 25 H       -1.3510     2.9540     2.2140 H     1 <1>   0.0800 
 26 H       -1.5250     0.2690     0.4130 H     1 <1>   0.0800 
 27 H       -2.7420     0.8750    -0.6840 H     1 <1>   0.0800 
 28 H       -3.2520     3.1650    -0.8520 H     1 <1>   0.0800 
 29 H       -3.1330     3.6210     0.7980 H     1 <1>   0.0800 
 30 H        1.6500     2.5060     0.2770 H     1 <1>   0.4500 
 31 H        0.9910     3.7350     2.2800 H     1 <1>   0.0800 
 32 H       -0.0140     4.7290     1.2630 H     1 <1>   0.0800 
 33 H       -2.7020     1.0100     2.1290 H     1 <1>   0.4000 
 34 H       -1.4530     5.3950     0.1150 H     1 <1>   0.0800 
 35 H       -1.7870     4.9540    -1.5490 H     1 <1>   0.0800 
 36 H        3.0780     4.3030     1.1010 H     1 <1>   0.0800 
 37 H        3.1860     4.0980    -0.6270 H     1 <1>   0.0800 
 38 H       -3.8320     5.9400     0.4420 H     1 <1>   0.0800 
 39 H       -4.1640     5.4930    -1.2160 H     1 <1>   0.0800 
 40 H       -3.1400     6.8630    -0.8670 H     1 <1>   0.0800 
 41 H        1.9270     6.2310     2.0650 H     1 <1>   0.1500 
 42 H        2.2260     5.8280    -2.1860 H     1 <1>   0.1500 
 43 H        1.4700     8.1790    -2.3270 H     1 <1>   0.1500 
 44 H        0.9610     9.4120    -0.2860 H     1 <1>   0.1500 
@<TRIPOS>BOND
  1   1   2  1   
  2   1  20  1   
  3   2   3  1   
  4   2   4  1   
  5   2  21  1   
  6   3   5  1   
  7   3   6  1   
  8   3   7  1   
  9   4   8  1   
 10   4  22  1   
 11   4  23  1   
 12   5   9  1   
 13   5  24  1   
 14   5  25  1   
 15   6  10  1   
 16   6  26  1   
 17   6  27  1   
 18   7  11  1   
 19   7  28  1   
 20   7  29  1   
 21   8   9  1   
 22   8  12  1   
 23   8  30  1   
 24   9  31  1   
 25   9  32  1   
 26  10  33  1   
 27  11  13  1   
 28  11  34  1   
 29  11  35  1   
 30  12  14  1   
 31  12  36  1   
 32  12  37  1   
 33  13  38  1   
 34  13  39  1   
 35  13  40  1   
 36  14  15  ar  
 37  14  16  ar  
 38  15  17  ar  
 39  15  41  1   
 40  16  18  ar  
 41  16  42  1   
 42  17  19  ar  
 43  18  19  ar  
 44  18  43  1   
 45  19  44  1   
@<TRIPOS>SUBSTRUCTURE
  1 ****   4 GROUP 4 **** **** 0

# MOE 2024.06 (io_trps.svl 2023.06)
