@<TRIPOS>MOLECULE
NONAME
44 46 1 0 0 
SMALL
USER_CHARGES


@<TRIPOS>ATOM
  1 F       -0.0240    -1.3590     0.4260 F     1 <1>  -0.1900 
  2 C       -1.3250    -1.3680     0.2950 C.ar  1 <1>   0.1900 
  3 C       -1.9450    -0.2900    -0.3290 C.ar  1 <1>   0.0860 
  4 C       -2.0160    -2.4470     0.8080 C.ar  1 <1>  -0.1500 
  5 C       -3.3400    -0.3170    -0.4120 C.ar  1 <1>   0.0820 
  6 C       -1.1700     0.7990    -0.8610 C.2   1 <1>   0.5440 
  7 C       -3.3960    -2.4590     0.7080 C.ar  1 <1>  -0.1500 
  8 O       -3.9490     0.7400    -1.0040 O.3   1 <1>  -0.3630 
  9 C       -4.0530    -1.4000     0.1040 C.ar  1 <1>  -0.1500 
 10 O       -0.5330     0.6850    -1.8930 O.2   1 <1>  -0.5700 
 11 N       -1.0250     1.9780    -0.1760 N.am  1 <1>  -0.6600 
 12 C       -5.3390     0.7750    -1.2460 C.3   1 <1>   0.0400 
 13 C       -0.1160     1.9690     1.0210 C.3   1 <1>   0.2200 
 14 C       -1.2210     3.2560    -0.9270 C.3   1 <1>   0.1400 
 15 C       -0.3420     3.1620     1.9640 C.3   1 <1>   0.1200 
 16 C        1.3690     1.8850     0.5780 C.3   1 <1>   0.3430 
 17 C       -0.0640     4.2660    -0.8000 C.3   1 <1>  -0.0800 
 18 O        0.4270     4.2580     1.5670 O.3   1 <1>  -0.5600 
 19 N        1.5740     2.2830    -0.8600 N.4   1 <1>  -0.9590 
 20 C       -0.1020     5.0230     0.5370 C.3   1 <1>   0.1200 
 21 C        1.3490     3.7370    -1.1350 C.3   1 <1>   0.3430 
 22 C        2.8810     1.8060    -1.3870 C.3   1 <1>   0.2630 
 23 H       -1.4880    -3.2590     1.2770 H     1 <1>   0.1500 
 24 H       -3.9570    -3.2920     1.1000 H     1 <1>   0.1500 
 25 H       -5.1250    -1.4380     0.0460 H     1 <1>   0.1500 
 26 H       -5.5660     1.6900    -1.7650 H     1 <1>   0.0800 
 27 H       -5.8610     0.7520    -0.3050 H     1 <1>   0.0800 
 28 H       -5.6100    -0.0670    -1.8590 H     1 <1>   0.0800 
 29 H       -0.3390     1.0880     1.5970 H     1 <1>   0.0800 
 30 H       -1.3680     3.0290    -1.9710 H     1 <1>   0.0800 
 31 H       -2.1340     3.7110    -0.5830 H     1 <1>   0.0800 
 32 H       -0.0050     2.8980     2.9510 H     1 <1>   0.0800 
 33 H       -1.3820     3.4350     2.0250 H     1 <1>   0.0800 
 34 H        1.6870     0.8640     0.7040 H     1 <1>   0.0800 
 35 H        1.9760     2.4960     1.2250 H     1 <1>   0.0800 
 36 H       -0.2690     5.0240    -1.5350 H     1 <1>   0.0800 
 37 H        0.8150     1.7740    -1.3720 H     1 <1>   0.4500 
 38 H       -1.1040     5.3210     0.7990 H     1 <1>   0.0800 
 39 H        0.5010     5.9120     0.4700 H     1 <1>   0.0800 
 40 H        2.0760     4.3200    -0.5930 H     1 <1>   0.0800 
 41 H        1.5190     3.9050    -2.1860 H     1 <1>   0.0800 
 42 H        3.6930     2.2910    -0.8710 H     1 <1>   0.0800 
 43 H        2.9570     2.0220    -2.4400 H     1 <1>   0.0800 
 44 H        2.9670     0.7400    -1.2510 H     1 <1>   0.0800 
@<TRIPOS>BOND
  1   1   2  1   
  2   2   3  ar  
  3   2   4  ar  
  4   3   5  ar  
  5   3   6  1   
  6   4   7  ar  
  7   4  23  1   
  8   5   8  1   
  9   5   9  ar  
 10   6  10  2   
 11   6  11  am  
 12   7   9  ar  
 13   7  24  1   
 14   8  12  1   
 15   9  25  1   
 16  11  13  1   
 17  11  14  1   
 18  12  26  1   
 19  12  27  1   
 20  12  28  1   
 21  13  15  1   
 22  13  16  1   
 23  13  29  1   
 24  14  17  1   
 25  14  30  1   
 26  14  31  1   
 27  15  18  1   
 28  15  32  1   
 29  15  33  1   
 30  16  19  1   
 31  16  34  1   
 32  16  35  1   
 33  17  20  1   
 34  17  21  1   
 35  17  36  1   
 36  18  20  1   
 37  19  21  1   
 38  19  22  1   
 39  19  37  1   
 40  20  38  1   
 41  20  39  1   
 42  21  40  1   
 43  21  41  1   
 44  22  42  1   
 45  22  43  1   
 46  22  44  1   
@<TRIPOS>SUBSTRUCTURE
  1 ****  11 GROUP 4 **** **** 0

# MOE 2024.06 (io_trps.svl 2023.06)
