@<TRIPOS>MOLECULE
NONAME
49 52 1 0 0 
SMALL
USER_CHARGES


@<TRIPOS>ATOM
  1 O        0.2140     0.8910     0.2010 O.2   1 <1>  -0.5700 
  2 C       -0.4750     1.9000     0.2120 C.2   1 <1>   0.7160 
  3 N       -1.8400     1.7400     0.0090 N.am  1 <1>  -0.6600 
  4 C        0.1840     3.1830     0.4540 C.2   1 <1>   0.1410 
  5 C       -2.8770     2.7440     0.4070 C.3   1 <1>   0.1400 
  6 C       -2.4140     0.4640    -0.5040 C.3   1 <1>   0.1400 
  7 N       -0.2550     4.4150     0.0410 N.2   1 <1>  -0.5650 
  8 C        1.3700     3.3600     1.1080 C.2   1 <1>  -0.3020 
  9 C       -3.8050     3.0820    -0.7760 C.3   1 <1>   0.1430 
 10 C       -3.3480     0.7470    -1.6890 C.3   1 <1>  -0.1600 
 11 C        0.6420     5.2460     0.4510 C.2   1 <1>   0.0360 
 12 N        1.6640     4.6640     1.1120 N.pl3 1 <1>   0.0480 
 13 C       -4.8510     4.0700    -0.2950 C.ar  1 <1>   0.1670 
 14 C       -4.4290     1.7830    -1.3320 C.3   1 <1>  -0.1600 
 15 C       -3.0710     3.8910    -1.8780 C.3   1 <1>  -0.1600 
 16 C        2.8490     5.3140     1.6940 C.3   1 <1>   0.0160 
 17 N       -5.8770     3.7840     0.4690 N.ar  1 <1>  -0.6200 
 18 C       -4.5890     5.3290    -0.7430 C.ar  1 <1>  -0.1430 
 19 C       -3.3390     5.3770    -1.5860 C.3   1 <1>  -0.0170 
 20 C       -6.6650     4.8170     0.7750 C.ar  1 <1>   0.7200 
 21 C       -5.4540     6.3290    -0.3770 C.ar  1 <1>   0.1600 
 22 N       -6.4970     6.0840     0.3810 N.ar  1 <1>  -0.6200 
 23 N       -7.7570     4.5510     1.5780 N.pl3 1 <1>  -0.8380 
 24 C       -8.2370     3.1640     1.8260 C.3   1 <1>   0.1290 
 25 C       -8.5340     5.6350     2.2400 C.3   1 <1>   0.1290 
 26 H       -2.4350     3.6420     0.7950 H     1 <1>   0.0800 
 27 H       -3.4710     2.3220     1.1990 H     1 <1>   0.0800 
 28 H       -2.9620    -0.0140     0.2890 H     1 <1>   0.0800 
 29 H       -1.6340    -0.2070    -0.8210 H     1 <1>   0.0800 
 30 H        1.9940     2.6030     1.5490 H     1 <1>   0.1500 
 31 H       -3.8170    -0.1710    -1.9930 H     1 <1>   0.0800 
 32 H       -2.7580     1.1000    -2.5170 H     1 <1>   0.0800 
 33 H        0.6020     6.3090     0.2910 H     1 <1>   0.1500 
 34 H       -5.0350     2.0020    -2.1930 H     1 <1>   0.0800 
 35 H       -5.0760     1.3620    -0.5820 H     1 <1>   0.0800 
 36 H       -3.4980     3.6590    -2.8370 H     1 <1>   0.0800 
 37 H       -2.0180     3.6760    -1.9190 H     1 <1>   0.0800 
 38 H        3.3960     4.6020     2.2830 H     1 <1>   0.0800 
 39 H        2.5370     6.1310     2.3190 H     1 <1>   0.0800 
 40 H        3.4760     5.6820     0.9030 H     1 <1>   0.0800 
 41 H       -3.4830     5.9390    -2.4920 H     1 <1>   0.0800 
 42 H       -2.5320     5.8000    -1.0140 H     1 <1>   0.0800 
 43 H       -5.2880     7.3390    -0.7080 H     1 <1>   0.1500 
 44 H       -8.0040     2.5290     0.9890 H     1 <1>   0.0800 
 45 H       -9.3040     3.1600     1.9660 H     1 <1>   0.0800 
 46 H       -7.7600     2.7710     2.7070 H     1 <1>   0.0800 
 47 H       -7.9030     6.4850     2.4370 H     1 <1>   0.0800 
 48 H       -8.9320     5.2870     3.1770 H     1 <1>   0.0800 
 49 H       -9.3420     5.9410     1.5990 H     1 <1>   0.0800 
@<TRIPOS>BOND
  1   1   2  2   
  2   2   3  am  
  3   2   4  1   
  4   3   5  1   
  5   3   6  1   
  6   4   7  1   
  7   4   8  2   
  8   5   9  1   
  9   5  26  1   
 10   5  27  1   
 11   6  10  1   
 12   6  28  1   
 13   6  29  1   
 14   7  11  2   
 15   8  12  1   
 16   8  30  1   
 17   9  13  1   
 18   9  14  1   
 19   9  15  1   
 20  10  14  1   
 21  10  31  1   
 22  10  32  1   
 23  11  12  1   
 24  11  33  1   
 25  12  16  1   
 26  13  17  ar  
 27  13  18  ar  
 28  14  34  1   
 29  14  35  1   
 30  15  19  1   
 31  15  36  1   
 32  15  37  1   
 33  16  38  1   
 34  16  39  1   
 35  16  40  1   
 36  17  20  ar  
 37  18  19  1   
 38  18  21  ar  
 39  19  41  1   
 40  19  42  1   
 41  20  22  ar  
 42  20  23  1   
 43  21  22  ar  
 44  21  43  1   
 45  23  24  1   
 46  23  25  1   
 47  24  44  1   
 48  24  45  1   
 49  24  46  1   
 50  25  47  1   
 51  25  48  1   
 52  25  49  1   
@<TRIPOS>SUBSTRUCTURE
  1 ****   5 GROUP 4 **** **** 0

# MOE 2024.06 (io_trps.svl 2023.06)
