@<TRIPOS>MOLECULE
NONAME
45 47 1 0 0 
SMALL
USER_CHARGES


@<TRIPOS>ATOM
  1 CL      -3.4220    -0.5210     4.2420 Cl    1 <1>  -0.1770 
  2 C       -3.4820    -0.9280     2.5480 C.ar  1 <1>   0.1770 
  3 C       -4.0630    -0.0420     1.6610 C.ar  1 <1>  -0.1500 
  4 C       -2.9520    -2.1290     2.1200 C.ar  1 <1>  -0.1500 
  5 C       -4.1310    -0.3450     0.3060 C.ar  1 <1>  -0.0090 
  6 C       -3.0070    -2.4430     0.7740 C.ar  1 <1>  -0.1500 
  7 S       -4.8920     0.8130    -0.8660 S.o2  1 <1>   1.4470 
  8 C       -3.5910    -1.5570    -0.1180 C.ar  1 <1>  -0.1500 
  9 O       -5.2140     0.1290    -2.1000 O.2   1 <1>  -0.6500 
 10 O       -4.1000     2.0230    -0.9050 O.2   1 <1>  -0.6500 
 11 N       -6.3600     1.2020    -0.1100 N.am  1 <1>  -0.8490 
 12 C       -7.3440     0.1030    -0.1150 C.3   1 <1>   0.1960 
 13 C       -6.8770     2.4960    -0.5750 C.3   1 <1>   0.1960 
 14 C       -8.5100     0.3800    -1.0680 C.3   1 <1>  -0.1600 
 15 C       -8.3030     2.7020    -0.0700 C.3   1 <1>  -0.1600 
 16 C       -9.2770     1.6670    -0.6870 C.3   1 <1>   0.2800 
 17 O       -9.7720     2.1540    -1.9050 O.3   1 <1>  -0.5600 
 18 C      -10.4600     1.3240     0.2500 C.3   1 <1>  -0.1600 
 19 C      -10.7000     3.2030    -1.9200 C.3   1 <1>   0.1200 
 20 C      -11.5460     2.4000     0.3230 C.3   1 <1>   0.2800 
 21 C      -11.9300     2.8410    -1.0870 C.3   1 <1>  -0.1600 
 22 O      -11.0500     3.4870     0.9980 O.3   1 <1>  -0.6800 
 23 C      -12.7620     1.9260     1.1160 C.3   1 <1>  -0.2400 
 24 H       -4.4640     0.8880     2.0260 H     1 <1>   0.1500 
 25 H       -2.5040    -2.8010     2.8300 H     1 <1>   0.1500 
 26 H       -2.5960    -3.3740     0.4200 H     1 <1>   0.1500 
 27 H       -3.6270    -1.8110    -1.1650 H     1 <1>   0.1500 
 28 H       -7.7320    -0.0090     0.8830 H     1 <1>   0.0800 
 29 H       -6.8750    -0.8300    -0.3820 H     1 <1>   0.0800 
 30 H       -6.8690     2.5330    -1.6540 H     1 <1>   0.0800 
 31 H       -6.2410     3.2850    -0.2080 H     1 <1>   0.0800 
 32 H       -9.1660    -0.4700    -1.0770 H     1 <1>   0.0800 
 33 H       -8.1060     0.4720    -2.0620 H     1 <1>   0.0800 
 34 H       -8.5980     3.7090    -0.2830 H     1 <1>   0.0800 
 35 H       -8.2820     2.5970     1.0000 H     1 <1>   0.0800 
 36 H      -10.1040     1.0950     1.2380 H     1 <1>   0.0800 
 37 H      -10.9320     0.4320    -0.1200 H     1 <1>   0.0800 
 38 H      -10.9860     3.3630    -2.9450 H     1 <1>   0.0800 
 39 H      -10.2330     4.1020    -1.5610 H     1 <1>   0.0800 
 40 H      -12.4440     2.0380    -1.5850 H     1 <1>   0.0800 
 41 H      -12.6050     3.6770    -1.0410 H     1 <1>   0.0800 
 42 H      -10.2590     3.8140     0.5350 H     1 <1>   0.4000 
 43 H      -13.2130     1.0760     0.6370 H     1 <1>   0.0800 
 44 H      -13.4960     2.7100     1.1770 H     1 <1>   0.0800 
 45 H      -12.4700     1.6410     2.1110 H     1 <1>   0.0800 
@<TRIPOS>BOND
  1   1   2  1   
  2   2   3  ar  
  3   2   4  ar  
  4   3   5  ar  
  5   3  24  1   
  6   4   6  ar  
  7   4  25  1   
  8   5   7  1   
  9   5   8  ar  
 10   6   8  ar  
 11   6  26  1   
 12   7   9  2   
 13   7  10  2   
 14   7  11  am  
 15   8  27  1   
 16  11  12  1   
 17  11  13  1   
 18  12  14  1   
 19  12  28  1   
 20  12  29  1   
 21  13  15  1   
 22  13  30  1   
 23  13  31  1   
 24  14  16  1   
 25  14  32  1   
 26  14  33  1   
 27  15  16  1   
 28  15  34  1   
 29  15  35  1   
 30  16  17  1   
 31  16  18  1   
 32  17  19  1   
 33  18  20  1   
 34  18  36  1   
 35  18  37  1   
 36  19  21  1   
 37  19  38  1   
 38  19  39  1   
 39  20  21  1   
 40  20  22  1   
 41  20  23  1   
 42  21  40  1   
 43  21  41  1   
 44  22  42  1   
 45  23  43  1   
 46  23  44  1   
 47  23  45  1   
@<TRIPOS>SUBSTRUCTURE
  1 ****  11 GROUP 4 **** **** 0

# MOE 2024.06 (io_trps.svl 2023.06)
