@<TRIPOS>MOLECULE
NONAME
40 42 1 0 0 
SMALL
USER_CHARGES


@<TRIPOS>ATOM
  1 S       -0.1010     0.2310    -1.1470 S.3   1 <1>  -0.0800 
  2 C       -1.6480     0.5030    -0.3850 C.2   1 <1>  -0.1400 
  3 C        0.3620     1.8910    -0.8530 C.2   1 <1>  -0.1100 
  4 C       -1.7720     1.7730     0.0310 C.2   1 <1>  -0.1810 
  5 C       -2.6500    -0.6240    -0.2660 C.3   1 <1>   0.0200 
  6 C       -0.6130     2.6000    -0.2240 C.2   1 <1>  -0.0860 
  7 C       -3.0470     2.2510     0.7160 C.3   1 <1>   0.0210 
  8 C       -3.7600    -0.2110     0.7170 C.3   1 <1>  -0.1600 
  9 C       -0.5130     4.0000     0.1420 C.2   1 <1>   0.7160 
 10 C       -4.2030     1.2510     0.5060 C.3   1 <1>  -0.1600 
 11 O       -1.0770     4.4460     1.1240 O.2   1 <1>  -0.5700 
 12 N        0.2370     4.8250    -0.6480 N.am  1 <1>  -0.4930 
 13 C        0.5260     6.2050    -0.5010 C.2   1 <1>   0.0630 
 14 C        0.1670     7.0890     0.5180 C.2   1 <1>   0.1390 
 15 C        1.2440     6.9560    -1.3610 C.2   1 <1>  -0.3020 
 16 N        0.6230     8.2900     0.3140 N.2   1 <1>  -0.7070 
 17 N        1.2900     8.2090    -0.8550 N.pl3 1 <1>   0.3140 
 18 C        1.9680     9.3740    -1.4400 C.3   1 <1>   0.1570 
 19 C        3.3020     9.5910    -0.7620 C.2   1 <1>   0.5690 
 20 O        4.2670     9.8070    -1.4550 O.2   1 <1>  -0.5700 
 21 N        3.3790     9.5500     0.5960 N.am  1 <1>  -0.7300 
 22 C        4.6040     9.7470     1.4090 C.3   1 <1>   0.0600 
 23 H        1.3450     2.1770    -1.1790 H     1 <1>   0.1500 
 24 H       -2.1630    -1.5170     0.0840 H     1 <1>   0.0800 
 25 H       -3.0690    -0.8200    -1.2380 H     1 <1>   0.0800 
 26 H       -3.3380     3.2100     0.3260 H     1 <1>   0.0800 
 27 H       -2.8500     2.3640     1.7670 H     1 <1>   0.0800 
 28 H       -3.3880    -0.3160     1.7220 H     1 <1>   0.0800 
 29 H       -4.6020    -0.8720     0.6060 H     1 <1>   0.0800 
 30 H       -4.5740     1.3580    -0.4990 H     1 <1>   0.0800 
 31 H       -5.0050     1.4910     1.1800 H     1 <1>   0.0800 
 32 H        0.6090     4.3890    -1.4870 H     1 <1>   0.3700 
 33 H       -0.4210     6.8140     1.3780 H     1 <1>   0.1500 
 34 H        1.7190     6.6800    -2.2840 H     1 <1>   0.1500 
 35 H        1.3520    10.2410    -1.3000 H     1 <1>   0.0800 
 36 H        2.1160     9.2090    -2.4890 H     1 <1>   0.0800 
 37 H        2.5270     9.2700     1.1080 H     1 <1>   0.3700 
 38 H        5.4350    10.0060     0.7750 H     1 <1>   0.0800 
 39 H        4.8380     8.8390     1.9370 H     1 <1>   0.0800 
 40 H        4.4460    10.5400     2.1180 H     1 <1>   0.0800 
@<TRIPOS>BOND
  1   1   2  1   
  2   1   3  1   
  3   2   4  2   
  4   2   5  1   
  5   3   6  2   
  6   3  23  1   
  7   4   6  1   
  8   4   7  1   
  9   5   8  1   
 10   5  24  1   
 11   5  25  1   
 12   6   9  1   
 13   7  10  1   
 14   7  26  1   
 15   7  27  1   
 16   8  10  1   
 17   8  28  1   
 18   8  29  1   
 19   9  11  2   
 20   9  12  am  
 21  10  30  1   
 22  10  31  1   
 23  12  13  1   
 24  12  32  1   
 25  13  14  1   
 26  13  15  2   
 27  14  16  2   
 28  14  33  1   
 29  15  17  1   
 30  15  34  1   
 31  16  17  1   
 32  17  18  1   
 33  18  19  1   
 34  18  35  1   
 35  18  36  1   
 36  19  20  2   
 37  19  21  am  
 38  21  22  1   
 39  21  37  1   
 40  22  38  1   
 41  22  39  1   
 42  22  40  1   
@<TRIPOS>SUBSTRUCTURE
  1 ****  12 GROUP 4 **** **** 0

# MOE 2024.06 (io_trps.svl 2023.06)
