@<TRIPOS>MOLECULE
NONAME
49 51 1 0 0 
SMALL
USER_CHARGES


@<TRIPOS>ATOM
  1 O        2.9140    -2.8530    -2.4990 O.2   1 <1>  -0.5700 
  2 C        2.5440    -2.1280    -1.6010 C.2   1 <1>   0.6300 
  3 N        2.6040    -0.7620    -1.7470 N.am  1 <1>  -0.6600 
  4 C        2.0330    -2.8000    -0.3080 C.3   1 <1>   0.0320 
  5 C        1.9110     0.2130    -0.8470 C.3   1 <1>   0.3210 
  6 C        3.3730    -0.1510    -2.8600 C.3   1 <1>   0.1400 
  7 C        0.5060    -2.7630    -0.2160 C.ar  1 <1>  -0.0320 
  8 C        2.9570    -3.0080     0.8780 C.3   1 <1>  -0.1900 
  9 C        2.6100    -4.1670     0.0210 C.3   1 <1>  -0.2000 
 10 C        2.7450     0.6490     0.3560 C.2   1 <1>   0.3350 
 11 C        2.4390     0.1430    -4.0320 C.3   1 <1>  -0.2400 
 12 C       -0.2380    -3.4660    -1.1510 C.ar  1 <1>  -0.1500 
 13 C       -0.1640    -2.0440     0.7640 C.ar  1 <1>  -0.1500 
 14 C        4.4090    -2.5100     0.8190 C.3   1 <1>  -0.1450 
 15 C        2.4590    -3.0630     2.3290 C.3   1 <1>  -0.1450 
 16 N        2.3920     0.5000     1.5720 N.2   1 <1>  -0.4100 
 17 N        3.9180     1.2620     0.2220 N.2   1 <1>  -0.5650 
 18 C       -1.6220    -3.4520    -1.1090 C.ar  1 <1>  -0.1500 
 19 C       -1.5470    -2.0290     0.8080 C.ar  1 <1>  -0.1500 
 20 O        3.3350     0.9980     2.3100 O.3   1 <1>  -0.0190 
 21 C        4.2150     1.4370     1.4450 C.2   1 <1>   0.2980 
 22 C       -2.2840    -2.7320    -0.1290 C.ar  1 <1>  -0.1440 
 23 C        5.4740     2.0970     1.9570 C.3   1 <1>  -0.0600 
 24 C       -3.8010    -2.7190    -0.0810 C.3   1 <1>  -0.0970 
 25 H        0.9850    -0.2000    -0.5070 H     1 <1>   0.0800 
 26 H        1.6630     1.0940    -1.4090 H     1 <1>   0.0800 
 27 H        4.1480    -0.8280    -3.1800 H     1 <1>   0.0800 
 28 H        3.8490     0.7550    -2.5220 H     1 <1>   0.0800 
 29 H        3.3600    -4.5830    -0.6290 H     1 <1>   0.1000 
 30 H        1.9440    -4.9210     0.4000 H     1 <1>   0.1000 
 31 H        1.9770    -0.7690    -4.3680 H     1 <1>   0.0800 
 32 H        3.0040     0.5560    -4.8480 H     1 <1>   0.0800 
 33 H        1.6780     0.8480    -3.7530 H     1 <1>   0.0800 
 34 H        0.2680    -4.0260    -1.9190 H     1 <1>   0.1500 
 35 H        0.3900    -1.4860     1.4970 H     1 <1>   0.1500 
 36 H        4.7970    -2.5470    -0.1840 H     1 <1>   0.0800 
 37 H        5.0360    -3.1240     1.4390 H     1 <1>   0.0800 
 38 H        4.4710    -1.4970     1.1690 H     1 <1>   0.0800 
 39 H        1.4890    -3.5230     2.3910 H     1 <1>   0.0800 
 40 H        2.3980    -2.0710     2.7400 H     1 <1>   0.0800 
 41 H        3.1360    -3.6400     2.9320 H     1 <1>   0.0800 
 42 H       -2.1780    -4.0060    -1.8450 H     1 <1>   0.1500 
 43 H       -2.0460    -1.4670     1.5780 H     1 <1>   0.1500 
 44 H        6.0910     2.4000     1.1310 H     1 <1>   0.0800 
 45 H        6.0220     1.4040     2.5690 H     1 <1>   0.0800 
 46 H        5.2190     2.9610     2.5410 H     1 <1>   0.0800 
 47 H       -4.2100    -2.8310    -1.0690 H     1 <1>   0.0800 
 48 H       -4.1560    -1.7900     0.3300 H     1 <1>   0.0800 
 49 H       -4.1510    -3.5280     0.5350 H     1 <1>   0.0800 
@<TRIPOS>BOND
  1   1   2  2   
  2   2   3  am  
  3   2   4  1   
  4   3   5  1   
  5   3   6  1   
  6   4   7  1   
  7   4   8  1   
  8   4   9  1   
  9   5  10  1   
 10   5  25  1   
 11   5  26  1   
 12   6  11  1   
 13   6  27  1   
 14   6  28  1   
 15   7  12  ar  
 16   7  13  ar  
 17   8   9  1   
 18   8  14  1   
 19   8  15  1   
 20   9  29  1   
 21   9  30  1   
 22  10  16  2   
 23  10  17  1   
 24  11  31  1   
 25  11  32  1   
 26  11  33  1   
 27  12  18  ar  
 28  12  34  1   
 29  13  19  ar  
 30  13  35  1   
 31  14  36  1   
 32  14  37  1   
 33  14  38  1   
 34  15  39  1   
 35  15  40  1   
 36  15  41  1   
 37  16  20  1   
 38  17  21  2   
 39  18  22  ar  
 40  18  42  1   
 41  19  22  ar  
 42  19  43  1   
 43  20  21  1   
 44  21  23  1   
 45  22  24  1   
 46  23  44  1   
 47  23  45  1   
 48  23  46  1   
 49  24  47  1   
 50  24  48  1   
 51  24  49  1   
@<TRIPOS>SUBSTRUCTURE
  1 ****   4 GROUP 4 **** **** 0

# MOE 2024.06 (io_trps.svl 2023.06)
