@<TRIPOS>MOLECULE
NONAME
44 46 1 0 0 
SMALL
USER_CHARGES


@<TRIPOS>ATOM
  1 F       -0.4630    -1.2880    -1.1580 F     1 <1>  -0.3400 
  2 C       -1.4670    -1.5910    -0.3500 C.3   1 <1>   1.3000 
  3 F       -1.0100    -2.4420     0.5620 F     1 <1>  -0.3400 
  4 F       -1.8430    -0.4780     0.2680 F     1 <1>  -0.3400 
  5 O       -2.5300    -2.1570    -1.0900 O.3   1 <1>  -0.3630 
  6 C       -3.6140    -2.5660    -0.4020 C.ar  1 <1>   0.0830 
  7 C       -3.6950    -3.8810     0.0290 C.ar  1 <1>  -0.1500 
  8 C       -4.6460    -1.6790    -0.1430 C.ar  1 <1>  -0.1500 
  9 C       -4.8090    -4.3130     0.7330 C.ar  1 <1>  -0.1440 
 10 C       -5.7540    -2.1050     0.5660 C.ar  1 <1>  -0.1500 
 11 C       -5.8340    -3.4160     1.0050 C.ar  1 <1>  -0.1500 
 12 C       -4.9180    -5.7510     1.2040 C.3   1 <1>   0.4870 
 13 N       -5.1960    -6.6340     0.0350 N.4   1 <1>  -0.9590 
 14 C       -6.5120    -6.2950    -0.5920 C.3   1 <1>   0.3430 
 15 C       -5.2880    -8.0630     0.4730 C.3   1 <1>   0.3430 
 16 C       -7.5230    -7.2530     0.0420 C.3   1 <1>   0.2000 
 17 C       -6.7250    -8.5450     0.1970 C.3   1 <1>  -0.0800 
 18 O       -7.8430    -6.7820     1.3120 O.3   1 <1>  -0.6800 
 19 C       -6.8170    -9.4220    -1.0710 C.3   1 <1>  -0.0170 
 20 C       -6.1380   -10.7730    -0.8900 C.ar  1 <1>   0.1670 
 21 N       -4.8150   -10.7640    -0.8510 N.ar  1 <1>  -0.6200 
 22 C       -6.9030   -11.9340    -0.7780 C.ar  1 <1>   0.1600 
 23 C       -4.3130   -11.9820    -0.7070 C.ar  1 <1>   0.1600 
 24 N       -6.4030   -13.1460    -0.6220 N.ar  1 <1>  -0.6200 
 25 C       -5.0820   -13.1350    -0.5950 C.ar  1 <1>   0.1600 
 26 H       -2.8790    -4.5480    -0.1900 H     1 <1>   0.1500 
 27 H       -4.5830    -0.6610    -0.4890 H     1 <1>   0.1500 
 28 H       -6.5530    -1.4140     0.7770 H     1 <1>   0.1500 
 29 H       -6.7050    -3.7270     1.5600 H     1 <1>   0.1500 
 30 H       -5.7130    -5.8350     1.9280 H     1 <1>   0.0800 
 31 H       -3.9950    -6.0420     1.6780 H     1 <1>   0.0800 
 32 H       -4.4410    -6.5020    -0.6490 H     1 <1>   0.4500 
 33 H       -6.7960    -5.2680    -0.4370 H     1 <1>   0.0800 
 34 H       -6.4630    -6.4870    -1.6510 H     1 <1>   0.0800 
 35 H       -4.5640    -8.6610    -0.0540 H     1 <1>   0.0800 
 36 H       -5.0850    -8.1390     1.5290 H     1 <1>   0.0800 
 37 H       -8.4290    -7.3470    -0.5340 H     1 <1>   0.0800 
 38 H       -7.0870    -9.1250     1.0290 H     1 <1>   0.0800 
 39 H       -8.6140    -7.2610     1.6860 H     1 <1>   0.4000 
 40 H       -6.3640    -8.9250    -1.9120 H     1 <1>   0.0800 
 41 H       -7.8520    -9.5860    -1.3160 H     1 <1>   0.0800 
 42 H       -7.9760   -11.8640    -0.8200 H     1 <1>   0.1500 
 43 H       -3.2420   -12.0780    -0.6760 H     1 <1>   0.1500 
 44 H       -4.5840   -14.0820    -0.4780 H     1 <1>   0.1500 
@<TRIPOS>BOND
  1   1   2  1   
  2   2   3  1   
  3   2   4  1   
  4   2   5  1   
  5   5   6  1   
  6   6   7  ar  
  7   6   8  ar  
  8   7   9  ar  
  9   7  26  1   
 10   8  10  ar  
 11   8  27  1   
 12   9  11  ar  
 13   9  12  1   
 14  10  11  ar  
 15  10  28  1   
 16  11  29  1   
 17  12  13  1   
 18  12  30  1   
 19  12  31  1   
 20  13  14  1   
 21  13  15  1   
 22  13  32  1   
 23  14  16  1   
 24  14  33  1   
 25  14  34  1   
 26  15  17  1   
 27  15  35  1   
 28  15  36  1   
 29  16  17  1   
 30  16  18  1   
 31  16  37  1   
 32  17  19  1   
 33  17  38  1   
 34  18  39  1   
 35  19  20  1   
 36  19  40  1   
 37  19  41  1   
 38  20  21  ar  
 39  20  22  ar  
 40  21  23  ar  
 41  22  24  ar  
 42  22  42  1   
 43  23  25  ar  
 44  23  43  1   
 45  24  25  ar  
 46  25  44  1   
@<TRIPOS>SUBSTRUCTURE
  1 ****  13 GROUP 4 **** **** 0

# MOE 2024.06 (io_trps.svl 2023.06)
