@<TRIPOS>MOLECULE
NONAME
41 42 1 0 0 
SMALL
USER_CHARGES


@<TRIPOS>ATOM
  1 O        0.8500     0.5530    -0.1830 O.2   1 <1>  -0.5700 
  2 C        1.6860    -0.3150    -0.0640 C.2   1 <1>   0.5690 
  3 N        1.3470    -1.6420    -0.0690 N.am  1 <1>  -0.6600 
  4 C        3.1550     0.1160     0.0920 C.3   1 <1>   0.2700 
  5 C        2.2580    -2.8020     0.0640 C.3   1 <1>   0.1400 
  6 C       -0.0560    -2.0890    -0.2350 C.3   1 <1>   0.1400 
  7 N        3.3310     1.6070     0.0390 N.pl3 1 <1>  -0.8690 
  8 C        1.3350    -4.0040     0.2310 C.3   1 <1>  -0.1600 
  9 C        0.0370    -3.5930    -0.4570 C.3   1 <1>  -0.1600 
 10 C        4.3520     2.4550     0.1800 C.ar  1 <1>   0.7710 
 11 N        4.0700     3.7330     0.0830 N.ar  1 <1>  -0.6200 
 12 N        5.5920     1.9970     0.4090 N.ar  1 <1>  -0.1790 
 13 C        5.0580     4.6010     0.2050 C.ar  1 <1>   0.4100 
 14 C        6.6280     2.8530     0.5790 C.ar  1 <1>   0.2110 
 15 N        4.7290     5.9100     0.0500 N.pl3 1 <1>  -0.8380 
 16 C        6.3860     4.1850     0.4880 C.ar  1 <1>  -0.1430 
 17 C        3.4410     6.4490     0.5750 C.3   1 <1>   0.1290 
 18 C        5.3750     6.7890    -0.9640 C.3   1 <1>   0.1290 
 19 C        7.5130     5.1890     0.7280 C.3   1 <1>  -0.0970 
 20 H        3.7190    -0.3390    -0.7020 H     1 <1>   0.0800 
 21 H        3.5100    -0.2530     1.0370 H     1 <1>   0.0800 
 22 H        2.9100    -2.6960     0.9140 H     1 <1>   0.0800 
 23 H        2.8350    -2.9060    -0.8390 H     1 <1>   0.0800 
 24 H       -0.5250    -1.5910    -1.0680 H     1 <1>   0.0800 
 25 H       -0.6040    -1.8720     0.6660 H     1 <1>   0.0800 
 26 H        2.4170     2.0640    -0.1260 H     1 <1>   0.4000 
 27 H        1.1540    -4.1660     1.2800 H     1 <1>   0.0800 
 28 H        1.7580    -4.8980    -0.1920 H     1 <1>   0.0800 
 29 H        0.1040    -3.7870    -1.5140 H     1 <1>   0.0800 
 30 H       -0.8200    -4.1090    -0.0620 H     1 <1>   0.0800 
 31 H        5.6990     0.9930     0.4600 H     1 <1>   0.4570 
 32 H        7.6070     2.4520     0.7880 H     1 <1>   0.1500 
 33 H        3.0730     5.8260     1.3730 H     1 <1>   0.0800 
 34 H        2.7070     6.4710    -0.2110 H     1 <1>   0.0800 
 35 H        3.5860     7.4440     0.9570 H     1 <1>   0.0800 
 36 H        6.0670     6.2260    -1.5660 H     1 <1>   0.0800 
 37 H        5.9000     7.5900    -0.4720 H     1 <1>   0.0800 
 38 H        4.6280     7.2090    -1.6160 H     1 <1>   0.0800 
 39 H        7.1670     5.9870     1.3630 H     1 <1>   0.0800 
 40 H        7.8480     5.6100    -0.2020 H     1 <1>   0.0800 
 41 H        8.3550     4.7250     1.2100 H     1 <1>   0.0800 
@<TRIPOS>BOND
  1   1   2  2   
  2   2   3  am  
  3   2   4  1   
  4   3   5  1   
  5   3   6  1   
  6   4   7  1   
  7   4  20  1   
  8   4  21  1   
  9   5   8  1   
 10   5  22  1   
 11   5  23  1   
 12   6   9  1   
 13   6  24  1   
 14   6  25  1   
 15   7  10  1   
 16   7  26  1   
 17   8   9  1   
 18   8  27  1   
 19   8  28  1   
 20   9  29  1   
 21   9  30  1   
 22  10  11  ar  
 23  10  12  ar  
 24  11  13  ar  
 25  12  14  ar  
 26  12  31  1   
 27  13  15  1   
 28  13  16  ar  
 29  14  16  ar  
 30  14  32  1   
 31  15  17  1   
 32  15  18  1   
 33  16  19  1   
 34  17  33  1   
 35  17  34  1   
 36  17  35  1   
 37  18  36  1   
 38  18  37  1   
 39  18  38  1   
 40  19  39  1   
 41  19  40  1   
 42  19  41  1   
@<TRIPOS>SUBSTRUCTURE
  1 ****   7 GROUP 4 **** **** 0

# MOE 2024.06 (io_trps.svl 2023.06)
