@<TRIPOS>MOLECULE
NONAME
41 42 1 0 0 
SMALL
USER_CHARGES


@<TRIPOS>ATOM
  1 S        0.3370     0.0560     0.7430 S.o2  1 <1>   1.3330 
  2 O       -0.7000     0.2170     1.7370 O.2   1 <1>  -0.6500 
  3 O        1.7260     0.1600     1.1300 O.2   1 <1>  -0.6500 
  4 N        0.1220    -1.4480    -0.0140 N.am  1 <1>  -0.8490 
  5 C        0.0090     1.2150    -0.5830 C.3   1 <1>  -0.0550 
  6 C        1.3140    -1.9180    -0.7280 C.3   1 <1>   0.1160 
  7 C       -0.3380    -2.4800     0.9200 C.3   1 <1>   0.1160 
  8 C        0.0320     2.6840    -0.1290 C.3   1 <1>  -0.0800 
  9 C       -0.3390     3.6400    -1.2580 C.3   1 <1>   0.2000 
 10 C        1.4010     3.1800     0.3410 C.3   1 <1>   0.1400 
 11 O       -1.7170     3.7450    -1.3520 O.3   1 <1>  -0.6800 
 12 C        0.3120     4.9760    -0.9020 C.3   1 <1>   0.1400 
 13 N        1.3990     4.6350     0.0520 N.am  1 <1>  -0.6600 
 14 C        2.2460     5.5290     0.6900 C.2   1 <1>   0.5440 
 15 O        3.0470     5.0480     1.4760 O.2   1 <1>  -0.5700 
 16 C        2.2230     6.9880     0.4990 C.ar  1 <1>   0.3960 
 17 N        1.7530     7.5360    -0.6410 N.ar  1 <1>  -0.6200 
 18 C        2.7100     7.8040     1.5280 C.ar  1 <1>  -0.1500 
 19 C        1.7740     8.8530    -0.7390 C.ar  1 <1>   0.1600 
 20 C        2.7250     9.1770     1.4180 C.ar  1 <1>  -0.1500 
 21 C        2.2420     9.7130     0.2470 C.ar  1 <1>   0.0820 
 22 O        2.2380    11.0470     0.0940 O.3   1 <1>  -0.5330 
 23 H        0.7250     1.0730    -1.3680 H     1 <1>   0.0800 
 24 H       -0.9630     1.0020    -0.9850 H     1 <1>   0.0800 
 25 H        1.0910    -2.8260    -1.2630 H     1 <1>   0.0800 
 26 H        2.1180    -2.1080    -0.0350 H     1 <1>   0.0800 
 27 H        1.6390    -1.1770    -1.4380 H     1 <1>   0.0800 
 28 H       -0.4780    -3.4150     0.4060 H     1 <1>   0.0800 
 29 H       -1.2810    -2.1910     1.3540 H     1 <1>   0.0800 
 30 H        0.3800    -2.6140     1.7130 H     1 <1>   0.0800 
 31 H       -0.6530     2.8160     0.6920 H     1 <1>   0.0800 
 32 H        0.0390     3.2960    -2.2060 H     1 <1>   0.0800 
 33 H        2.1980     2.7160    -0.2160 H     1 <1>   0.0800 
 34 H        1.5490     2.9930     1.3920 H     1 <1>   0.0800 
 35 H       -2.0960     4.0310    -0.4980 H     1 <1>   0.4000 
 36 H       -0.3880     5.6400    -0.4260 H     1 <1>   0.0800 
 37 H        0.7220     5.4360    -1.7850 H     1 <1>   0.0800 
 38 H        3.0820     7.3440     2.4260 H     1 <1>   0.1500 
 39 H        1.3990     9.2770    -1.6540 H     1 <1>   0.1500 
 40 H        3.0970     9.8110     2.2040 H     1 <1>   0.1500 
 41 H        1.8940    11.3650    -0.7610 H     1 <1>   0.4500 
@<TRIPOS>BOND
  1   1   2  2   
  2   1   3  2   
  3   1   4  am  
  4   1   5  1   
  5   4   6  1   
  6   4   7  1   
  7   5   8  1   
  8   5  23  1   
  9   5  24  1   
 10   6  25  1   
 11   6  26  1   
 12   6  27  1   
 13   7  28  1   
 14   7  29  1   
 15   7  30  1   
 16   8   9  1   
 17   8  10  1   
 18   8  31  1   
 19   9  11  1   
 20   9  12  1   
 21   9  32  1   
 22  10  13  1   
 23  10  33  1   
 24  10  34  1   
 25  11  35  1   
 26  12  13  1   
 27  12  36  1   
 28  12  37  1   
 29  13  14  am  
 30  14  15  2   
 31  14  16  1   
 32  16  17  ar  
 33  16  18  ar  
 34  17  19  ar  
 35  18  20  ar  
 36  18  38  1   
 37  19  21  ar  
 38  19  39  1   
 39  20  21  ar  
 40  20  40  1   
 41  21  22  1   
 42  22  41  1   
@<TRIPOS>SUBSTRUCTURE
  1 ****  13 GROUP 4 **** **** 0

# MOE 2024.06 (io_trps.svl 2023.06)
