@<TRIPOS>MOLECULE
NONAME
55 57 1 0 0 
SMALL
USER_CHARGES


@<TRIPOS>ATOM
  1 O        0.9460    -0.5360    -0.3510 O.2   1 <1>  -0.5700 
  2 C        1.9680    -1.1600    -0.1760 C.2   1 <1>   0.5690 
  3 N        3.1050    -0.5320     0.2720 N.am  1 <1>  -0.6600 
  4 C        1.9760    -2.6550    -0.4810 C.3   1 <1>  -0.0990 
  5 C        3.0370     0.9090     0.6110 C.3   1 <1>   0.1400 
  6 C        4.4650    -1.1700     0.2510 C.3   1 <1>   0.1400 
  7 C        0.5740    -3.2940    -0.5210 C.3   1 <1>  -0.1600 
  8 C        3.3690     1.7260    -0.6460 C.3   1 <1>  -0.0800 
  9 C        5.6470    -0.2050     0.0350 C.3   1 <1>   0.1200 
 10 C        0.6390    -4.8010    -0.8120 C.3   1 <1>   0.0200 
 11 C        4.8820     1.8600    -0.8680 C.3   1 <1>   0.1200 
 12 C        2.6240     3.0660    -0.6520 C.3   1 <1>   0.3430 
 13 O        5.4540     0.6110    -1.0870 O.3   1 <1>  -0.5600 
 14 C       -0.7410    -5.4310    -0.8120 C.2   1 <1>   0.2980 
 15 N        2.9850     3.9590     0.4980 N.4   1 <1>  -0.9590 
 16 O       -1.5780    -5.1180    -1.7660 O.3   1 <1>  -0.0190 
 17 N       -1.1740    -6.2580     0.0460 N.2   1 <1>  -0.5650 
 18 C        1.7700     4.6970     0.9670 C.3   1 <1>   0.2630 
 19 C        4.0630     4.9330     0.1340 C.3   1 <1>   0.2630 
 20 N       -2.6400    -5.8060    -1.4920 N.2   1 <1>  -0.4100 
 21 C       -2.4070    -6.4790    -0.4210 C.2   1 <1>   0.4620 
 22 C       -3.3400    -7.3780     0.2320 C.ar  1 <1>   0.0540 
 23 C       -4.6180    -7.6110    -0.2570 C.ar  1 <1>  -0.1500 
 24 C       -3.0320    -8.0750     1.3930 C.ar  1 <1>  -0.1500 
 25 C       -5.4740    -8.4760     0.3970 C.ar  1 <1>   0.1600 
 26 C       -3.9590    -8.9190     1.9730 C.ar  1 <1>   0.1600 
 27 N       -5.1760    -9.1380     1.5020 N.ar  1 <1>  -0.6200 
 28 H        2.5580    -3.1550     0.2710 H     1 <1>   0.0800 
 29 H        2.4560    -2.7950    -1.4330 H     1 <1>   0.0800 
 30 H        3.7100     1.1310     1.4210 H     1 <1>   0.0800 
 31 H        2.0400     1.1390     0.9500 H     1 <1>   0.0800 
 32 H        4.5040    -1.9000    -0.5380 H     1 <1>   0.0800 
 33 H        4.6140    -1.6920     1.1800 H     1 <1>   0.0800 
 34 H       -0.0180    -2.8110    -1.2800 H     1 <1>   0.0800 
 35 H        0.0840    -3.1360     0.4260 H     1 <1>   0.0800 
 36 H        2.9750     1.1970    -1.4980 H     1 <1>   0.0800 
 37 H        6.5360    -0.7830    -0.1480 H     1 <1>   0.0800 
 38 H        5.8260     0.4000     0.9070 H     1 <1>   0.0800 
 39 H        1.2370    -5.2890    -0.0620 H     1 <1>   0.0800 
 40 H        1.0960    -4.9730    -1.7700 H     1 <1>   0.0800 
 41 H        5.3790     2.3280    -0.0360 H     1 <1>   0.0800 
 42 H        5.0700     2.4420    -1.7540 H     1 <1>   0.0800 
 43 H        1.5680     2.8440    -0.6100 H     1 <1>   0.0800 
 44 H        2.8050     3.5750    -1.5850 H     1 <1>   0.0800 
 45 H        3.3120     3.3710     1.2780 H     1 <1>   0.4500 
 46 H        1.3860     5.3260     0.1810 H     1 <1>   0.0800 
 47 H        2.0120     5.3160     1.8170 H     1 <1>   0.0800 
 48 H        0.9990     4.0020     1.2600 H     1 <1>   0.0800 
 49 H        3.7370     5.5690    -0.6730 H     1 <1>   0.0800 
 50 H        4.9560     4.4160    -0.1770 H     1 <1>   0.0800 
 51 H        4.3080     5.5540     0.9820 H     1 <1>   0.0800 
 52 H       -4.9480    -7.1150    -1.1520 H     1 <1>   0.1500 
 53 H       -2.0650    -7.9590     1.8470 H     1 <1>   0.1500 
 54 H       -6.4590    -8.6340    -0.0100 H     1 <1>   0.1500 
 55 H       -3.6880    -9.4450     2.8730 H     1 <1>   0.1500 
@<TRIPOS>BOND
  1   1   2  2   
  2   2   3  am  
  3   2   4  1   
  4   3   5  1   
  5   3   6  1   
  6   4   7  1   
  7   4  28  1   
  8   4  29  1   
  9   5   8  1   
 10   5  30  1   
 11   5  31  1   
 12   6   9  1   
 13   6  32  1   
 14   6  33  1   
 15   7  10  1   
 16   7  34  1   
 17   7  35  1   
 18   8  11  1   
 19   8  12  1   
 20   8  36  1   
 21   9  13  1   
 22   9  37  1   
 23   9  38  1   
 24  10  14  1   
 25  10  39  1   
 26  10  40  1   
 27  11  13  1   
 28  11  41  1   
 29  11  42  1   
 30  12  15  1   
 31  12  43  1   
 32  12  44  1   
 33  14  16  1   
 34  14  17  2   
 35  15  18  1   
 36  15  19  1   
 37  15  45  1   
 38  16  20  1   
 39  17  21  1   
 40  18  46  1   
 41  18  47  1   
 42  18  48  1   
 43  19  49  1   
 44  19  50  1   
 45  19  51  1   
 46  20  21  2   
 47  21  22  1   
 48  22  23  ar  
 49  22  24  ar  
 50  23  25  ar  
 51  23  52  1   
 52  24  26  ar  
 53  24  53  1   
 54  25  27  ar  
 55  25  54  1   
 56  26  27  ar  
 57  26  55  1   
@<TRIPOS>SUBSTRUCTURE
  1 ****   7 GROUP 4 **** **** 0

# MOE 2024.06 (io_trps.svl 2023.06)
