@<TRIPOS>MOLECULE
NONAME
51 52 1 0 0 
SMALL
USER_CHARGES


@<TRIPOS>ATOM
  1 O       -0.3350     0.8390     1.0320 O.2   1 <1>  -0.5700 
  2 C       -1.4220     1.3000     0.7640 C.2   1 <1>   0.5690 
  3 N       -2.5740     0.5630     0.9050 N.am  1 <1>  -0.6600 
  4 C       -1.4840     2.7410     0.2730 C.3   1 <1>  -0.0990 
  5 C       -3.9370     1.0860     0.5850 C.3   1 <1>   0.1400 
  6 C       -2.4960    -0.8240     1.4440 C.3   1 <1>   0.1400 
  7 C       -0.1220     3.4630     0.2650 C.3   1 <1>  -0.0990 
  8 C       -4.8900     0.0400    -0.0150 C.3   1 <1>  -0.1600 
  9 C       -2.3130    -1.8220     0.2960 C.3   1 <1>  -0.1600 
 10 C       -0.2480     4.9200    -0.1310 C.2   1 <1>   0.5690 
 11 C       -4.2610    -0.8510    -1.1000 C.3   1 <1>  -0.1600 
 12 C       -3.5860    -2.1020    -0.5180 C.3   1 <1>  -0.1600 
 13 O       -0.9190     5.2170    -1.0890 O.2   1 <1>  -0.5700 
 14 N        0.4040     5.8490     0.6120 N.am  1 <1>  -0.7300 
 15 C        0.4100     7.3010     0.3410 C.3   1 <1>   0.1400 
 16 C        1.8550     7.7650     0.1650 C.3   1 <1>  -0.1600 
 17 C        1.9240     9.2600    -0.1610 C.3   1 <1>   0.0210 
 18 C        3.3680     9.7030    -0.2870 C.2   1 <1>  -0.1810 
 19 C        4.2490     9.3910    -1.3180 C.2   1 <1>   0.1390 
 20 C        4.0900    10.4740     0.5520 C.2   1 <1>  -0.3020 
 21 N        5.4210     9.9180    -1.1390 N.2   1 <1>  -0.7070 
 22 N        5.3220    10.5900     0.0180 N.pl3 1 <1>   0.3140 
 23 C        6.4600    11.3320     0.5710 C.3   1 <1>   0.0160 
 24 H       -2.1610     3.2870     0.9030 H     1 <1>   0.0800 
 25 H       -1.8750     2.7410    -0.7280 H     1 <1>   0.0800 
 26 H       -3.8580     1.8880    -0.1250 H     1 <1>   0.0800 
 27 H       -4.3740     1.4880     1.4830 H     1 <1>   0.0800 
 28 H       -3.3760    -1.0560     2.0180 H     1 <1>   0.0800 
 29 H       -1.6520    -0.8980     2.1080 H     1 <1>   0.0800 
 30 H        0.5360     2.9770    -0.4320 H     1 <1>   0.0800 
 31 H        0.3200     3.3960     1.2420 H     1 <1>   0.0800 
 32 H       -5.7130     0.5770    -0.4520 H     1 <1>   0.0800 
 33 H       -5.3060    -0.5660     0.7700 H     1 <1>   0.0800 
 34 H       -1.9760    -2.7530     0.7160 H     1 <1>   0.0800 
 35 H       -1.5320    -1.4670    -0.3530 H     1 <1>   0.0800 
 36 H       -3.5570    -0.2870    -1.6890 H     1 <1>   0.0800 
 37 H       -5.0440    -1.1790    -1.7610 H     1 <1>   0.0800 
 38 H       -4.2920    -2.6310     0.0990 H     1 <1>   0.0800 
 39 H       -3.3250    -2.7570    -1.3310 H     1 <1>   0.0800 
 40 H        0.9730     5.5450     1.4030 H     1 <1>   0.3700 
 41 H       -0.0530     7.8170     1.1640 H     1 <1>   0.0800 
 42 H       -0.1550     7.5090    -0.5540 H     1 <1>   0.0800 
 43 H        2.3090     7.2090    -0.6360 H     1 <1>   0.0800 
 44 H        2.4070     7.5790     1.0700 H     1 <1>   0.0800 
 45 H        1.4500     9.8280     0.6200 H     1 <1>   0.0800 
 46 H        1.4100     9.4630    -1.0840 H     1 <1>   0.0800 
 47 H        3.9990     8.7820    -2.1710 H     1 <1>   0.1500 
 48 H        3.8050    10.9370     1.4780 H     1 <1>   0.1500 
 49 H        6.1350    11.9210     1.4070 H     1 <1>   0.0800 
 50 H        6.8610    11.9710    -0.1930 H     1 <1>   0.0800 
 51 H        7.2100    10.6310     0.8850 H     1 <1>   0.0800 
@<TRIPOS>BOND
  1   1   2  2   
  2   2   3  am  
  3   2   4  1   
  4   3   5  1   
  5   3   6  1   
  6   4   7  1   
  7   4  24  1   
  8   4  25  1   
  9   5   8  1   
 10   5  26  1   
 11   5  27  1   
 12   6   9  1   
 13   6  28  1   
 14   6  29  1   
 15   7  10  1   
 16   7  30  1   
 17   7  31  1   
 18   8  11  1   
 19   8  32  1   
 20   8  33  1   
 21   9  12  1   
 22   9  34  1   
 23   9  35  1   
 24  10  13  2   
 25  10  14  am  
 26  11  12  1   
 27  11  36  1   
 28  11  37  1   
 29  12  38  1   
 30  12  39  1   
 31  14  15  1   
 32  14  40  1   
 33  15  16  1   
 34  15  41  1   
 35  15  42  1   
 36  16  17  1   
 37  16  43  1   
 38  16  44  1   
 39  17  18  1   
 40  17  45  1   
 41  17  46  1   
 42  18  19  1   
 43  18  20  2   
 44  19  21  2   
 45  19  47  1   
 46  20  22  1   
 47  20  48  1   
 48  21  22  1   
 49  22  23  1   
 50  23  49  1   
 51  23  50  1   
 52  23  51  1   
@<TRIPOS>SUBSTRUCTURE
  1 ****  10 GROUP 4 **** **** 0

# MOE 2024.06 (io_trps.svl 2023.06)
