@<TRIPOS>MOLECULE
NONAME
38 39 1 0 0 
SMALL
USER_CHARGES


@<TRIPOS>ATOM
  1 CL      -1.0770    -2.9510     3.3230 Cl    1 <1>  -0.1770 
  2 C       -1.9260    -2.5750     1.8420 C.ar  1 <1>   0.1770 
  3 C       -2.3510    -1.2890     1.5610 C.ar  1 <1>   0.1900 
  4 C       -2.1770    -3.5960     0.9420 C.ar  1 <1>  -0.1500 
  5 F       -2.1190    -0.3230     2.4100 F     1 <1>  -0.1900 
  6 C       -3.0250    -0.9970     0.3910 C.ar  1 <1>  -0.1500 
  7 C       -2.8640    -3.3240    -0.2380 C.ar  1 <1>  -0.1440 
  8 C       -3.2790    -2.0220    -0.5090 C.ar  1 <1>  -0.1500 
  9 C       -3.1590    -4.4470    -1.2160 C.3   1 <1>   0.4870 
 10 N       -4.2970    -5.2340    -0.6760 N.4   1 <1>  -0.9590 
 11 C       -4.3850    -6.5790    -1.2890 C.3   1 <1>   0.5230 
 12 C       -5.5920    -4.4790    -0.8030 C.3   1 <1>   0.3430 
 13 C       -5.2730    -7.4060    -0.3990 C.2   1 <1>  -0.3320 
 14 C       -6.3610    -4.3980     0.5220 C.3   1 <1>   0.1200 
 15 N       -4.9010    -8.0220     0.7470 N.pl3 1 <1>   0.0480 
 16 C       -6.5850    -7.6850    -0.5770 C.2   1 <1>   0.0770 
 17 O       -7.4380    -3.5550     0.3200 O.3   1 <1>  -0.6800 
 18 C       -6.0310    -8.6130     1.1940 C.2   1 <1>   0.0360 
 19 C       -3.5720    -8.1200     1.3850 C.3   1 <1>   0.0160 
 20 N       -7.0580    -8.4240     0.4340 N.2   1 <1>  -0.5650 
 21 H       -1.8250    -4.5830     1.1820 H     1 <1>   0.1500 
 22 H       -3.3400     0.0130     0.1930 H     1 <1>   0.1500 
 23 H       -3.8020    -1.7840    -1.4220 H     1 <1>   0.1500 
 24 H       -2.2840    -5.0690    -1.3100 H     1 <1>   0.0800 
 25 H       -3.4020    -4.0470    -2.1870 H     1 <1>   0.0800 
 26 H       -4.1300    -5.3720     0.3250 H     1 <1>   0.4500 
 27 H       -3.4120    -7.0380    -1.3570 H     1 <1>   0.0800 
 28 H       -4.8070    -6.5130    -2.2790 H     1 <1>   0.0800 
 29 H       -6.2240    -4.9450    -1.5410 H     1 <1>   0.0800 
 30 H       -5.3940    -3.4700    -1.1240 H     1 <1>   0.0800 
 31 H       -5.7530    -3.9710     1.3010 H     1 <1>   0.0800 
 32 H       -6.7400    -5.3600     0.8220 H     1 <1>   0.0800 
 33 H       -7.2380    -7.3900    -1.3840 H     1 <1>   0.1500 
 34 H       -8.0270    -3.5280     1.1050 H     1 <1>   0.4000 
 35 H       -6.0580    -9.1910     2.1030 H     1 <1>   0.1500 
 36 H       -2.8320    -8.3700     0.6460 H     1 <1>   0.0800 
 37 H       -3.5900    -8.8950     2.1310 H     1 <1>   0.0800 
 38 H       -3.3230    -7.1870     1.8560 H     1 <1>   0.0800 
@<TRIPOS>BOND
  1   1   2  1   
  2   2   3  ar  
  3   2   4  ar  
  4   3   5  1   
  5   3   6  ar  
  6   4   7  ar  
  7   4  21  1   
  8   6   8  ar  
  9   6  22  1   
 10   7   8  ar  
 11   7   9  1   
 12   8  23  1   
 13   9  10  1   
 14   9  24  1   
 15   9  25  1   
 16  10  11  1   
 17  10  12  1   
 18  10  26  1   
 19  11  13  1   
 20  11  27  1   
 21  11  28  1   
 22  12  14  1   
 23  12  29  1   
 24  12  30  1   
 25  13  15  1   
 26  13  16  2   
 27  14  17  1   
 28  14  31  1   
 29  14  32  1   
 30  15  18  1   
 31  15  19  1   
 32  16  20  1   
 33  16  33  1   
 34  17  34  1   
 35  18  20  2   
 36  18  35  1   
 37  19  36  1   
 38  19  37  1   
 39  19  38  1   
@<TRIPOS>SUBSTRUCTURE
  1 ****  10 GROUP 4 **** **** 0

# MOE 2024.06 (io_trps.svl 2023.06)
