@<TRIPOS>MOLECULE
NONAME
40 40 1 0 0 
SMALL
USER_CHARGES


@<TRIPOS>ATOM
  1 N       -0.6680    -0.0040     0.3520 N.4   1 <1>  -0.9590 
  2 C       -0.8510     0.8200    -0.8780 C.3   1 <1>   0.3430 
  3 C        0.4720     0.6340     1.0700 C.3   1 <1>   0.3430 
  4 C       -0.4410    -1.4760     0.1240 C.3   1 <1>   0.3430 
  5 C       -0.5740     2.2460    -0.4260 C.3   1 <1>  -0.1600 
  6 C        0.2870     2.1250     0.8340 C.3   1 <1>  -0.1600 
  7 C       -1.6520    -2.2250    -0.5020 C.3   1 <1>   0.3430 
  8 N       -1.4980    -3.7240    -0.5890 N.4   1 <1>  -0.9590 
  9 C       -2.7970    -4.3600    -0.9240 C.3   1 <1>   0.4810 
 10 C       -0.4430    -4.2010    -1.5310 C.3   1 <1>   0.3430 
 11 C       -2.7490    -5.7320    -0.3010 C.2   1 <1>  -0.2880 
 12 C        0.8260    -4.5090    -0.7460 C.3   1 <1>  -0.2400 
 13 C       -3.3680    -6.0760     0.8320 C.2   1 <1>  -0.2880 
 14 C       -3.3160    -7.4640     1.4480 C.3   1 <1>  -0.1020 
 15 H       -1.4900     0.1620     0.9530 H     1 <1>   0.4500 
 16 H       -0.1230     0.5390    -1.6230 H     1 <1>   0.0800 
 17 H       -1.8440     0.7270    -1.2890 H     1 <1>   0.0800 
 18 H        0.4720     0.3970     2.1230 H     1 <1>   0.0800 
 19 H        1.4080     0.3190     0.6330 H     1 <1>   0.0800 
 20 H        0.4150    -1.6000    -0.5190 H     1 <1>   0.0800 
 21 H       -0.2140    -1.9370     1.0720 H     1 <1>   0.0800 
 22 H       -0.0700     2.7970    -1.2020 H     1 <1>   0.0800 
 23 H       -1.5000     2.7490    -0.2010 H     1 <1>   0.0800 
 24 H       -0.2140     2.5720     1.6770 H     1 <1>   0.0800 
 25 H        1.2420     2.6090     0.7140 H     1 <1>   0.0800 
 26 H       -1.8300    -1.8350    -1.4910 H     1 <1>   0.0800 
 27 H       -2.5190    -2.0090     0.1000 H     1 <1>   0.0800 
 28 H       -1.2900    -4.1340     0.3370 H     1 <1>   0.4500 
 29 H       -3.6100    -3.8080    -0.4790 H     1 <1>   0.0800 
 30 H       -2.9550    -4.4190    -1.9900 H     1 <1>   0.0800 
 31 H       -0.7660    -5.1080    -2.0190 H     1 <1>   0.0800 
 32 H       -0.2490    -3.4660    -2.2960 H     1 <1>   0.0800 
 33 H       -2.1600    -6.4350    -0.8660 H     1 <1>   0.1500 
 34 H        0.6380    -5.2640    -0.0010 H     1 <1>   0.0800 
 35 H        1.2420    -3.6370    -0.2820 H     1 <1>   0.0800 
 36 H        1.5660    -4.9020    -1.4220 H     1 <1>   0.0800 
 37 H       -3.9730    -5.4000     1.4170 H     1 <1>   0.1500 
 38 H       -2.8990    -7.4170     2.4390 H     1 <1>   0.0800 
 39 H       -2.7130    -8.1290     0.8540 H     1 <1>   0.0800 
 40 H       -4.3090    -7.8740     1.5140 H     1 <1>   0.0800 
@<TRIPOS>BOND
  1   1   2  1   
  2   1   3  1   
  3   1   4  1   
  4   1  15  1   
  5   2   5  1   
  6   2  16  1   
  7   2  17  1   
  8   3   6  1   
  9   3  18  1   
 10   3  19  1   
 11   4   7  1   
 12   4  20  1   
 13   4  21  1   
 14   5   6  1   
 15   5  22  1   
 16   5  23  1   
 17   6  24  1   
 18   6  25  1   
 19   7   8  1   
 20   7  26  1   
 21   7  27  1   
 22   8   9  1   
 23   8  10  1   
 24   8  28  1   
 25   9  11  1   
 26   9  29  1   
 27   9  30  1   
 28  10  12  1   
 29  10  31  1   
 30  10  32  1   
 31  11  13  2   
 32  11  33  1   
 33  12  34  1   
 34  12  35  1   
 35  12  36  1   
 36  13  14  1   
 37  13  37  1   
 38  14  38  1   
 39  14  39  1   
 40  14  40  1   
@<TRIPOS>SUBSTRUCTURE
  1 ****   7 GROUP 4 **** **** 0

# MOE 2024.06 (io_trps.svl 2023.06)
