@<TRIPOS>MOLECULE
NONAME
45 48 1 0 0 
SMALL
USER_CHARGES


@<TRIPOS>ATOM
  1 F        0.4260     2.8050    -2.7200 F     1 <1>  -0.1900 
  2 C       -0.6860     2.3780    -2.1680 C.ar  1 <1>   0.1900 
  3 C       -0.9420     2.6450    -0.8170 C.ar  1 <1>   0.1000 
  4 C       -1.5620     1.6720    -2.9700 C.ar  1 <1>  -0.1500 
  5 N       -0.0900     3.3540     0.0400 N.pl3 1 <1>  -0.8380 
  6 C       -2.1380     2.1630    -0.3000 C.ar  1 <1>  -0.1500 
  7 C       -2.7450     1.2050    -2.4230 C.ar  1 <1>  -0.1500 
  8 C        0.1140     4.7960    -0.2920 C.3   1 <1>   0.2090 
  9 C        1.2090     2.6910     0.3570 C.3   1 <1>   0.2090 
 10 C       -3.0290     1.4520    -1.0890 C.ar  1 <1>  -0.1500 
 11 C        0.8820     5.5190     0.8300 C.3   1 <1>   0.1100 
 12 C        1.9550     3.4450     1.4740 C.3   1 <1>   0.1100 
 13 N        2.1820     4.8680     1.1320 N.3   1 <1>  -0.8100 
 14 C        2.8980     5.5650     2.2170 C.3   1 <1>   0.2480 
 15 C        3.3750     6.9420     1.7610 C.2   1 <1>  -0.0380 
 16 N        3.8660     7.0310     0.4810 N.pl3 1 <1>  -0.5840 
 17 C        3.3380     8.0560     2.5400 C.2   1 <1>  -0.1360 
 18 C        4.3250     8.2540    -0.0300 C.2   1 <1>  -0.0680 
 19 C        3.7960     9.3260     2.0790 C.2   1 <1>   0.5650 
 20 N        4.3010     9.3860     0.7490 N.pl3 1 <1>   0.5610 
 21 C        4.8310     8.5980    -1.2340 C.2   1 <1>  -0.1500 
 22 O        3.7430    10.3020     2.8170 O.2   1 <1>  -0.5700 
 23 N        4.7970    10.4470     0.0230 N.2   1 <1>  -0.7070 
 24 C        5.1010     9.9580    -1.1360 C.2   1 <1>   0.1080 
 25 C        5.6860    10.8110    -2.2380 C.3   1 <1>  -0.0590 
 26 H       -1.3200     1.4920    -4.0020 H     1 <1>   0.1500 
 27 H       -2.3610     2.3530     0.7340 H     1 <1>   0.1500 
 28 H       -3.4420     0.6530    -3.0310 H     1 <1>   0.1500 
 29 H       -0.8430     5.2660    -0.4330 H     1 <1>   0.0800 
 30 H        0.6700     4.8840    -1.2100 H     1 <1>   0.0800 
 31 H        1.8270     2.6630    -0.5230 H     1 <1>   0.0800 
 32 H        1.0210     1.6780     0.6690 H     1 <1>   0.0800 
 33 H       -3.9490     1.0910    -0.6610 H     1 <1>   0.1500 
 34 H        0.2650     5.5320     1.7120 H     1 <1>   0.0800 
 35 H        1.0490     6.5370     0.5250 H     1 <1>   0.0800 
 36 H        2.9020     2.9620     1.6400 H     1 <1>   0.0800 
 37 H        1.3760     3.3730     2.3800 H     1 <1>   0.0800 
 38 H        3.7650     4.9880     2.4880 H     1 <1>   0.0800 
 39 H        2.2660     5.6520     3.0850 H     1 <1>   0.0800 
 40 H        3.7780     6.1930    -0.1180 H     1 <1>   0.4000 
 41 H        2.9620     8.0340     3.5440 H     1 <1>   0.1500 
 42 H        4.9960     7.9720    -2.0920 H     1 <1>   0.1500 
 43 H        5.8590    10.2230    -3.1200 H     1 <1>   0.0800 
 44 H        6.6160    11.2340    -1.9060 H     1 <1>   0.0800 
 45 H        5.0060    11.6090    -2.4730 H     1 <1>   0.0800 
@<TRIPOS>BOND
  1   1   2  1   
  2   2   3  ar  
  3   2   4  ar  
  4   3   5  1   
  5   3   6  ar  
  6   4   7  ar  
  7   4  26  1   
  8   5   8  1   
  9   5   9  1   
 10   6  10  ar  
 11   6  27  1   
 12   7  10  ar  
 13   7  28  1   
 14   8  11  1   
 15   8  29  1   
 16   8  30  1   
 17   9  12  1   
 18   9  31  1   
 19   9  32  1   
 20  10  33  1   
 21  11  13  1   
 22  11  34  1   
 23  11  35  1   
 24  12  13  1   
 25  12  36  1   
 26  12  37  1   
 27  13  14  1   
 28  14  15  1   
 29  14  38  1   
 30  14  39  1   
 31  15  16  1   
 32  15  17  2   
 33  16  18  1   
 34  16  40  1   
 35  17  19  1   
 36  17  41  1   
 37  18  20  1   
 38  18  21  2   
 39  19  20  1   
 40  19  22  2   
 41  20  23  1   
 42  21  24  1   
 43  21  42  1   
 44  23  24  2   
 45  24  25  1   
 46  25  43  1   
 47  25  44  1   
 48  25  45  1   
@<TRIPOS>SUBSTRUCTURE
  1 ****  11 GROUP 4 **** **** 0

# MOE 2024.06 (io_trps.svl 2023.06)
