@<TRIPOS>MOLECULE
NONAME
51 54 1 0 0 
SMALL
USER_CHARGES


@<TRIPOS>ATOM
  1 N        1.9600     2.2470    -0.8870 N.ar  1 <1>  -0.6200 
  2 C        0.7040     2.6360    -0.6900 C.ar  1 <1>   0.4100 
  3 C        2.0660     1.4240    -1.9220 C.ar  1 <1>   0.1600 
  4 N        0.5010     3.4980     0.3740 N.pl3 1 <1>  -0.8380 
  5 C       -0.3630     2.2120    -1.4990 C.ar  1 <1>   0.1600 
  6 C        1.0030     1.0110    -2.7150 C.ar  1 <1>   0.1600 
  7 C        0.7010     2.9160     1.7350 C.3   1 <1>   0.2090 
  8 C        1.0790     4.8660     0.2220 C.3   1 <1>   0.2090 
  9 N       -0.2500     1.3950    -2.5280 N.ar  1 <1>  -0.6200 
 10 C        2.1890     2.9530     2.1530 C.3   1 <1>   0.3430 
 11 C        2.5660     4.8940     0.6360 C.3   1 <1>   0.3430 
 12 N        2.8130     4.3200     2.0130 N.4   1 <1>  -0.9590 
 13 C        4.2560     4.2720     2.3400 C.3   1 <1>   0.5230 
 14 C        4.8030     5.6710     2.2100 C.2   1 <1>  -0.3320 
 15 N        5.5630     6.1270     1.1850 N.pl3 1 <1>   0.0480 
 16 C        4.6460     6.7050     3.0670 C.2   1 <1>   0.0770 
 17 C        5.7970     7.4220     1.4980 C.2   1 <1>   0.0360 
 18 C        6.0670     5.4020    -0.0140 C.3   1 <1>   0.1760 
 19 N        5.2590     7.8040     2.6080 N.2   1 <1>  -0.5650 
 20 C        7.5990     5.2840     0.0300 C.3   1 <1>  -0.1600 
 21 C        5.6010     6.0910    -1.3090 C.3   1 <1>  -0.1600 
 22 C        8.1270     4.5400    -1.2050 C.3   1 <1>  -0.1600 
 23 C        6.1230     5.3430    -2.5440 C.3   1 <1>  -0.1600 
 24 C        7.6510     5.2080    -2.5030 C.3   1 <1>  -0.1600 
 25 H        3.0480     1.0520    -2.1590 H     1 <1>   0.1500 
 26 H       -1.3430     2.5830    -1.2600 H     1 <1>   0.1500 
 27 H        1.1920     0.3390    -3.5350 H     1 <1>   0.1500 
 28 H        0.3590     1.8940     1.7380 H     1 <1>   0.0800 
 29 H        0.1050     3.4600     2.4470 H     1 <1>   0.0800 
 30 H        0.5180     5.5620     0.8220 H     1 <1>   0.0800 
 31 H        0.9930     5.1790    -0.8050 H     1 <1>   0.0800 
 32 H        2.7180     2.2550     1.5240 H     1 <1>   0.0800 
 33 H        2.2750     2.6100     3.1700 H     1 <1>   0.0800 
 34 H        2.9180     5.9120     0.5940 H     1 <1>   0.0800 
 35 H        3.1190     4.3240    -0.0920 H     1 <1>   0.0800 
 36 H        2.3750     4.9610     2.6840 H     1 <1>   0.4500 
 37 H        4.7740     3.5990     1.6770 H     1 <1>   0.0800 
 38 H        4.3920     3.9280     3.3530 H     1 <1>   0.0800 
 39 H        4.1190     6.7330     4.0080 H     1 <1>   0.1500 
 40 H        6.3870     8.0660     0.8670 H     1 <1>   0.1500 
 41 H        5.6600     4.4080    -0.0060 H     1 <1>   0.0800 
 42 H        7.9010     4.7560     0.9170 H     1 <1>   0.0800 
 43 H        8.0400     6.2660     0.0560 H     1 <1>   0.0800 
 44 H        5.9730     7.1010    -1.3390 H     1 <1>   0.0800 
 45 H        4.5270     6.1250    -1.3470 H     1 <1>   0.0800 
 46 H        7.7890     3.5180    -1.1860 H     1 <1>   0.0800 
 47 H        9.2040     4.5280    -1.1840 H     1 <1>   0.0800 
 48 H        5.8360     5.8750    -3.4360 H     1 <1>   0.0800 
 49 H        5.6800     4.3630    -2.5910 H     1 <1>   0.0800 
 50 H        7.9840     4.6300    -3.3480 H     1 <1>   0.0800 
 51 H        8.0970     6.1860    -2.5830 H     1 <1>   0.0800 
@<TRIPOS>BOND
  1   1   2  ar  
  2   1   3  ar  
  3   2   4  1   
  4   2   5  ar  
  5   3   6  ar  
  6   3  25  1   
  7   4   7  1   
  8   4   8  1   
  9   5   9  ar  
 10   5  26  1   
 11   6   9  ar  
 12   6  27  1   
 13   7  10  1   
 14   7  28  1   
 15   7  29  1   
 16   8  11  1   
 17   8  30  1   
 18   8  31  1   
 19  10  12  1   
 20  10  32  1   
 21  10  33  1   
 22  11  12  1   
 23  11  34  1   
 24  11  35  1   
 25  12  13  1   
 26  12  36  1   
 27  13  14  1   
 28  13  37  1   
 29  13  38  1   
 30  14  15  1   
 31  14  16  2   
 32  15  17  1   
 33  15  18  1   
 34  16  19  1   
 35  16  39  1   
 36  17  19  2   
 37  17  40  1   
 38  18  20  1   
 39  18  21  1   
 40  18  41  1   
 41  20  22  1   
 42  20  42  1   
 43  20  43  1   
 44  21  23  1   
 45  21  44  1   
 46  21  45  1   
 47  22  24  1   
 48  22  46  1   
 49  22  47  1   
 50  23  24  1   
 51  23  48  1   
 52  23  49  1   
 53  24  50  1   
 54  24  51  1   
@<TRIPOS>SUBSTRUCTURE
  1 ****  11 GROUP 4 **** **** 0

# MOE 2024.06 (io_trps.svl 2023.06)
