@<TRIPOS>MOLECULE
NONAME
56 59 1 0 0 
SMALL
USER_CHARGES


@<TRIPOS>ATOM
  1 O       -0.3400    -0.2900    -0.9980 O.2   1 <1>  -0.5700 
  2 C       -1.3560     0.3530    -0.8960 C.2   1 <1>   0.5690 
  3 N       -2.5860    -0.2430    -0.9160 N.am  1 <1>  -0.6600 
  4 C       -1.2160     1.8530    -0.7220 C.3   1 <1>  -0.0990 
  5 C       -3.9080     0.4220    -0.8140 C.3   1 <1>   0.1400 
  6 C       -2.7440    -1.7090    -1.0550 C.3   1 <1>   0.1400 
  7 C       -1.0370     2.2140     0.7580 C.3   1 <1>  -0.0220 
  8 C       -4.9340    -0.7000    -0.9820 C.3   1 <1>   0.2000 
  9 C       -4.1930    -1.9960    -0.6610 C.3   1 <1>  -0.0800 
 10 C       -0.8010     3.7180     0.9310 C.2   1 <1>  -0.1240 
 11 O       -6.0030    -0.5370    -0.1150 O.3   1 <1>  -0.6800 
 12 C       -4.7910    -3.2200    -1.3760 C.3   1 <1>  -0.0170 
 13 C       -1.8340     4.5960     1.0830 C.2   1 <1>  -0.0290 
 14 C        0.5310     4.2440     0.9340 C.2   1 <1>   0.3750 
 15 C       -4.0460    -4.4950    -0.9970 C.ar  1 <1>  -0.1440 
 16 N       -1.5110     5.9100     1.2420 N.am  1 <1>  -0.5390 
 17 C       -3.3250     4.2950     1.0950 C.3   1 <1>  -0.1020 
 18 N        0.8050     5.4910     1.0790 N.2   1 <1>  -0.6610 
 19 C        1.7330     3.3290     0.7640 C.3   1 <1>  -0.1790 
 20 C       -4.2620    -5.1620     0.2330 C.ar  1 <1>   0.0000 
 21 C       -3.1270    -5.0310    -1.8510 C.ar  1 <1>  -0.1500 
 22 C       -0.2300     6.3620     1.2420 C.2   1 <1>   0.8410 
 23 C       -3.4960    -6.3240     0.4940 C.ar  1 <1>   0.3100 
 24 C       -5.1920    -4.7470     1.2150 C.ar  1 <1>  -0.1500 
 25 C       -2.4280    -6.1910    -1.4980 C.ar  1 <1>   0.1600 
 26 O       -0.0320     7.5520     1.3880 O.2   1 <1>  -0.5700 
 27 N       -2.5870    -6.8250    -0.3800 N.ar  1 <1>  -0.6200 
 28 C       -3.6780    -6.9990     1.7120 C.ar  1 <1>  -0.1500 
 29 C       -5.3460    -5.4290     2.3920 C.ar  1 <1>  -0.1500 
 30 C       -4.5800    -6.5680     2.6470 C.ar  1 <1>  -0.1500 
 31 H       -0.3550     2.1720    -1.2790 H     1 <1>   0.0800 
 32 H       -2.0660     2.3640    -1.1320 H     1 <1>   0.0800 
 33 H       -4.0020     0.8850     0.1520 H     1 <1>   0.0800 
 34 H       -4.0240     1.1530    -1.5950 H     1 <1>   0.0800 
 35 H       -2.5590    -1.9810    -2.0800 H     1 <1>   0.0800 
 36 H       -2.0510    -2.2350    -0.4190 H     1 <1>   0.0800 
 37 H       -0.2210     1.6470     1.1680 H     1 <1>   0.0800 
 38 H       -1.9060     1.9070     1.3110 H     1 <1>   0.0800 
 39 H       -5.3120    -0.6990    -1.9910 H     1 <1>   0.0800 
 40 H       -4.2000    -2.1570     0.4020 H     1 <1>   0.0800 
 41 H       -5.7120    -0.6440     0.8110 H     1 <1>   0.4000 
 42 H       -4.7370    -3.0730    -2.4410 H     1 <1>   0.0800 
 43 H       -5.8340    -3.3190    -1.1310 H     1 <1>   0.0800 
 44 H       -2.2020     6.6470     1.3710 H     1 <1>   0.3700 
 45 H       -3.8310     4.9450     0.4040 H     1 <1>   0.0800 
 46 H       -3.7210     4.4670     2.0800 H     1 <1>   0.0800 
 47 H       -3.5430     3.2850     0.8120 H     1 <1>   0.0800 
 48 H        1.6370     2.7360    -0.1260 H     1 <1>   0.0800 
 49 H        1.8290     2.6860     1.6180 H     1 <1>   0.0800 
 50 H        2.6340     3.9100     0.6800 H     1 <1>   0.0800 
 51 H       -2.9110    -4.5840    -2.8040 H     1 <1>   0.1500 
 52 H       -5.7960    -3.8780     1.0390 H     1 <1>   0.1500 
 53 H       -1.7100    -6.5790    -2.2000 H     1 <1>   0.1500 
 54 H       -3.0790    -7.8730     1.8850 H     1 <1>   0.1500 
 55 H       -6.0570    -5.1020     3.1310 H     1 <1>   0.1500 
 56 H       -4.7080    -7.0960     3.5760 H     1 <1>   0.1500 
@<TRIPOS>BOND
  1   1   2  2   
  2   2   3  am  
  3   2   4  1   
  4   3   5  1   
  5   3   6  1   
  6   4   7  1   
  7   4  31  1   
  8   4  32  1   
  9   5   8  1   
 10   5  33  1   
 11   5  34  1   
 12   6   9  1   
 13   6  35  1   
 14   6  36  1   
 15   7  10  1   
 16   7  37  1   
 17   7  38  1   
 18   8   9  1   
 19   8  11  1   
 20   8  39  1   
 21   9  12  1   
 22   9  40  1   
 23  10  13  2   
 24  10  14  1   
 25  11  41  1   
 26  12  15  1   
 27  12  42  1   
 28  12  43  1   
 29  13  16  1   
 30  13  17  1   
 31  14  18  2   
 32  14  19  1   
 33  15  20  ar  
 34  15  21  ar  
 35  16  22  am  
 36  16  44  1   
 37  17  45  1   
 38  17  46  1   
 39  17  47  1   
 40  18  22  1   
 41  19  48  1   
 42  19  49  1   
 43  19  50  1   
 44  20  23  ar  
 45  20  24  ar  
 46  21  25  ar  
 47  21  51  1   
 48  22  26  2   
 49  23  27  ar  
 50  23  28  ar  
 51  24  29  ar  
 52  24  52  1   
 53  25  27  ar  
 54  25  53  1   
 55  28  30  ar  
 56  28  54  1   
 57  29  30  ar  
 58  29  55  1   
 59  30  56  1   
@<TRIPOS>SUBSTRUCTURE
  1 ****   3 GROUP 4 **** **** 0

# MOE 2024.06 (io_trps.svl 2023.06)
