@<TRIPOS>MOLECULE
NONAME
44 45 1 0 0 
SMALL
USER_CHARGES


@<TRIPOS>ATOM
  1 S       -0.6830    -0.3680    -1.6150 S.3   1 <1>  -0.0800 
  2 C       -1.0040    -2.0120    -1.1740 C.2   1 <1>   0.4420 
  3 C       -0.5460    -0.0230     0.0760 C.2   1 <1>   0.1980 
  4 N       -0.9950    -2.1880     0.0960 N.2   1 <1>  -0.3380 
  5 N       -1.2320    -2.9120    -2.1880 N.am  1 <1>  -0.4940 
  6 N       -0.7320    -1.0500     0.8030 N.2   1 <1>  -0.3380 
  7 C       -0.2380     1.4000     0.5010 C.3   1 <1>   0.0200 
  8 C       -1.5310    -4.2410    -2.1260 C.2   1 <1>   0.7160 
  9 C        1.2180     1.7800     0.1930 C.3   1 <1>  -0.1600 
 10 O       -1.9200    -4.7380    -3.1620 O.2   1 <1>  -0.5700 
 11 C       -1.3900    -5.0390    -0.9150 C.2   1 <1>   0.1410 
 12 C        1.5350     3.2100     0.6510 C.3   1 <1>  -0.1600 
 13 N       -2.4840    -5.7660    -0.4140 N.2   1 <1>  -0.5650 
 14 C       -0.2640    -5.1670    -0.1760 C.2   1 <1>  -0.1100 
 15 C        2.9900     3.5780     0.3400 C.3   1 <1>  -0.1600 
 16 C       -2.1940    -6.4040     0.6490 C.2   1 <1>   0.1980 
 17 S       -0.5450    -6.2100     1.1800 S.3   1 <1>  -0.0800 
 18 C        3.3060     5.0040     0.7970 C.3   1 <1>  -0.2400 
 19 C       -3.1080    -7.2880     1.4890 C.3   1 <1>   0.5230 
 20 N       -4.4160    -7.4890     0.7780 N.4   1 <1>  -0.9590 
 21 C       -5.5220    -7.8860     1.6980 C.3   1 <1>   0.2630 
 22 C       -4.2730    -8.4310    -0.3770 C.3   1 <1>   0.2630 
 23 H       -1.3130    -2.5380    -3.1300 H     1 <1>   0.3700 
 24 H       -0.4140     1.4860     1.5590 H     1 <1>   0.0800 
 25 H       -0.9100     2.0700    -0.0040 H     1 <1>   0.0800 
 26 H        1.3950     1.6970    -0.8650 H     1 <1>   0.0800 
 27 H        1.8740     1.0890     0.6960 H     1 <1>   0.0800 
 28 H        1.3660     3.2940     1.7110 H     1 <1>   0.0800 
 29 H        0.8780     3.9030     0.1510 H     1 <1>   0.0800 
 30 H        0.7170    -4.7400    -0.2900 H     1 <1>   0.1500 
 31 H        3.1670     3.5000    -0.7190 H     1 <1>   0.0800 
 32 H        3.6530     2.8920     0.8400 H     1 <1>   0.0800 
 33 H        2.6710     5.7120     0.2930 H     1 <1>   0.0800 
 34 H        4.3300     5.2440     0.5720 H     1 <1>   0.0800 
 35 H        3.1590     5.1010     1.8590 H     1 <1>   0.0800 
 36 H       -3.2740    -6.7980     2.4340 H     1 <1>   0.0800 
 37 H       -2.6310    -8.2360     1.6710 H     1 <1>   0.0800 
 38 H       -4.6170    -6.5590     0.3640 H     1 <1>   0.4500 
 39 H       -5.3140    -8.8450     2.1450 H     1 <1>   0.0800 
 40 H       -6.4510    -7.9540     1.1550 H     1 <1>   0.0800 
 41 H       -5.6390    -7.1550     2.4820 H     1 <1>   0.0800 
 42 H       -4.0000    -9.4150    -0.0320 H     1 <1>   0.0800 
 43 H       -3.5110    -8.0770    -1.0540 H     1 <1>   0.0800 
 44 H       -5.2010    -8.4990    -0.9210 H     1 <1>   0.0800 
@<TRIPOS>BOND
  1   1   2  1   
  2   1   3  1   
  3   2   4  2   
  4   2   5  1   
  5   3   6  2   
  6   3   7  1   
  7   4   6  1   
  8   5   8  am  
  9   5  23  1   
 10   7   9  1   
 11   7  24  1   
 12   7  25  1   
 13   8  10  2   
 14   8  11  1   
 15   9  12  1   
 16   9  26  1   
 17   9  27  1   
 18  11  13  1   
 19  11  14  2   
 20  12  15  1   
 21  12  28  1   
 22  12  29  1   
 23  13  16  2   
 24  14  17  1   
 25  14  30  1   
 26  15  18  1   
 27  15  31  1   
 28  15  32  1   
 29  16  17  1   
 30  16  19  1   
 31  18  33  1   
 32  18  34  1   
 33  18  35  1   
 34  19  20  1   
 35  19  36  1   
 36  19  37  1   
 37  20  21  1   
 38  20  22  1   
 39  20  38  1   
 40  21  39  1   
 41  21  40  1   
 42  21  41  1   
 43  22  42  1   
 44  22  43  1   
 45  22  44  1   
@<TRIPOS>SUBSTRUCTURE
  1 ****   4 GROUP 4 **** **** 0

# MOE 2024.06 (io_trps.svl 2023.06)
