@<TRIPOS>MOLECULE
NONAME
25 25 1 0 0 
SMALL
USER_CHARGES


@<TRIPOS>ATOM
  1 S        0.0920    -0.1200    -0.4980 S.3   1 <1>  -0.3710 
  2 C        0.1170     1.6760    -0.4530 C.2   1 <1>   0.6510 
  3 C        1.8380    -0.7260    -0.4110 C.3   1 <1>  -0.0100 
  4 N       -0.7970     2.2550    -1.1880 N.2   1 <1>  -0.4500 
  5 N        1.0320     2.3430     0.3250 N.am  1 <1>  -0.1110 
  6 N       -0.8760     3.5970    -1.2500 N.2   1 <1>  -0.4500 
  7 N        1.9830     1.7130     1.2600 N.3   1 <1>  -0.7290 
  8 C        0.9720     3.7230     0.2550 C.2   1 <1>   0.6300 
  9 C       -0.0330     4.3090    -0.5670 C.2   1 <1>   0.3890 
 10 O        1.7910     4.3840     0.9110 O.2   1 <1>  -0.5700 
 11 C       -0.1470     5.8280    -0.6620 C.3   1 <1>  -0.0990 
 12 C       -0.9600     6.4110     0.5040 C.3   1 <1>  -0.1600 
 13 C       -1.0810     7.9330     0.3890 C.3   1 <1>  -0.2400 
 14 H        1.8760    -1.6800    -0.9050 H     1 <1>   0.0800 
 15 H        2.1070    -0.8250     0.6250 H     1 <1>   0.0800 
 16 H        2.4670    -0.0110    -0.9120 H     1 <1>   0.0800 
 17 H        1.5520     1.7130     2.1940 H     1 <1>   0.3600 
 18 H        2.7820     2.3610     1.3430 H     1 <1>   0.3600 
 19 H       -0.6250     6.0830    -1.5920 H     1 <1>   0.0800 
 20 H        0.8380     6.2610    -0.6720 H     1 <1>   0.0800 
 21 H       -0.4830     6.1650     1.4390 H     1 <1>   0.0800 
 22 H       -1.9450     5.9760     0.5070 H     1 <1>   0.0800 
 23 H       -0.1080     8.3920     0.4070 H     1 <1>   0.0800 
 24 H       -1.6540     8.3200     1.2130 H     1 <1>   0.0800 
 25 H       -1.5770     8.2040    -0.5270 H     1 <1>   0.0800 
@<TRIPOS>BOND
  1   1   2  1   
  2   1   3  1   
  3   2   4  2   
  4   2   5  1   
  5   3  14  1   
  6   3  15  1   
  7   3  16  1   
  8   4   6  1   
  9   5   7  1   
 10   5   8  am  
 11   6   9  2   
 12   7  17  1   
 13   7  18  1   
 14   8   9  1   
 15   8  10  2   
 16   9  11  1   
 17  11  12  1   
 18  11  19  1   
 19  11  20  1   
 20  12  13  1   
 21  12  21  1   
 22  12  22  1   
 23  13  23  1   
 24  13  24  1   
 25  13  25  1   
@<TRIPOS>SUBSTRUCTURE
  1 ****   8 GROUP 4 **** **** 0

# MOE 2024.06 (io_trps.svl 2023.06)
