@<TRIPOS>MOLECULE
NONAME
38 39 1 0 0 
SMALL
USER_CHARGES


@<TRIPOS>ATOM
  1 O        0.9720     0.2560     1.5410 O.2   1 <1>  -0.5700 
  2 C        1.6960    -0.5260     0.9680 C.2   1 <1>   0.5690 
  3 N        1.2970    -1.8160     0.8190 N.am  1 <1>  -0.7300 
  4 C        3.0500    -0.0500     0.3920 C.3   1 <1>   0.3500 
  5 C        1.9420    -2.8290    -0.0470 C.3   1 <1>   0.1400 
  6 N        2.9870     1.3560    -0.1030 N.pl3 1 <1>  -0.8690 
  7 C        3.5140    -0.9550    -0.7590 C.3   1 <1>  -0.1600 
  8 C        3.3910    -2.4370    -0.3650 C.3   1 <1>  -0.1600 
  9 C        4.0290     2.2360     0.0360 C.ar  1 <1>   0.4100 
 10 N        5.2390     1.7250     0.1360 N.ar  1 <1>  -0.6200 
 11 C        3.8130     3.6090     0.0700 C.ar  1 <1>  -0.1430 
 12 C        6.2220     2.5890     0.2650 C.ar  1 <1>   0.4770 
 13 C        4.9280     4.3980     0.2120 C.ar  1 <1>   0.1600 
 14 C        2.3890     4.1660    -0.0470 C.3   1 <1>  -0.0170 
 15 N        6.1460     3.9040     0.3110 N.ar  1 <1>  -0.6200 
 16 C        7.6120     2.0110     0.3740 C.3   1 <1>  -0.0970 
 17 C        2.2790     5.6980    -0.0470 C.3   1 <1>  -0.1600 
 18 C        0.8220     6.1510    -0.1820 C.3   1 <1>  -0.2400 
 19 H        0.3790    -2.0470     1.2040 H     1 <1>   0.3700 
 20 H        3.7670    -0.1090     1.1930 H     1 <1>   0.0800 
 21 H        1.3790    -2.9050    -0.9630 H     1 <1>   0.0800 
 22 H        1.9220    -3.7880     0.4430 H     1 <1>   0.0800 
 23 H        2.0630     1.7430     0.1060 H     1 <1>   0.4000 
 24 H        4.5360    -0.7250    -1.0000 H     1 <1>   0.0800 
 25 H        2.9070    -0.7640    -1.6270 H     1 <1>   0.0800 
 26 H        3.7540    -3.0550    -1.1670 H     1 <1>   0.0800 
 27 H        4.0060    -2.6330     0.4960 H     1 <1>   0.0800 
 28 H        4.8480     5.4690     0.2480 H     1 <1>   0.1500 
 29 H        1.8070     3.7800     0.7730 H     1 <1>   0.0800 
 30 H        1.9560     3.7920    -0.9590 H     1 <1>   0.0800 
 31 H        7.5760     0.9380     0.3930 H     1 <1>   0.0800 
 32 H        8.0760     2.3620     1.2770 H     1 <1>   0.0800 
 33 H        8.1960     2.3290    -0.4690 H     1 <1>   0.0800 
 34 H        2.8470     6.1000    -0.8690 H     1 <1>   0.0800 
 35 H        2.6810     6.0890     0.8720 H     1 <1>   0.0800 
 36 H        0.3990     5.7930    -1.1040 H     1 <1>   0.0800 
 37 H        0.7690     7.2260    -0.1780 H     1 <1>   0.0800 
 38 H        0.2330     5.7780     0.6380 H     1 <1>   0.0800 
@<TRIPOS>BOND
  1   1   2  2   
  2   2   3  am  
  3   2   4  1   
  4   3   5  1   
  5   3  19  1   
  6   4   6  1   
  7   4   7  1   
  8   4  20  1   
  9   5   8  1   
 10   5  21  1   
 11   5  22  1   
 12   6   9  1   
 13   6  23  1   
 14   7   8  1   
 15   7  24  1   
 16   7  25  1   
 17   8  26  1   
 18   8  27  1   
 19   9  10  ar  
 20   9  11  ar  
 21  10  12  ar  
 22  11  13  ar  
 23  11  14  1   
 24  12  15  ar  
 25  12  16  1   
 26  13  15  ar  
 27  13  28  1   
 28  14  17  1   
 29  14  29  1   
 30  14  30  1   
 31  16  31  1   
 32  16  32  1   
 33  16  33  1   
 34  17  18  1   
 35  17  34  1   
 36  17  35  1   
 37  18  36  1   
 38  18  37  1   
 39  18  38  1   
@<TRIPOS>SUBSTRUCTURE
  1 ****   6 GROUP 4 **** **** 0

# MOE 2024.06 (io_trps.svl 2023.06)
