@<TRIPOS>MOLECULE
NONAME
45 46 1 0 0 
SMALL
USER_CHARGES


@<TRIPOS>ATOM
  1 F        0.5040     0.2290    -0.0840 F     1 <1>  -0.1900 
  2 C        1.5720     0.9980    -0.1510 C.ar  1 <1>   0.1900 
  3 C        2.7730     0.6470     0.4620 C.ar  1 <1>   0.4100 
  4 C        1.5010     2.1790    -0.8350 C.ar  1 <1>   0.1600 
  5 N        3.8160     1.4410     0.3820 N.ar  1 <1>  -0.6200 
  6 N        3.0120    -0.4970     1.1880 N.pl3 1 <1>  -0.8690 
  7 N        2.5420     2.9850    -0.9260 N.ar  1 <1>  -0.6200 
  8 C        3.6420     2.5560    -0.3100 C.ar  1 <1>   0.7200 
  9 C        2.4080    -1.8100     0.8570 C.3   1 <1>   0.1290 
 10 N        4.7440     3.3390    -0.3710 N.pl3 1 <1>  -0.8690 
 11 C        4.6730     4.7960    -0.5760 C.3   1 <1>   0.2090 
 12 C        6.0610     5.3950    -0.3620 C.3   1 <1>  -0.1600 
 13 C        6.0560     6.9100    -0.5990 C.3   1 <1>  -0.0170 
 14 C        7.4420     7.4870    -0.3670 C.ar  1 <1>  -0.1430 
 15 C        8.3710     7.5110    -1.3940 C.ar  1 <1>  -0.1500 
 16 C        7.7950     7.9940     0.8730 C.ar  1 <1>  -0.1500 
 17 C        9.6350     8.0350    -1.1830 C.ar  1 <1>  -0.1500 
 18 C        9.0590     8.5180     1.0820 C.ar  1 <1>  -0.1500 
 19 C        9.9930     8.5430     0.0570 C.ar  1 <1>  -0.1430 
 20 C       11.3840     9.1220     0.3070 C.3   1 <1>   0.0630 
 21 C       11.6450    10.3310    -0.5970 C.3   1 <1>  -0.2400 
 22 C       12.4620     8.0520     0.1100 C.3   1 <1>  -0.2400 
 23 H        0.5830     2.4700    -1.3140 H     1 <1>   0.1500 
 24 H        3.9880    -0.5430     1.4950 H     1 <1>   0.4000 
 25 H        2.3060    -1.9140    -0.2100 H     1 <1>   0.0800 
 26 H        1.4370    -1.8880     1.3150 H     1 <1>   0.0800 
 27 H        3.0340    -2.6030     1.2280 H     1 <1>   0.0800 
 28 H        5.4620     3.0170     0.2770 H     1 <1>   0.4000 
 29 H        3.9690     5.2230     0.1180 H     1 <1>   0.0800 
 30 H        4.3320     4.9930    -1.5790 H     1 <1>   0.0800 
 31 H        6.7550     4.9360    -1.0440 H     1 <1>   0.0800 
 32 H        6.3850     5.1990     0.6450 H     1 <1>   0.0800 
 33 H        5.3540     7.3820     0.0660 H     1 <1>   0.0800 
 34 H        5.7450     7.1210    -1.6070 H     1 <1>   0.0800 
 35 H        8.1160     7.1200    -2.3630 H     1 <1>   0.1500 
 36 H        7.0880     7.9840     1.6830 H     1 <1>   0.1500 
 37 H       10.3400     8.0430    -1.9940 H     1 <1>   0.1500 
 38 H        9.3110     8.9060     2.0530 H     1 <1>   0.1500 
 39 H       11.4390     9.4580     1.3280 H     1 <1>   0.0800 
 40 H       11.6510    10.0420    -1.6320 H     1 <1>   0.0800 
 41 H       12.5930    10.7770    -0.3580 H     1 <1>   0.0800 
 42 H       10.8740    11.0670    -0.4510 H     1 <1>   0.0800 
 43 H       12.4860     7.7150    -0.9110 H     1 <1>   0.0800 
 44 H       12.2570     7.2070     0.7440 H     1 <1>   0.0800 
 45 H       13.4290     8.4460     0.3650 H     1 <1>   0.0800 
@<TRIPOS>BOND
  1   1   2  1   
  2   2   3  ar  
  3   2   4  ar  
  4   3   5  ar  
  5   3   6  1   
  6   4   7  ar  
  7   4  23  1   
  8   5   8  ar  
  9   6   9  1   
 10   6  24  1   
 11   7   8  ar  
 12   8  10  1   
 13   9  25  1   
 14   9  26  1   
 15   9  27  1   
 16  10  11  1   
 17  10  28  1   
 18  11  12  1   
 19  11  29  1   
 20  11  30  1   
 21  12  13  1   
 22  12  31  1   
 23  12  32  1   
 24  13  14  1   
 25  13  33  1   
 26  13  34  1   
 27  14  15  ar  
 28  14  16  ar  
 29  15  17  ar  
 30  15  35  1   
 31  16  18  ar  
 32  16  36  1   
 33  17  19  ar  
 34  17  37  1   
 35  18  19  ar  
 36  18  38  1   
 37  19  20  1   
 38  20  21  1   
 39  20  22  1   
 40  20  39  1   
 41  21  40  1   
 42  21  41  1   
 43  21  42  1   
 44  22  43  1   
 45  22  44  1   
 46  22  45  1   
@<TRIPOS>SUBSTRUCTURE
  1 ****  12 GROUP 4 **** **** 0

# MOE 2024.06 (io_trps.svl 2023.06)
