@<TRIPOS>MOLECULE
NONAME
58 61 1 0 0 
SMALL
USER_CHARGES


@<TRIPOS>ATOM
  1 O       -2.6000     0.4260     2.1250 O.2   1 <1>  -0.5700 
  2 C       -2.0410     0.6170     1.0690 C.2   1 <1>   0.5690 
  3 N       -1.5580    -0.4150     0.3190 N.am  1 <1>  -0.7300 
  4 C       -1.8950     2.0620     0.4820 C.3   1 <1>   0.3310 
  5 C       -1.5720    -1.8900     0.5270 C.3   1 <1>   0.2200 
  6 N       -0.8060     2.0340    -0.5900 N.3   1 <1>  -0.8100 
  7 C       -1.5770     3.0580     1.6360 C.3   1 <1>  -0.1600 
  8 C       -3.2860     2.4330    -0.1090 C.3   1 <1>  -0.1600 
  9 C       -2.8220    -2.5840     0.0040 C.3   1 <1>  -0.0800 
 10 C       -1.4960    -2.3940     1.9680 C.3   1 <1>   0.1200 
 11 C        0.5800     1.9970    -0.0630 C.3   1 <1>   0.1100 
 12 C       -0.8700     2.9330    -1.7640 C.3   1 <1>   0.1100 
 13 C       -1.7290     4.5390     1.2660 C.3   1 <1>  -0.1600 
 14 C       -3.5650     3.9320    -0.3730 C.3   1 <1>  -0.1600 
 15 C       -2.7390    -3.9170     0.7560 C.3   1 <1>   0.1200 
 16 C       -4.1390    -1.8400     0.3150 C.3   1 <1>  -0.0170 
 17 O       -2.0450    -3.6800     1.9450 O.3   1 <1>  -0.5600 
 18 C        1.5970     1.6620    -1.1660 C.3   1 <1>   0.1200 
 19 C        0.2150     2.5910    -2.8030 C.3   1 <1>   0.1200 
 20 C       -3.1660     4.8190     0.8110 C.3   1 <1>  -0.1600 
 21 C       -5.3550    -2.6090    -0.1800 C.ar  1 <1>  -0.1430 
 22 O        1.4840     2.5720    -2.2190 O.3   1 <1>  -0.5600 
 23 C       -5.6720    -2.6880    -1.5200 C.ar  1 <1>  -0.1500 
 24 C       -6.2060    -3.2630     0.6880 C.ar  1 <1>  -0.1500 
 25 C       -6.7900    -3.4030    -1.9180 C.ar  1 <1>   0.1600 
 26 C       -7.2980    -3.9510     0.1860 C.ar  1 <1>   0.1600 
 27 N       -7.6100    -4.0380    -1.0970 N.ar  1 <1>  -0.6200 
 28 H       -1.1040    -0.0910    -0.5440 H     1 <1>   0.3700 
 29 H       -0.7170    -2.2970     0.0140 H     1 <1>   0.0800 
 30 H       -2.2750     2.8750     2.4340 H     1 <1>   0.0800 
 31 H       -0.6080     2.8720     2.0580 H     1 <1>   0.0800 
 32 H       -3.4680     1.8560    -0.9970 H     1 <1>   0.0800 
 33 H       -4.0260     2.1200     0.6080 H     1 <1>   0.0800 
 34 H       -2.7460    -2.7550    -1.0540 H     1 <1>   0.0800 
 35 H       -2.0950    -1.8120     2.6420 H     1 <1>   0.0800 
 36 H       -0.4840    -2.4520     2.3250 H     1 <1>   0.0800 
 37 H        0.8410     2.9560     0.3510 H     1 <1>   0.0800 
 38 H        0.6590     1.2600     0.7180 H     1 <1>   0.0800 
 39 H       -1.8180     2.8270    -2.2560 H     1 <1>   0.0800 
 40 H       -0.7470     3.9560    -1.4620 H     1 <1>   0.0800 
 41 H       -1.5090     5.1440     2.1290 H     1 <1>   0.0800 
 42 H       -1.0310     4.8080     0.4960 H     1 <1>   0.0800 
 43 H       -3.0490     4.2770    -1.2470 H     1 <1>   0.0800 
 44 H       -4.6150     4.0620    -0.5670 H     1 <1>   0.0800 
 45 H       -2.1700    -4.6350     0.1910 H     1 <1>   0.0800 
 46 H       -3.7010    -4.3360     0.9910 H     1 <1>   0.0800 
 47 H       -4.1370    -0.8780    -0.1650 H     1 <1>   0.0800 
 48 H       -4.2230    -1.6680     1.3740 H     1 <1>   0.0800 
 49 H        1.4350     0.6690    -1.5470 H     1 <1>   0.0800 
 50 H        2.5990     1.7290    -0.7820 H     1 <1>   0.0800 
 51 H        0.2250     3.3290    -3.5850 H     1 <1>   0.0800 
 52 H        0.0250     1.6270    -3.2410 H     1 <1>   0.0800 
 53 H       -3.2630     5.8550     0.5360 H     1 <1>   0.0800 
 54 H       -3.8380     4.6350     1.6320 H     1 <1>   0.0800 
 55 H       -5.0620    -2.2000    -2.2580 H     1 <1>   0.1500 
 56 H       -6.0280    -3.2440     1.7480 H     1 <1>   0.1500 
 57 H       -7.0220    -3.4540    -2.9680 H     1 <1>   0.1500 
 58 H       -7.9500    -4.4560     0.8780 H     1 <1>   0.1500 
@<TRIPOS>BOND
  1   1   2  2   
  2   2   3  am  
  3   2   4  1   
  4   3   5  1   
  5   3  28  1   
  6   4   6  1   
  7   4   7  1   
  8   4   8  1   
  9   5   9  1   
 10   5  10  1   
 11   5  29  1   
 12   6  11  1   
 13   6  12  1   
 14   7  13  1   
 15   7  30  1   
 16   7  31  1   
 17   8  14  1   
 18   8  32  1   
 19   8  33  1   
 20   9  15  1   
 21   9  16  1   
 22   9  34  1   
 23  10  17  1   
 24  10  35  1   
 25  10  36  1   
 26  11  18  1   
 27  11  37  1   
 28  11  38  1   
 29  12  19  1   
 30  12  39  1   
 31  12  40  1   
 32  13  20  1   
 33  13  41  1   
 34  13  42  1   
 35  14  20  1   
 36  14  43  1   
 37  14  44  1   
 38  15  17  1   
 39  15  45  1   
 40  15  46  1   
 41  16  21  1   
 42  16  47  1   
 43  16  48  1   
 44  18  22  1   
 45  18  49  1   
 46  18  50  1   
 47  19  22  1   
 48  19  51  1   
 49  19  52  1   
 50  20  53  1   
 51  20  54  1   
 52  21  23  ar  
 53  21  24  ar  
 54  23  25  ar  
 55  23  55  1   
 56  24  26  ar  
 57  24  56  1   
 58  25  27  ar  
 59  25  57  1   
 60  26  27  ar  
 61  26  58  1   
@<TRIPOS>SUBSTRUCTURE
  1 ****   3 GROUP 4 **** **** 0

# MOE 2024.06 (io_trps.svl 2023.06)
