@<TRIPOS>MOLECULE
NONAME
45 47 1 0 0 
SMALL
USER_CHARGES


@<TRIPOS>ATOM
  1 S        0.3260     0.2920     0.0860 S.3   1 <1>  -0.0800 
  2 C        0.3360     2.0550    -0.0570 C.2   1 <1>  -0.0450 
  3 C       -1.2440     0.1590    -0.6700 C.2   1 <1>  -0.1100 
  4 C        1.4770     2.7750     0.4400 C.2   1 <1>   0.5940 
  5 C       -0.8260     2.4390    -0.6540 C.2   1 <1>  -0.1500 
  6 C       -1.7100     1.3770    -0.9980 C.2   1 <1>  -0.1500 
  7 O        2.4040     2.2460     1.0060 O.2   1 <1>  -0.5700 
  8 C        1.5190     4.2910     0.2610 C.3   1 <1>  -0.0190 
  9 C        2.9520     4.7750    -0.0070 C.3   1 <1>   0.1100 
 10 C        0.9300     5.0150     1.4840 C.3   1 <1>  -0.1600 
 11 N        2.9740     6.2340    -0.2150 N.3   1 <1>  -0.8100 
 12 C        1.0540     6.5340     1.3050 C.3   1 <1>  -0.1600 
 13 C        2.4920     6.9520     0.9790 C.3   1 <1>   0.1100 
 14 C        4.3340     6.6630    -0.6570 C.3   1 <1>   0.1710 
 15 C        4.4760     8.1180    -1.1250 C.2   1 <1>   0.5690 
 16 O        4.4930     8.3520    -2.3090 O.2   1 <1>  -0.5700 
 17 N        4.6300     9.0830    -0.1700 N.am  1 <1>  -0.5470 
 18 C        4.7680    10.4510    -0.2160 C.ar  1 <1>   0.4270 
 19 N        4.8430    10.9850     0.9930 N.ar  1 <1>  -0.6200 
 20 C        4.8250    11.2010    -1.3890 C.ar  1 <1>  -0.1500 
 21 C        4.9780    12.3010     1.0370 C.ar  1 <1>   0.1600 
 22 C        4.9650    12.5680    -1.3250 C.ar  1 <1>  -0.1500 
 23 C        5.0450    13.1340    -0.0690 C.ar  1 <1>  -0.1430 
 24 C        5.2010    14.6390     0.0740 C.3   1 <1>  -0.0970 
 25 H       -1.6570    -0.8270    -0.7900 H     1 <1>   0.1500 
 26 H       -1.1040     3.4560    -0.8710 H     1 <1>   0.1500 
 27 H       -2.6560     1.5700    -1.4750 H     1 <1>   0.1500 
 28 H        0.9410     4.5460    -0.6070 H     1 <1>   0.0800 
 29 H        3.3250     4.2800    -0.8880 H     1 <1>   0.0800 
 30 H        3.5900     4.5150     0.8220 H     1 <1>   0.0800 
 31 H        1.4680     4.7160     2.3690 H     1 <1>   0.0800 
 32 H       -0.1040     4.7470     1.6140 H     1 <1>   0.0800 
 33 H        0.7350     7.0320     2.2030 H     1 <1>   0.0800 
 34 H        0.4140     6.8600     0.5040 H     1 <1>   0.0800 
 35 H        2.4930     8.0120     0.7960 H     1 <1>   0.0800 
 36 H        3.1340     6.7430     1.8180 H     1 <1>   0.0800 
 37 H        4.6290     6.0470    -1.4880 H     1 <1>   0.0800 
 38 H        5.0380     6.4870     0.1360 H     1 <1>   0.0800 
 39 H        4.6010     8.7680     0.7940 H     1 <1>   0.3700 
 40 H        4.7580    10.7210    -2.3460 H     1 <1>   0.1500 
 41 H        5.0400    12.7420     2.0170 H     1 <1>   0.1500 
 42 H        5.0110    13.1650    -2.2190 H     1 <1>   0.1500 
 43 H        5.2530    14.9250     1.1090 H     1 <1>   0.0800 
 44 H        4.3630    15.1380    -0.3780 H     1 <1>   0.0800 
 45 H        6.1030    14.9610    -0.4160 H     1 <1>   0.0800 
@<TRIPOS>BOND
  1   1   2  1   
  2   1   3  1   
  3   2   4  1   
  4   2   5  2   
  5   3   6  2   
  6   3  25  1   
  7   4   7  2   
  8   4   8  1   
  9   5   6  1   
 10   5  26  1   
 11   6  27  1   
 12   8   9  1   
 13   8  10  1   
 14   8  28  1   
 15   9  11  1   
 16   9  29  1   
 17   9  30  1   
 18  10  12  1   
 19  10  31  1   
 20  10  32  1   
 21  11  13  1   
 22  11  14  1   
 23  12  13  1   
 24  12  33  1   
 25  12  34  1   
 26  13  35  1   
 27  13  36  1   
 28  14  15  1   
 29  14  37  1   
 30  14  38  1   
 31  15  16  2   
 32  15  17  am  
 33  17  18  1   
 34  17  39  1   
 35  18  19  ar  
 36  18  20  ar  
 37  19  21  ar  
 38  20  22  ar  
 39  20  40  1   
 40  21  23  ar  
 41  21  41  1   
 42  22  23  ar  
 43  22  42  1   
 44  23  24  1   
 45  24  43  1   
 46  24  44  1   
 47  24  45  1   
@<TRIPOS>SUBSTRUCTURE
  1 ****  11 GROUP 4 **** **** 0

# MOE 2024.06 (io_trps.svl 2023.06)
