@<TRIPOS>MOLECULE
NONAME
42 44 1 0 0 
SMALL
USER_CHARGES


@<TRIPOS>ATOM
  1 O       -0.0070    -2.4400     0.8670 O.3   1 <1>  -0.6800 
  2 C        0.6180    -2.4640    -0.3600 C.3   1 <1>   0.2000 
  3 C        1.4710    -3.7180    -0.4750 C.3   1 <1>  -0.1600 
  4 C        1.6010    -1.3080    -0.4420 C.3   1 <1>  -0.1600 
  5 C        2.6440    -3.3280    -1.3870 C.3   1 <1>  -0.0800 
  6 C        2.7160    -1.7920    -1.3780 C.3   1 <1>  -0.0800 
  7 C        4.0010    -3.8220    -0.8710 C.3   1 <1>  -0.1600 
  8 C        4.1170    -1.4310    -0.8740 C.3   1 <1>  -0.1600 
  9 C        4.5610    -2.6500    -0.0690 C.3   1 <1>   0.4230 
 10 N        6.0360    -2.7240     0.0680 N.4   1 <1>  -0.9590 
 11 C        6.6340    -1.5200     0.7080 C.3   1 <1>   0.5230 
 12 C        6.5400    -3.9880     0.6800 C.3   1 <1>   0.2630 
 13 C        7.4410    -0.7950    -0.3610 C.2   1 <1>   0.0060 
 14 N        7.6460    -1.2880    -1.5470 N.2   1 <1>  -0.5650 
 15 N        8.0090     0.4230    -0.1720 N.pl3 1 <1>   0.0480 
 16 C        8.3850    -0.3470    -2.1630 C.2   1 <1>   0.0770 
 17 C        8.6130     0.6980    -1.3410 C.2   1 <1>  -0.3020 
 18 C        8.0030     1.3000     1.0160 C.3   1 <1>   0.0160 
 19 H       -0.6920    -3.1350     0.9130 H     1 <1>   0.4000 
 20 H       -0.1180    -2.4060    -1.1460 H     1 <1>   0.0800 
 21 H        1.8300    -3.9940     0.5020 H     1 <1>   0.0800 
 22 H        0.9080    -4.5340    -0.8940 H     1 <1>   0.0800 
 23 H        1.1230    -0.4230    -0.8250 H     1 <1>   0.0800 
 24 H        1.9890    -1.1050     0.5410 H     1 <1>   0.0800 
 25 H        2.4610    -3.6860    -2.3880 H     1 <1>   0.0800 
 26 H        2.5520    -1.4030    -2.3710 H     1 <1>   0.0800 
 27 H        4.6350    -4.0190    -1.7190 H     1 <1>   0.0800 
 28 H        3.9040    -4.7150    -0.2810 H     1 <1>   0.0800 
 29 H        4.1100    -0.5270    -0.2930 H     1 <1>   0.0800 
 30 H        4.7600    -1.3010    -1.7280 H     1 <1>   0.0800 
 31 H        4.0860    -2.6290     0.8990 H     1 <1>   0.0800 
 32 H        6.4320    -2.6480    -0.8930 H     1 <1>   0.4500 
 33 H        5.8630    -0.8720     1.0900 H     1 <1>   0.0800 
 34 H        7.2860    -1.8060     1.5160 H     1 <1>   0.0800 
 35 H        6.1740    -4.0900     1.6880 H     1 <1>   0.0800 
 36 H        7.6190    -3.9880     0.6970 H     1 <1>   0.0800 
 37 H        6.2120    -4.8380     0.1050 H     1 <1>   0.0800 
 38 H        8.7220    -0.4680    -3.1810 H     1 <1>   0.1500 
 39 H        9.1640     1.6030    -1.5290 H     1 <1>   0.1500 
 40 H        8.5940     2.1760     0.8170 H     1 <1>   0.0800 
 41 H        8.4250     0.7780     1.8550 H     1 <1>   0.0800 
 42 H        6.9960     1.6020     1.2380 H     1 <1>   0.0800 
@<TRIPOS>BOND
  1   1   2  1   
  2   1  19  1   
  3   2   3  1   
  4   2   4  1   
  5   2  20  1   
  6   3   5  1   
  7   3  21  1   
  8   3  22  1   
  9   4   6  1   
 10   4  23  1   
 11   4  24  1   
 12   5   6  1   
 13   5   7  1   
 14   5  25  1   
 15   6   8  1   
 16   6  26  1   
 17   7   9  1   
 18   7  27  1   
 19   7  28  1   
 20   8   9  1   
 21   8  29  1   
 22   8  30  1   
 23   9  10  1   
 24   9  31  1   
 25  10  11  1   
 26  10  12  1   
 27  10  32  1   
 28  11  13  1   
 29  11  33  1   
 30  11  34  1   
 31  12  35  1   
 32  12  36  1   
 33  12  37  1   
 34  13  14  2   
 35  13  15  1   
 36  14  16  1   
 37  15  17  1   
 38  15  18  1   
 39  16  17  2   
 40  16  38  1   
 41  17  39  1   
 42  18  40  1   
 43  18  41  1   
 44  18  42  1   
@<TRIPOS>SUBSTRUCTURE
  1 ****   8 GROUP 4 **** **** 0

# MOE 2024.06 (io_trps.svl 2023.06)
