@<TRIPOS>MOLECULE
NONAME
55 58 1 0 0 
SMALL
USER_CHARGES


@<TRIPOS>ATOM
  1 O        0.3370    -0.0180    -1.9350 O.2   1 <1>  -0.5700 
  2 C       -0.3420     0.2180    -0.9610 C.2   1 <1>   0.5690 
  3 N       -1.6840    -0.0820    -0.9270 N.am  1 <1>  -0.6600 
  4 C        0.3730     0.8320     0.2230 C.3   1 <1>   0.1570 
  5 C       -2.6090     0.2270     0.2020 C.3   1 <1>   0.1400 
  6 C       -2.3750    -0.6880    -2.1010 C.3   1 <1>   0.1400 
  7 N       -0.0010     2.2440     0.3650 N.pl3 1 <1>   0.3140 
  8 C       -3.2920    -1.0630     0.6590 C.3   1 <1>  -0.1600 
  9 C       -3.0590    -1.9870    -1.6700 C.3   1 <1>  -0.1600 
 10 N       -0.5440     2.7190     1.5040 N.2   1 <1>  -0.7070 
 11 C        0.1460     3.2230    -0.5490 C.2   1 <1>  -0.3020 
 12 C       -4.0250    -1.7670    -0.4970 C.3   1 <1>   0.4240 
 13 C       -0.7280     3.9830     1.2830 C.2   1 <1>   0.1080 
 14 C       -0.3160     4.3600     0.0110 C.2   1 <1>  -0.1500 
 15 O       -5.0110    -0.8900    -0.9900 O.3   1 <1>  -0.5600 
 16 C       -4.6330    -3.1090    -0.0360 C.ar  1 <1>  -0.1430 
 17 C       -1.3260     4.9070     2.3180 C.3   1 <1>  -0.0590 
 18 C       -6.2370    -0.8600    -0.3280 C.3   1 <1>   0.1200 
 19 C       -6.0050    -3.3200    -0.0400 C.ar  1 <1>  -0.1430 
 20 C       -3.8110    -4.1380     0.4050 C.ar  1 <1>  -0.1500 
 21 C       -6.9260    -2.2100    -0.5050 C.3   1 <1>  -0.0170 
 22 C       -6.5340    -4.5300     0.3810 C.ar  1 <1>  -0.1500 
 23 C       -4.3200    -5.3550     0.8240 C.ar  1 <1>   0.0820 
 24 C       -5.7090    -5.5610     0.8240 C.ar  1 <1>   0.0820 
 25 O       -3.3770    -6.2600     1.2130 O.3   1 <1>  -0.3630 
 26 O       -6.2270    -6.7430     1.2710 O.3   1 <1>  -0.3620 
 27 C       -3.5820    -7.6470     1.0620 C.3   1 <1>   0.0400 
 28 C       -7.6130    -6.9420     1.4390 C.3   1 <1>   0.0400 
 29 H        1.4330     0.7740     0.0740 H     1 <1>   0.0800 
 30 H        0.1200     0.3050     1.1220 H     1 <1>   0.0800 
 31 H       -3.3480     0.9360    -0.1330 H     1 <1>   0.0800 
 32 H       -2.0910     0.6630     1.0350 H     1 <1>   0.0800 
 33 H       -1.6770    -0.8950    -2.8930 H     1 <1>   0.0800 
 34 H       -3.1070     0.0080    -2.4770 H     1 <1>   0.0800 
 35 H       -3.9790    -0.8530     1.4570 H     1 <1>   0.0800 
 36 H       -2.5400    -1.7180     1.0580 H     1 <1>   0.0800 
 37 H       -2.2950    -2.6910    -1.3980 H     1 <1>   0.0800 
 38 H       -3.6020    -2.4050    -2.4980 H     1 <1>   0.0800 
 39 H        0.5600     3.0560    -1.5270 H     1 <1>   0.1500 
 40 H       -0.3640     5.3480    -0.4100 H     1 <1>   0.1500 
 41 H       -2.3150     4.5710     2.5690 H     1 <1>   0.0800 
 42 H       -1.3780     5.9110     1.9400 H     1 <1>   0.0800 
 43 H       -0.7170     4.8940     3.2030 H     1 <1>   0.0800 
 44 H       -6.8290    -0.0750    -0.7650 H     1 <1>   0.0800 
 45 H       -6.0750    -0.6400     0.7130 H     1 <1>   0.0800 
 46 H       -2.7450    -4.0130     0.4290 H     1 <1>   0.1500 
 47 H       -7.1710    -2.3520    -1.5420 H     1 <1>   0.0800 
 48 H       -7.8380    -2.2170     0.0640 H     1 <1>   0.0800 
 49 H       -7.5990    -4.6500     0.3560 H     1 <1>   0.1500 
 50 H       -2.6240    -8.1330     1.0940 H     1 <1>   0.0800 
 51 H       -4.0590    -7.8310     0.1150 H     1 <1>   0.0800 
 52 H       -4.1950    -7.9970     1.8730 H     1 <1>   0.0800 
 53 H       -7.7610    -7.9200     1.8610 H     1 <1>   0.0800 
 54 H       -8.0950    -6.8820     0.4790 H     1 <1>   0.0800 
 55 H       -7.9940    -6.1940     2.1120 H     1 <1>   0.0800 
@<TRIPOS>BOND
  1   1   2  2   
  2   2   3  am  
  3   2   4  1   
  4   3   5  1   
  5   3   6  1   
  6   4   7  1   
  7   4  29  1   
  8   4  30  1   
  9   5   8  1   
 10   5  31  1   
 11   5  32  1   
 12   6   9  1   
 13   6  33  1   
 14   6  34  1   
 15   7  10  1   
 16   7  11  1   
 17   8  12  1   
 18   8  35  1   
 19   8  36  1   
 20   9  12  1   
 21   9  37  1   
 22   9  38  1   
 23  10  13  2   
 24  11  14  2   
 25  11  39  1   
 26  12  15  1   
 27  12  16  1   
 28  13  14  1   
 29  13  17  1   
 30  14  40  1   
 31  15  18  1   
 32  16  19  ar  
 33  16  20  ar  
 34  17  41  1   
 35  17  42  1   
 36  17  43  1   
 37  18  21  1   
 38  18  44  1   
 39  18  45  1   
 40  19  21  1   
 41  19  22  ar  
 42  20  23  ar  
 43  20  46  1   
 44  21  47  1   
 45  21  48  1   
 46  22  24  ar  
 47  22  49  1   
 48  23  24  ar  
 49  23  25  1   
 50  24  26  1   
 51  25  27  1   
 52  26  28  1   
 53  27  50  1   
 54  27  51  1   
 55  27  52  1   
 56  28  53  1   
 57  28  54  1   
 58  28  55  1   
@<TRIPOS>SUBSTRUCTURE
  1 ****   8 GROUP 4 **** **** 0

# MOE 2024.06 (io_trps.svl 2023.06)
