@<TRIPOS>MOLECULE
NONAME
52 54 1 0 0 
SMALL
USER_CHARGES


@<TRIPOS>ATOM
  1 O        0.9920     1.3810     1.0470 O.co2 1 <1>  -0.9000 
  2 C       -0.1780     1.7310     0.8820 C.2   1 <1>   0.9060 
  3 O       -1.1500     0.9850     0.9970 O.co2 1 <1>  -0.9000 
  4 C       -0.4420     3.1540     0.5110 C.3   1 <1>  -0.1860 
  5 C       -1.2490     3.2000    -0.7880 C.3   1 <1>   0.2000 
  6 C        0.8790     3.8760     0.3450 C.3   1 <1>   0.3430 
  7 O       -2.5710     3.1960    -0.4190 O.3   1 <1>  -0.6800 
  8 C       -0.9840     4.4610    -1.6170 C.3   1 <1>  -0.1600 
  9 N        0.6430     5.3330     0.0540 N.4   1 <1>  -0.9590 
 10 C       -0.6310     5.6200    -0.6940 C.3   1 <1>   0.3430 
 11 C        0.6990     6.1150     1.3130 C.3   1 <1>   0.4860 
 12 C        0.7690     7.5890     0.9610 C.ar  1 <1>  -0.1430 
 13 C        1.9290     8.1130     0.4140 C.ar  1 <1>  -0.1500 
 14 C       -0.3160     8.4250     1.1700 C.ar  1 <1>  -0.1500 
 15 C        2.0180     9.4490     0.0630 C.ar  1 <1>   0.0830 
 16 C       -0.2440     9.7640     0.8230 C.ar  1 <1>  -0.1500 
 17 O        3.2180     9.8130    -0.4640 O.3   1 <1>  -0.3630 
 18 C        0.9140    10.2940     0.2580 C.ar  1 <1>   0.0830 
 19 C        3.7350    11.1160    -0.2920 C.3   1 <1>   0.2630 
 20 O        0.9880    11.6030    -0.1220 O.3   1 <1>  -0.3630 
 21 C        5.2430    11.0660    -0.4780 C.ar  1 <1>  -0.1430 
 22 C       -0.1050    12.4880    -0.0060 C.3   1 <1>   0.0400 
 23 C        5.7820    10.9130    -1.7470 C.ar  1 <1>  -0.1500 
 24 C        6.0930    11.1750     0.6120 C.ar  1 <1>  -0.1500 
 25 C        7.1550    10.8740    -1.9240 C.ar  1 <1>  -0.1500 
 26 C        7.4660    11.1350     0.4370 C.ar  1 <1>  -0.1500 
 27 C        7.9970    10.9850    -0.8320 C.ar  1 <1>  -0.1500 
 28 H       -0.9810     3.5960     1.3260 H     1 <1>   0.0800 
 29 H       -1.0750     2.3200    -1.3900 H     1 <1>   0.0800 
 30 H        1.4130     3.4140    -0.4700 H     1 <1>   0.0800 
 31 H        1.4770     3.7480     1.2350 H     1 <1>   0.0800 
 32 H       -2.7190     2.3590     0.0900 H     1 <1>   0.4000 
 33 H       -0.1670     4.2870    -2.2940 H     1 <1>   0.0800 
 34 H       -1.8510     4.7000    -2.2070 H     1 <1>   0.0800 
 35 H        1.4240     5.6600    -0.5270 H     1 <1>   0.4500 
 36 H       -1.4430     5.7440     0.0050 H     1 <1>   0.0800 
 37 H       -0.5300     6.5330    -1.2590 H     1 <1>   0.0800 
 38 H       -0.1720     5.9120     1.9140 H     1 <1>   0.0800 
 39 H        1.5760     5.8430     1.8790 H     1 <1>   0.0800 
 40 H        2.7960     7.4960     0.2520 H     1 <1>   0.1500 
 41 H       -1.2270     8.0480     1.6050 H     1 <1>   0.1500 
 42 H       -1.1070    10.3780     1.0010 H     1 <1>   0.1500 
 43 H        3.2880    11.7590    -1.0280 H     1 <1>   0.0800 
 44 H        3.4830    11.4600     0.6960 H     1 <1>   0.0800 
 45 H        0.1980    13.4450    -0.3920 H     1 <1>   0.0800 
 46 H       -0.3720    12.5830     1.0310 H     1 <1>   0.0800 
 47 H       -0.9280    12.1080    -0.5860 H     1 <1>   0.0800 
 48 H        5.1320    10.8220    -2.5990 H     1 <1>   0.1500 
 49 H        5.6910    11.2890     1.6040 H     1 <1>   0.1500 
 50 H        7.5650    10.7550    -2.9110 H     1 <1>   0.1500 
 51 H        8.1190    11.2200     1.2870 H     1 <1>   0.1500 
 52 H        9.0640    10.9540    -0.9690 H     1 <1>   0.1500 
@<TRIPOS>BOND
  1   1   2  ar  
  2   2   3  ar  
  3   2   4  1   
  4   4   5  1   
  5   4   6  1   
  6   4  28  1   
  7   5   7  1   
  8   5   8  1   
  9   5  29  1   
 10   6   9  1   
 11   6  30  1   
 12   6  31  1   
 13   7  32  1   
 14   8  10  1   
 15   8  33  1   
 16   8  34  1   
 17   9  10  1   
 18   9  11  1   
 19   9  35  1   
 20  10  36  1   
 21  10  37  1   
 22  11  12  1   
 23  11  38  1   
 24  11  39  1   
 25  12  13  ar  
 26  12  14  ar  
 27  13  15  ar  
 28  13  40  1   
 29  14  16  ar  
 30  14  41  1   
 31  15  17  1   
 32  15  18  ar  
 33  16  18  ar  
 34  16  42  1   
 35  17  19  1   
 36  18  20  1   
 37  19  21  1   
 38  19  43  1   
 39  19  44  1   
 40  20  22  1   
 41  21  23  ar  
 42  21  24  ar  
 43  22  45  1   
 44  22  46  1   
 45  22  47  1   
 46  23  25  ar  
 47  23  48  1   
 48  24  26  ar  
 49  24  49  1   
 50  25  27  ar  
 51  25  50  1   
 52  26  27  ar  
 53  26  51  1   
 54  27  52  1   
@<TRIPOS>SUBSTRUCTURE
  1 ****  13 GROUP 4 **** **** 0

# MOE 2024.06 (io_trps.svl 2023.06)
