@<TRIPOS>MOLECULE
NONAME
58 60 1 0 0 
SMALL
USER_CHARGES


@<TRIPOS>ATOM
  1 O       -0.4230    -0.0010    -0.3270 O.2   1 <1>  -0.5700 
  2 C       -1.4570     0.6450    -0.2750 C.2   1 <1>   0.5440 
  3 N       -2.6390    -0.0450    -0.1250 N.am  1 <1>  -0.6600 
  4 C       -1.4130     2.0970    -0.3220 C.ar  1 <1>   0.0860 
  5 C       -3.8320     0.4860     0.5880 C.3   1 <1>   0.1400 
  6 C       -2.7030    -1.5300    -0.1690 C.3   1 <1>   0.1400 
  7 C       -0.3970     2.8180     0.3200 C.ar  1 <1>   0.0830 
  8 C       -2.3900     2.8240    -1.0020 C.ar  1 <1>  -0.1500 
  9 C       -4.3440    -0.6990     1.4050 C.3   1 <1>   0.2000 
 10 C       -4.0190    -1.9080     0.5220 C.3   1 <1>  -0.0800 
 11 O        0.5960     2.1320     0.9140 O.3   1 <1>  -0.5320 
 12 C       -0.3900     4.2120     0.3380 C.ar  1 <1>  -0.1430 
 13 C       -2.3990     4.2060    -1.0110 C.ar  1 <1>  -0.1430 
 14 O       -3.6050    -0.7650     2.5760 O.3   1 <1>  -0.6800 
 15 C       -3.9710    -3.2660     1.2470 C.3   1 <1>  -0.0170 
 16 C       -1.4000     4.8860    -0.3310 C.ar  1 <1>  -0.1500 
 17 C        0.7010     5.0130     1.0620 C.3   1 <1>   0.0630 
 18 C       -3.4960     4.9600    -1.7620 C.3   1 <1>   0.0630 
 19 C       -3.6620    -4.3880     0.2680 C.ar  1 <1>  -0.1430 
 20 C        0.0970     5.8870     2.1670 C.3   1 <1>  -0.2400 
 21 C        1.5010     5.8660     0.0710 C.3   1 <1>  -0.2400 
 22 C       -2.8990     5.8250    -2.8770 C.3   1 <1>  -0.2400 
 23 C       -4.3300     5.8110    -0.8000 C.3   1 <1>  -0.2400 
 24 C       -4.6440    -4.9680    -0.5100 C.ar  1 <1>  -0.1500 
 25 C       -2.3830    -4.8800     0.1010 C.ar  1 <1>  -0.1500 
 26 C       -4.3080    -5.9780    -1.3960 C.ar  1 <1>   0.1600 
 27 C       -2.1530    -5.8940    -0.8140 C.ar  1 <1>   0.1600 
 28 N       -3.0850    -6.4520    -1.5690 N.ar  1 <1>  -0.6200 
 29 H       -3.5920     1.3270     1.2180 H     1 <1>   0.0800 
 30 H       -4.5720     0.7770    -0.1360 H     1 <1>   0.0800 
 31 H       -2.6780    -1.8820    -1.1870 H     1 <1>   0.0800 
 32 H       -1.8630    -1.9390     0.3660 H     1 <1>   0.0800 
 33 H       -3.1520     2.2840    -1.5340 H     1 <1>   0.1500 
 34 H       -5.3870    -0.6210     1.6610 H     1 <1>   0.0800 
 35 H       -4.7730    -1.9630    -0.2430 H     1 <1>   0.0800 
 36 H        0.5710     1.1770     0.6560 H     1 <1>   0.4500 
 37 H       -2.6550    -0.6800     2.3530 H     1 <1>   0.4000 
 38 H       -4.9190    -3.4530     1.7200 H     1 <1>   0.0800 
 39 H       -3.2230    -3.2540     2.0200 H     1 <1>   0.0800 
 40 H       -1.4070     5.9610    -0.3300 H     1 <1>   0.1500 
 41 H        1.3960     4.3420     1.5360 H     1 <1>   0.0800 
 42 H       -4.1560     4.2450    -2.2230 H     1 <1>   0.0800 
 43 H       -0.5550     6.6360     1.7560 H     1 <1>   0.0800 
 44 H        0.8790     6.3770     2.7190 H     1 <1>   0.0800 
 45 H       -0.4670     5.2730     2.8460 H     1 <1>   0.0800 
 46 H        0.8770     6.6080    -0.3930 H     1 <1>   0.0800 
 47 H        1.9130     5.2350    -0.6970 H     1 <1>   0.0800 
 48 H        2.3100     6.3620     0.5760 H     1 <1>   0.0800 
 49 H       -2.2700     6.5960    -2.4710 H     1 <1>   0.0800 
 50 H       -3.6830     6.2880    -3.4490 H     1 <1>   0.0800 
 51 H       -2.3090     5.2140    -3.5370 H     1 <1>   0.0800 
 52 H       -3.7300     6.5790    -0.3480 H     1 <1>   0.0800 
 53 H       -4.7360     5.1910    -0.0200 H     1 <1>   0.0800 
 54 H       -5.1450     6.2770    -1.3250 H     1 <1>   0.0800 
 55 H       -5.6670    -4.6450    -0.4360 H     1 <1>   0.1500 
 56 H       -1.5620    -4.4870     0.6720 H     1 <1>   0.1500 
 57 H       -5.0870    -6.4180    -1.9950 H     1 <1>   0.1500 
 58 H       -1.1490    -6.2640    -0.9320 H     1 <1>   0.1500 
@<TRIPOS>BOND
  1   1   2  2   
  2   2   3  am  
  3   2   4  1   
  4   3   5  1   
  5   3   6  1   
  6   4   7  ar  
  7   4   8  ar  
  8   5   9  1   
  9   5  29  1   
 10   5  30  1   
 11   6  10  1   
 12   6  31  1   
 13   6  32  1   
 14   7  11  1   
 15   7  12  ar  
 16   8  13  ar  
 17   8  33  1   
 18   9  10  1   
 19   9  14  1   
 20   9  34  1   
 21  10  15  1   
 22  10  35  1   
 23  11  36  1   
 24  12  16  ar  
 25  12  17  1   
 26  13  16  ar  
 27  13  18  1   
 28  14  37  1   
 29  15  19  1   
 30  15  38  1   
 31  15  39  1   
 32  16  40  1   
 33  17  20  1   
 34  17  21  1   
 35  17  41  1   
 36  18  22  1   
 37  18  23  1   
 38  18  42  1   
 39  19  24  ar  
 40  19  25  ar  
 41  20  43  1   
 42  20  44  1   
 43  20  45  1   
 44  21  46  1   
 45  21  47  1   
 46  21  48  1   
 47  22  49  1   
 48  22  50  1   
 49  22  51  1   
 50  23  52  1   
 51  23  53  1   
 52  23  54  1   
 53  24  26  ar  
 54  24  55  1   
 55  25  27  ar  
 56  25  56  1   
 57  26  28  ar  
 58  26  57  1   
 59  27  28  ar  
 60  27  58  1   
@<TRIPOS>SUBSTRUCTURE
  1 ****   3 GROUP 4 **** **** 0

# MOE 2024.06 (io_trps.svl 2023.06)
