@<TRIPOS>MOLECULE
NONAME
48 51 1 0 0 
SMALL
USER_CHARGES


@<TRIPOS>ATOM
  1 F       -1.5290     0.2250    -2.0260 F     1 <1>  -0.1900 
  2 C       -2.4170    -0.5690    -1.4630 C.ar  1 <1>   0.1900 
  3 C       -3.0590    -0.2240    -0.2750 C.ar  1 <1>   0.4100 
  4 C       -2.7050    -1.7670    -2.0540 C.ar  1 <1>   0.1600 
  5 N       -3.9280    -1.0610     0.2610 N.ar  1 <1>  -0.6200 
  6 N       -2.8390     0.9690     0.4020 N.pl3 1 <1>  -0.8380 
  7 N       -3.5770    -2.6050    -1.5260 N.ar  1 <1>  -0.6200 
  8 C       -4.1390    -2.1880    -0.3960 C.ar  1 <1>   0.7200 
  9 C       -3.1050     2.2660    -0.2880 C.3   1 <1>   0.2090 
 10 C       -3.1090     1.0540     1.8700 C.3   1 <1>   0.2090 
 11 N       -5.0470    -2.9930     0.1960 N.pl3 1 <1>  -0.8690 
 12 C       -2.4020     3.4250     0.4400 C.3   1 <1>   0.1200 
 13 C       -2.4130     2.2800     2.4860 C.3   1 <1>   0.1200 
 14 C       -4.9990    -4.4700     0.1240 C.3   1 <1>   0.2890 
 15 O       -2.7510     3.4530     1.7970 O.3   1 <1>  -0.5600 
 16 C       -6.4190    -5.0020     0.1470 C.3   1 <1>  -0.0800 
 17 C       -4.4190    -5.0390     1.4200 C.3   1 <1>   0.1200 
 18 C       -6.7130    -5.0310     1.6470 C.3   1 <1>   0.1200 
 19 C       -6.5120    -6.4000    -0.4920 C.3   1 <1>  -0.0170 
 20 O       -5.4940    -5.2690     2.2870 O.3   1 <1>  -0.5600 
 21 C       -7.9430    -6.9130    -0.4910 C.ar  1 <1>  -0.1430 
 22 C       -8.8900    -6.4190    -1.3650 C.ar  1 <1>  -0.1500 
 23 C       -8.3700    -7.8940     0.3810 C.ar  1 <1>  -0.1500 
 24 C      -10.1830    -6.9120    -1.3220 C.ar  1 <1>   0.1600 
 25 C       -9.6880    -8.3180     0.3410 C.ar  1 <1>   0.1600 
 26 N      -10.6060    -7.8490    -0.4890 N.ar  1 <1>  -0.6200 
 27 H       -2.2150    -2.0460    -2.9700 H     1 <1>   0.1500 
 28 H       -2.7630     2.2280    -1.3070 H     1 <1>   0.0800 
 29 H       -4.1660     2.4490    -0.3000 H     1 <1>   0.0800 
 30 H       -4.1710     1.1250     2.0350 H     1 <1>   0.0800 
 31 H       -2.7550     0.1600     2.3540 H     1 <1>   0.0800 
 32 H       -5.3120    -2.6340     1.1130 H     1 <1>   0.4000 
 33 H       -2.6930     4.3650     0.0070 H     1 <1>   0.0800 
 34 H       -1.3340     3.3230     0.3610 H     1 <1>   0.0800 
 35 H       -1.3450     2.1580     2.4530 H     1 <1>   0.0800 
 36 H       -2.7160     2.4020     3.5110 H     1 <1>   0.0800 
 37 H       -4.4470    -4.7980    -0.7400 H     1 <1>   0.0800 
 38 H       -7.0900    -4.3360    -0.3670 H     1 <1>   0.0800 
 39 H       -3.7190    -4.3670     1.8840 H     1 <1>   0.0800 
 40 H       -3.9450    -5.9860     1.2360 H     1 <1>   0.0800 
 41 H       -7.4180    -5.7910     1.9320 H     1 <1>   0.0800 
 42 H       -7.0710    -4.0710     1.9790 H     1 <1>   0.0800 
 43 H       -5.8780    -7.0930     0.0330 H     1 <1>   0.0800 
 44 H       -6.1660    -6.3510    -1.5110 H     1 <1>   0.0800 
 45 H       -8.6350    -5.6560    -2.0770 H     1 <1>   0.1500 
 46 H       -7.6930    -8.3300     1.0930 H     1 <1>   0.1500 
 47 H      -10.9090    -6.5150    -2.0110 H     1 <1>   0.1500 
 48 H      -10.0040    -9.0830     1.0300 H     1 <1>   0.1500 
@<TRIPOS>BOND
  1   1   2  1   
  2   2   3  ar  
  3   2   4  ar  
  4   3   5  ar  
  5   3   6  1   
  6   4   7  ar  
  7   4  27  1   
  8   5   8  ar  
  9   6   9  1   
 10   6  10  1   
 11   7   8  ar  
 12   8  11  1   
 13   9  12  1   
 14   9  28  1   
 15   9  29  1   
 16  10  13  1   
 17  10  30  1   
 18  10  31  1   
 19  11  14  1   
 20  11  32  1   
 21  12  15  1   
 22  12  33  1   
 23  12  34  1   
 24  13  15  1   
 25  13  35  1   
 26  13  36  1   
 27  14  16  1   
 28  14  17  1   
 29  14  37  1   
 30  16  18  1   
 31  16  19  1   
 32  16  38  1   
 33  17  20  1   
 34  17  39  1   
 35  17  40  1   
 36  18  20  1   
 37  18  41  1   
 38  18  42  1   
 39  19  21  1   
 40  19  43  1   
 41  19  44  1   
 42  21  22  ar  
 43  21  23  ar  
 44  22  24  ar  
 45  22  45  1   
 46  23  25  ar  
 47  23  46  1   
 48  24  26  ar  
 49  24  47  1   
 50  25  26  ar  
 51  25  48  1   
@<TRIPOS>SUBSTRUCTURE
  1 ****  11 GROUP 4 **** **** 0

# MOE 2024.06 (io_trps.svl 2023.06)
