@<TRIPOS>MOLECULE
NONAME
43 46 1 0 0 
SMALL
USER_CHARGES


@<TRIPOS>ATOM
  1 S       -0.4910    -0.0320     1.0190 S.3   1 <1>  -0.0800 
  2 C       -0.1890    -1.4610     0.0240 C.2   1 <1>  -0.0450 
  3 C        0.7450     0.8930     0.1980 C.2   1 <1>  -0.1100 
  4 C        0.8150    -1.1790    -0.8500 C.2   1 <1>  -0.1810 
  5 C       -0.9610    -2.6560     0.2700 C.2   1 <1>   0.7150 
  6 C        1.3340     0.1470    -0.7530 C.2   1 <1>  -0.1500 
  7 C        1.3930    -2.1450    -1.8690 C.3   1 <1>  -0.0590 
  8 O       -0.3730    -3.6920     0.5280 O.2   1 <1>  -0.5700 
  9 N       -2.3410    -2.6830     0.1840 N.am  1 <1>  -0.6600 
 10 C       -3.1360    -1.6310    -0.5310 C.3   1 <1>   0.1400 
 11 C       -3.1100    -3.9240     0.4920 C.3   1 <1>   0.1400 
 12 C       -4.4180    -1.2610     0.2420 C.3   1 <1>   0.1430 
 13 C       -4.3930    -3.5890     1.2620 C.3   1 <1>  -0.1600 
 14 C       -5.1920    -0.2420    -0.5750 C.ar  1 <1>   0.1670 
 15 C       -5.2400    -2.5350     0.5290 C.3   1 <1>  -0.1600 
 16 C       -4.1070    -0.4720     1.5410 C.3   1 <1>  -0.1600 
 17 N       -5.8780    -0.4970    -1.6640 N.ar  1 <1>  -0.6200 
 18 C       -5.0800     1.0110    -0.0460 C.ar  1 <1>  -0.1440 
 19 C       -4.2220     1.0230     1.1950 C.3   1 <1>  -0.0170 
 20 C       -6.4550     0.5680    -2.2000 C.ar  1 <1>   0.7200 
 21 C       -5.7300     2.0380    -0.6870 C.ar  1 <1>   0.1600 
 22 N       -6.4340     1.8240    -1.7760 N.ar  1 <1>  -0.6200 
 23 N       -7.1770     0.3430    -3.2990 N.pl3 1 <1>  -0.9000 
 24 H        0.9050     1.9080     0.5160 H     1 <1>   0.1500 
 25 H        2.1280     0.4830    -1.3970 H     1 <1>   0.1500 
 26 H        0.8970    -3.0980    -1.8190 H     1 <1>   0.0800 
 27 H        2.4390    -2.2960    -1.6760 H     1 <1>   0.0800 
 28 H        1.2730    -1.7480    -2.8610 H     1 <1>   0.0800 
 29 H       -3.4160    -2.0160    -1.4970 H     1 <1>   0.0800 
 30 H       -2.5500    -0.7460    -0.6990 H     1 <1>   0.0800 
 31 H       -2.5140    -4.6020     1.0800 H     1 <1>   0.0800 
 32 H       -3.3580    -4.4160    -0.4330 H     1 <1>   0.0800 
 33 H       -4.1270    -3.2370     2.2430 H     1 <1>   0.0800 
 34 H       -4.9700    -4.4880     1.3870 H     1 <1>   0.0800 
 35 H       -5.5780    -2.9500    -0.4050 H     1 <1>   0.0800 
 36 H       -6.1140    -2.2910     1.1070 H     1 <1>   0.0800 
 37 H       -3.1480    -0.7190     1.9580 H     1 <1>   0.0800 
 38 H       -4.8560    -0.6950     2.2810 H     1 <1>   0.0800 
 39 H       -3.2560     1.4360     0.9630 H     1 <1>   0.0800 
 40 H       -4.6780     1.5810     1.9940 H     1 <1>   0.0800 
 41 H       -5.6710     3.0430    -0.3040 H     1 <1>   0.1500 
 42 H       -7.8560     1.0650    -3.5230 H     1 <1>   0.4000 
 43 H       -7.4650    -0.6200    -3.4360 H     1 <1>   0.4000 
@<TRIPOS>BOND
  1   1   2  1   
  2   1   3  1   
  3   2   4  2   
  4   2   5  1   
  5   3   6  2   
  6   3  24  1   
  7   4   6  1   
  8   4   7  1   
  9   5   8  2   
 10   5   9  am  
 11   6  25  1   
 12   7  26  1   
 13   7  27  1   
 14   7  28  1   
 15   9  10  1   
 16   9  11  1   
 17  10  12  1   
 18  10  29  1   
 19  10  30  1   
 20  11  13  1   
 21  11  31  1   
 22  11  32  1   
 23  12  14  1   
 24  12  15  1   
 25  12  16  1   
 26  13  15  1   
 27  13  33  1   
 28  13  34  1   
 29  14  17  ar  
 30  14  18  ar  
 31  15  35  1   
 32  15  36  1   
 33  16  19  1   
 34  16  37  1   
 35  16  38  1   
 36  17  20  ar  
 37  18  19  1   
 38  18  21  ar  
 39  19  39  1   
 40  19  40  1   
 41  20  22  ar  
 42  20  23  1   
 43  21  22  ar  
 44  21  41  1   
 45  23  42  1   
 46  23  43  1   
@<TRIPOS>SUBSTRUCTURE
  1 ****  10 GROUP 4 **** **** 0

# MOE 2024.06 (io_trps.svl 2023.06)
