@<TRIPOS>MOLECULE
NONAME
44 45 1 0 0 
SMALL
USER_CHARGES


@<TRIPOS>ATOM
  1 O        0.4100     0.2510    -0.1900 O.3   1 <1>  -0.5600 
  2 C        0.2980     1.5590     0.3110 C.3   1 <1>   0.2000 
  3 C        1.5540    -0.4360     0.2290 C.3   1 <1>   0.2000 
  4 C       -1.0600     2.1380    -0.1530 C.3   1 <1>  -0.0800 
  5 C        1.5110     2.4020    -0.1470 C.3   1 <1>   0.2090 
  6 C        2.8250     0.3080    -0.2410 C.3   1 <1>   0.2090 
  7 C        1.4410    -1.8600    -0.3320 C.3   1 <1>  -0.1600 
  8 C       -1.2920     3.5680     0.3650 C.3   1 <1>  -0.2400 
  9 C       -2.2350     1.2550     0.3000 C.3   1 <1>  -0.2400 
 10 N        2.8090     1.7360     0.1910 N.pl3 1 <1>  -0.8380 
 11 C        2.5510    -2.7990     0.1690 C.3   1 <1>  -0.1600 
 12 C        3.9860     2.4630     0.0750 C.ar  1 <1>   0.4100 
 13 C        2.3310    -4.2270    -0.3420 C.3   1 <1>  -0.1600 
 14 N        3.9800     3.4920    -0.7650 N.ar  1 <1>  -0.6200 
 15 C        5.1290     2.1100     0.8150 C.ar  1 <1>   0.1600 
 16 C        3.4310    -5.1680     0.1550 C.3   1 <1>  -0.2400 
 17 C        5.1480     4.1100    -0.8200 C.ar  1 <1>   0.1600 
 18 N        6.2980     2.7220     0.7590 N.ar  1 <1>  -0.6200 
 19 C        6.2680     3.7400    -0.0880 C.ar  1 <1>   0.1600 
 20 H        0.3020     1.5010     1.3860 H     1 <1>   0.0800 
 21 H        1.5400    -0.4760     1.3050 H     1 <1>   0.0800 
 22 H       -1.0560     2.1690    -1.2300 H     1 <1>   0.0800 
 23 H        1.4840     3.3650     0.3320 H     1 <1>   0.0800 
 24 H        1.4550     2.5570    -1.2110 H     1 <1>   0.0800 
 25 H        2.8840     0.2640    -1.3150 H     1 <1>   0.0800 
 26 H        3.6940    -0.1800     0.1600 H     1 <1>   0.0800 
 27 H        0.4880    -2.2600    -0.0320 H     1 <1>   0.0800 
 28 H        1.4620    -1.8170    -1.4070 H     1 <1>   0.0800 
 29 H       -1.2340     3.5960     1.4390 H     1 <1>   0.0800 
 30 H       -2.2650     3.9170     0.0670 H     1 <1>   0.0800 
 31 H       -0.5650     4.2490    -0.0400 H     1 <1>   0.0800 
 32 H       -2.2590     1.1770     1.3730 H     1 <1>   0.0800 
 33 H       -2.1420     0.2650    -0.1120 H     1 <1>   0.0800 
 34 H       -3.1700     1.6670    -0.0380 H     1 <1>   0.0800 
 35 H        3.5110    -2.4510    -0.1710 H     1 <1>   0.0800 
 36 H        2.5550    -2.8050     1.2460 H     1 <1>   0.0800 
 37 H        1.3750    -4.5900    -0.0030 H     1 <1>   0.0800 
 38 H        2.3240    -4.2290    -1.4190 H     1 <1>   0.0800 
 39 H        5.0390     1.2760     1.4840 H     1 <1>   0.1500 
 40 H        3.4440    -5.1970     1.2310 H     1 <1>   0.0800 
 41 H        4.3950    -4.8400    -0.1940 H     1 <1>   0.0800 
 42 H        3.2570    -6.1650    -0.2110 H     1 <1>   0.0800 
 43 H        5.2220     4.9540    -1.4810 H     1 <1>   0.1500 
 44 H        7.1750     4.3060    -0.2040 H     1 <1>   0.1500 
@<TRIPOS>BOND
  1   1   2  1   
  2   1   3  1   
  3   2   4  1   
  4   2   5  1   
  5   2  20  1   
  6   3   6  1   
  7   3   7  1   
  8   3  21  1   
  9   4   8  1   
 10   4   9  1   
 11   4  22  1   
 12   5  10  1   
 13   5  23  1   
 14   5  24  1   
 15   6  10  1   
 16   6  25  1   
 17   6  26  1   
 18   7  11  1   
 19   7  27  1   
 20   7  28  1   
 21   8  29  1   
 22   8  30  1   
 23   8  31  1   
 24   9  32  1   
 25   9  33  1   
 26   9  34  1   
 27  10  12  1   
 28  11  13  1   
 29  11  35  1   
 30  11  36  1   
 31  12  14  ar  
 32  12  15  ar  
 33  13  16  1   
 34  13  37  1   
 35  13  38  1   
 36  14  17  ar  
 37  15  18  ar  
 38  15  39  1   
 39  16  40  1   
 40  16  41  1   
 41  16  42  1   
 42  17  19  ar  
 43  17  43  1   
 44  18  19  ar  
 45  19  44  1   
@<TRIPOS>SUBSTRUCTURE
  1 ****   6 GROUP 4 **** **** 0

# MOE 2024.06 (io_trps.svl 2023.06)
