@<TRIPOS>MOLECULE
NONAME
59 61 1 0 0 
SMALL
USER_CHARGES


@<TRIPOS>ATOM
  1 O       -1.1050     1.3530     2.2970 O.2   1 <1>  -0.5700 
  2 C       -1.0070     2.1650     1.3960 C.2   1 <1>   0.5440 
  3 N       -2.1540     2.6530     0.8060 N.am  1 <1>  -0.6600 
  4 C        0.3100     2.5900     0.9580 C.ar  1 <1>   0.0860 
  5 C       -2.1420     3.3060    -0.5330 C.3   1 <1>   0.1400 
  6 C       -3.4870     2.4090     1.4260 C.3   1 <1>   0.1400 
  7 C        0.6540     3.9390     0.8830 C.ar  1 <1>  -0.1500 
  8 C        1.2810     1.6580     0.6000 C.ar  1 <1>  -0.1500 
  9 C       -3.4890     3.1150    -1.2290 C.3   1 <1>  -0.1600 
 10 C       -4.4580     3.5420     1.0810 C.3   1 <1>  -0.1600 
 11 C        1.9050     4.3410     0.4500 C.ar  1 <1>  -0.1500 
 12 C        2.5330     2.0530     0.1670 C.ar  1 <1>  -0.1500 
 13 C       -4.6330     3.7990    -0.4420 C.3   1 <1>   0.2800 
 14 C        2.8540     3.3990     0.0850 C.ar  1 <1>  -0.1430 
 15 O       -4.4540     5.1940    -0.6000 O.3   1 <1>  -0.5600 
 16 C       -6.0660     3.3610    -0.9210 C.3   1 <1>   0.2000 
 17 C        4.2300     3.8300    -0.3910 C.3   1 <1>   0.2630 
 18 C       -5.0190     5.8180    -1.7130 C.3   1 <1>   0.1200 
 19 O       -6.0400     2.8770    -2.2420 O.3   1 <1>  -0.6800 
 20 C       -7.0820     4.5410    -0.8260 C.3   1 <1>   0.3000 
 21 O        5.1440     3.4570     0.5730 O.3   1 <1>  -0.6800 
 22 C       -6.5530     5.7030    -1.6930 C.3   1 <1>  -0.1600 
 23 N       -7.1660     5.0850     0.5510 N.am  1 <1>  -0.7300 
 24 C       -8.4900     4.1590    -1.3110 C.3   1 <1>  -0.2400 
 25 C       -7.7630     4.6890     1.7070 C.2   1 <1>   0.5690 
 26 O       -7.5650     5.3450     2.6990 O.2   1 <1>  -0.5700 
 27 C       -8.6680     3.4610     1.8410 C.3   1 <1>   0.1810 
 28 O       -8.0170     2.2750     1.4580 O.3   1 <1>  -0.5600 
 29 C       -8.7900     1.1290     1.6130 C.3   1 <1>   0.0400 
 30 H       -1.9460     4.3580    -0.4120 H     1 <1>   0.0800 
 31 H       -1.3610     2.8780    -1.1380 H     1 <1>   0.0800 
 32 H       -3.8730     1.4690     1.0700 H     1 <1>   0.0800 
 33 H       -3.3840     2.3410     2.4960 H     1 <1>   0.0800 
 34 H       -0.0740     4.6760     1.1730 H     1 <1>   0.1500 
 35 H        1.0420     0.6100     0.6690 H     1 <1>   0.1500 
 36 H       -3.6790     2.0590    -1.3120 H     1 <1>   0.0800 
 37 H       -3.4300     3.5030    -2.2270 H     1 <1>   0.0800 
 38 H       -4.1040     4.4330     1.5680 H     1 <1>   0.0800 
 39 H       -5.3980     3.2940     1.5340 H     1 <1>   0.0800 
 40 H        2.1370     5.3920     0.4030 H     1 <1>   0.1500 
 41 H        3.2650     1.3100    -0.1040 H     1 <1>   0.1500 
 42 H       -6.4050     2.5350    -0.3260 H     1 <1>   0.0800 
 43 H        4.2870     4.8980    -0.5130 H     1 <1>   0.0800 
 44 H        4.4960     3.3480    -1.3160 H     1 <1>   0.0800 
 45 H       -4.7220     6.8520    -1.6920 H     1 <1>   0.0800 
 46 H       -4.6080     5.3680    -2.6000 H     1 <1>   0.0800 
 47 H       -5.6720     3.5550    -2.8370 H     1 <1>   0.4000 
 48 H        4.7170     3.5250     1.4490 H     1 <1>   0.4000 
 49 H       -6.9830     6.6330    -1.3660 H     1 <1>   0.0800 
 50 H       -6.8680     5.5740    -2.7130 H     1 <1>   0.0800 
 51 H       -6.4620     5.8120     0.7000 H     1 <1>   0.3700 
 52 H       -8.4890     3.9880    -2.3720 H     1 <1>   0.0800 
 53 H       -9.1930     4.9450    -1.0970 H     1 <1>   0.0800 
 54 H       -8.8150     3.2440    -0.8570 H     1 <1>   0.0800 
 55 H       -9.5470     3.5920     1.2390 H     1 <1>   0.0800 
 56 H       -8.9610     3.3640     2.8710 H     1 <1>   0.0800 
 57 H       -8.2060     0.2850     1.2890 H     1 <1>   0.0800 
 58 H       -9.6750     1.2110     1.0060 H     1 <1>   0.0800 
 59 H       -9.0490     1.0130     2.6510 H     1 <1>   0.0800 
@<TRIPOS>BOND
  1   1   2  2   
  2   2   3  am  
  3   2   4  1   
  4   3   5  1   
  5   3   6  1   
  6   4   7  ar  
  7   4   8  ar  
  8   5   9  1   
  9   5  30  1   
 10   5  31  1   
 11   6  10  1   
 12   6  32  1   
 13   6  33  1   
 14   7  11  ar  
 15   7  34  1   
 16   8  12  ar  
 17   8  35  1   
 18   9  13  1   
 19   9  36  1   
 20   9  37  1   
 21  10  13  1   
 22  10  38  1   
 23  10  39  1   
 24  11  14  ar  
 25  11  40  1   
 26  12  14  ar  
 27  12  41  1   
 28  13  15  1   
 29  13  16  1   
 30  14  17  1   
 31  15  18  1   
 32  16  19  1   
 33  16  20  1   
 34  16  42  1   
 35  17  21  1   
 36  17  43  1   
 37  17  44  1   
 38  18  22  1   
 39  18  45  1   
 40  18  46  1   
 41  19  47  1   
 42  20  22  1   
 43  20  23  1   
 44  20  24  1   
 45  21  48  1   
 46  22  49  1   
 47  22  50  1   
 48  23  25  am  
 49  23  51  1   
 50  24  52  1   
 51  24  53  1   
 52  24  54  1   
 53  25  26  2   
 54  25  27  1   
 55  27  28  1   
 56  27  55  1   
 57  27  56  1   
 58  28  29  1   
 59  29  57  1   
 60  29  58  1   
 61  29  59  1   
@<TRIPOS>SUBSTRUCTURE
  1 ****  10 GROUP 4 **** **** 0

# MOE 2024.06 (io_trps.svl 2023.06)
