@<TRIPOS>MOLECULE
NONAME
43 44 1 0 0 
SMALL
USER_CHARGES


@<TRIPOS>ATOM
  1 O        0.2360    -0.4440    -0.8470 O.2   1 <1>  -0.5700 
  2 C        1.1870    -1.0740    -0.4290 C.2   1 <1>   0.5440 
  3 N        2.4210    -0.4840    -0.4460 N.am  1 <1>  -0.7300 
  4 C        1.0170    -2.4310     0.0580 C.ar  1 <1>   0.0860 
  5 C        2.6950     0.8950    -0.8930 C.3   1 <1>   0.1400 
  6 C       -0.0530    -3.2190    -0.3250 C.ar  1 <1>  -0.1500 
  7 C        1.9000    -3.0420     0.9420 C.ar  1 <1>  -0.1500 
  8 C        3.7920     1.4820    -0.0130 C.3   1 <1>  -0.2400 
  9 C       -0.1930    -4.5180     0.1390 C.ar  1 <1>   0.4100 
 10 C        1.6810    -4.3410     1.3530 C.ar  1 <1>   0.1600 
 11 N        0.6650    -5.0910     0.9700 N.ar  1 <1>  -0.6200 
 12 N       -1.2700    -5.2650    -0.2750 N.pl3 1 <1>  -0.8690 
 13 C       -1.3900    -6.7130     0.0070 C.3   1 <1>   0.2090 
 14 C       -2.7640    -7.2410    -0.4290 C.3   1 <1>  -0.0800 
 15 C       -3.8910    -6.5190     0.3350 C.3   1 <1>   0.1200 
 16 C       -2.7950    -8.7710    -0.2220 C.3   1 <1>   0.0200 
 17 O       -5.0940    -6.7060    -0.3250 O.3   1 <1>  -0.6800 
 18 C       -4.1080    -9.4080    -0.6370 C.2   1 <1>  -0.0400 
 19 O       -4.5220    -9.2620    -1.8800 O.3   1 <1>  -0.2800 
 20 C       -4.9980   -10.1320     0.0760 C.2   1 <1>  -0.1500 
 21 C       -5.6790    -9.8840    -1.9910 C.2   1 <1>  -0.0100 
 22 C       -6.0320   -10.4450    -0.8160 C.2   1 <1>  -0.1500 
 23 H        3.2470    -1.0440    -0.2400 H     1 <1>   0.3700 
 24 H        1.8000     1.4920    -0.8150 H     1 <1>   0.0800 
 25 H        3.0070     0.8810    -1.9240 H     1 <1>   0.0800 
 26 H       -0.7920    -2.8180    -0.9920 H     1 <1>   0.1500 
 27 H        2.7510    -2.5060     1.3160 H     1 <1>   0.1500 
 28 H        3.4750     1.4960     1.0140 H     1 <1>   0.0800 
 29 H        3.9940     2.4930    -0.3190 H     1 <1>   0.0800 
 30 H        4.6980     0.9110    -0.1060 H     1 <1>   0.0800 
 31 H        2.3800    -4.7920     2.0380 H     1 <1>   0.1500 
 32 H       -1.7480    -4.9480    -1.1210 H     1 <1>   0.4000 
 33 H       -1.2490    -6.8810     1.0620 H     1 <1>   0.0800 
 34 H       -0.6080    -7.2320    -0.5230 H     1 <1>   0.0800 
 35 H       -2.8690    -7.0340    -1.4800 H     1 <1>   0.0800 
 36 H       -3.7220    -5.4570     0.3870 H     1 <1>   0.0800 
 37 H       -3.9880    -6.9030     1.3360 H     1 <1>   0.0800 
 38 H       -2.6140    -9.0000     0.8130 H     1 <1>   0.0800 
 39 H       -2.0100    -9.2260    -0.8010 H     1 <1>   0.0800 
 40 H       -5.1570    -7.6340    -0.6470 H     1 <1>   0.4000 
 41 H       -4.9590   -10.4230     1.1100 H     1 <1>   0.1500 
 42 H       -6.1820    -9.8780    -2.9420 H     1 <1>   0.1500 
 43 H       -6.9120   -11.0160    -0.5780 H     1 <1>   0.1500 
@<TRIPOS>BOND
  1   1   2  2   
  2   2   3  am  
  3   2   4  1   
  4   3   5  1   
  5   3  23  1   
  6   4   6  ar  
  7   4   7  ar  
  8   5   8  1   
  9   5  24  1   
 10   5  25  1   
 11   6   9  ar  
 12   6  26  1   
 13   7  10  ar  
 14   7  27  1   
 15   8  28  1   
 16   8  29  1   
 17   8  30  1   
 18   9  11  ar  
 19   9  12  1   
 20  10  11  ar  
 21  10  31  1   
 22  12  13  1   
 23  12  32  1   
 24  13  14  1   
 25  13  33  1   
 26  13  34  1   
 27  14  15  1   
 28  14  16  1   
 29  14  35  1   
 30  15  17  1   
 31  15  36  1   
 32  15  37  1   
 33  16  18  1   
 34  16  38  1   
 35  16  39  1   
 36  17  40  1   
 37  18  19  1   
 38  18  20  2   
 39  19  21  1   
 40  20  22  1   
 41  20  41  1   
 42  21  22  2   
 43  21  42  1   
 44  22  43  1   
@<TRIPOS>SUBSTRUCTURE
  1 ****  12 GROUP 4 **** **** 0

# MOE 2024.06 (io_trps.svl 2023.06)
