@<TRIPOS>MOLECULE
NONAME
51 53 1 0 0 
SMALL
USER_CHARGES


@<TRIPOS>ATOM
  1 O        0.3840     1.1290    -0.4530 O.2   1 <1>  -0.5700 
  2 C        0.8370     0.0040    -0.5070 C.2   1 <1>   0.5690 
  3 N        2.1800    -0.1680    -0.7980 N.am  1 <1>  -0.6600 
  4 C       -0.1440    -1.1780    -0.2000 C.3   1 <1>   0.3410 
  5 C        3.0330     1.0090    -1.1410 C.3   1 <1>   0.3210 
  6 C        2.8860    -1.4830    -0.8730 C.3   1 <1>   0.0600 
  7 O        0.1450    -2.2730    -1.0770 O.3   1 <1>  -0.3630 
  8 C       -1.6140    -0.7710    -0.4410 C.3   1 <1>  -0.2400 
  9 C        0.0150    -1.6090     1.2710 C.3   1 <1>  -0.2400 
 10 C        4.1570     1.1600    -0.1310 C.2   1 <1>  -0.1810 
 11 C       -0.4830    -3.4690    -0.9820 C.ar  1 <1>   0.0830 
 12 C        4.0980     1.5010     1.1660 C.2   1 <1>  -0.0400 
 13 C        5.5220     0.9680    -0.3480 C.2   1 <1>   0.1080 
 14 C        0.0190    -4.4540    -0.1400 C.ar  1 <1>  -0.1500 
 15 C       -1.6000    -3.7210    -1.7690 C.ar  1 <1>  -0.1500 
 16 O        5.3140     1.4960     1.6400 O.3   1 <1>  -0.0190 
 17 C        2.9410     1.8570     2.0770 C.3   1 <1>  -0.0600 
 18 N        6.1870     1.1730     0.7310 N.2   1 <1>  -0.4100 
 19 C        6.1690     0.5760    -1.6590 C.3   1 <1>  -0.0590 
 20 C       -0.6320    -5.6710    -0.0750 C.ar  1 <1>  -0.1430 
 21 C       -2.2440    -4.9460    -1.6960 C.ar  1 <1>  -0.1500 
 22 C       -1.7480    -5.9120    -0.8390 C.ar  1 <1>  -0.1430 
 23 C       -0.2760    -6.8690     0.7690 C.3   1 <1>  -0.0170 
 24 C       -2.2840    -7.3020    -0.6010 C.3   1 <1>  -0.0170 
 25 C       -1.1570    -7.9900     0.1890 C.3   1 <1>  -0.1600 
 26 H        2.4580     1.9180    -1.1530 H     1 <1>   0.0800 
 27 H        3.4360     0.8720    -2.1280 H     1 <1>   0.0800 
 28 H        2.4420    -2.1990    -0.2080 H     1 <1>   0.0800 
 29 H        3.9190    -1.3810    -0.5920 H     1 <1>   0.0800 
 30 H        2.8320    -1.8640    -1.8780 H     1 <1>   0.0800 
 31 H       -1.7530    -0.4920    -1.4690 H     1 <1>   0.0800 
 32 H       -1.8690     0.0750     0.1720 H     1 <1>   0.0800 
 33 H       -2.2870    -1.5690    -0.1870 H     1 <1>   0.0800 
 34 H        1.0090    -1.9660     1.4620 H     1 <1>   0.0800 
 35 H       -0.6990    -2.3680     1.5330 H     1 <1>   0.0800 
 36 H       -0.1590    -0.7610     1.9090 H     1 <1>   0.0800 
 37 H        0.8980    -4.2710     0.4470 H     1 <1>   0.1500 
 38 H       -1.9600    -2.9600    -2.4360 H     1 <1>   0.1500 
 39 H        2.0160     1.8550     1.5320 H     1 <1>   0.0800 
 40 H        3.0950     2.8360     2.4930 H     1 <1>   0.0800 
 41 H        2.8770     1.1430     2.8770 H     1 <1>   0.0800 
 42 H        5.7500    -0.3450    -2.0170 H     1 <1>   0.0800 
 43 H        7.2270     0.4440    -1.5190 H     1 <1>   0.0800 
 44 H        6.0120     1.3490    -2.3880 H     1 <1>   0.0800 
 45 H       -3.1130    -5.1450    -2.2970 H     1 <1>   0.1500 
 46 H       -0.5350    -6.6750     1.7940 H     1 <1>   0.0800 
 47 H        0.7700    -7.1100     0.6930 H     1 <1>   0.0800 
 48 H       -2.4860    -7.8120    -1.5270 H     1 <1>   0.0800 
 49 H       -3.1820    -7.2430    -0.0110 H     1 <1>   0.0800 
 50 H       -1.5440    -8.6340     0.9590 H     1 <1>   0.0800 
 51 H       -0.5660    -8.5760    -0.4930 H     1 <1>   0.0800 
@<TRIPOS>BOND
  1   1   2  2   
  2   2   3  am  
  3   2   4  1   
  4   3   5  1   
  5   3   6  1   
  6   4   7  1   
  7   4   8  1   
  8   4   9  1   
  9   5  10  1   
 10   5  26  1   
 11   5  27  1   
 12   6  28  1   
 13   6  29  1   
 14   6  30  1   
 15   7  11  1   
 16   8  31  1   
 17   8  32  1   
 18   8  33  1   
 19   9  34  1   
 20   9  35  1   
 21   9  36  1   
 22  10  12  2   
 23  10  13  1   
 24  11  14  ar  
 25  11  15  ar  
 26  12  16  1   
 27  12  17  1   
 28  13  18  2   
 29  13  19  1   
 30  14  20  ar  
 31  14  37  1   
 32  15  21  ar  
 33  15  38  1   
 34  16  18  1   
 35  17  39  1   
 36  17  40  1   
 37  17  41  1   
 38  19  42  1   
 39  19  43  1   
 40  19  44  1   
 41  20  22  ar  
 42  20  23  1   
 43  21  22  ar  
 44  21  45  1   
 45  22  24  1   
 46  23  25  1   
 47  23  46  1   
 48  23  47  1   
 49  24  25  1   
 50  24  48  1   
 51  24  49  1   
 52  25  50  1   
 53  25  51  1   
@<TRIPOS>SUBSTRUCTURE
  1 ****   7 GROUP 4 **** **** 0

# MOE 2024.06 (io_trps.svl 2023.06)
