@<TRIPOS>MOLECULE
NONAME
43 44 1 0 0 
SMALL
USER_CHARGES


@<TRIPOS>ATOM
  1 S       -1.9070    -0.6170     0.8200 S.o2  1 <1>   1.3330 
  2 O       -3.1940    -0.9090     1.4020 O.2   1 <1>  -0.6500 
  3 O       -0.9570     0.2500     1.4680 O.2   1 <1>  -0.6500 
  4 N       -1.1110    -2.0780     0.5940 N.am  1 <1>  -0.9140 
  5 C       -2.1610    -0.0070    -0.8350 C.3   1 <1>  -0.1350 
  6 C       -1.8420    -3.1050    -0.1270 C.3   1 <1>   0.1960 
  7 C       -1.0800    -4.4190    -0.0220 C.3   1 <1>  -0.0990 
  8 C       -1.8570    -5.5020    -0.7270 C.2   1 <1>   0.5690 
  9 O       -1.9910    -5.4350    -1.9230 O.2   1 <1>  -0.5700 
 10 N       -2.4040    -6.5000     0.0040 N.am  1 <1>  -0.7300 
 11 C       -3.1500    -7.6530    -0.5520 C.3   1 <1>   0.2200 
 12 C       -4.6470    -7.5100    -0.3150 C.3   1 <1>  -0.0800 
 13 C       -2.8530    -8.8770     0.3020 C.3   1 <1>   0.1200 
 14 C       -4.8240    -8.0430     1.1130 C.3   1 <1>   0.1200 
 15 C       -5.2390    -6.1070    -0.5450 C.3   1 <1>  -0.0170 
 16 O       -3.6430    -8.7160     1.4400 O.3   1 <1>  -0.5600 
 17 C       -6.7510    -6.1290    -0.3880 C.ar  1 <1>  -0.1430 
 18 C       -7.5770    -6.5730    -1.4010 C.ar  1 <1>  -0.1500 
 19 C       -7.3760    -5.7140     0.7700 C.ar  1 <1>  -0.1500 
 20 C       -8.9490    -6.5870    -1.2090 C.ar  1 <1>   0.1600 
 21 C       -8.7580    -5.7690     0.8600 C.ar  1 <1>   0.1600 
 22 N       -9.5590    -6.1990    -0.1010 N.ar  1 <1>  -0.6200 
 23 H       -0.1980    -1.8780     0.1920 H     1 <1>   0.4200 
 24 H       -2.8060    -0.6620    -1.3840 H     1 <1>   0.0800 
 25 H       -1.2250     0.0810    -1.3490 H     1 <1>   0.0800 
 26 H       -2.6190     0.9620    -0.7940 H     1 <1>   0.0800 
 27 H       -2.8210    -3.2270     0.3110 H     1 <1>   0.0800 
 28 H       -1.9590    -2.8310    -1.1630 H     1 <1>   0.0800 
 29 H       -0.9430    -4.6800     1.0110 H     1 <1>   0.0800 
 30 H       -0.1190    -4.3290    -0.4930 H     1 <1>   0.0800 
 31 H       -2.3150    -6.5250     1.0230 H     1 <1>   0.3700 
 32 H       -2.9030    -7.8040    -1.5890 H     1 <1>   0.0800 
 33 H       -5.1480    -8.1960    -0.9760 H     1 <1>   0.0800 
 34 H       -1.8170    -8.9540     0.5830 H     1 <1>   0.0800 
 35 H       -3.1670    -9.7780    -0.1960 H     1 <1>   0.0800 
 36 H       -5.6510    -8.7300     1.1820 H     1 <1>   0.0800 
 37 H       -4.9530    -7.2460     1.8250 H     1 <1>   0.0800 
 38 H       -4.9880    -5.7730    -1.5380 H     1 <1>   0.0800 
 39 H       -4.8180    -5.4020     0.1490 H     1 <1>   0.0800 
 40 H       -7.1680    -6.9070    -2.3360 H     1 <1>   0.1500 
 41 H       -6.8060    -5.3470     1.6040 H     1 <1>   0.1500 
 42 H       -9.5770    -6.9370    -2.0100 H     1 <1>   0.1500 
 43 H       -9.2280    -5.4420     1.7710 H     1 <1>   0.1500 
@<TRIPOS>BOND
  1   1   2  2   
  2   1   3  2   
  3   1   4  am  
  4   1   5  1   
  5   4   6  1   
  6   4  23  1   
  7   5  24  1   
  8   5  25  1   
  9   5  26  1   
 10   6   7  1   
 11   6  27  1   
 12   6  28  1   
 13   7   8  1   
 14   7  29  1   
 15   7  30  1   
 16   8   9  2   
 17   8  10  am  
 18  10  11  1   
 19  10  31  1   
 20  11  12  1   
 21  11  13  1   
 22  11  32  1   
 23  12  14  1   
 24  12  15  1   
 25  12  33  1   
 26  13  16  1   
 27  13  34  1   
 28  13  35  1   
 29  14  16  1   
 30  14  36  1   
 31  14  37  1   
 32  15  17  1   
 33  15  38  1   
 34  15  39  1   
 35  17  18  ar  
 36  17  19  ar  
 37  18  20  ar  
 38  18  40  1   
 39  19  21  ar  
 40  19  41  1   
 41  20  22  ar  
 42  20  42  1   
 43  21  22  ar  
 44  21  43  1   
@<TRIPOS>SUBSTRUCTURE
  1 ****  15 GROUP 4 **** **** 0

# MOE 2024.06 (io_trps.svl 2023.06)
