@<TRIPOS>MOLECULE
NONAME
49 51 1 0 0 
SMALL
USER_CHARGES


@<TRIPOS>ATOM
  1 O       -0.8810    -0.0960     0.9140 O.2   1 <1>  -0.5700 
  2 C       -1.7390     0.5150     0.3040 C.2   1 <1>   0.5440 
  3 N       -1.4230     1.7550    -0.2230 N.am  1 <1>  -0.6600 
  4 C       -3.0510    -0.0700     0.1650 C.ar  1 <1>   0.0860 
  5 C       -0.0120     2.2240    -0.3050 C.3   1 <1>   0.0600 
  6 C       -2.4380     2.7950    -0.5480 C.3   1 <1>   0.0600 
  7 C       -3.6720    -0.6720     1.2560 C.ar  1 <1>   0.1600 
  8 C       -3.7550    -0.0760    -1.0350 C.ar  1 <1>  -0.1500 
  9 N       -4.8740    -1.2220     1.2630 N.ar  1 <1>  -0.6200 
 10 C       -5.0030    -0.6480    -1.0490 C.ar  1 <1>  -0.1500 
 11 C       -5.5360    -1.2120     0.1090 C.ar  1 <1>   0.4100 
 12 N       -6.7880    -1.7930     0.0910 N.pl3 1 <1>  -0.8380 
 13 C       -7.0920    -2.7950    -0.9680 C.3   1 <1>   0.2090 
 14 C       -7.6150    -1.7110     1.3290 C.3   1 <1>   0.2090 
 15 C       -7.7180    -4.0890    -0.4430 C.3   1 <1>  -0.1600 
 16 C       -9.1180    -1.7610     1.0420 C.3   1 <1>  -0.1600 
 17 C       -9.2420    -3.9940    -0.2540 C.3   1 <1>   0.0630 
 18 C       -9.6680    -3.1940     0.9860 C.3   1 <1>  -0.1600 
 19 C       -9.8550    -5.3920    -0.1900 C.ar  1 <1>  -0.1430 
 20 C       -9.4350    -6.3180     0.7560 C.ar  1 <1>  -0.1500 
 21 C      -10.8490    -5.7560    -1.0880 C.ar  1 <1>  -0.1500 
 22 C       -9.9960    -7.5820     0.8030 C.ar  1 <1>  -0.1500 
 23 C      -11.4110    -7.0200    -1.0430 C.ar  1 <1>  -0.1500 
 24 C      -10.9850    -7.9350    -0.0970 C.ar  1 <1>  -0.1500 
 25 H        0.6670     1.3900    -0.2520 H     1 <1>   0.0800 
 26 H        0.1960     2.8910     0.5130 H     1 <1>   0.0800 
 27 H        0.1510     2.7380    -1.2360 H     1 <1>   0.0800 
 28 H       -3.4050     2.5250    -0.1600 H     1 <1>   0.0800 
 29 H       -2.5070     2.9140    -1.6150 H     1 <1>   0.0800 
 30 H       -2.1510     3.7340    -0.1080 H     1 <1>   0.0800 
 31 H       -3.1270    -0.6920     2.1840 H     1 <1>   0.1500 
 32 H       -3.3240     0.3570    -1.9200 H     1 <1>   0.1500 
 33 H       -5.5880    -0.6640    -1.9490 H     1 <1>   0.1500 
 34 H       -6.1710    -3.0560    -1.4620 H     1 <1>   0.0800 
 35 H       -7.7350    -2.3440    -1.7040 H     1 <1>   0.0800 
 36 H       -7.3970    -0.7750     1.8160 H     1 <1>   0.0800 
 37 H       -7.3280    -2.4980     2.0050 H     1 <1>   0.0800 
 38 H       -7.2230    -4.4010     0.4590 H     1 <1>   0.0800 
 39 H       -7.5350    -4.8480    -1.1830 H     1 <1>   0.0800 
 40 H       -9.3440    -1.2160     0.1430 H     1 <1>   0.0800 
 41 H       -9.6140    -1.2600     1.8540 H     1 <1>   0.0800 
 42 H       -9.6490    -3.4950    -1.1170 H     1 <1>   0.0800 
 43 H      -10.7440    -3.1470     0.9950 H     1 <1>   0.0800 
 44 H       -9.3690    -3.7200     1.8750 H     1 <1>   0.0800 
 45 H       -8.6680    -6.0580     1.4640 H     1 <1>   0.1500 
 46 H      -11.1930    -5.0570    -1.8300 H     1 <1>   0.1500 
 47 H       -9.6620    -8.2910     1.5410 H     1 <1>   0.1500 
 48 H      -12.1810    -7.2920    -1.7440 H     1 <1>   0.1500 
 49 H      -11.4210    -8.9170    -0.0610 H     1 <1>   0.1500 
@<TRIPOS>BOND
  1   1   2  2   
  2   2   3  am  
  3   2   4  1   
  4   3   5  1   
  5   3   6  1   
  6   4   7  ar  
  7   4   8  ar  
  8   5  25  1   
  9   5  26  1   
 10   5  27  1   
 11   6  28  1   
 12   6  29  1   
 13   6  30  1   
 14   7   9  ar  
 15   7  31  1   
 16   8  10  ar  
 17   8  32  1   
 18   9  11  ar  
 19  10  11  ar  
 20  10  33  1   
 21  11  12  1   
 22  12  13  1   
 23  12  14  1   
 24  13  15  1   
 25  13  34  1   
 26  13  35  1   
 27  14  16  1   
 28  14  36  1   
 29  14  37  1   
 30  15  17  1   
 31  15  38  1   
 32  15  39  1   
 33  16  18  1   
 34  16  40  1   
 35  16  41  1   
 36  17  18  1   
 37  17  19  1   
 38  17  42  1   
 39  18  43  1   
 40  18  44  1   
 41  19  20  ar  
 42  19  21  ar  
 43  20  22  ar  
 44  20  45  1   
 45  21  23  ar  
 46  21  46  1   
 47  22  24  ar  
 48  22  47  1   
 49  23  24  ar  
 50  23  48  1   
 51  24  49  1   
@<TRIPOS>SUBSTRUCTURE
  1 ****  12 GROUP 4 **** **** 0

# MOE 2024.06 (io_trps.svl 2023.06)
