@<TRIPOS>MOLECULE
NONAME
51 53 1 0 0 
SMALL
USER_CHARGES


@<TRIPOS>ATOM
  1 O        0.2600    -0.4600     0.8770 O.2   1 <1>  -0.5700 
  2 C        1.2250    -0.8230     0.2430 C.2   1 <1>   0.5690 
  3 N        2.2000     0.0340    -0.2030 N.am  1 <1>  -0.4940 
  4 C        1.3360    -2.3400    -0.0740 C.3   1 <1>   0.4840 
  5 C        2.3940     1.4190     0.0310 C.2   1 <1>  -0.0880 
  6 N        0.0020    -3.0530    -0.0190 N.4   1 <1>  -0.9590 
  7 C        2.3110    -2.9990     0.9110 C.3   1 <1>  -0.2400 
  8 N        1.4560     2.3990     0.1980 N.pl3 1 <1>   0.3140 
  9 C        3.5990     2.0360     0.1100 C.2   1 <1>  -0.1810 
 10 C        0.0490    -4.5380    -0.1590 C.3   1 <1>   0.4860 
 11 C       -0.9910    -2.4820    -0.9810 C.3   1 <1>   0.3430 
 12 N        2.0330     3.6020     0.3750 N.2   1 <1>  -0.7070 
 13 C       -0.0090     2.3260     0.1200 C.3   1 <1>   0.0160 
 14 C        3.3060     3.3800     0.3250 C.2   1 <1>   0.1080 
 15 C        4.9940     1.4440     0.0000 C.3   1 <1>  -0.0590 
 16 C       -1.3420    -5.1370    -0.0310 C.ar  1 <1>  -0.1440 
 17 C       -2.4060    -2.8990    -0.5770 C.3   1 <1>  -0.0170 
 18 C        4.3180     4.5010     0.4850 C.3   1 <1>   0.0210 
 19 C       -2.4910    -4.3780    -0.2360 C.ar  1 <1>  -0.1440 
 20 C       -1.4610    -6.4810     0.2910 C.ar  1 <1>  -0.1500 
 21 C        4.6900     5.1100    -0.8710 C.3   1 <1>  -0.2400 
 22 C       -3.7380    -4.9710    -0.1170 C.ar  1 <1>  -0.1500 
 23 C       -2.7080    -7.0670     0.4080 C.ar  1 <1>  -0.1500 
 24 C       -3.8470    -6.3110     0.2030 C.ar  1 <1>  -0.1500 
 25 H        3.0060    -0.3820    -0.6710 H     1 <1>   0.3700 
 26 H        1.7380    -2.4340    -1.0680 H     1 <1>   0.0800 
 27 H       -0.3840    -2.8530     0.9160 H     1 <1>   0.4500 
 28 H        1.8960    -3.0130     1.9040 H     1 <1>   0.0800 
 29 H        3.2260    -2.4340     0.9490 H     1 <1>   0.0800 
 30 H        2.5700    -3.9970     0.6080 H     1 <1>   0.0800 
 31 H        0.6750    -4.9620     0.6080 H     1 <1>   0.0800 
 32 H        0.4590    -4.8050    -1.1200 H     1 <1>   0.0800 
 33 H       -0.7840    -2.8420    -1.9760 H     1 <1>   0.0800 
 34 H       -0.9400    -1.4040    -0.9890 H     1 <1>   0.0800 
 35 H       -0.2940     1.6250    -0.6380 H     1 <1>   0.0800 
 36 H       -0.3950     3.2980    -0.1250 H     1 <1>   0.0800 
 37 H       -0.3940     2.0210     1.0750 H     1 <1>   0.0800 
 38 H        4.9570     0.3820    -0.1520 H     1 <1>   0.0800 
 39 H        5.5430     1.6390     0.9040 H     1 <1>   0.0800 
 40 H        5.5170     1.8930    -0.8260 H     1 <1>   0.0800 
 41 H       -3.0800    -2.6720    -1.3850 H     1 <1>   0.0800 
 42 H       -2.7150    -2.3210     0.2760 H     1 <1>   0.0800 
 43 H        5.1990     4.1290     0.9750 H     1 <1>   0.0800 
 44 H        3.8900     5.2620     1.1120 H     1 <1>   0.0800 
 45 H       -0.5890    -7.0930     0.4540 H     1 <1>   0.1500 
 46 H        5.1260     4.3630    -1.5100 H     1 <1>   0.0800 
 47 H        5.3930     5.9120    -0.7380 H     1 <1>   0.0800 
 48 H        3.8070     5.4970    -1.3480 H     1 <1>   0.0800 
 49 H       -4.6350    -4.3950    -0.2700 H     1 <1>   0.1500 
 50 H       -2.7970    -8.1110     0.6580 H     1 <1>   0.1500 
 51 H       -4.8190    -6.7670     0.2940 H     1 <1>   0.1500 
@<TRIPOS>BOND
  1   1   2  2   
  2   2   3  am  
  3   2   4  1   
  4   3   5  1   
  5   3  25  1   
  6   4   6  1   
  7   4   7  1   
  8   4  26  1   
  9   5   8  1   
 10   5   9  2   
 11   6  10  1   
 12   6  11  1   
 13   6  27  1   
 14   7  28  1   
 15   7  29  1   
 16   7  30  1   
 17   8  12  1   
 18   8  13  1   
 19   9  14  1   
 20   9  15  1   
 21  10  16  1   
 22  10  31  1   
 23  10  32  1   
 24  11  17  1   
 25  11  33  1   
 26  11  34  1   
 27  12  14  2   
 28  13  35  1   
 29  13  36  1   
 30  13  37  1   
 31  14  18  1   
 32  15  38  1   
 33  15  39  1   
 34  15  40  1   
 35  16  19  ar  
 36  16  20  ar  
 37  17  19  1   
 38  17  41  1   
 39  17  42  1   
 40  18  21  1   
 41  18  43  1   
 42  18  44  1   
 43  19  22  ar  
 44  20  23  ar  
 45  20  45  1   
 46  21  46  1   
 47  21  47  1   
 48  21  48  1   
 49  22  24  ar  
 50  22  49  1   
 51  23  24  ar  
 52  23  50  1   
 53  24  51  1   
@<TRIPOS>SUBSTRUCTURE
  1 ****   2 GROUP 4 **** **** 0

# MOE 2024.06 (io_trps.svl 2023.06)
