@<TRIPOS>MOLECULE
NONAME
44 46 1 0 0 
SMALL
USER_CHARGES


@<TRIPOS>ATOM
  1 O       -0.9970    -0.2430    -0.7740 O.2   1 <1>  -0.5700 
  2 C       -1.7880     0.6640    -0.5670 C.2   1 <1>   0.5440 
  3 N       -3.1360     0.3330    -0.6290 N.am  1 <1>  -0.6600 
  4 C       -1.2680     2.0020    -0.2650 C.ar  1 <1>   0.3960 
  5 C       -3.5770    -0.9790    -1.1650 C.3   1 <1>   0.1400 
  6 C       -4.1430     0.9400     0.2960 C.3   1 <1>   0.1400 
  7 N       -1.9060     2.8310     0.5800 N.ar  1 <1>  -0.6200 
  8 C       -0.0680     2.3880    -0.8770 C.ar  1 <1>   0.1600 
  9 C       -4.2210    -1.6900     0.0400 C.3   1 <1>   0.4230 
 10 C       -5.5040     0.1640     0.3030 C.3   1 <1>  -0.1600 
 11 C       -1.2950     3.9910     0.7420 C.ar  1 <1>   0.1600 
 12 N        0.5440     3.5510    -0.7180 N.ar  1 <1>  -0.6200 
 13 N       -3.5340    -2.9810     0.3960 N.4   1 <1>  -0.9590 
 14 C       -5.7910    -1.4200     0.0150 C.3   1 <1>   0.0000 
 15 C       -0.1080     4.3420     0.1130 C.ar  1 <1>   0.1600 
 16 C       -3.8890    -4.0360    -0.5330 C.3   1 <1>   0.3430 
 17 C       -2.0490    -2.8290     0.5550 C.3   1 <1>   0.2630 
 18 C       -6.1800    -2.9560    -0.3350 C.3   1 <1>  -0.1600 
 19 C       -7.3660    -1.0790     0.0620 C.3   1 <1>   0.1200 
 20 C       -5.3380    -4.2450    -0.2160 C.3   1 <1>  -0.1600 
 21 O       -7.8130    -1.2860     1.3650 O.3   1 <1>  -0.6800 
 22 H       -4.3020    -0.8140    -1.9420 H     1 <1>   0.0800 
 23 H       -2.7640    -1.5340    -1.5950 H     1 <1>   0.0800 
 24 H       -3.7340     0.9460     1.2940 H     1 <1>   0.0800 
 25 H       -4.3150     1.9660     0.0150 H     1 <1>   0.0800 
 26 H        0.4070     1.6850    -1.5390 H     1 <1>   0.1500 
 27 H       -3.9040    -1.1270     0.8980 H     1 <1>   0.0800 
 28 H       -5.9670     0.4580     1.2330 H     1 <1>   0.0800 
 29 H       -5.9810     0.7290    -0.4820 H     1 <1>   0.0800 
 30 H       -1.7530     4.7040     1.4050 H     1 <1>   0.1500 
 31 H       -3.9230    -3.2510     1.3100 H     1 <1>   0.4500 
 32 H        0.3160     5.3120     0.3050 H     1 <1>   0.1500 
 33 H       -3.7470    -3.7240    -1.5560 H     1 <1>   0.0800 
 34 H       -3.3250    -4.9350    -0.3400 H     1 <1>   0.0800 
 35 H       -1.5810    -2.6150    -0.3930 H     1 <1>   0.0800 
 36 H       -1.6180    -3.7330     0.9520 H     1 <1>   0.0800 
 37 H       -1.8260    -2.0160     1.2270 H     1 <1>   0.0800 
 38 H       -7.0550    -3.2930     0.2050 H     1 <1>   0.0800 
 39 H       -6.4630    -2.9380    -1.3760 H     1 <1>   0.0800 
 40 H       -7.9900    -1.6700    -0.5930 H     1 <1>   0.0800 
 41 H       -7.6860    -0.0830    -0.1950 H     1 <1>   0.0800 
 42 H       -5.7360    -4.9950    -0.8790 H     1 <1>   0.0800 
 43 H       -5.4240    -4.6430     0.7820 H     1 <1>   0.0800 
 44 H       -8.7690    -1.0890     1.4480 H     1 <1>   0.4000 
@<TRIPOS>BOND
  1   1   2  2   
  2   2   3  am  
  3   2   4  1   
  4   3   5  1   
  5   3   6  1   
  6   4   7  ar  
  7   4   8  ar  
  8   5   9  1   
  9   5  22  1   
 10   5  23  1   
 11   6  10  1   
 12   6  24  1   
 13   6  25  1   
 14   7  11  ar  
 15   8  12  ar  
 16   8  26  1   
 17   9  13  1   
 18   9  14  1   
 19   9  27  1   
 20  10  14  1   
 21  10  28  1   
 22  10  29  1   
 23  11  15  ar  
 24  11  30  1   
 25  12  15  ar  
 26  13  16  1   
 27  13  17  1   
 28  13  31  1   
 29  14  18  1   
 30  14  19  1   
 31  15  32  1   
 32  16  20  1   
 33  16  33  1   
 34  16  34  1   
 35  17  35  1   
 36  17  36  1   
 37  17  37  1   
 38  18  20  1   
 39  18  38  1   
 40  18  39  1   
 41  19  21  1   
 42  19  40  1   
 43  19  41  1   
 44  20  42  1   
 45  20  43  1   
 46  21  44  1   
@<TRIPOS>SUBSTRUCTURE
  1 ****   3 GROUP 4 **** **** 0

# MOE 2024.06 (io_trps.svl 2023.06)
