@<TRIPOS>MOLECULE
NONAME
48 51 1 0 0 
SMALL
USER_CHARGES


@<TRIPOS>ATOM
  1 F       -0.3560     1.8160     2.0100 F     1 <1>  -0.1900 
  2 C        0.2440     2.5980     1.1500 C.ar  1 <1>   0.1900 
  3 C        0.2670     3.9520     1.3840 C.ar  1 <1>  -0.1500 
  4 C        0.8340     2.0060     0.0290 C.ar  1 <1>  -0.1500 
  5 C        0.9150     4.7540     0.4480 C.ar  1 <1>   0.2270 
  6 C        1.4730     2.8020    -0.8960 C.ar  1 <1>  -0.1500 
  7 N        1.0840     6.1050     0.4370 N.2   1 <1>  -0.5650 
  8 C        1.5040     4.1830    -0.6690 C.ar  1 <1>  -0.1520 
  9 C        1.7460     6.3360    -0.6420 C.2   1 <1>   0.0060 
 10 N        2.0360     5.2210    -1.3610 N.pl3 1 <1>   0.0330 
 11 C        2.1760     7.7240    -1.0710 C.3   1 <1>   0.0200 
 12 C        3.4170     8.1570    -0.2870 C.3   1 <1>  -0.0990 
 13 C        3.7840     9.5830    -0.6240 C.2   1 <1>   0.5690 
 14 O        4.4040     9.7840    -1.6380 O.2   1 <1>  -0.5700 
 15 N        3.3720    10.5670     0.2280 N.am  1 <1>  -0.4940 
 16 C        3.4830    11.9750     0.1250 C.2   1 <1>  -0.0880 
 17 N        4.5820    12.7120    -0.2250 N.pl3 1 <1>   0.3140 
 18 C        2.4910    12.8590     0.3890 C.2   1 <1>  -0.1810 
 19 N        4.2920    14.0420    -0.1910 N.2   1 <1>  -0.7070 
 20 C        5.9590    12.2120    -0.5500 C.3   1 <1>   0.1760 
 21 C        3.0520    14.1100     0.1730 C.2   1 <1>   0.1390 
 22 C        1.0580    12.6060     0.8200 C.3   1 <1>  -0.0590 
 23 C        6.5640    11.3430     0.5660 C.3   1 <1>  -0.1600 
 24 C        7.0030    13.3130    -0.7770 C.3   1 <1>  -0.1600 
 25 C        8.0700    11.6420     0.5990 C.3   1 <1>  -0.1600 
 26 C        8.3380    12.6130    -0.5500 C.3   1 <1>  -0.1600 
 27 H       -0.1900     4.3940     2.2480 H     1 <1>   0.1500 
 28 H        0.7770     0.9390    -0.0910 H     1 <1>   0.1500 
 29 H        1.9380     2.3810    -1.7700 H     1 <1>   0.1500 
 30 H        2.5470     5.1660    -2.2460 H     1 <1>   0.2700 
 31 H        1.3670     8.4070    -0.8750 H     1 <1>   0.0800 
 32 H        2.3780     7.7460    -2.1280 H     1 <1>   0.0800 
 33 H        4.2440     7.5170    -0.5330 H     1 <1>   0.0800 
 34 H        3.2310     8.0660     0.7680 H     1 <1>   0.0800 
 35 H        2.7710    10.2530     0.9900 H     1 <1>   0.3700 
 36 H        5.9010    11.6370    -1.4540 H     1 <1>   0.0800 
 37 H        2.5260    15.0420     0.2910 H     1 <1>   0.1500 
 38 H        0.8250    11.5580     0.7770 H     1 <1>   0.0800 
 39 H        0.3850    13.1320     0.1670 H     1 <1>   0.0800 
 40 H        0.9120    12.9560     1.8260 H     1 <1>   0.0800 
 41 H        6.3930    10.3020     0.3580 H     1 <1>   0.0800 
 42 H        6.1280    11.5950     1.5170 H     1 <1>   0.0800 
 43 H        6.8910    14.0910    -0.0400 H     1 <1>   0.0800 
 44 H        6.9280    13.7350    -1.7630 H     1 <1>   0.0800 
 45 H        8.6570    10.7460     0.4960 H     1 <1>   0.0800 
 46 H        8.3190    12.1150     1.5340 H     1 <1>   0.0800 
 47 H        9.1250    13.3100    -0.3170 H     1 <1>   0.0800 
 48 H        8.6060    12.0590    -1.4340 H     1 <1>   0.0800 
@<TRIPOS>BOND
  1   1   2  1   
  2   2   3  ar  
  3   2   4  ar  
  4   3   5  ar  
  5   3  27  1   
  6   4   6  ar  
  7   4  28  1   
  8   5   7  1   
  9   5   8  ar  
 10   6   8  ar  
 11   6  29  1   
 12   7   9  2   
 13   8  10  1   
 14   9  10  1   
 15   9  11  1   
 16  10  30  1   
 17  11  12  1   
 18  11  31  1   
 19  11  32  1   
 20  12  13  1   
 21  12  33  1   
 22  12  34  1   
 23  13  14  2   
 24  13  15  am  
 25  15  16  1   
 26  15  35  1   
 27  16  17  1   
 28  16  18  2   
 29  17  19  1   
 30  17  20  1   
 31  18  21  1   
 32  18  22  1   
 33  19  21  2   
 34  20  23  1   
 35  20  24  1   
 36  20  36  1   
 37  21  37  1   
 38  22  38  1   
 39  22  39  1   
 40  22  40  1   
 41  23  25  1   
 42  23  41  1   
 43  23  42  1   
 44  24  26  1   
 45  24  43  1   
 46  24  44  1   
 47  25  26  1   
 48  25  45  1   
 49  25  46  1   
 50  26  47  1   
 51  26  48  1   
@<TRIPOS>SUBSTRUCTURE
  1 ****  12 GROUP 4 **** **** 0

# MOE 2024.06 (io_trps.svl 2023.06)
