@<TRIPOS>MOLECULE
NONAME
52 54 1 0 0 
SMALL
USER_CHARGES


@<TRIPOS>ATOM
  1 O       -3.6870     1.2140    -1.6620 O.2   1 <1>  -0.5700 
  2 C       -2.5990     1.6540    -1.3240 C.2   1 <1>   0.5440 
  3 N       -1.6870     0.7090    -0.9000 N.am  1 <1>  -0.6600 
  4 C       -2.3310     3.0920    -1.3000 C.ar  1 <1>   0.3960 
  5 C       -1.6090    -0.6040    -1.6230 C.3   1 <1>   0.1400 
  6 C       -1.4960     0.5580     0.5740 C.3   1 <1>   0.1400 
  7 N       -1.2670     3.5580    -0.6300 N.ar  1 <1>  -0.6200 
  8 C       -3.2060     3.9500    -1.9720 C.ar  1 <1>   0.1600 
  9 C       -2.4610    -1.6960    -0.9290 C.3   1 <1>   0.3430 
 10 C       -2.5790    -0.3780     1.1730 C.3   1 <1>   0.3430 
 11 C       -1.1270     4.8740    -0.6820 C.ar  1 <1>   0.4100 
 12 N       -3.1010     5.2690    -2.0230 N.ar  1 <1>  -0.6200 
 13 N       -3.3690    -1.0920     0.1040 N.4   1 <1>  -0.9590 
 14 N       -0.0250     5.4060    -0.0200 N.pl3 1 <1>  -0.8380 
 15 C       -2.0460     5.6950    -1.3580 C.ar  1 <1>   0.1600 
 16 C       -4.3790    -2.0450     0.6450 C.3   1 <1>   0.2630 
 17 C        0.6630     6.6320    -0.5120 C.3   1 <1>   0.2090 
 18 C        0.9370     4.5550     0.7240 C.3   1 <1>   0.2090 
 19 C        2.1480     6.3980    -0.2500 C.3   1 <1>  -0.0190 
 20 C        2.1560     5.4400     0.9450 C.3   1 <1>  -0.1600 
 21 C        2.9050     7.7030    -0.0590 C.2   1 <1>   0.5690 
 22 O        2.5190     8.6920    -0.6350 O.2   1 <1>  -0.5700 
 23 N        4.0060     7.7210     0.7370 N.am  1 <1>  -0.7300 
 24 C        4.8510     8.9020     0.9920 C.3   1 <1>   0.1400 
 25 C        6.3100     8.5050     0.8030 C.3   1 <1>  -0.2400 
 26 H       -0.5830    -0.9240    -1.6810 H     1 <1>   0.0800 
 27 H       -1.9600    -0.4760    -2.6330 H     1 <1>   0.0800 
 28 H       -1.5420     1.5190     1.0590 H     1 <1>   0.0800 
 29 H       -0.5180     0.1510     0.7640 H     1 <1>   0.0800 
 30 H       -4.0430     3.5190    -2.4940 H     1 <1>   0.1500 
 31 H       -1.8060    -2.4150    -0.4630 H     1 <1>   0.0800 
 32 H       -3.0400    -2.2130    -1.6760 H     1 <1>   0.0800 
 33 H       -3.2490     0.2130     1.7760 H     1 <1>   0.0800 
 34 H       -2.1030    -1.0930     1.8240 H     1 <1>   0.0800 
 35 H       -3.8510    -0.3290    -0.4240 H     1 <1>   0.4500 
 36 H       -1.8840     6.7550    -1.3310 H     1 <1>   0.1500 
 37 H       -3.8930    -2.8450     1.1790 H     1 <1>   0.0800 
 38 H       -4.9600    -2.4670    -0.1590 H     1 <1>   0.0800 
 39 H       -5.0480    -1.5350     1.3180 H     1 <1>   0.0800 
 40 H        0.3110     7.4790     0.0520 H     1 <1>   0.0800 
 41 H        0.4860     6.8000    -1.5610 H     1 <1>   0.0800 
 42 H        1.2040     3.7010     0.1230 H     1 <1>   0.0800 
 43 H        0.5100     4.2250     1.6550 H     1 <1>   0.0800 
 44 H        2.5590     5.8980    -1.1080 H     1 <1>   0.0800 
 45 H        3.0590     4.8600     1.0040 H     1 <1>   0.0800 
 46 H        2.0200     5.9870     1.8620 H     1 <1>   0.0800 
 47 H        4.3000     6.8650     1.2070 H     1 <1>   0.3700 
 48 H        4.6850     9.2500     1.9980 H     1 <1>   0.0800 
 49 H        4.5940     9.6960     0.3090 H     1 <1>   0.0800 
 50 H        6.5870     7.7350     1.5000 H     1 <1>   0.0800 
 51 H        6.9390     9.3600     0.9740 H     1 <1>   0.0800 
 52 H        6.4740     8.1610    -0.2020 H     1 <1>   0.0800 
@<TRIPOS>BOND
  1   1   2  2   
  2   2   3  am  
  3   2   4  1   
  4   3   5  1   
  5   3   6  1   
  6   4   7  ar  
  7   4   8  ar  
  8   5   9  1   
  9   5  26  1   
 10   5  27  1   
 11   6  10  1   
 12   6  28  1   
 13   6  29  1   
 14   7  11  ar  
 15   8  12  ar  
 16   8  30  1   
 17   9  13  1   
 18   9  31  1   
 19   9  32  1   
 20  10  13  1   
 21  10  33  1   
 22  10  34  1   
 23  11  14  1   
 24  11  15  ar  
 25  12  15  ar  
 26  13  16  1   
 27  13  35  1   
 28  14  17  1   
 29  14  18  1   
 30  15  36  1   
 31  16  37  1   
 32  16  38  1   
 33  16  39  1   
 34  17  19  1   
 35  17  40  1   
 36  17  41  1   
 37  18  20  1   
 38  18  42  1   
 39  18  43  1   
 40  19  20  1   
 41  19  21  1   
 42  19  44  1   
 43  20  45  1   
 44  20  46  1   
 45  21  22  2   
 46  21  23  am  
 47  23  24  1   
 48  23  47  1   
 49  24  25  1   
 50  24  48  1   
 51  24  49  1   
 52  25  50  1   
 53  25  51  1   
 54  25  52  1   
@<TRIPOS>SUBSTRUCTURE
  1 ****   7 GROUP 4 **** **** 0

# MOE 2024.06 (io_trps.svl 2023.06)
