@<TRIPOS>MOLECULE
NONAME
50 53 1 0 0 
SMALL
USER_CHARGES


@<TRIPOS>ATOM
  1 F       -0.7570     1.2410    -1.4240 F     1 <1>  -0.3400 
  2 C       -1.3810     1.0210    -0.2700 C.3   1 <1>   1.1640 
  3 F       -0.5520     1.4320     0.6850 F     1 <1>  -0.3400 
  4 F       -1.4390    -0.3040    -0.1440 F     1 <1>  -0.3400 
  5 C       -2.7720     1.7010    -0.1970 C.ar  1 <1>   0.1660 
  6 N       -2.8620     3.0220    -0.2910 N.ar  1 <1>  -0.6200 
  7 C       -3.9090     0.9470    -0.0340 C.ar  1 <1>  -0.1500 
  8 C       -4.0790     3.5480    -0.2170 C.ar  1 <1>   0.7200 
  9 C       -5.1330     1.5840     0.0240 C.ar  1 <1>   0.4100 
 10 N       -5.2160     2.8900    -0.0630 N.ar  1 <1>  -0.6200 
 11 N       -4.1620     4.9180    -0.3190 N.pl3 1 <1>  -0.8380 
 12 N       -6.3130     0.8790     0.1870 N.pl3 1 <1>  -0.8380 
 13 C       -5.4230     5.6600    -0.1120 C.3   1 <1>   0.2090 
 14 C       -2.9910     5.8170    -0.2370 C.3   1 <1>   0.2090 
 15 C       -7.6400     1.5350     0.0220 C.3   1 <1>   0.2090 
 16 C       -6.4410    -0.5830    -0.0400 C.3   1 <1>   0.2090 
 17 C       -5.0220     7.1270    -0.1920 C.3   1 <1>  -0.1600 
 18 C       -3.5570     7.1500     0.2380 C.3   1 <1>  -0.1600 
 19 C       -8.6150     0.4080    -0.3290 C.3   1 <1>   0.2000 
 20 C       -7.9300    -0.8820     0.1140 C.3   1 <1>  -0.0800 
 21 O       -9.8290     0.5450     0.3290 O.3   1 <1>  -0.6800 
 22 C       -8.4010    -2.1130    -0.6780 C.3   1 <1>  -0.0170 
 23 C       -7.7010    -3.3810    -0.2170 C.ar  1 <1>   0.1670 
 24 N       -6.4990    -3.6130    -0.7250 N.ar  1 <1>  -0.6200 
 25 C       -8.3320    -4.2180     0.6920 C.ar  1 <1>  -0.1500 
 26 C       -5.9090    -4.7260    -0.3170 C.ar  1 <1>   0.1600 
 27 C       -7.7030    -5.3700     1.1110 C.ar  1 <1>  -0.1500 
 28 C       -6.4560    -5.6230     0.5840 C.ar  1 <1>  -0.1500 
 29 H       -3.8650    -0.1200     0.0510 H     1 <1>   0.1500 
 30 H       -6.1460     5.4010    -0.8670 H     1 <1>   0.0800 
 31 H       -5.8160     5.4250     0.8630 H     1 <1>   0.0800 
 32 H       -2.2520     5.4390     0.4500 H     1 <1>   0.0800 
 33 H       -2.5570     5.9140    -1.2170 H     1 <1>   0.0800 
 34 H       -7.9100     2.0150     0.9470 H     1 <1>   0.0800 
 35 H       -7.6090     2.2620    -0.7710 H     1 <1>   0.0800 
 36 H       -6.1060    -0.8200    -1.0360 H     1 <1>   0.0800 
 37 H       -5.8630    -1.1400     0.6780 H     1 <1>   0.0800 
 38 H       -5.1080     7.4530    -1.2140 H     1 <1>   0.0800 
 39 H       -5.6450     7.7450     0.4290 H     1 <1>   0.0800 
 40 H       -3.4930     7.1900     1.3110 H     1 <1>   0.0800 
 41 H       -3.0180     7.9820    -0.1780 H     1 <1>   0.0800 
 42 H       -8.8000     0.4100    -1.3890 H     1 <1>   0.0800 
 43 H       -8.1110    -1.0420     1.1620 H     1 <1>   0.0800 
 44 H       -9.6850     0.5860     1.2950 H     1 <1>   0.4000 
 45 H       -8.2090    -1.9720    -1.7280 H     1 <1>   0.0800 
 46 H       -9.4640    -2.2250    -0.5580 H     1 <1>   0.0800 
 47 H       -9.3080    -3.9720     1.0700 H     1 <1>   0.1500 
 48 H       -4.9340    -4.9360    -0.7230 H     1 <1>   0.1500 
 49 H       -8.1650    -6.0420     1.8150 H     1 <1>   0.1500 
 50 H       -5.9120    -6.5060     0.8660 H     1 <1>   0.1500 
@<TRIPOS>BOND
  1   1   2  1   
  2   2   3  1   
  3   2   4  1   
  4   2   5  1   
  5   5   6  ar  
  6   5   7  ar  
  7   6   8  ar  
  8   7   9  ar  
  9   7  29  1   
 10   8  10  ar  
 11   8  11  1   
 12   9  10  ar  
 13   9  12  1   
 14  11  13  1   
 15  11  14  1   
 16  12  15  1   
 17  12  16  1   
 18  13  17  1   
 19  13  30  1   
 20  13  31  1   
 21  14  18  1   
 22  14  32  1   
 23  14  33  1   
 24  15  19  1   
 25  15  34  1   
 26  15  35  1   
 27  16  20  1   
 28  16  36  1   
 29  16  37  1   
 30  17  18  1   
 31  17  38  1   
 32  17  39  1   
 33  18  40  1   
 34  18  41  1   
 35  19  20  1   
 36  19  21  1   
 37  19  42  1   
 38  20  22  1   
 39  20  43  1   
 40  21  44  1   
 41  22  23  1   
 42  22  45  1   
 43  22  46  1   
 44  23  24  ar  
 45  23  25  ar  
 46  24  26  ar  
 47  25  27  ar  
 48  25  47  1   
 49  26  28  ar  
 50  26  48  1   
 51  27  28  ar  
 52  27  49  1   
 53  28  50  1   
@<TRIPOS>SUBSTRUCTURE
  1 ****   9 GROUP 4 **** **** 0

# MOE 2024.06 (io_trps.svl 2023.06)
