@<TRIPOS>MOLECULE
NONAME
54 56 1 0 0 
SMALL
USER_CHARGES


@<TRIPOS>ATOM
  1 O       -1.0120     0.1610     0.7300 O.2   1 <1>  -0.5700 
  2 C       -0.0040    -0.1320     0.1370 C.2   1 <1>   0.5690 
  3 N        0.9800     0.7630    -0.1070 N.am  1 <1>  -0.7300 
  4 C        0.1730    -1.5540    -0.3280 C.3   1 <1>  -0.0990 
  5 C        0.9560     2.1870     0.2830 C.3   1 <1>   0.2200 
  6 C        0.3470    -2.4680     0.8850 C.3   1 <1>   0.0960 
  7 C        1.4500     3.0360    -0.8770 C.3   1 <1>   0.1200 
  8 C        2.0400     2.4380     1.3080 C.3   1 <1>  -0.1600 
  9 N        0.5170    -3.8660     0.4450 N.pl3 1 <1>   0.3140 
 10 O        2.8360     2.9080    -0.8480 O.3   1 <1>  -0.5600 
 11 C        3.2880     2.7610     0.4680 C.3   1 <1>   0.2800 
 12 N        1.7220    -4.2960     0.0550 N.2   1 <1>  -0.7070 
 13 C       -0.4110    -4.8380     0.3470 C.2   1 <1>  -0.3320 
 14 C        3.9550     4.0810     0.8980 C.3   1 <1>  -0.1600 
 15 C        4.3100     1.6090     0.4850 C.3   1 <1>  -0.1600 
 16 C        1.5470    -5.5300    -0.2800 C.2   1 <1>   0.1080 
 17 C        0.2170    -5.9560    -0.1410 C.2   1 <1>  -0.0860 
 18 C       -1.8650    -4.6280     0.7580 C.3   1 <1>  -0.0600 
 19 C        5.2220     4.3970     0.0850 C.3   1 <1>  -0.1600 
 20 C        5.5750     1.9270    -0.3300 C.3   1 <1>  -0.1600 
 21 C        2.7020    -6.3750    -0.7760 C.3   1 <1>  -0.0590 
 22 C       -0.2600    -7.2750    -0.4770 C.2   1 <1>   0.5950 
 23 C        6.2220     3.2350     0.1410 C.3   1 <1>  -0.1600 
 24 O        0.4190    -8.2690    -0.4260 O.2   1 <1>  -0.5700 
 25 C       -1.6810    -7.4630    -0.9620 C.3   1 <1>  -0.1790 
 26 H        1.8210     0.4990    -0.6270 H     1 <1>   0.3700 
 27 H        1.0330    -1.6280    -0.9680 H     1 <1>   0.0800 
 28 H       -0.7010    -1.8420    -0.8830 H     1 <1>   0.0800 
 29 H       -0.0250     2.4790     0.6220 H     1 <1>   0.0800 
 30 H       -0.5050    -2.3960     1.5350 H     1 <1>   0.0800 
 31 H        1.2220    -2.1830     1.4390 H     1 <1>   0.0800 
 32 H        1.2080     4.0730    -0.7240 H     1 <1>   0.0800 
 33 H        1.0730     2.7040    -1.8290 H     1 <1>   0.0800 
 34 H        2.1790     1.6040     1.9720 H     1 <1>   0.0800 
 35 H        1.7690     3.2910     1.9020 H     1 <1>   0.0800 
 36 H        4.2250     4.0090     1.9370 H     1 <1>   0.0800 
 37 H        3.2540     4.8910     0.7990 H     1 <1>   0.0800 
 38 H        3.8540     0.7130     0.1070 H     1 <1>   0.0800 
 39 H        4.5990     1.4200     1.5030 H     1 <1>   0.0800 
 40 H       -1.9150    -4.1950     1.7410 H     1 <1>   0.0800 
 41 H       -2.4030    -5.5550     0.7930 H     1 <1>   0.0800 
 42 H       -2.3550    -3.9690     0.0640 H     1 <1>   0.0800 
 43 H        5.6830     5.2920     0.4650 H     1 <1>   0.0800 
 44 H        4.9470     4.5770    -0.9410 H     1 <1>   0.0800 
 45 H        5.3130     2.0160    -1.3710 H     1 <1>   0.0800 
 46 H        6.2790     1.1190    -0.2350 H     1 <1>   0.0800 
 47 H        3.5800    -5.7670    -0.8940 H     1 <1>   0.0800 
 48 H        2.4550    -6.8190    -1.7220 H     1 <1>   0.0800 
 49 H        2.9120    -7.1530    -0.0650 H     1 <1>   0.0800 
 50 H        6.5770     3.1170     1.1510 H     1 <1>   0.0800 
 51 H        7.0690     3.4610    -0.4830 H     1 <1>   0.0800 
 52 H       -2.0470    -6.5580    -1.4090 H     1 <1>   0.0800 
 53 H       -2.3070    -7.7470    -0.1380 H     1 <1>   0.0800 
 54 H       -1.7050    -8.2430    -1.7000 H     1 <1>   0.0800 
@<TRIPOS>BOND
  1   1   2  2   
  2   2   3  am  
  3   2   4  1   
  4   3   5  1   
  5   3  26  1   
  6   4   6  1   
  7   4  27  1   
  8   4  28  1   
  9   5   7  1   
 10   5   8  1   
 11   5  29  1   
 12   6   9  1   
 13   6  30  1   
 14   6  31  1   
 15   7  10  1   
 16   7  32  1   
 17   7  33  1   
 18   8  11  1   
 19   8  34  1   
 20   8  35  1   
 21   9  12  1   
 22   9  13  1   
 23  10  11  1   
 24  11  14  1   
 25  11  15  1   
 26  12  16  2   
 27  13  17  2   
 28  13  18  1   
 29  14  19  1   
 30  14  36  1   
 31  14  37  1   
 32  15  20  1   
 33  15  38  1   
 34  15  39  1   
 35  16  17  1   
 36  16  21  1   
 37  17  22  1   
 38  18  40  1   
 39  18  41  1   
 40  18  42  1   
 41  19  23  1   
 42  19  43  1   
 43  19  44  1   
 44  20  23  1   
 45  20  45  1   
 46  20  46  1   
 47  21  47  1   
 48  21  48  1   
 49  21  49  1   
 50  22  24  2   
 51  22  25  1   
 52  23  50  1   
 53  23  51  1   
 54  25  52  1   
 55  25  53  1   
 56  25  54  1   
@<TRIPOS>SUBSTRUCTURE
  1 ****   4 GROUP 4 **** **** 0

# MOE 2024.06 (io_trps.svl 2023.06)
