@<TRIPOS>MOLECULE
NONAME
49 52 1 0 0 
SMALL
USER_CHARGES


@<TRIPOS>ATOM
  1 O        0.7940    -0.0600    -0.0330 O.3   1 <1>  -0.6800 
  2 C        1.9100    -0.2820    -0.8280 C.3   1 <1>   0.2000 
  3 C        2.6700    -1.4700    -0.2400 C.3   1 <1>  -0.0800 
  4 C        2.8610     0.9140    -0.6530 C.3   1 <1>   0.3430 
  5 C        3.4480    -0.8100     0.8980 C.3   1 <1>   0.3430 
  6 C        3.6060    -2.1210    -1.2810 C.3   1 <1>   0.0210 
  7 N        3.9020     0.4770     0.3250 N.4   1 <1>  -0.9590 
  8 C        4.4840    -3.1830    -0.6500 C.2   1 <1>   0.1080 
  9 C        4.3180     1.4930     1.3160 C.3   1 <1>   0.4860 
 10 N        5.5430    -2.9000     0.0460 N.2   1 <1>  -0.7070 
 11 C        4.2630    -4.5520    -0.7410 C.2   1 <1>  -0.1500 
 12 C        4.7390     2.7750     0.6040 C.ar  1 <1>  -0.1440 
 13 N        6.0360    -4.1020     0.4150 N.pl3 1 <1>   0.3000 
 14 C        5.2740    -5.1140    -0.0470 C.2   1 <1>  -0.3320 
 15 C        5.9010     2.8560    -0.1770 C.ar  1 <1>  -0.0230 
 16 C        3.9330     3.8950     0.7520 C.ar  1 <1>  -0.1500 
 17 C        5.5660    -6.5830     0.2030 C.3   1 <1>  -0.0600 
 18 N        6.7670     1.7440    -0.3740 N.pl3 1 <1>   0.5930 
 19 C        6.2170     4.0660    -0.7880 C.ar  1 <1>  -0.1500 
 20 C        4.2630     5.0880     0.1360 C.ar  1 <1>  -0.1500 
 21 N        6.3720     0.6080    -1.0070 N.2   1 <1>  -0.7070 
 22 C        8.0260     1.5940     0.0960 C.2   1 <1>  -0.3020 
 23 C        5.4060     5.1730    -0.6340 C.ar  1 <1>  -0.1500 
 24 C        7.3780    -0.2070    -0.9200 C.2   1 <1>   0.1390 
 25 C        8.4480     0.3570    -0.2380 C.2   1 <1>  -0.1500 
 26 H        0.0910    -0.7200    -0.2130 H     1 <1>   0.4000 
 27 H        1.5890    -0.4140    -1.8480 H     1 <1>   0.0800 
 28 H        2.0050    -2.2240     0.1440 H     1 <1>   0.0800 
 29 H        2.3120     1.7680    -0.2920 H     1 <1>   0.0800 
 30 H        3.3330     1.1620    -1.5900 H     1 <1>   0.0800 
 31 H        4.2730    -1.4110     1.2430 H     1 <1>   0.0800 
 32 H        2.7740    -0.6250     1.7190 H     1 <1>   0.0800 
 33 H        4.2470    -1.3890    -1.7410 H     1 <1>   0.0800 
 34 H        3.0200    -2.5740    -2.0610 H     1 <1>   0.0800 
 35 H        4.7570     0.2630    -0.2310 H     1 <1>   0.4500 
 36 H        3.5000     1.7040     1.9840 H     1 <1>   0.0800 
 37 H        5.1440     1.1170     1.8980 H     1 <1>   0.0800 
 38 H        3.4560    -5.0380    -1.2600 H     1 <1>   0.1500 
 39 H        6.8910    -4.2030     0.9770 H     1 <1>   0.2700 
 40 H        3.0370     3.8560     1.3500 H     1 <1>   0.1500 
 41 H        4.8170    -7.1950    -0.2680 H     1 <1>   0.0800 
 42 H        5.5620    -6.7910     1.2580 H     1 <1>   0.0800 
 43 H        6.5270    -6.8470    -0.2030 H     1 <1>   0.0800 
 44 H        7.1050     4.1450    -1.3940 H     1 <1>   0.1500 
 45 H        3.6320     5.9530     0.2560 H     1 <1>   0.1500 
 46 H        8.5360     2.3720     0.6330 H     1 <1>   0.1500 
 47 H        5.6640     6.1030    -1.1140 H     1 <1>   0.1500 
 48 H        7.3770    -1.2080    -1.3280 H     1 <1>   0.1500 
 49 H        9.3930    -0.1180    -0.0380 H     1 <1>   0.1500 
@<TRIPOS>BOND
  1   1   2  1   
  2   1  26  1   
  3   2   3  1   
  4   2   4  1   
  5   2  27  1   
  6   3   5  1   
  7   3   6  1   
  8   3  28  1   
  9   4   7  1   
 10   4  29  1   
 11   4  30  1   
 12   5   7  1   
 13   5  31  1   
 14   5  32  1   
 15   6   8  1   
 16   6  33  1   
 17   6  34  1   
 18   7   9  1   
 19   7  35  1   
 20   8  10  2   
 21   8  11  1   
 22   9  12  1   
 23   9  36  1   
 24   9  37  1   
 25  10  13  1   
 26  11  14  2   
 27  11  38  1   
 28  12  15  ar  
 29  12  16  ar  
 30  13  14  1   
 31  13  39  1   
 32  14  17  1   
 33  15  18  1   
 34  15  19  ar  
 35  16  20  ar  
 36  16  40  1   
 37  17  41  1   
 38  17  42  1   
 39  17  43  1   
 40  18  21  1   
 41  18  22  1   
 42  19  23  ar  
 43  19  44  1   
 44  20  23  ar  
 45  20  45  1   
 46  21  24  2   
 47  22  25  2   
 48  22  46  1   
 49  23  47  1   
 50  24  25  1   
 51  24  48  1   
 52  25  49  1   
@<TRIPOS>SUBSTRUCTURE
  1 ****   7 GROUP 4 **** **** 0

# MOE 2024.06 (io_trps.svl 2023.06)
