@<TRIPOS>MOLECULE
NONAME
58 61 1 0 0 
SMALL
USER_CHARGES


@<TRIPOS>ATOM
  1 O        0.3580     0.0790     0.1370 O.2   1 <1>  -0.5700 
  2 C        1.1950    -0.7570     0.4200 C.2   1 <1>   0.5440 
  3 N        2.5200    -0.3820     0.4840 N.am  1 <1>  -0.6600 
  4 C        0.7700    -2.1180     0.6800 C.ar  1 <1>   0.0860 
  5 C        2.9400     1.0530     0.4660 C.3   1 <1>   0.1400 
  6 C        3.6640    -1.3290     0.3140 C.3   1 <1>   0.1400 
  7 C       -0.0910    -2.7940    -0.1630 C.ar  1 <1>  -0.1500 
  8 C        1.1810    -2.8360     1.7960 C.ar  1 <1>  -0.1500 
  9 C        3.8640     1.3340    -0.7290 C.3   1 <1>   0.1200 
 10 C        4.5530    -0.9020    -0.8690 C.3   1 <1>   0.1200 
 11 C       -0.4830    -4.0980     0.1060 C.ar  1 <1>   0.4100 
 12 C        0.7420    -4.1300     1.9860 C.ar  1 <1>   0.1600 
 13 O        4.9390     0.4360    -0.7420 O.3   1 <1>  -0.5600 
 14 N       -0.0700    -4.7760     1.1700 N.ar  1 <1>  -0.6200 
 15 N       -1.3580    -4.7300    -0.7530 N.pl3 1 <1>  -0.8380 
 16 C       -2.7850    -4.2830    -0.7070 C.3   1 <1>   0.2090 
 17 C       -1.2460    -6.2120    -0.9470 C.3   1 <1>   0.2090 
 18 C       -3.6300    -5.1610     0.2480 C.3   1 <1>   0.2950 
 19 C       -2.1870    -6.9950     0.0010 C.3   1 <1>   0.2000 
 20 O       -3.4980    -6.5110    -0.1000 O.3   1 <1>  -0.5600 
 21 C       -5.1390    -4.8490     0.2530 C.3   1 <1>  -0.1950 
 22 C       -2.2470    -8.4960    -0.3090 C.3   1 <1>  -0.1600 
 23 C       -5.9370    -4.5770    -0.9840 C.3   1 <1>  -0.2000 
 24 C       -5.7080    -3.4820     0.0200 C.3   1 <1>  -0.2000 
 25 C       -0.9030    -9.2100    -0.0890 C.3   1 <1>  -0.1600 
 26 C       -1.0400   -10.7200    -0.3190 C.3   1 <1>  -0.1600 
 27 C        0.2970   -11.4340    -0.1030 C.3   1 <1>  -0.2400 
 28 H        2.0840     1.7020     0.4130 H     1 <1>   0.0800 
 29 H        3.4660     1.2770     1.3770 H     1 <1>   0.0800 
 30 H        4.2550    -1.3360     1.2130 H     1 <1>   0.0800 
 31 H        3.3100    -2.3280     0.1350 H     1 <1>   0.0800 
 32 H       -0.4670    -2.3100    -1.0440 H     1 <1>   0.1500 
 33 H        1.8370    -2.3750     2.5110 H     1 <1>   0.1500 
 34 H        4.2670     2.3290    -0.6610 H     1 <1>   0.0800 
 35 H        3.3220     1.2410    -1.6540 H     1 <1>   0.0800 
 36 H        4.0260    -1.0220    -1.8000 H     1 <1>   0.0800 
 37 H        5.4460    -1.5000    -0.8970 H     1 <1>   0.0800 
 38 H        1.0760    -4.6660     2.8590 H     1 <1>   0.1500 
 39 H       -2.8320    -3.2610    -0.3770 H     1 <1>   0.0800 
 40 H       -3.1960    -4.3310    -1.6980 H     1 <1>   0.0800 
 41 H       -1.4940    -6.4510    -1.9660 H     1 <1>   0.0800 
 42 H       -0.2290    -6.5180    -0.7790 H     1 <1>   0.0800 
 43 H       -3.2530    -5.0370     1.2490 H     1 <1>   0.0800 
 44 H       -1.8600    -6.8580     1.0180 H     1 <1>   0.0800 
 45 H       -5.6280    -5.4350     1.0120 H     1 <1>   0.1000 
 46 H       -2.9840    -8.9400     0.3370 H     1 <1>   0.0800 
 47 H       -2.5670    -8.6340    -1.3280 H     1 <1>   0.0800 
 48 H       -5.4390    -4.5310    -1.9370 H     1 <1>   0.1000 
 49 H       -6.9150    -5.0200    -1.0610 H     1 <1>   0.1000 
 50 H       -6.5360    -3.1610     0.6280 H     1 <1>   0.1000 
 51 H       -5.0740    -2.6610    -0.2650 H     1 <1>   0.1000 
 52 H       -0.1630    -8.8200    -0.7660 H     1 <1>   0.0800 
 53 H       -0.5650    -9.0330     0.9180 H     1 <1>   0.0800 
 54 H       -1.7710   -11.1240     0.3600 H     1 <1>   0.0800 
 55 H       -1.3810   -10.9030    -1.3240 H     1 <1>   0.0800 
 56 H        0.6470   -11.2800     0.9030 H     1 <1>   0.0800 
 57 H        1.0380   -11.0610    -0.7890 H     1 <1>   0.0800 
 58 H        0.1810   -12.4900    -0.2670 H     1 <1>   0.0800 
@<TRIPOS>BOND
  1   1   2  2   
  2   2   3  am  
  3   2   4  1   
  4   3   5  1   
  5   3   6  1   
  6   4   7  ar  
  7   4   8  ar  
  8   5   9  1   
  9   5  28  1   
 10   5  29  1   
 11   6  10  1   
 12   6  30  1   
 13   6  31  1   
 14   7  11  ar  
 15   7  32  1   
 16   8  12  ar  
 17   8  33  1   
 18   9  13  1   
 19   9  34  1   
 20   9  35  1   
 21  10  13  1   
 22  10  36  1   
 23  10  37  1   
 24  11  14  ar  
 25  11  15  1   
 26  12  14  ar  
 27  12  38  1   
 28  15  16  1   
 29  15  17  1   
 30  16  18  1   
 31  16  39  1   
 32  16  40  1   
 33  17  19  1   
 34  17  41  1   
 35  17  42  1   
 36  18  20  1   
 37  18  21  1   
 38  18  43  1   
 39  19  20  1   
 40  19  22  1   
 41  19  44  1   
 42  21  23  1   
 43  21  24  1   
 44  21  45  1   
 45  22  25  1   
 46  22  46  1   
 47  22  47  1   
 48  23  24  1   
 49  23  48  1   
 50  23  49  1   
 51  24  50  1   
 52  24  51  1   
 53  25  26  1   
 54  25  52  1   
 55  25  53  1   
 56  26  27  1   
 57  26  54  1   
 58  26  55  1   
 59  27  56  1   
 60  27  57  1   
 61  27  58  1   
@<TRIPOS>SUBSTRUCTURE
  1 ****  11 GROUP 4 **** **** 0

# MOE 2024.06 (io_trps.svl 2023.06)
