@<TRIPOS>MOLECULE
NONAME
59 62 1 0 0 
SMALL
USER_CHARGES


@<TRIPOS>ATOM
  1 O       -1.6550     1.4300    -0.4420 O.3   1 <1>  -0.3630 
  2 C       -1.6350     2.0770     0.7620 C.ar  1 <1>   0.0830 
  3 C       -0.4420     1.1880    -1.1320 C.3   1 <1>   0.0400 
  4 C       -0.8460     3.2080     1.0250 C.ar  1 <1>   0.0830 
  5 C       -2.4720     1.5700     1.7540 C.ar  1 <1>  -0.1440 
  6 O       -0.0920     3.7440     0.0220 O.3   1 <1>  -0.3620 
  7 C       -0.8760     3.7730     2.2970 C.ar  1 <1>  -0.1500 
  8 C       -2.4900     2.1530     3.0120 C.ar  1 <1>  -0.1500 
  9 C       -3.3820     0.3920     1.4630 C.3   1 <1>   0.4860 
 10 C        0.7550     4.8540     0.2290 C.3   1 <1>   0.0400 
 11 C       -1.6900     3.2460     3.2820 C.ar  1 <1>  -0.1500 
 12 N       -4.2550     0.7670     0.3250 N.4   1 <1>  -0.9590 
 13 C       -5.1630     1.9130     0.6640 C.3   1 <1>   0.3430 
 14 C       -4.9930    -0.3790    -0.2630 C.3   1 <1>   0.3430 
 15 C       -5.8740     2.4450    -0.5900 C.3   1 <1>   0.1430 
 16 C       -5.6920     0.0780    -1.5480 C.3   1 <1>  -0.1600 
 17 C       -6.8540     3.5070    -0.1600 C.ar  1 <1>   0.1670 
 18 C       -6.6060     1.2970    -1.3180 C.3   1 <1>  -0.1600 
 19 C       -4.9160     3.2260    -1.5320 C.3   1 <1>  -0.1600 
 20 N       -7.7100     3.3660     0.8190 N.ar  1 <1>  -0.6200 
 21 C       -6.7320     4.6420    -0.8990 C.ar  1 <1>  -0.1430 
 22 C       -5.6550     4.5140    -1.9470 C.3   1 <1>  -0.0170 
 23 C       -8.4800     4.4350     1.0480 C.ar  1 <1>   0.7200 
 24 C       -7.5650     5.6880    -0.5910 C.ar  1 <1>   0.1600 
 25 N       -8.4400     5.5930     0.3820 N.ar  1 <1>  -0.6200 
 26 N       -9.3980     4.3310     2.0720 N.pl3 1 <1>  -0.8380 
 27 C       -9.9350     3.0220     2.5340 C.3   1 <1>   0.1290 
 28 C      -10.0690     5.5320     2.6440 C.3   1 <1>   0.1290 
 29 H       -0.5710     0.3250    -1.7590 H     1 <1>   0.0800 
 30 H        0.3450     1.0110    -0.4190 H     1 <1>   0.0800 
 31 H       -0.2100     2.0430    -1.7420 H     1 <1>   0.0800 
 32 H       -0.2780     4.6300     2.5450 H     1 <1>   0.1500 
 33 H       -3.1240     1.7680     3.7950 H     1 <1>   0.1500 
 34 H       -3.9750     0.1490     2.3290 H     1 <1>   0.0800 
 35 H       -2.7780    -0.4610     1.2000 H     1 <1>   0.0800 
 36 H        1.2560     5.0700    -0.6980 H     1 <1>   0.0800 
 37 H        1.4800     4.6080     0.9850 H     1 <1>   0.0800 
 38 H        0.1600     5.7000     0.5250 H     1 <1>   0.0800 
 39 H       -1.7010     3.6940     4.2620 H     1 <1>   0.1500 
 40 H       -3.5790     1.1180    -0.3770 H     1 <1>   0.4500 
 41 H       -4.6040     2.7180     1.1120 H     1 <1>   0.0800 
 42 H       -5.9090     1.5920     1.3720 H     1 <1>   0.0800 
 43 H       -5.7280    -0.7390     0.4390 H     1 <1>   0.0800 
 44 H       -4.3120    -1.1830    -0.4900 H     1 <1>   0.0800 
 45 H       -6.2830    -0.7370    -1.9310 H     1 <1>   0.0800 
 46 H       -4.9490     0.3050    -2.2930 H     1 <1>   0.0800 
 47 H       -7.0020     1.6480    -2.2560 H     1 <1>   0.0800 
 48 H       -7.4460     0.9880    -0.7160 H     1 <1>   0.0800 
 49 H       -4.6180     2.6580    -2.3950 H     1 <1>   0.0800 
 50 H       -4.0280     3.5130    -0.9930 H     1 <1>   0.0800 
 51 H       -6.1080     4.4010    -2.9170 H     1 <1>   0.0800 
 52 H       -4.9980     5.3670    -1.9490 H     1 <1>   0.0800 
 53 H       -7.5130     6.6110    -1.1440 H     1 <1>   0.1500 
 54 H       -9.7370     2.2500     1.8110 H     1 <1>   0.0800 
 55 H      -11.0010     3.0900     2.6690 H     1 <1>   0.0800 
 56 H       -9.4760     2.7540     3.4690 H     1 <1>   0.0800 
 57 H       -9.4150     6.3860     2.5980 H     1 <1>   0.0800 
 58 H      -10.3260     5.3570     3.6740 H     1 <1>   0.0800 
 59 H      -10.9620     5.7460     2.0840 H     1 <1>   0.0800 
@<TRIPOS>BOND
  1   1   2  1   
  2   1   3  1   
  3   2   4  ar  
  4   2   5  ar  
  5   3  29  1   
  6   3  30  1   
  7   3  31  1   
  8   4   6  1   
  9   4   7  ar  
 10   5   8  ar  
 11   5   9  1   
 12   6  10  1   
 13   7  11  ar  
 14   7  32  1   
 15   8  11  ar  
 16   8  33  1   
 17   9  12  1   
 18   9  34  1   
 19   9  35  1   
 20  10  36  1   
 21  10  37  1   
 22  10  38  1   
 23  11  39  1   
 24  12  13  1   
 25  12  14  1   
 26  12  40  1   
 27  13  15  1   
 28  13  41  1   
 29  13  42  1   
 30  14  16  1   
 31  14  43  1   
 32  14  44  1   
 33  15  17  1   
 34  15  18  1   
 35  15  19  1   
 36  16  18  1   
 37  16  45  1   
 38  16  46  1   
 39  17  20  ar  
 40  17  21  ar  
 41  18  47  1   
 42  18  48  1   
 43  19  22  1   
 44  19  49  1   
 45  19  50  1   
 46  20  23  ar  
 47  21  22  1   
 48  21  24  ar  
 49  22  51  1   
 50  22  52  1   
 51  23  25  ar  
 52  23  26  1   
 53  24  25  ar  
 54  24  53  1   
 55  26  27  1   
 56  26  28  1   
 57  27  54  1   
 58  27  55  1   
 59  27  56  1   
 60  28  57  1   
 61  28  58  1   
 62  28  59  1   
@<TRIPOS>SUBSTRUCTURE
  1 ****  13 GROUP 4 **** **** 0

# MOE 2024.06 (io_trps.svl 2023.06)
