@<TRIPOS>MOLECULE
NONAME
48 51 1 0 0 
SMALL
USER_CHARGES


@<TRIPOS>ATOM
  1 O       -2.2150     0.3810    -2.6350 O.2   1 <1>  -0.5700 
  2 C       -1.7560     0.8760    -1.6340 C.2   1 <1>   0.5690 
  3 N       -1.3980     0.1170    -0.5680 N.am  1 <1>  -0.7300 
  4 C       -1.5900     2.3900    -1.5770 C.3   1 <1>   0.1810 
  5 C       -1.4900    -1.3590    -0.4840 C.3   1 <1>   0.2200 
  6 O       -1.2050     2.8220    -0.2770 O.3   1 <1>  -0.3630 
  7 C       -2.6500    -1.7920     0.4010 C.3   1 <1>  -0.0800 
  8 C       -0.3100    -1.8850     0.3220 C.3   1 <1>   0.1200 
  9 C       -1.0320     4.1360     0.0060 C.ar  1 <1>   0.0820 
 10 C       -2.0510    -1.7280     1.8100 C.3   1 <1>   0.1200 
 11 C       -3.9600    -1.0000     0.2330 C.3   1 <1>  -0.0160 
 12 O       -0.6610    -1.6910     1.6590 O.3   1 <1>  -0.5600 
 13 C       -1.1930     5.1600    -0.9230 C.ar  1 <1>  -0.1500 
 14 C       -0.6780     4.4500     1.3070 C.ar  1 <1>  -0.1500 
 15 C       -5.0610    -1.5800     1.1070 C.ar  1 <1>  -0.1440 
 16 C       -0.9990     6.4770    -0.5440 C.ar  1 <1>  -0.1500 
 17 C       -0.4840     5.7660     1.6840 C.ar  1 <1>  -0.1500 
 18 C       -5.7820    -2.6920     0.7220 C.ar  1 <1>  -0.1500 
 19 C       -5.3960    -1.0280     2.3270 C.ar  1 <1>  -0.1500 
 20 C       -0.6390     6.7990     0.7630 C.ar  1 <1>  -0.0230 
 21 C       -6.7710    -3.1880     1.5550 C.ar  1 <1>   0.1600 
 22 C       -6.4030    -1.6030     3.0850 C.ar  1 <1>   0.1600 
 23 N       -0.4330     8.1550     1.1570 N.pl3 1 <1>   0.5930 
 24 N       -7.0980    -2.6720     2.7290 N.ar  1 <1>  -0.6200 
 25 N       -0.7520     8.6610     2.3380 N.2   1 <1>  -0.4180 
 26 C        0.1040     9.1500     0.4650 C.2   1 <1>   0.0360 
 27 N       -0.4160     9.9000     2.3210 N.2   1 <1>   0.0000 
 28 N        0.1240    10.2250     1.1530 N.2   1 <1>  -0.3380 
 29 H       -1.0380     0.5770     0.2750 H     1 <1>   0.3700 
 30 H       -2.5270     2.8550    -1.8260 H     1 <1>   0.0800 
 31 H       -0.8310     2.6900    -2.2750 H     1 <1>   0.0800 
 32 H       -1.5360    -1.7910    -1.4700 H     1 <1>   0.0800 
 33 H       -2.8550    -2.8270     0.1880 H     1 <1>   0.0800 
 34 H        0.6070    -1.3660     0.1070 H     1 <1>   0.0800 
 35 H       -0.1820    -2.9410     0.1650 H     1 <1>   0.0800 
 36 H       -2.3190    -2.5890     2.3980 H     1 <1>   0.0800 
 37 H       -2.3440    -0.8300     2.3250 H     1 <1>   0.0800 
 38 H       -4.2670    -1.0330    -0.7980 H     1 <1>   0.0800 
 39 H       -3.8100     0.0340     0.4910 H     1 <1>   0.0800 
 40 H       -1.4700     4.9540    -1.9400 H     1 <1>   0.1500 
 41 H       -0.5550     3.6580     2.0240 H     1 <1>   0.1500 
 42 H       -1.1370     7.2540    -1.2770 H     1 <1>   0.1500 
 43 H       -0.2120     5.9890     2.7030 H     1 <1>   0.1500 
 44 H       -5.5850    -3.1760    -0.2160 H     1 <1>   0.1500 
 45 H       -4.8850    -0.1580     2.6960 H     1 <1>   0.1500 
 46 H       -7.3240    -4.0560     1.2390 H     1 <1>   0.1500 
 47 H       -6.6510    -1.1590     4.0340 H     1 <1>   0.1500 
 48 H        0.4710     9.0400    -0.5360 H     1 <1>   0.1500 
@<TRIPOS>BOND
  1   1   2  2   
  2   2   3  am  
  3   2   4  1   
  4   3   5  1   
  5   3  29  1   
  6   4   6  1   
  7   4  30  1   
  8   4  31  1   
  9   5   7  1   
 10   5   8  1   
 11   5  32  1   
 12   6   9  1   
 13   7  10  1   
 14   7  11  1   
 15   7  33  1   
 16   8  12  1   
 17   8  34  1   
 18   8  35  1   
 19   9  13  ar  
 20   9  14  ar  
 21  10  12  1   
 22  10  36  1   
 23  10  37  1   
 24  11  15  1   
 25  11  38  1   
 26  11  39  1   
 27  13  16  ar  
 28  13  40  1   
 29  14  17  ar  
 30  14  41  1   
 31  15  18  ar  
 32  15  19  ar  
 33  16  20  ar  
 34  16  42  1   
 35  17  20  ar  
 36  17  43  1   
 37  18  21  ar  
 38  18  44  1   
 39  19  22  ar  
 40  19  45  1   
 41  20  23  1   
 42  21  24  ar  
 43  21  46  1   
 44  22  24  ar  
 45  22  47  1   
 46  23  25  1   
 47  23  26  1   
 48  25  27  2   
 49  26  28  2   
 50  26  48  1   
 51  27  28  1   
@<TRIPOS>SUBSTRUCTURE
  1 ****   6 GROUP 4 **** **** 0

# MOE 2024.06 (io_trps.svl 2023.06)
