@<TRIPOS>MOLECULE
NONAME
54 56 1 0 0 
SMALL
USER_CHARGES


@<TRIPOS>ATOM
  1 O       -3.4180     2.1570    -2.2160 O.2   1 <1>  -0.5700 
  2 C       -3.0660     1.4320    -1.3040 C.2   1 <1>   0.5440 
  3 N       -3.6930     0.2100    -1.1470 N.am  1 <1>  -0.6600 
  4 C       -2.0160     1.8860    -0.4130 C.ar  1 <1>   0.0860 
  5 C       -3.1800    -0.8520    -0.2010 C.3   1 <1>   0.3640 
  6 C       -5.0070    -0.0260    -1.8190 C.3   1 <1>   0.1400 
  7 C       -0.7210     2.1050    -0.8770 C.ar  1 <1>  -0.1500 
  8 C       -2.2630     2.0940     0.9420 C.ar  1 <1>  -0.1500 
  9 C       -1.6900    -1.0820    -0.4760 C.ar  1 <1>  -0.1430 
 10 C       -3.9150    -2.2290    -0.2650 C.3   1 <1>   0.2000 
 11 C       -5.3140    -1.5110    -1.9990 C.3   1 <1>   0.1200 
 12 C        0.3050     2.4810    -0.0260 C.ar  1 <1>   0.0830 
 13 C       -1.2450     2.4660     1.7970 C.ar  1 <1>   0.0820 
 14 C       -0.7640    -0.9810     0.5550 C.ar  1 <1>  -0.1500 
 15 C       -1.2410    -1.3700    -1.7590 C.ar  1 <1>  -0.1500 
 16 O       -5.2220    -2.1470    -0.7660 O.3   1 <1>  -0.5600 
 17 C       -4.0310    -2.9060     1.1100 C.3   1 <1>   0.1200 
 18 O        1.5320     2.6500    -0.5830 O.3   1 <1>  -0.3630 
 19 C        0.0430     2.6590     1.3280 C.ar  1 <1>  -0.1500 
 20 O       -1.5210     2.6310     3.0990 O.3   1 <1>  -0.5320 
 21 C        0.5880    -1.1510     0.3140 C.ar  1 <1>   0.0830 
 22 C        0.1090    -1.5370    -2.0110 C.ar  1 <1>  -0.1500 
 23 O       -2.7940    -3.0320     1.7330 O.3   1 <1>  -0.6800 
 24 C        2.6520     2.9830     0.2060 C.3   1 <1>   0.0400 
 25 O        1.4310    -1.0460     1.3710 O.3   1 <1>  -0.3630 
 26 C        1.0300    -1.4110    -0.9870 C.ar  1 <1>   0.0830 
 27 C        2.1170    -2.2210     1.7420 C.3   1 <1>   0.0400 
 28 O        2.3410    -1.5320    -1.3030 O.3   1 <1>  -0.3630 
 29 C        3.0890    -0.3390    -1.2420 C.3   1 <1>   0.0400 
 30 H       -3.2920    -0.4730     0.8000 H     1 <1>   0.0800 
 31 H       -5.7850     0.4260    -1.2290 H     1 <1>   0.0800 
 32 H       -5.0140     0.4460    -2.7870 H     1 <1>   0.0800 
 33 H       -0.5100     1.9640    -1.9220 H     1 <1>   0.1500 
 34 H       -3.2550     1.9580     1.3320 H     1 <1>   0.1500 
 35 H       -3.3780    -2.8890    -0.9220 H     1 <1>   0.0800 
 36 H       -4.6310    -1.9690    -2.6930 H     1 <1>   0.0800 
 37 H       -6.3190    -1.6380    -2.3610 H     1 <1>   0.0800 
 38 H       -1.0840    -0.7630     1.5590 H     1 <1>   0.1500 
 39 H       -1.9430    -1.4460    -2.5720 H     1 <1>   0.1500 
 40 H       -4.4530    -3.8910     1.0050 H     1 <1>   0.0800 
 41 H       -4.6590    -2.3190     1.7570 H     1 <1>   0.0800 
 42 H        0.8160     2.9410     2.0130 H     1 <1>   0.1500 
 43 H       -0.7410     2.8650     3.6320 H     1 <1>   0.4500 
 44 H        0.4560    -1.7510    -3.0060 H     1 <1>   0.1500 
 45 H       -2.1750    -3.5630     1.1910 H     1 <1>   0.4000 
 46 H        3.5090     3.0430    -0.4390 H     1 <1>   0.0800 
 47 H        2.8000     2.2140     0.9440 H     1 <1>   0.0800 
 48 H        2.4790     3.9380     0.6710 H     1 <1>   0.0800 
 49 H        2.6590    -2.0220     2.6480 H     1 <1>   0.0800 
 50 H        2.8000    -2.4970     0.9590 H     1 <1>   0.0800 
 51 H        1.3980    -3.0040     1.9050 H     1 <1>   0.0800 
 52 H        4.0780    -0.5410    -1.6110 H     1 <1>   0.0800 
 53 H        3.1360    -0.0050    -0.2220 H     1 <1>   0.0800 
 54 H        2.6090     0.4040    -1.8540 H     1 <1>   0.0800 
@<TRIPOS>BOND
  1   1   2  2   
  2   2   3  am  
  3   2   4  1   
  4   3   5  1   
  5   3   6  1   
  6   4   7  ar  
  7   4   8  ar  
  8   5   9  1   
  9   5  10  1   
 10   5  30  1   
 11   6  11  1   
 12   6  31  1   
 13   6  32  1   
 14   7  12  ar  
 15   7  33  1   
 16   8  13  ar  
 17   8  34  1   
 18   9  14  ar  
 19   9  15  ar  
 20  10  16  1   
 21  10  17  1   
 22  10  35  1   
 23  11  16  1   
 24  11  36  1   
 25  11  37  1   
 26  12  18  1   
 27  12  19  ar  
 28  13  19  ar  
 29  13  20  1   
 30  14  21  ar  
 31  14  38  1   
 32  15  22  ar  
 33  15  39  1   
 34  17  23  1   
 35  17  40  1   
 36  17  41  1   
 37  18  24  1   
 38  19  42  1   
 39  20  43  1   
 40  21  25  1   
 41  21  26  ar  
 42  22  26  ar  
 43  22  44  1   
 44  23  45  1   
 45  24  46  1   
 46  24  47  1   
 47  24  48  1   
 48  25  27  1   
 49  26  28  1   
 50  27  49  1   
 51  27  50  1   
 52  27  51  1   
 53  28  29  1   
 54  29  52  1   
 55  29  53  1   
 56  29  54  1   
@<TRIPOS>SUBSTRUCTURE
  1 ****   9 GROUP 4 **** **** 0

# MOE 2024.06 (io_trps.svl 2023.06)
