@<TRIPOS>MOLECULE
NONAME
54 57 1 0 0 
SMALL
USER_CHARGES


@<TRIPOS>ATOM
  1 O        1.4070     0.4370     2.5190 O.2   1 <1>  -0.5700 
  2 C        1.8490     0.9780     1.5320 C.2   1 <1>   0.5690 
  3 N        1.5110     2.2650     1.1870 N.am  1 <1>  -0.6600 
  4 C        2.8040     0.1610     0.6680 C.3   1 <1>   0.0820 
  5 C        0.2250     2.9270     1.6260 C.3   1 <1>   0.2200 
  6 C        2.4680     3.1420     0.4410 C.3   1 <1>   0.1400 
  7 C        2.3330     0.0810    -0.7810 C.2   1 <1>  -0.1810 
  8 C       -0.0540     4.2540     0.8420 C.3   1 <1>   0.1380 
  9 C       -1.0040     1.9940     1.6960 C.3   1 <1>  -0.1600 
 10 C        2.4860     4.5860     0.9810 C.3   1 <1>  -0.1600 
 11 C        1.1770    -0.4110    -1.2560 C.2   1 <1>  -0.0400 
 12 C        2.9920     0.5130    -1.9340 C.2   1 <1>   0.1080 
 13 C       -0.1110     4.2020    -0.7200 C.2   1 <1>  -0.2760 
 14 C       -1.3990     4.8250     1.3370 C.3   1 <1>   0.1200 
 15 C        1.0960     5.1870     1.2890 C.3   1 <1>  -0.1600 
 16 C       -2.2620     2.7730     2.0820 C.3   1 <1>   0.1200 
 17 O        1.1750    -0.2560    -2.5520 O.3   1 <1>  -0.0190 
 18 C       -0.0190    -1.0530    -0.5830 C.3   1 <1>  -0.0600 
 19 N        2.2690     0.3060    -2.9750 N.2   1 <1>  -0.4100 
 20 C        4.3710     1.1340    -2.0080 C.3   1 <1>  -0.0590 
 21 C        0.2070     5.2200    -1.5350 C.2   1 <1>  -0.2880 
 22 C       -0.5950     2.9080    -1.3780 C.3   1 <1>  -0.0220 
 23 O       -2.4180     3.8710     1.2440 O.3   1 <1>  -0.5600 
 24 C        0.0990     5.1750    -3.0550 C.3   1 <1>   0.2580 
 25 C       -0.3260     2.8830    -2.8890 C.3   1 <1>   0.1200 
 26 O       -0.6920     4.1010    -3.4580 O.3   1 <1>  -0.5600 
 27 H        3.7900     0.5750     0.7340 H     1 <1>   0.0800 
 28 H        2.8520    -0.8380     1.0630 H     1 <1>   0.0800 
 29 H        0.3920     3.2150     2.6510 H     1 <1>   0.0800 
 30 H        3.4660     2.7500     0.5110 H     1 <1>   0.0800 
 31 H        2.1950     3.1450    -0.6000 H     1 <1>   0.0800 
 32 H       -0.8610     1.2490     2.4540 H     1 <1>   0.0800 
 33 H       -1.1810     1.4820     0.7740 H     1 <1>   0.0800 
 34 H        3.0840     4.6090     1.8750 H     1 <1>   0.0800 
 35 H        2.9830     5.2050     0.2550 H     1 <1>   0.0800 
 36 H       -1.6860     5.6660     0.7290 H     1 <1>   0.0800 
 37 H       -1.3350     5.1480     2.3610 H     1 <1>   0.0800 
 38 H        1.0050     6.1670     0.8610 H     1 <1>   0.0800 
 39 H        1.0310     5.3300     2.3540 H     1 <1>   0.0800 
 40 H       -2.2070     3.1240     3.0990 H     1 <1>   0.0800 
 41 H       -3.1360     2.1530     1.9760 H     1 <1>   0.0800 
 42 H        0.1200    -1.0950     0.4810 H     1 <1>   0.0800 
 43 H       -0.1500    -2.0520    -0.9560 H     1 <1>   0.0800 
 44 H       -0.9050    -0.4840    -0.7970 H     1 <1>   0.0800 
 45 H        4.3290     2.1610    -1.6980 H     1 <1>   0.0800 
 46 H        4.7310     1.0970    -3.0210 H     1 <1>   0.0800 
 47 H        5.0560     0.5950    -1.3820 H     1 <1>   0.0800 
 48 H        0.5590     6.1790    -1.2090 H     1 <1>   0.1500 
 49 H       -1.6480     2.7830    -1.2010 H     1 <1>   0.0800 
 50 H       -0.0730     2.0660    -0.9760 H     1 <1>   0.0800 
 51 H        1.0700     5.0770    -3.5080 H     1 <1>   0.0800 
 52 H       -0.3740     6.0690    -3.4220 H     1 <1>   0.0800 
 53 H       -0.9000     2.1050    -3.3610 H     1 <1>   0.0800 
 54 H        0.7180     2.7110    -3.0880 H     1 <1>   0.0800 
@<TRIPOS>BOND
  1   1   2  2   
  2   2   3  am  
  3   2   4  1   
  4   3   5  1   
  5   3   6  1   
  6   4   7  1   
  7   4  27  1   
  8   4  28  1   
  9   5   8  1   
 10   5   9  1   
 11   5  29  1   
 12   6  10  1   
 13   6  30  1   
 14   6  31  1   
 15   7  11  2   
 16   7  12  1   
 17   8  13  1   
 18   8  14  1   
 19   8  15  1   
 20   9  16  1   
 21   9  32  1   
 22   9  33  1   
 23  10  15  1   
 24  10  34  1   
 25  10  35  1   
 26  11  17  1   
 27  11  18  1   
 28  12  19  2   
 29  12  20  1   
 30  13  21  2   
 31  13  22  1   
 32  14  23  1   
 33  14  36  1   
 34  14  37  1   
 35  15  38  1   
 36  15  39  1   
 37  16  23  1   
 38  16  40  1   
 39  16  41  1   
 40  17  19  1   
 41  18  42  1   
 42  18  43  1   
 43  18  44  1   
 44  20  45  1   
 45  20  46  1   
 46  20  47  1   
 47  21  24  1   
 48  21  48  1   
 49  22  25  1   
 50  22  49  1   
 51  22  50  1   
 52  24  26  1   
 53  24  51  1   
 54  24  52  1   
 55  25  26  1   
 56  25  53  1   
 57  25  54  1   
@<TRIPOS>SUBSTRUCTURE
  1 ****   3 GROUP 4 **** **** 0

# MOE 2024.06 (io_trps.svl 2023.06)
