@<TRIPOS>MOLECULE
NONAME
29 28 1 0 0 
SMALL
USER_CHARGES


@<TRIPOS>ATOM
  1 N       -0.6220    -6.9110     0.1230 N.4   1 <1>  -0.9060 
  2 C       -0.7000    -8.2500    -0.4960 C.3   1 <1>   0.4230 
  3 C       -0.0130    -5.8760    -0.8030 C.3   1 <1>   0.3430 
  4 C       -1.6380    -9.0890     0.3600 C.3   1 <1>  -0.2400 
  5 C        0.6940    -8.8710    -0.5330 C.3   1 <1>  -0.2400 
  6 C        0.2890    -4.4510    -0.2010 C.3   1 <1>   0.5030 
  7 N       -0.8980    -3.7180     0.2870 N.4   1 <1>  -0.8530 
  8 C        0.9150    -3.5730    -1.2830 C.3   1 <1>  -0.2400 
  9 C        1.2510    -4.5590     0.9840 C.3   1 <1>  -0.2400 
 10 H       -0.0630    -7.0400     0.9780 H     1 <1>   0.4500 
 11 H       -1.5820    -6.6830     0.4080 H     1 <1>   0.4500 
 12 H       -1.1000    -8.1830    -1.4980 H     1 <1>   0.0800 
 13 H       -0.6470    -5.7560    -1.6660 H     1 <1>   0.0800 
 14 H        0.9250    -6.2610    -1.1680 H     1 <1>   0.0800 
 15 H       -1.2740    -9.1900     1.3680 H     1 <1>   0.0800 
 16 H       -1.7150   -10.0780    -0.0590 H     1 <1>   0.0800 
 17 H       -2.6290    -8.6710     0.3730 H     1 <1>   0.0800 
 18 H        1.1240    -8.9380     0.4510 H     1 <1>   0.0800 
 19 H        1.3560    -8.3270    -1.1810 H     1 <1>   0.0800 
 20 H        0.6250    -9.8720    -0.9260 H     1 <1>   0.0800 
 21 H       -1.6110    -3.5770    -0.4390 H     1 <1>   0.4500 
 22 H       -0.5980    -2.7730     0.5650 H     1 <1>   0.4500 
 23 H       -1.3260    -4.1290     1.1220 H     1 <1>   0.4500 
 24 H        0.2540    -3.4530    -2.1250 H     1 <1>   0.0800 
 25 H        1.8250    -4.0200    -1.6470 H     1 <1>   0.0800 
 26 H        1.1720    -2.5980    -0.9030 H     1 <1>   0.0800 
 27 H        0.8240    -5.1140     1.8000 H     1 <1>   0.0800 
 28 H        1.5350    -3.5840     1.3450 H     1 <1>   0.0800 
 29 H        2.1570    -5.0590     0.6830 H     1 <1>   0.0800 
@<TRIPOS>BOND
  1   1   2  1   
  2   1   3  1   
  3   1  10  1   
  4   1  11  1   
  5   2   4  1   
  6   2   5  1   
  7   2  12  1   
  8   3   6  1   
  9   3  13  1   
 10   3  14  1   
 11   4  15  1   
 12   4  16  1   
 13   4  17  1   
 14   5  18  1   
 15   5  19  1   
 16   5  20  1   
 17   6   7  1   
 18   6   8  1   
 19   6   9  1   
 20   7  21  1   
 21   7  22  1   
 22   7  23  1   
 23   8  24  1   
 24   8  25  1   
 25   8  26  1   
 26   9  27  1   
 27   9  28  1   
 28   9  29  1   
@<TRIPOS>SUBSTRUCTURE
  1 ****   3 GROUP 4 **** **** 0

# MOE 2024.06 (io_trps.svl 2023.06)
