@<TRIPOS>MOLECULE
NONAME
52 55 1 0 0 
SMALL
USER_CHARGES


@<TRIPOS>ATOM
  1 O        1.1520     0.4270     2.0290 O.2   1 <1>  -0.5700 
  2 C        1.0340     1.3950     1.3200 C.2   1 <1>   0.5690 
  3 N        0.8090     1.2360    -0.0090 N.am  1 <1>  -0.7300 
  4 C        1.1320     2.7970     1.9310 C.3   1 <1>   0.2010 
  5 C        0.7140     2.3350    -0.9920 C.3   1 <1>   0.2200 
  6 N        1.1960     3.9060     0.9100 N.am  1 <1>  -0.6600 
  7 C        0.3570     3.6710    -0.3080 C.3   1 <1>   0.1400 
  8 C       -0.3310     1.9470    -2.0340 C.3   1 <1>  -0.2400 
  9 C        1.9630     5.0310     1.1160 C.2   1 <1>   0.7160 
 10 O        2.5410     5.1530     2.1800 O.2   1 <1>  -0.5700 
 11 C        2.1240     6.0350     0.1160 C.2   1 <1>  -0.0860 
 12 C        1.1250     6.9040    -0.3340 C.2   1 <1>   0.3720 
 13 C        3.2160     6.3880    -0.6150 C.2   1 <1>   0.0870 
 14 N        1.5770     7.6840    -1.2520 N.2   1 <1>  -0.4100 
 15 N       -0.1970     6.9130     0.1440 N.pl3 1 <1>  -0.8210 
 16 O        2.8350     7.3620    -1.4020 O.3   1 <1>  -0.0190 
 17 C        4.5760     5.9020    -0.6690 C.ar  1 <1>   0.0530 
 18 C       -1.2060     7.7350    -0.5860 C.3   1 <1>   0.2090 
 19 C       -0.3280     7.1790     1.6030 C.3   1 <1>   0.2090 
 20 C        4.9540     4.6670    -0.1330 C.ar  1 <1>  -0.1500 
 21 C        5.5800     6.6600    -1.2770 C.ar  1 <1>  -0.1500 
 22 C       -1.7480     8.7230     0.4350 C.3   1 <1>  -0.1600 
 23 C       -1.5970     8.0030     1.7660 C.3   1 <1>  -0.1600 
 24 C        6.2590     4.2130    -0.1970 C.ar  1 <1>  -0.1500 
 25 C        6.8850     6.2120    -1.3480 C.ar  1 <1>  -0.1500 
 26 C        7.2390     4.9870    -0.8090 C.ar  1 <1>   0.0830 
 27 O        8.5370     4.6190    -0.9160 O.3   1 <1>  -0.3630 
 28 C        9.0080     3.4070    -0.3700 C.3   1 <1>   0.0400 
 29 H        0.7840     0.2790    -0.3640 H     1 <1>   0.3700 
 30 H        2.0050     2.8210     2.5580 H     1 <1>   0.0800 
 31 H        0.2730     2.9520     2.5570 H     1 <1>   0.0800 
 32 H        1.6690     2.4430    -1.4780 H     1 <1>   0.0800 
 33 H       -0.6780     3.6590    -0.0130 H     1 <1>   0.0800 
 34 H        0.4740     4.4640    -1.0230 H     1 <1>   0.0800 
 35 H       -1.2920     1.8040    -1.5720 H     1 <1>   0.0800 
 36 H       -0.0400     1.0400    -2.5350 H     1 <1>   0.0800 
 37 H       -0.4190     2.7240    -2.7730 H     1 <1>   0.0800 
 38 H       -0.7970     8.2490    -1.4390 H     1 <1>   0.0800 
 39 H       -1.9950     7.0850    -0.9230 H     1 <1>   0.0800 
 40 H       -0.3930     6.2560     2.1540 H     1 <1>   0.0800 
 41 H        0.5240     7.7410     1.9500 H     1 <1>   0.0800 
 42 H        4.2250     4.0410     0.3440 H     1 <1>   0.1500 
 43 H        5.3370     7.6180    -1.7020 H     1 <1>   0.1500 
 44 H       -1.1330     9.6060     0.4230 H     1 <1>   0.0800 
 45 H       -2.7670     8.9990     0.2260 H     1 <1>   0.0800 
 46 H       -2.4290     7.3380     1.9220 H     1 <1>   0.0800 
 47 H       -1.5280     8.6820     2.5970 H     1 <1>   0.0800 
 48 H        6.4940     3.2590     0.2330 H     1 <1>   0.1500 
 49 H        7.6420     6.8110    -1.8200 H     1 <1>   0.1500 
 50 H       10.0630     3.3410    -0.5650 H     1 <1>   0.0800 
 51 H        8.4960     2.5880    -0.8440 H     1 <1>   0.0800 
 52 H        8.8320     3.4100     0.6910 H     1 <1>   0.0800 
@<TRIPOS>BOND
  1   1   2  2   
  2   2   3  am  
  3   2   4  1   
  4   3   5  1   
  5   3  29  1   
  6   4   6  1   
  7   4  30  1   
  8   4  31  1   
  9   5   7  1   
 10   5   8  1   
 11   5  32  1   
 12   6   7  1   
 13   6   9  am  
 14   7  33  1   
 15   7  34  1   
 16   8  35  1   
 17   8  36  1   
 18   8  37  1   
 19   9  10  2   
 20   9  11  1   
 21  11  12  1   
 22  11  13  2   
 23  12  14  2   
 24  12  15  1   
 25  13  16  1   
 26  13  17  1   
 27  14  16  1   
 28  15  18  1   
 29  15  19  1   
 30  17  20  ar  
 31  17  21  ar  
 32  18  22  1   
 33  18  38  1   
 34  18  39  1   
 35  19  23  1   
 36  19  40  1   
 37  19  41  1   
 38  20  24  ar  
 39  20  42  1   
 40  21  25  ar  
 41  21  43  1   
 42  22  23  1   
 43  22  44  1   
 44  22  45  1   
 45  23  46  1   
 46  23  47  1   
 47  24  26  ar  
 48  24  48  1   
 49  25  26  ar  
 50  25  49  1   
 51  26  27  1   
 52  27  28  1   
 53  28  50  1   
 54  28  51  1   
 55  28  52  1   
@<TRIPOS>SUBSTRUCTURE
  1 ****  11 GROUP 4 **** **** 0

# MOE 2024.06 (io_trps.svl 2023.06)
