@<TRIPOS>MOLECULE
NONAME
35 37 1 0 0 
SMALL
USER_CHARGES


@<TRIPOS>ATOM
  1 F       -0.9360     0.0020     0.9210 F     1 <1>  -0.1900 
  2 C       -1.9530     0.6240     0.3890 C.ar  1 <1>   0.1900 
  3 C       -2.9970    -0.1160    -0.1600 C.ar  1 <1>   0.0860 
  4 C       -1.9360     2.0040     0.4120 C.ar  1 <1>  -0.1500 
  5 C       -2.9980    -1.5590    -0.1900 C.2   1 <1>   0.5440 
  6 C       -4.0580     0.6160    -0.6990 C.ar  1 <1>  -0.1500 
  7 C       -3.0000     2.7050    -0.1280 C.ar  1 <1>   0.0830 
  8 O       -2.2130    -2.1400    -0.9180 O.2   1 <1>  -0.5700 
  9 N       -3.8930    -2.2850     0.5540 N.am  1 <1>  -0.6600 
 10 C       -4.0670     2.0000    -0.6850 C.ar  1 <1>  -0.1500 
 11 O       -2.9360     4.0550    -0.0780 O.3   1 <1>  -0.3620 
 12 C       -4.9100    -1.7210     1.4880 C.3   1 <1>   0.2350 
 13 C       -4.2940    -3.6770     0.1990 C.3   1 <1>   0.2350 
 14 C       -3.9830     4.8670    -0.5620 C.3   1 <1>   0.0400 
 15 C       -6.1890    -2.4690     1.1710 C.3   1 <1>  -0.2420 
 16 C       -5.8040    -3.7060     0.3930 C.3   1 <1>  -0.2420 
 17 C       -7.2330    -2.1930     2.2530 C.2   1 <1>   0.9470 
 18 C       -6.6690    -2.6500    -0.2490 C.3   1 <1>  -0.2000 
 19 C       -6.3220    -5.1450     0.4760 C.2   1 <1>   0.9470 
 20 O       -8.2700    -1.5880     1.9470 O.co2 1 <1>  -0.9000 
 21 O       -6.9400    -2.4030     3.4370 O.co2 1 <1>  -0.9000 
 22 O       -7.2120    -5.5200    -0.3000 O.co2 1 <1>  -0.9000 
 23 O       -5.7380    -5.9500     1.2140 O.co2 1 <1>  -0.9000 
 24 H       -1.1080     2.5320     0.8470 H     1 <1>   0.1500 
 25 H       -4.8860     0.0760    -1.1280 H     1 <1>   0.1500 
 26 H       -4.9110     2.5100    -1.1080 H     1 <1>   0.1500 
 27 H       -4.6130    -1.9300     2.5020 H     1 <1>   0.0800 
 28 H       -5.0530    -0.6640     1.3690 H     1 <1>   0.0800 
 29 H       -4.0340    -3.9190    -0.8170 H     1 <1>   0.0800 
 30 H       -3.8160    -4.3680     0.8710 H     1 <1>   0.0800 
 31 H       -3.7110     5.8940    -0.3980 H     1 <1>   0.0800 
 32 H       -4.8830     4.6360    -0.0200 H     1 <1>   0.0800 
 33 H       -4.1070     4.6850    -1.6150 H     1 <1>   0.0800 
 34 H       -6.2640    -2.0470    -1.0370 H     1 <1>   0.1000 
 35 H       -7.7110    -2.8810    -0.4000 H     1 <1>   0.1000 
@<TRIPOS>BOND
  1   1   2  1   
  2   2   3  ar  
  3   2   4  ar  
  4   3   5  1   
  5   3   6  ar  
  6   4   7  ar  
  7   4  24  1   
  8   5   8  2   
  9   5   9  am  
 10   6  10  ar  
 11   6  25  1   
 12   7  10  ar  
 13   7  11  1   
 14   9  12  1   
 15   9  13  1   
 16  10  26  1   
 17  11  14  1   
 18  12  15  1   
 19  12  27  1   
 20  12  28  1   
 21  13  16  1   
 22  13  29  1   
 23  13  30  1   
 24  14  31  1   
 25  14  32  1   
 26  14  33  1   
 27  15  16  1   
 28  15  17  1   
 29  15  18  1   
 30  16  18  1   
 31  16  19  1   
 32  17  20  ar  
 33  17  21  ar  
 34  18  34  1   
 35  18  35  1   
 36  19  22  ar  
 37  19  23  ar  
@<TRIPOS>SUBSTRUCTURE
  1 ****  12 GROUP 4 **** **** 0

# MOE 2024.06 (io_trps.svl 2023.06)
