@<TRIPOS>MOLECULE
NONAME
55 57 1 0 0 
SMALL
USER_CHARGES


@<TRIPOS>ATOM
  1 CL      -0.0060     0.7540     1.2270 Cl    1 <1>  -0.1770 
  2 C        1.3110    -0.3340     0.8450 C.ar  1 <1>   0.1770 
  3 C        2.5180     0.1570     0.3640 C.ar  1 <1>   0.0830 
  4 C        1.1030    -1.6880     1.0380 C.ar  1 <1>  -0.1500 
  5 O        2.6760     1.4950     0.2110 O.3   1 <1>  -0.3630 
  6 C        3.5360    -0.7550     0.0520 C.ar  1 <1>   0.0830 
  7 C        2.1160    -2.5880     0.7430 C.ar  1 <1>  -0.1440 
  8 C        3.1200     2.1920     1.3510 C.3   1 <1>   0.1200 
  9 O        4.7560    -0.4330    -0.4550 O.3   1 <1>  -0.3630 
 10 C        3.3270    -2.1090     0.2610 C.ar  1 <1>  -0.1500 
 11 C        1.8990    -4.0770     0.9350 C.3   1 <1>   0.4860 
 12 C        3.2630     3.6650     0.9790 C.3   1 <1>  -0.2400 
 13 C        4.9110     0.6590    -1.3350 C.3   1 <1>   0.1200 
 14 N        1.7850    -4.7240    -0.4020 N.4   1 <1>  -0.9590 
 15 C        6.1880     0.4400    -2.1390 C.3   1 <1>  -0.2400 
 16 C        0.5580    -4.2500    -1.1250 C.3   1 <1>   0.3430 
 17 C        1.6470    -6.2070    -0.2580 C.3   1 <1>   0.3430 
 18 C       -0.5210    -5.2960    -0.8360 C.3   1 <1>   0.2000 
 19 C        0.2870    -6.5920    -0.8550 C.3   1 <1>  -0.0800 
 20 O       -1.0200    -5.0680     0.4450 O.3   1 <1>  -0.6800 
 21 C       -0.3500    -7.8180    -0.1700 C.3   1 <1>   0.0200 
 22 C        0.6520    -8.9520    -0.0870 C.2   1 <1>  -0.0400 
 23 O        1.3540    -9.2760    -1.1400 O.3   1 <1>  -0.0190 
 24 C        1.0270    -9.7540     0.9210 C.2   1 <1>  -0.1500 
 25 N        2.1900   -10.2370    -0.8870 N.2   1 <1>  -0.4100 
 26 C        2.0090   -10.5550     0.3450 C.2   1 <1>   0.1080 
 27 C        2.7660   -11.6530     1.0590 C.3   1 <1>  -0.0590 
 28 H        0.1500    -2.0160     1.4170 H     1 <1>   0.1500 
 29 H        2.3940     2.0660     2.1370 H     1 <1>   0.0800 
 30 H        4.0660     1.7790     1.6580 H     1 <1>   0.0800 
 31 H        4.1380    -2.7790     0.0350 H     1 <1>   0.1500 
 32 H        1.0000    -4.2460     1.5070 H     1 <1>   0.0800 
 33 H        2.7320    -4.4920     1.4780 H     1 <1>   0.0800 
 34 H        2.3140     4.0590     0.6640 H     1 <1>   0.0800 
 35 H        3.9820     3.7810     0.1880 H     1 <1>   0.0800 
 36 H        3.6000     4.2240     1.8330 H     1 <1>   0.0800 
 37 H        4.0530     0.7080    -1.9840 H     1 <1>   0.0800 
 38 H        4.9830     1.5600    -0.7520 H     1 <1>   0.0800 
 39 H        2.6220    -4.4760    -0.9440 H     1 <1>   0.4500 
 40 H        6.1160    -0.4670    -2.7110 H     1 <1>   0.0800 
 41 H        7.0350     0.3850    -1.4790 H     1 <1>   0.0800 
 42 H        6.3350     1.2610    -2.8160 H     1 <1>   0.0800 
 43 H        0.2440    -3.2670    -0.8140 H     1 <1>   0.0800 
 44 H        0.7530    -4.2340    -2.1850 H     1 <1>   0.0800 
 45 H        2.4420    -6.7290    -0.7690 H     1 <1>   0.0800 
 46 H        1.6700    -6.4810     0.7850 H     1 <1>   0.0800 
 47 H       -1.3300    -5.2670    -1.5460 H     1 <1>   0.0800 
 48 H        0.4630    -6.8520    -1.8850 H     1 <1>   0.0800 
 49 H       -1.9140    -5.4600     0.5510 H     1 <1>   0.4000 
 50 H       -1.2050    -8.1470    -0.7360 H     1 <1>   0.0800 
 51 H       -0.6780    -7.5830     0.8280 H     1 <1>   0.0800 
 52 H        0.6840    -9.8030     1.9380 H     1 <1>   0.1500 
 53 H        3.2510   -11.2590     1.9330 H     1 <1>   0.0800 
 54 H        3.5120   -12.0710     0.4070 H     1 <1>   0.0800 
 55 H        2.0880   -12.4330     1.3510 H     1 <1>   0.0800 
@<TRIPOS>BOND
  1   1   2  1   
  2   2   3  ar  
  3   2   4  ar  
  4   3   5  1   
  5   3   6  ar  
  6   4   7  ar  
  7   4  28  1   
  8   5   8  1   
  9   6   9  1   
 10   6  10  ar  
 11   7  10  ar  
 12   7  11  1   
 13   8  12  1   
 14   8  29  1   
 15   8  30  1   
 16   9  13  1   
 17  10  31  1   
 18  11  14  1   
 19  11  32  1   
 20  11  33  1   
 21  12  34  1   
 22  12  35  1   
 23  12  36  1   
 24  13  15  1   
 25  13  37  1   
 26  13  38  1   
 27  14  16  1   
 28  14  17  1   
 29  14  39  1   
 30  15  40  1   
 31  15  41  1   
 32  15  42  1   
 33  16  18  1   
 34  16  43  1   
 35  16  44  1   
 36  17  19  1   
 37  17  45  1   
 38  17  46  1   
 39  18  19  1   
 40  18  20  1   
 41  18  47  1   
 42  19  21  1   
 43  19  48  1   
 44  20  49  1   
 45  21  22  1   
 46  21  50  1   
 47  21  51  1   
 48  22  23  1   
 49  22  24  2   
 50  23  25  1   
 51  24  26  1   
 52  24  52  1   
 53  25  26  2   
 54  26  27  1   
 55  27  53  1   
 56  27  54  1   
 57  27  55  1   
@<TRIPOS>SUBSTRUCTURE
  1 ****  11 GROUP 4 **** **** 0

# MOE 2024.06 (io_trps.svl 2023.06)
