@<TRIPOS>MOLECULE
NONAME
43 44 1 0 0 
SMALL
USER_CHARGES


@<TRIPOS>ATOM
  1 CL      -0.2140    -0.3180    -0.3490 Cl    1 <1>  -0.1770 
  2 C       -0.5010    -2.0400    -0.3790 C.ar  1 <1>   0.1770 
  3 C       -0.1530    -2.7660    -1.5030 C.ar  1 <1>  -0.1500 
  4 C       -1.0720    -2.6500     0.7230 C.ar  1 <1>  -0.1500 
  5 C       -0.3840    -4.1310    -1.5210 C.ar  1 <1>  -0.1500 
  6 C       -1.3010    -4.0160     0.7020 C.ar  1 <1>  -0.1500 
  7 C       -0.9560    -4.7630    -0.4250 C.ar  1 <1>   0.0830 
  8 O       -1.1450    -6.1020    -0.5290 O.3   1 <1>  -0.3630 
  9 C       -1.7140    -6.8470     0.5160 C.3   1 <1>   0.1200 
 10 C       -1.7660    -8.3020     0.0490 C.3   1 <1>  -0.1600 
 11 C       -2.3950    -9.1990     1.1130 C.3   1 <1>   0.3430 
 12 N       -2.5300   -10.5920     0.5970 N.4   1 <1>  -0.9590 
 13 C       -3.4830   -11.3870     1.4320 C.3   1 <1>   0.4810 
 14 C       -1.2030   -11.2880     0.4830 C.3   1 <1>   0.2630 
 15 C       -3.8230   -12.6880     0.7110 C.2   1 <1>  -0.0380 
 16 N       -4.6200   -12.6780    -0.4150 N.pl3 1 <1>  -0.5500 
 17 C       -3.3650   -13.8960     1.1150 C.2   1 <1>  -0.1360 
 18 C       -4.9080   -13.8360    -1.0830 C.2   1 <1>   0.4390 
 19 C       -3.6880   -15.0670     0.3830 C.2   1 <1>   0.7670 
 20 N       -4.4720   -14.9850    -0.7320 N.2   1 <1>  -0.6610 
 21 C       -5.7940   -13.7140    -2.2980 C.3   1 <1>  -0.1790 
 22 O       -3.2540   -16.1490     0.7330 O.2   1 <1>  -0.5700 
 23 H        0.2890    -2.2680    -2.3460 H     1 <1>   0.1500 
 24 H       -1.3310    -2.0590     1.5820 H     1 <1>   0.1500 
 25 H       -0.1200    -4.7120    -2.3860 H     1 <1>   0.1500 
 26 H       -1.7450    -4.4710     1.5660 H     1 <1>   0.1500 
 27 H       -2.7010    -6.4590     0.7060 H     1 <1>   0.0800 
 28 H       -1.0900    -6.7360     1.3870 H     1 <1>   0.0800 
 29 H       -0.7600    -8.6180    -0.1610 H     1 <1>   0.0800 
 30 H       -2.3510    -8.3440    -0.8530 H     1 <1>   0.0800 
 31 H       -3.3690    -8.8080     1.3610 H     1 <1>   0.0800 
 32 H       -1.7900    -9.1900     2.0070 H     1 <1>   0.0800 
 33 H       -2.9320   -10.5490    -0.3500 H     1 <1>   0.4500 
 34 H       -4.3900   -10.8300     1.6010 H     1 <1>   0.0800 
 35 H       -3.0380   -11.6060     2.3890 H     1 <1>   0.0800 
 36 H       -0.7330   -11.3650     1.4500 H     1 <1>   0.0800 
 37 H       -0.5460   -10.7430    -0.1760 H     1 <1>   0.0800 
 38 H       -1.3320   -12.2810     0.0810 H     1 <1>   0.0800 
 39 H       -5.0920   -11.8390    -0.7650 H     1 <1>   0.4000 
 40 H       -2.7460   -14.0470     1.9790 H     1 <1>   0.1500 
 41 H       -5.3390   -13.0720    -3.0290 H     1 <1>   0.0800 
 42 H       -6.7540   -13.3210    -2.0190 H     1 <1>   0.0800 
 43 H       -5.9420   -14.6830    -2.7430 H     1 <1>   0.0800 
@<TRIPOS>BOND
  1   1   2  1   
  2   2   3  ar  
  3   2   4  ar  
  4   3   5  ar  
  5   3  23  1   
  6   4   6  ar  
  7   4  24  1   
  8   5   7  ar  
  9   5  25  1   
 10   6   7  ar  
 11   6  26  1   
 12   7   8  1   
 13   8   9  1   
 14   9  10  1   
 15   9  27  1   
 16   9  28  1   
 17  10  11  1   
 18  10  29  1   
 19  10  30  1   
 20  11  12  1   
 21  11  31  1   
 22  11  32  1   
 23  12  13  1   
 24  12  14  1   
 25  12  33  1   
 26  13  15  1   
 27  13  34  1   
 28  13  35  1   
 29  14  36  1   
 30  14  37  1   
 31  14  38  1   
 32  15  16  1   
 33  15  17  2   
 34  16  18  1   
 35  16  39  1   
 36  17  19  1   
 37  17  40  1   
 38  18  20  2   
 39  18  21  1   
 40  19  20  1   
 41  19  22  2   
 42  21  41  1   
 43  21  42  1   
 44  21  43  1   
@<TRIPOS>SUBSTRUCTURE
  1 ****  10 GROUP 4 **** **** 0

# MOE 2024.06 (io_trps.svl 2023.06)
