@<TRIPOS>MOLECULE
NONAME
51 53 1 0 0 
SMALL
USER_CHARGES


@<TRIPOS>ATOM
  1 O        0.9560     0.3100    -0.9660 O.2   1 <1>  -0.5700 
  2 C        1.8250    -0.5300    -0.9870 C.2   1 <1>   0.5690 
  3 N        3.1140    -0.2160    -1.3310 N.am  1 <1>  -0.6600 
  4 C        1.4660    -1.9580    -0.6040 C.3   1 <1>  -0.0990 
  5 C        4.2650    -1.1760    -1.3720 C.3   1 <1>   0.1400 
  6 C        3.4900     1.1830    -1.6690 C.3   1 <1>   0.1400 
  7 C        0.0390    -2.1180    -0.0610 C.3   1 <1>  -0.0160 
  8 C        5.1630    -1.0530    -0.1310 C.3   1 <1>   0.1400 
  9 C        3.8040     1.9940    -0.4050 C.3   1 <1>  -0.1600 
 10 C       -0.2070    -3.5620     0.3420 C.ar  1 <1>  -0.1440 
 11 N        5.6340     0.3510     0.0890 N.am  1 <1>  -0.6600 
 12 C        4.6040     1.2540     0.6780 C.3   1 <1>   0.1400 
 13 C       -0.7100    -4.4920    -0.5450 C.ar  1 <1>  -0.1500 
 14 C        0.0680    -4.0200     1.6150 C.ar  1 <1>  -0.1500 
 15 C        6.8970     0.7320    -0.2840 C.2   1 <1>   0.5690 
 16 C       -0.9050    -5.7990    -0.1300 C.ar  1 <1>   0.1600 
 17 C       -0.1640    -5.3490     1.9290 C.ar  1 <1>   0.1600 
 18 O        7.6450    -0.0360    -0.8430 O.2   1 <1>  -0.5700 
 19 C        7.3800     2.1470    -0.0030 C.3   1 <1>  -0.0990 
 20 N       -0.6410    -6.2500     1.0860 N.ar  1 <1>  -0.6200 
 21 C        8.8120     2.4200    -0.4830 C.3   1 <1>   0.0210 
 22 C        9.2020     3.8540    -0.1800 C.2   1 <1>  -0.1810 
 23 C        9.4850     4.3910     1.0730 C.2   1 <1>   0.1390 
 24 C        9.3520     4.8860    -1.0360 C.2   1 <1>  -0.3020 
 25 N        9.7800     5.6540     1.0110 N.2   1 <1>  -0.7070 
 26 N        9.7010     5.9580    -0.2980 N.pl3 1 <1>   0.3000 
 27 H        2.1550    -2.2940     0.1490 H     1 <1>   0.0800 
 28 H        1.5790    -2.5810    -1.4720 H     1 <1>   0.0800 
 29 H        4.8590    -0.9840    -2.2480 H     1 <1>   0.0800 
 30 H        3.9120    -2.1870    -1.4510 H     1 <1>   0.0800 
 31 H        2.6870     1.6550    -2.2100 H     1 <1>   0.0800 
 32 H        4.3540     1.1760    -2.3120 H     1 <1>   0.0800 
 33 H       -0.6720    -1.8220    -0.8130 H     1 <1>   0.0800 
 34 H       -0.1010    -1.4740     0.7900 H     1 <1>   0.0800 
 35 H        6.0090    -1.7080    -0.2510 H     1 <1>   0.0800 
 36 H        4.6250    -1.3910     0.7360 H     1 <1>   0.0800 
 37 H        2.8750     2.3200     0.0280 H     1 <1>   0.0800 
 38 H        4.3330     2.8830    -0.6950 H     1 <1>   0.0800 
 39 H        3.9210     0.6640     1.2660 H     1 <1>   0.0800 
 40 H        5.0610     1.9630     1.3450 H     1 <1>   0.0800 
 41 H       -0.9520    -4.2120    -1.5540 H     1 <1>   0.1500 
 42 H        0.4580    -3.3560     2.3640 H     1 <1>   0.1500 
 43 H       -1.2990    -6.5100    -0.8350 H     1 <1>   0.1500 
 44 H        0.0560    -5.6880     2.9260 H     1 <1>   0.1500 
 45 H        7.3320     2.3180     1.0560 H     1 <1>   0.0800 
 46 H        6.7210     2.8400    -0.4900 H     1 <1>   0.0800 
 47 H        8.8770     2.2490    -1.5440 H     1 <1>   0.0800 
 48 H        9.4990     1.7490     0.0040 H     1 <1>   0.0800 
 49 H        9.4640     3.8350     1.9950 H     1 <1>   0.1500 
 50 H        9.2330     4.9180    -2.1040 H     1 <1>   0.1500 
 51 H        9.8940     6.9030    -0.6520 H     1 <1>   0.2700 
@<TRIPOS>BOND
  1   1   2  2   
  2   2   3  am  
  3   2   4  1   
  4   3   5  1   
  5   3   6  1   
  6   4   7  1   
  7   4  27  1   
  8   4  28  1   
  9   5   8  1   
 10   5  29  1   
 11   5  30  1   
 12   6   9  1   
 13   6  31  1   
 14   6  32  1   
 15   7  10  1   
 16   7  33  1   
 17   7  34  1   
 18   8  11  1   
 19   8  35  1   
 20   8  36  1   
 21   9  12  1   
 22   9  37  1   
 23   9  38  1   
 24  10  13  ar  
 25  10  14  ar  
 26  11  12  1   
 27  11  15  am  
 28  12  39  1   
 29  12  40  1   
 30  13  16  ar  
 31  13  41  1   
 32  14  17  ar  
 33  14  42  1   
 34  15  18  2   
 35  15  19  1   
 36  16  20  ar  
 37  16  43  1   
 38  17  20  ar  
 39  17  44  1   
 40  19  21  1   
 41  19  45  1   
 42  19  46  1   
 43  21  22  1   
 44  21  47  1   
 45  21  48  1   
 46  22  23  1   
 47  22  24  2   
 48  23  25  2   
 49  23  49  1   
 50  24  26  1   
 51  24  50  1   
 52  25  26  1   
 53  26  51  1   
@<TRIPOS>SUBSTRUCTURE
  1 ****   8 GROUP 4 **** **** 0

# MOE 2024.06 (io_trps.svl 2023.06)
