@<TRIPOS>MOLECULE
NONAME
22 21 1 0 0 
SMALL
USER_CHARGES


@<TRIPOS>ATOM
  1 S        1.4550    -0.2440    -1.3810 S.o   1 <1>   0.4220 
  2 O        0.2360     0.3250    -2.2210 O.2   1 <1>  -0.5000 
  3 N        1.8660     1.0830    -0.2710 N.2   1 <1>  -0.5650 
  4 C        0.8510    -1.5670    -0.1550 C.3   1 <1>   0.1940 
  5 C        1.7280     2.2400    -0.7340 C.2   1 <1>   0.3290 
  6 C        0.3260    -2.7890    -0.9210 C.3   1 <1>  -0.2400 
  7 C       -0.2900    -1.0310     0.7250 C.3   1 <1>  -0.2400 
  8 C        1.9970    -2.0280     0.7590 C.3   1 <1>  -0.2400 
  9 C        2.0200     3.4870     0.0680 C.3   1 <1>  -0.1790 
 10 H        1.3920     2.4470    -1.7360 H     1 <1>   0.0600 
 11 H       -0.0260    -3.5480    -0.2450 H     1 <1>   0.0800 
 12 H        1.1040    -3.2070    -1.5350 H     1 <1>   0.0800 
 13 H       -0.4870    -2.4960    -1.5630 H     1 <1>   0.0800 
 14 H       -0.6590    -1.7930     1.3870 H     1 <1>   0.0800 
 15 H       -1.0990    -0.6880     0.1040 H     1 <1>   0.0800 
 16 H        0.0520    -0.2000     1.3150 H     1 <1>   0.0800 
 17 H        1.6600    -2.7880     1.4430 H     1 <1>   0.0800 
 18 H        2.3710    -1.1970     1.3290 H     1 <1>   0.0800 
 19 H        2.8050    -2.4250     0.1720 H     1 <1>   0.0800 
 20 H        1.1300     4.0840     0.1440 H     1 <1>   0.0800 
 21 H        2.7900     4.0580    -0.4180 H     1 <1>   0.0800 
 22 H        2.3500     3.2240     1.0570 H     1 <1>   0.0800 
@<TRIPOS>BOND
  1   1   2  2   
  2   1   3  1   
  3   1   4  1   
  4   3   5  2   
  5   4   6  1   
  6   4   7  1   
  7   4   8  1   
  8   5   9  1   
  9   5  10  1   
 10   6  11  1   
 11   6  12  1   
 12   6  13  1   
 13   7  14  1   
 14   7  15  1   
 15   7  16  1   
 16   8  17  1   
 17   8  18  1   
 18   8  19  1   
 19   9  20  1   
 20   9  21  1   
 21   9  22  1   
@<TRIPOS>SUBSTRUCTURE
  1 ****   1 GROUP 4 **** **** 0

# MOE 2024.06 (io_trps.svl 2023.06)
