@<TRIPOS>MOLECULE
NONAME
47 50 1 0 0 
SMALL
USER_CHARGES


@<TRIPOS>ATOM
  1 O        1.0760    -0.0400     1.0670 O.3   1 <1>  -0.5600 
  2 C        2.0510    -0.8580     0.4550 C.3   1 <1>   0.4240 
  3 C       -0.2400    -0.1690     0.6430 C.3   1 <1>   0.1200 
  4 C        1.5130    -2.3010     0.2180 C.ar  1 <1>  -0.1440 
  5 C        3.2180    -0.8460     1.4580 C.3   1 <1>  -0.1600 
  6 C        2.4680    -0.1600    -0.8550 C.3   1 <1>  -0.1600 
  7 C       -0.7380    -1.5380     1.0760 C.3   1 <1>  -0.0160 
  8 C        2.3150    -3.3210    -0.3110 C.ar  1 <1>   0.0820 
  9 C        0.1880    -2.6070     0.5320 C.ar  1 <1>  -0.1440 
 10 C        3.7650     0.5650     1.6730 C.3   1 <1>   0.2090 
 11 C        3.0310     1.2380    -0.6020 C.3   1 <1>   0.2090 
 12 O        3.6010    -3.0400    -0.6520 O.3   1 <1>  -0.3630 
 13 C        1.7960    -4.6020    -0.4890 C.ar  1 <1>  -0.1500 
 14 C       -0.3170    -3.8830     0.3510 C.ar  1 <1>  -0.1500 
 15 N        4.1590     1.1390     0.3610 N.pl3 1 <1>  -0.8380 
 16 C        4.4550    -3.9790    -1.2660 C.3   1 <1>   0.0400 
 17 C        0.4860    -4.8820    -0.1580 C.ar  1 <1>  -0.1500 
 18 C        5.2290     2.0020     0.2750 C.ar  1 <1>   0.4100 
 19 N        5.0330     3.1930    -0.2570 N.ar  1 <1>  -0.6200 
 20 C        6.4790     1.6320     0.7340 C.ar  1 <1>  -0.1500 
 21 C        6.0840     3.9870    -0.3030 C.ar  1 <1>   0.4770 
 22 C        7.4950     2.5400     0.6310 C.ar  1 <1>   0.1600 
 23 N        7.3140     3.7380     0.1120 N.ar  1 <1>  -0.6200 
 24 C        5.8610     5.3520    -0.9080 C.3   1 <1>  -0.0970 
 25 H       -0.2880    -0.0540    -0.4250 H     1 <1>   0.0800 
 26 H       -0.8160     0.6090     1.1120 H     1 <1>   0.0800 
 27 H        4.0280    -1.4560     1.1130 H     1 <1>   0.0800 
 28 H        2.8810    -1.2540     2.3920 H     1 <1>   0.0800 
 29 H        1.6360    -0.1070    -1.5290 H     1 <1>   0.0800 
 30 H        3.2330    -0.7260    -1.3480 H     1 <1>   0.0800 
 31 H       -1.7360    -1.6830     0.7050 H     1 <1>   0.0800 
 32 H       -0.7620    -1.5890     2.1500 H     1 <1>   0.0800 
 33 H        4.6080     0.5330     2.3400 H     1 <1>   0.0800 
 34 H        3.0110     1.1920     2.1190 H     1 <1>   0.0800 
 35 H        2.2720     1.8850    -0.1960 H     1 <1>   0.0800 
 36 H        3.3770     1.6610    -1.5300 H     1 <1>   0.0800 
 37 H        2.3930    -5.4000    -0.8850 H     1 <1>   0.1500 
 38 H       -1.3380    -4.1050     0.6050 H     1 <1>   0.1500 
 39 H        5.3940    -3.4940    -1.4640 H     1 <1>   0.0800 
 40 H        4.0110    -4.3030    -2.1900 H     1 <1>   0.0800 
 41 H        4.6050    -4.8060    -0.5960 H     1 <1>   0.0800 
 42 H        0.0920    -5.8740    -0.2960 H     1 <1>   0.1500 
 43 H        6.6310     0.6570     1.1480 H     1 <1>   0.1500 
 44 H        8.4830     2.2900     0.9780 H     1 <1>   0.1500 
 45 H        4.8100     5.5570    -0.9950 H     1 <1>   0.0800 
 46 H        6.3090     5.3850    -1.8820 H     1 <1>   0.0800 
 47 H        6.3120     6.1010    -0.2850 H     1 <1>   0.0800 
@<TRIPOS>BOND
  1   1   2  1   
  2   1   3  1   
  3   2   4  1   
  4   2   5  1   
  5   2   6  1   
  6   3   7  1   
  7   3  25  1   
  8   3  26  1   
  9   4   8  ar  
 10   4   9  ar  
 11   5  10  1   
 12   5  27  1   
 13   5  28  1   
 14   6  11  1   
 15   6  29  1   
 16   6  30  1   
 17   7   9  1   
 18   7  31  1   
 19   7  32  1   
 20   8  12  1   
 21   8  13  ar  
 22   9  14  ar  
 23  10  15  1   
 24  10  33  1   
 25  10  34  1   
 26  11  15  1   
 27  11  35  1   
 28  11  36  1   
 29  12  16  1   
 30  13  17  ar  
 31  13  37  1   
 32  14  17  ar  
 33  14  38  1   
 34  15  18  1   
 35  16  39  1   
 36  16  40  1   
 37  16  41  1   
 38  17  42  1   
 39  18  19  ar  
 40  18  20  ar  
 41  19  21  ar  
 42  20  22  ar  
 43  20  43  1   
 44  21  23  ar  
 45  21  24  1   
 46  22  23  ar  
 47  22  44  1   
 48  24  45  1   
 49  24  46  1   
 50  24  47  1   
@<TRIPOS>SUBSTRUCTURE
  1 ****   6 GROUP 4 **** **** 0

# MOE 2024.06 (io_trps.svl 2023.06)
