@<TRIPOS>MOLECULE
NONAME
48 50 1 0 0 
SMALL
USER_CHARGES


@<TRIPOS>ATOM
  1 F       -0.0280     1.3610    -0.0350 F     1 <1>  -0.1900 
  2 C       -1.3350     1.3480    -0.0880 C.ar  1 <1>   0.1900 
  3 C       -2.1070     2.4210     0.3720 C.ar  1 <1>   0.0830 
  4 C       -1.9170     0.2170    -0.6270 C.ar  1 <1>  -0.1500 
  5 O       -1.6530     3.5860     0.9190 O.3   1 <1>  -0.3630 
  6 C       -3.4850     2.3110     0.2710 C.ar  1 <1>  -0.1500 
  7 C       -3.2950     0.1410    -0.7140 C.ar  1 <1>  -0.1500 
  8 C       -0.2850     3.8520     1.1340 C.3   1 <1>   0.0400 
  9 C       -4.1070     1.1820    -0.2630 C.ar  1 <1>   0.0530 
 10 C       -5.5440     1.1190    -0.3520 C.2   1 <1>   0.0870 
 11 O       -6.1970     2.1440    -0.8360 O.3   1 <1>  -0.0190 
 12 C       -6.4710     0.1780    -0.0190 C.2   1 <1>  -0.0860 
 13 N       -7.4890     1.9610    -0.8660 N.2   1 <1>  -0.4100 
 14 C       -7.6830     0.7850    -0.3820 C.2   1 <1>   0.3720 
 15 C       -6.3290    -1.1190     0.5760 C.2   1 <1>   0.7160 
 16 N       -8.9610     0.2100    -0.2570 N.pl3 1 <1>  -0.8210 
 17 O       -5.2570    -1.6860     0.6600 O.2   1 <1>  -0.5700 
 18 N       -7.4300    -1.7710     1.0290 N.am  1 <1>  -0.7300 
 19 C       -9.3600    -0.6330    -1.4200 C.3   1 <1>   0.1290 
 20 C      -10.0420     1.1650     0.1180 C.3   1 <1>   0.1290 
 21 C       -7.5520    -3.2180     1.3000 C.3   1 <1>   0.2200 
 22 C       -7.3240    -4.0220     0.0030 C.3   1 <1>   0.1400 
 23 C       -9.0160    -3.4930     1.6600 C.3   1 <1>  -0.0990 
 24 N       -8.6740    -4.1140    -0.5850 N.am  1 <1>  -0.6600 
 25 C       -9.6280    -3.7930     0.3190 C.2   1 <1>   0.5690 
 26 C       -8.8870    -4.5500    -1.9850 C.3   1 <1>   0.0600 
 27 O      -10.8130    -3.7300     0.1040 O.2   1 <1>  -0.5700 
 28 H       -1.2990    -0.5920    -0.9720 H     1 <1>   0.1500 
 29 H       -4.0910     3.1280     0.6180 H     1 <1>   0.1500 
 30 H       -3.7480    -0.7380    -1.1380 H     1 <1>   0.1500 
 31 H       -0.2010     4.8210     1.5920 H     1 <1>   0.0800 
 32 H        0.2250     3.8530     0.1870 H     1 <1>   0.0800 
 33 H        0.1190     3.1020     1.7900 H     1 <1>   0.0800 
 34 H       -8.3120    -1.2820     0.8060 H     1 <1>   0.3700 
 35 H       -8.5600    -1.3020    -1.6860 H     1 <1>   0.0800 
 36 H       -9.5900    -0.0100    -2.2670 H     1 <1>   0.0800 
 37 H      -10.2270    -1.2220    -1.1680 H     1 <1>   0.0800 
 38 H       -9.7140     1.7860     0.9350 H     1 <1>   0.0800 
 39 H      -10.9200     0.6240     0.4260 H     1 <1>   0.0800 
 40 H      -10.2880     1.7970    -0.7180 H     1 <1>   0.0800 
 41 H       -6.8640    -3.5000     2.0800 H     1 <1>   0.0800 
 42 H       -6.9700    -5.0120     0.2320 H     1 <1>   0.0800 
 43 H       -6.6330    -3.5340    -0.6620 H     1 <1>   0.0800 
 44 H       -9.4950    -2.6620     2.1430 H     1 <1>   0.0800 
 45 H       -9.0960    -4.3700     2.2740 H     1 <1>   0.0800 
 46 H       -8.3860    -3.8770    -2.6580 H     1 <1>   0.0800 
 47 H       -9.9400    -4.5540    -2.2110 H     1 <1>   0.0800 
 48 H       -8.4980    -5.5450    -2.1190 H     1 <1>   0.0800 
@<TRIPOS>BOND
  1   1   2  1   
  2   2   3  ar  
  3   2   4  ar  
  4   3   5  1   
  5   3   6  ar  
  6   4   7  ar  
  7   4  28  1   
  8   5   8  1   
  9   6   9  ar  
 10   6  29  1   
 11   7   9  ar  
 12   7  30  1   
 13   8  31  1   
 14   8  32  1   
 15   8  33  1   
 16   9  10  1   
 17  10  11  1   
 18  10  12  2   
 19  11  13  1   
 20  12  14  1   
 21  12  15  1   
 22  13  14  2   
 23  14  16  1   
 24  15  17  2   
 25  15  18  am  
 26  16  19  1   
 27  16  20  1   
 28  18  21  1   
 29  18  34  1   
 30  19  35  1   
 31  19  36  1   
 32  19  37  1   
 33  20  38  1   
 34  20  39  1   
 35  20  40  1   
 36  21  22  1   
 37  21  23  1   
 38  21  41  1   
 39  22  24  1   
 40  22  42  1   
 41  22  43  1   
 42  23  25  1   
 43  23  44  1   
 44  23  45  1   
 45  24  25  am  
 46  24  26  1   
 47  25  27  2   
 48  26  46  1   
 49  26  47  1   
 50  26  48  1   
@<TRIPOS>SUBSTRUCTURE
  1 ****  12 GROUP 4 **** **** 0

# MOE 2024.06 (io_trps.svl 2023.06)
