@<TRIPOS>MOLECULE
NONAME
59 63 1 0 0 
SMALL
USER_CHARGES


@<TRIPOS>ATOM
  1 O        0.7290    -0.4910     0.2520 O.3   1 <1>  -0.5600 
  2 C        0.1910    -1.7970     0.2280 C.3   1 <1>   0.2800 
  3 C       -0.1790     0.5770     0.2960 C.3   1 <1>   0.1200 
  4 C       -1.0700    -1.8570    -0.6700 C.3   1 <1>  -0.1600 
  5 C       -0.1000    -2.2250     1.6790 C.3   1 <1>  -0.1600 
  6 C        1.3120    -2.7100    -0.3170 C.3   1 <1>  -0.1600 
  7 C       -1.0280     0.6290    -0.9840 C.3   1 <1>  -0.1600 
  8 C       -1.1220    -0.7240    -1.6980 C.3   1 <1>   0.2800 
  9 C        1.1300    -2.1400     2.5960 C.3   1 <1>   0.3430 
 10 C        2.4390    -3.0010     0.6810 C.3   1 <1>   0.3430 
 11 O       -0.0200    -0.8330    -2.5040 O.3   1 <1>  -0.6800 
 12 C       -2.3410    -0.8170    -2.6110 C.3   1 <1>  -0.2400 
 13 N        2.3810    -2.0230     1.7980 N.4   1 <1>  -0.9590 
 14 C        3.6180    -1.9670     2.6190 C.3   1 <1>   0.4860 
 15 C        4.7880    -1.6430     1.7120 C.ar  1 <1>  -0.1440 
 16 C        5.7760    -2.5830     1.4890 C.ar  1 <1>  -0.1500 
 17 C        4.8540    -0.3940     1.0820 C.ar  1 <1>  -0.1500 
 18 C        6.8280    -2.2780     0.6240 C.ar  1 <1>  -0.1520 
 19 C        5.8900    -0.0950     0.2250 C.ar  1 <1>  -0.1500 
 20 N        7.9260    -3.0210     0.2330 N.pl3 1 <1>   0.0480 
 21 C        6.8800    -1.0440    -0.0120 C.ar  1 <1>   0.0000 
 22 C        8.6640    -2.2720    -0.6620 C.ar  1 <1>  -0.1520 
 23 C        8.2970    -4.3610     0.7230 C.3   1 <1>   0.0160 
 24 C        8.0430    -1.0410    -0.8310 C.ar  1 <1>   0.0000 
 25 C        9.8410    -2.5730    -1.3510 C.ar  1 <1>  -0.1500 
 26 C        8.5980    -0.0930    -1.6900 C.ar  1 <1>  -0.1500 
 27 C       10.3810    -1.6290    -2.1980 C.ar  1 <1>  -0.1500 
 28 C        9.7610    -0.3900    -2.3680 C.ar  1 <1>  -0.1500 
 29 H        0.3820     1.4900     0.4060 H     1 <1>   0.0800 
 30 H       -0.8080     0.4580     1.1620 H     1 <1>   0.0800 
 31 H       -1.9480    -1.7770    -0.0530 H     1 <1>   0.0800 
 32 H       -1.1460    -2.8050    -1.1690 H     1 <1>   0.0800 
 33 H       -0.4480    -3.2430     1.6730 H     1 <1>   0.0800 
 34 H       -0.8960    -1.6380     2.0980 H     1 <1>   0.0800 
 35 H        1.7350    -2.2790    -1.2060 H     1 <1>   0.0800 
 36 H        0.8980    -3.6580    -0.6090 H     1 <1>   0.0800 
 37 H       -0.6460     1.3760    -1.6570 H     1 <1>   0.0800 
 38 H       -2.0140     0.9510    -0.7000 H     1 <1>   0.0800 
 39 H        1.1690    -3.0130     3.2280 H     1 <1>   0.0800 
 40 H        1.0340    -1.2710     3.2270 H     1 <1>   0.0800 
 41 H        3.3870    -2.9340     0.1680 H     1 <1>   0.0800 
 42 H        2.3350    -4.0010     1.0700 H     1 <1>   0.0800 
 43 H        0.7570    -0.5570    -1.9790 H     1 <1>   0.4000 
 44 H       -3.2470    -0.7490    -2.0380 H     1 <1>   0.0800 
 45 H       -2.3410    -1.7540    -3.1390 H     1 <1>   0.0800 
 46 H       -2.3300    -0.0140    -3.3270 H     1 <1>   0.0800 
 47 H        2.2950    -1.1150     1.3050 H     1 <1>   0.4500 
 48 H        3.7830    -2.9130     3.1080 H     1 <1>   0.0800 
 49 H        3.5300    -1.2000     3.3720 H     1 <1>   0.0800 
 50 H        5.7540    -3.5470     1.9660 H     1 <1>   0.1500 
 51 H        4.0960     0.3490     1.2600 H     1 <1>   0.1500 
 52 H        5.9510     0.8590    -0.2670 H     1 <1>   0.1500 
 53 H        7.8820    -4.5190     1.7010 H     1 <1>   0.0800 
 54 H        9.3670    -4.4360     0.7830 H     1 <1>   0.0800 
 55 H        7.9210    -5.1030     0.0430 H     1 <1>   0.0800 
 56 H       10.3190    -3.5270    -1.2230 H     1 <1>   0.1500 
 57 H        8.1130     0.8580    -1.8130 H     1 <1>   0.1500 
 58 H       11.2870    -1.8420    -2.7370 H     1 <1>   0.1500 
 59 H       10.2000     0.3330    -3.0330 H     1 <1>   0.1500 
@<TRIPOS>BOND
  1   1   2  1   
  2   1   3  1   
  3   2   4  1   
  4   2   5  1   
  5   2   6  1   
  6   3   7  1   
  7   3  29  1   
  8   3  30  1   
  9   4   8  1   
 10   4  31  1   
 11   4  32  1   
 12   5   9  1   
 13   5  33  1   
 14   5  34  1   
 15   6  10  1   
 16   6  35  1   
 17   6  36  1   
 18   7   8  1   
 19   7  37  1   
 20   7  38  1   
 21   8  11  1   
 22   8  12  1   
 23   9  13  1   
 24   9  39  1   
 25   9  40  1   
 26  10  13  1   
 27  10  41  1   
 28  10  42  1   
 29  11  43  1   
 30  12  44  1   
 31  12  45  1   
 32  12  46  1   
 33  13  14  1   
 34  13  47  1   
 35  14  15  1   
 36  14  48  1   
 37  14  49  1   
 38  15  16  ar  
 39  15  17  ar  
 40  16  18  ar  
 41  16  50  1   
 42  17  19  ar  
 43  17  51  1   
 44  18  20  1   
 45  18  21  ar  
 46  19  21  ar  
 47  19  52  1   
 48  20  22  1   
 49  20  23  1   
 50  21  24  1   
 51  22  24  ar  
 52  22  25  ar  
 53  23  53  1   
 54  23  54  1   
 55  23  55  1   
 56  24  26  ar  
 57  25  27  ar  
 58  25  56  1   
 59  26  28  ar  
 60  26  57  1   
 61  27  28  ar  
 62  27  58  1   
 63  28  59  1   
@<TRIPOS>SUBSTRUCTURE
  1 ****  17 GROUP 4 **** **** 0

# MOE 2024.06 (io_trps.svl 2023.06)
