@<TRIPOS>MOLECULE
NONAME
55 57 1 0 0 
SMALL
USER_CHARGES


@<TRIPOS>ATOM
  1 S        0.4720     0.5510    -0.2150 S.3   1 <1>  -0.4600 
  2 C        1.2710     0.7030     1.4050 C.3   1 <1>   0.2510 
  3 C       -0.7110    -0.7980     0.0280 C.3   1 <1>   0.0700 
  4 C        2.2560     1.8550     1.3330 C.2   1 <1>  -0.1810 
  5 C       -1.4480    -1.0160    -1.2930 C.3   1 <1>  -0.1600 
  6 C        3.6070     1.8460     1.3600 C.2   1 <1>  -0.0400 
  7 C        1.8950     3.1980     1.2140 C.2   1 <1>  -0.1500 
  8 C       -2.4750    -2.1490    -1.1750 C.3   1 <1>  -0.1600 
  9 O        4.0710     3.0700     1.2700 O.3   1 <1>  -0.2800 
 10 C        4.6000     0.7070     1.4630 C.3   1 <1>  -0.0600 
 11 C        3.0490     3.9180     1.1770 C.2   1 <1>   0.0550 
 12 C       -3.2100    -2.3640    -2.5000 C.3   1 <1>  -0.2400 
 13 C        3.2550     5.3420     1.0490 C.2   1 <1>   0.7150 
 14 O        2.3140     6.1130     0.9890 O.2   1 <1>  -0.5700 
 15 N        4.5160     5.8780     0.9750 N.am  1 <1>  -0.5100 
 16 C        5.6620     5.5170     1.8780 C.3   1 <1>   0.2250 
 17 C        4.8320     7.3310     1.1910 C.3   1 <1>   0.2250 
 18 C        6.2890     6.8980     1.5280 C.3   1 <1>   0.4720 
 19 N        7.2830     6.9100     0.3790 N.4   1 <1>  -0.9280 
 20 C        7.7040     8.3090     0.0800 C.3   1 <1>   0.3430 
 21 C        6.8110     6.2050    -0.8590 C.3   1 <1>   0.3430 
 22 C        8.8510     8.3010    -0.9320 C.3   1 <1>  -0.1600 
 23 C        7.9390     6.1560    -1.8900 C.3   1 <1>  -0.1600 
 24 C        8.4710     7.5570    -2.2180 C.3   1 <1>  -0.1600 
 25 H        1.7590    -0.2310     1.6110 H     1 <1>   0.0800 
 26 H        0.5020     0.8920     2.1320 H     1 <1>   0.0800 
 27 H       -1.3850    -0.5010     0.8130 H     1 <1>   0.0800 
 28 H       -0.1530    -1.6700     0.3200 H     1 <1>   0.0800 
 29 H       -0.7310    -1.2570    -2.0600 H     1 <1>   0.0800 
 30 H       -1.9460    -0.1040    -1.5730 H     1 <1>   0.0800 
 31 H        0.8880     3.5730     1.1510 H     1 <1>   0.1500 
 32 H       -3.1930    -1.9090    -0.4080 H     1 <1>   0.0800 
 33 H       -1.9780    -3.0620    -0.8950 H     1 <1>   0.0800 
 34 H        4.0920    -0.2380     1.5100 H     1 <1>   0.0800 
 35 H        5.1990     0.8250     2.3470 H     1 <1>   0.0800 
 36 H        5.2420     0.7090     0.6010 H     1 <1>   0.0800 
 37 H       -3.7330    -1.4700    -2.7910 H     1 <1>   0.0800 
 38 H       -3.9260    -3.1610    -2.4000 H     1 <1>   0.0800 
 39 H       -2.5140    -2.6260    -3.2780 H     1 <1>   0.0800 
 40 H        6.2260     4.6750     1.5180 H     1 <1>   0.0000 
 41 H        5.3400     5.4330     2.9010 H     1 <1>   0.0000 
 42 H        4.2950     7.7280     2.0350 H     1 <1>   0.0000 
 43 H        4.7370     7.9110     0.2910 H     1 <1>   0.0000 
 44 H        6.6900     7.4040     2.3880 H     1 <1>   0.0000 
 45 H        8.1210     6.4090     0.6970 H     1 <1>   0.4500 
 46 H        8.0280     8.8010     0.9830 H     1 <1>   0.0800 
 47 H        6.8710     8.8610    -0.3280 H     1 <1>   0.0800 
 48 H        5.9640     6.7260    -1.2760 H     1 <1>   0.0800 
 49 H        6.5010     5.1990    -0.6220 H     1 <1>   0.0800 
 50 H        9.7200     7.8470    -0.4870 H     1 <1>   0.0800 
 51 H        9.1120     9.3170    -1.1760 H     1 <1>   0.0800 
 52 H        7.5690     5.6970    -2.7910 H     1 <1>   0.0800 
 53 H        8.7370     5.5350    -1.5200 H     1 <1>   0.0800 
 54 H        9.3290     7.4810    -2.8660 H     1 <1>   0.0800 
 55 H        7.7140     8.1130    -2.7450 H     1 <1>   0.0800 
@<TRIPOS>BOND
  1   1   2  1   
  2   1   3  1   
  3   2   4  1   
  4   2  25  1   
  5   2  26  1   
  6   3   5  1   
  7   3  27  1   
  8   3  28  1   
  9   4   6  2   
 10   4   7  1   
 11   5   8  1   
 12   5  29  1   
 13   5  30  1   
 14   6   9  1   
 15   6  10  1   
 16   7  11  2   
 17   7  31  1   
 18   8  12  1   
 19   8  32  1   
 20   8  33  1   
 21   9  11  1   
 22  10  34  1   
 23  10  35  1   
 24  10  36  1   
 25  11  13  1   
 26  12  37  1   
 27  12  38  1   
 28  12  39  1   
 29  13  14  2   
 30  13  15  am  
 31  15  16  1   
 32  15  17  1   
 33  16  18  1   
 34  16  40  1   
 35  16  41  1   
 36  17  18  1   
 37  17  42  1   
 38  17  43  1   
 39  18  19  1   
 40  18  44  1   
 41  19  20  1   
 42  19  21  1   
 43  19  45  1   
 44  20  22  1   
 45  20  46  1   
 46  20  47  1   
 47  21  23  1   
 48  21  48  1   
 49  21  49  1   
 50  22  24  1   
 51  22  50  1   
 52  22  51  1   
 53  23  24  1   
 54  23  52  1   
 55  23  53  1   
 56  24  54  1   
 57  24  55  1   
@<TRIPOS>SUBSTRUCTURE
  1 ****  11 GROUP 4 **** **** 0

# MOE 2024.06 (io_trps.svl 2023.06)
