@<TRIPOS>MOLECULE
NONAME
34 36 1 0 0 
SMALL
USER_CHARGES


@<TRIPOS>ATOM
  1 S       -0.3670     0.5370     2.1940 S.3   1 <1>  -0.0800 
  2 C       -1.6460     1.2760     1.2290 C.ar  1 <1>   0.2970 
  3 C        0.8700     1.2150     1.1390 C.2   1 <1>  -0.1400 
  4 N       -2.9240     1.1340     1.5140 N.ar  1 <1>  -0.5670 
  5 C       -1.1180     1.9950     0.1830 C.ar  1 <1>   0.0000 
  6 C        0.3270     1.9290     0.1410 C.2   1 <1>  -0.1810 
  7 C        2.3330     0.9500     1.4160 C.3   1 <1>   0.0200 
  8 C       -3.7130     1.7700     0.6680 C.ar  1 <1>   0.4770 
  9 C       -2.0750     2.6320    -0.6080 C.ar  1 <1>   0.4100 
 10 C        1.1990     2.5840    -0.9190 C.3   1 <1>   0.0210 
 11 C        3.1850     1.9000     0.5540 C.3   1 <1>  -0.1600 
 12 N       -3.3620     2.5200    -0.3690 N.ar  1 <1>  -0.6200 
 13 C       -5.1940     1.6510     0.9250 C.3   1 <1>   0.0450 
 14 N       -1.7770     3.4290    -1.6620 N.pl3 1 <1>  -0.9000 
 15 C        2.6360     2.0230    -0.8820 C.3   1 <1>  -0.1600 
 16 C       -5.8340     0.8410    -0.1700 C.2   1 <1>   0.6590 
 17 O       -6.7490     1.2770    -0.8210 O.2   1 <1>  -0.5700 
 18 O       -5.3680    -0.3900    -0.3510 O.3   1 <1>  -0.4300 
 19 C       -5.8830    -1.2410    -1.3520 C.3   1 <1>   0.0400 
 20 H        2.5540    -0.0730     1.1710 H     1 <1>   0.0800 
 21 H        2.5480     1.1080     2.4580 H     1 <1>   0.0800 
 22 H        1.2200     3.6450    -0.7420 H     1 <1>   0.0800 
 23 H        0.7830     2.4050    -1.8950 H     1 <1>   0.0800 
 24 H        4.2010     1.5470     0.5310 H     1 <1>   0.0800 
 25 H        3.1850     2.8750     1.0100 H     1 <1>   0.0800 
 26 H       -5.6310     2.6300     0.9470 H     1 <1>   0.0800 
 27 H       -5.3760     1.1700     1.8660 H     1 <1>   0.0800 
 28 H       -2.5640     3.9190    -2.0910 H     1 <1>   0.4000 
 29 H       -0.8810     3.9080    -1.7130 H     1 <1>   0.4000 
 30 H        3.2810     2.6570    -1.4660 H     1 <1>   0.0800 
 31 H        2.6380     1.0470    -1.3360 H     1 <1>   0.0800 
 32 H       -5.3500    -2.1740    -1.3130 H     1 <1>   0.0800 
 33 H       -5.7400    -0.7730    -2.3110 H     1 <1>   0.0800 
 34 H       -6.9310    -1.4010    -1.1690 H     1 <1>   0.0800 
@<TRIPOS>BOND
  1   1   2  1   
  2   1   3  1   
  3   2   4  ar  
  4   2   5  ar  
  5   3   6  2   
  6   3   7  1   
  7   4   8  ar  
  8   5   6  1   
  9   5   9  ar  
 10   6  10  1   
 11   7  11  1   
 12   7  20  1   
 13   7  21  1   
 14   8  12  ar  
 15   8  13  1   
 16   9  12  ar  
 17   9  14  1   
 18  10  15  1   
 19  10  22  1   
 20  10  23  1   
 21  11  15  1   
 22  11  24  1   
 23  11  25  1   
 24  13  16  1   
 25  13  26  1   
 26  13  27  1   
 27  14  28  1   
 28  14  29  1   
 29  15  30  1   
 30  15  31  1   
 31  16  17  2   
 32  16  18  1   
 33  18  19  1   
 34  19  32  1   
 35  19  33  1   
 36  19  34  1   
@<TRIPOS>SUBSTRUCTURE
  1 ****   5 GROUP 4 **** **** 0

# MOE 2024.06 (io_trps.svl 2023.06)
