@<TRIPOS>MOLECULE
NONAME
41 42 1 0 0 
SMALL
USER_CHARGES


@<TRIPOS>ATOM
  1 O        2.4720     1.3330     3.1810 O.2   1 <1>  -0.5700 
  2 C        2.6160     1.4830     1.9930 C.2   1 <1>   0.6900 
  3 N        2.8360     0.4320     1.1640 N.am  1 <1>  -0.4900 
  4 N        2.5630     2.7390     1.4530 N.am  1 <1>  -0.5390 
  5 C        2.9980     0.5810    -0.1790 C.2   1 <1>   0.6160 
  6 C        2.7320     2.9720     0.0900 C.2   1 <1>  -0.0290 
  7 O        3.1990    -0.3950    -0.8650 O.2   1 <1>  -0.5700 
  8 C        2.9400     1.9020    -0.7160 C.2   1 <1>  -0.1360 
  9 C        2.6870     4.4090    -0.4210 C.3   1 <1>   0.4810 
 10 N        3.8670     5.1560     0.1050 N.4   1 <1>  -0.9590 
 11 C        3.6940     6.6200    -0.1190 C.3   1 <1>   0.3430 
 12 C        5.1410     4.6530    -0.5080 C.3   1 <1>   0.2630 
 13 C        4.6730     7.4270     0.7330 C.3   1 <1>  -0.1600 
 14 C        4.5090     8.9170     0.4350 C.3   1 <1>   0.2000 
 15 O        4.5230     9.0520    -0.9520 O.3   1 <1>  -0.5600 
 16 C        5.6390     9.7580     1.0480 C.3   1 <1>  -0.1600 
 17 C        4.3030    10.3510    -1.4230 C.3   1 <1>   0.1200 
 18 C        5.5370    11.2200     0.6000 C.3   1 <1>  -0.1600 
 19 C        5.4180    11.2780    -0.9270 C.3   1 <1>  -0.1600 
 20 H        2.8650    -0.5030     1.5590 H     1 <1>   0.3700 
 21 H        2.2990     3.4460     2.1440 H     1 <1>   0.3700 
 22 H        3.0750     1.9700    -1.7800 H     1 <1>   0.1500 
 23 H        1.7720     4.8720    -0.0870 H     1 <1>   0.0800 
 24 H        2.6960     4.4170    -1.5000 H     1 <1>   0.0800 
 25 H        3.9110     4.9830     1.1180 H     1 <1>   0.4500 
 26 H        2.6900     6.9180     0.1360 H     1 <1>   0.0800 
 27 H        3.8520     6.8520    -1.1620 H     1 <1>   0.0800 
 28 H        5.1440     4.8340    -1.5710 H     1 <1>   0.0800 
 29 H        5.2500     3.5940    -0.3360 H     1 <1>   0.0800 
 30 H        5.9910     5.1530    -0.0750 H     1 <1>   0.0800 
 31 H        5.6860     7.1520     0.5070 H     1 <1>   0.0800 
 32 H        4.4910     7.2590     1.7790 H     1 <1>   0.0800 
 33 H        3.5520     9.2660     0.7920 H     1 <1>   0.0800 
 34 H        6.5910     9.3600     0.7410 H     1 <1>   0.0800 
 35 H        5.5920     9.7080     2.1220 H     1 <1>   0.0800 
 36 H        3.3390    10.6850    -1.0780 H     1 <1>   0.0800 
 37 H        4.2960    10.3170    -2.4990 H     1 <1>   0.0800 
 38 H        6.4030    11.7710     0.9250 H     1 <1>   0.0800 
 39 H        4.6670    11.6730     1.0440 H     1 <1>   0.0800 
 40 H        5.2130    12.2870    -1.2390 H     1 <1>   0.0800 
 41 H        6.3470    10.9770    -1.3790 H     1 <1>   0.0800 
@<TRIPOS>BOND
  1   1   2  2   
  2   2   3  am  
  3   2   4  am  
  4   3   5  am  
  5   3  20  1   
  6   4   6  1   
  7   4  21  1   
  8   5   7  2   
  9   5   8  1   
 10   6   8  2   
 11   6   9  1   
 12   8  22  1   
 13   9  10  1   
 14   9  23  1   
 15   9  24  1   
 16  10  11  1   
 17  10  12  1   
 18  10  25  1   
 19  11  13  1   
 20  11  26  1   
 21  11  27  1   
 22  12  28  1   
 23  12  29  1   
 24  12  30  1   
 25  13  14  1   
 26  13  31  1   
 27  13  32  1   
 28  14  15  1   
 29  14  16  1   
 30  14  33  1   
 31  15  17  1   
 32  16  18  1   
 33  16  34  1   
 34  16  35  1   
 35  17  19  1   
 36  17  36  1   
 37  17  37  1   
 38  18  19  1   
 39  18  38  1   
 40  18  39  1   
 41  19  40  1   
 42  19  41  1   
@<TRIPOS>SUBSTRUCTURE
  1 ****  10 GROUP 4 **** **** 0

# MOE 2024.06 (io_trps.svl 2023.06)
