@<TRIPOS>MOLECULE
NONAME
46 48 1 0 0 
SMALL
USER_CHARGES


@<TRIPOS>ATOM
  1 CL      -0.8080    -0.2290     0.9250 Cl    1 <1>  -0.1770 
  2 C       -0.6130    -1.9310     0.5960 C.ar  1 <1>   0.1770 
  3 C       -1.1260    -2.8580     1.4830 C.ar  1 <1>  -0.1500 
  4 C        0.0510    -2.3280    -0.5490 C.ar  1 <1>  -0.1500 
  5 C       -0.9710    -4.2080     1.2180 C.ar  1 <1>  -0.1500 
  6 C        0.2030    -3.6790    -0.8130 C.ar  1 <1>  -0.1500 
  7 C       -0.3090    -4.6250     0.0680 C.ar  1 <1>  -0.1430 
  8 C       -0.1500    -6.1060    -0.2320 C.3   1 <1>   0.4870 
  9 N       -1.4860    -6.7460    -0.3320 N.4   1 <1>  -0.9590 
 10 C       -1.4650    -8.2510    -0.4690 C.3   1 <1>   0.3430 
 11 C       -2.4520    -6.0700    -1.2380 C.3   1 <1>   0.3430 
 12 C       -2.8710    -8.8910    -0.7540 C.3   1 <1>   0.4230 
 13 C       -3.8760    -6.6080    -0.9900 C.3   1 <1>  -0.1600 
 14 N       -3.0450   -10.2810    -0.1920 N.4   1 <1>  -0.9590 
 15 C       -3.9690    -7.9590    -0.2040 C.3   1 <1>  -0.1060 
 16 C       -4.3630   -10.8800    -0.5390 C.3   1 <1>   0.3430 
 17 C       -1.9310   -11.2470    -0.4160 C.3   1 <1>   0.2630 
 18 C       -3.6180    -7.7850     1.2880 C.2   1 <1>   0.9060 
 19 C       -5.3860    -8.5530    -0.4180 C.3   1 <1>  -0.1600 
 20 C       -5.4880   -10.0180     0.0320 C.3   1 <1>  -0.1600 
 21 O       -3.2490    -6.6770     1.6840 O.co2 1 <1>  -0.9000 
 22 O       -3.4060    -8.7970     1.9610 O.co2 1 <1>  -0.9000 
 23 H       -1.6410    -2.5270     2.3680 H     1 <1>   0.1500 
 24 H        0.4420    -1.5830    -1.2190 H     1 <1>   0.1500 
 25 H       -1.3790    -4.9200     1.9210 H     1 <1>   0.1500 
 26 H        0.7240    -3.9770    -1.7070 H     1 <1>   0.1500 
 27 H        0.4160    -6.5640     0.5630 H     1 <1>   0.0800 
 28 H        0.3910    -6.2330    -1.1550 H     1 <1>   0.0800 
 29 H       -1.9270    -6.5580     0.6110 H     1 <1>   0.4500 
 30 H       -0.7910    -8.5320    -1.2600 H     1 <1>   0.0800 
 31 H       -1.0970    -8.6610     0.4580 H     1 <1>   0.0800 
 32 H       -2.4490    -5.0050    -1.0590 H     1 <1>   0.0800 
 33 H       -2.1670    -6.2380    -2.2640 H     1 <1>   0.0800 
 34 H       -2.9930    -8.9480    -1.8220 H     1 <1>   0.0800 
 35 H       -4.4300    -5.8560    -0.4520 H     1 <1>   0.0800 
 36 H       -4.3530    -6.6950    -1.9510 H     1 <1>   0.0800 
 37 H       -3.1220   -10.0850     0.8460 H     1 <1>   0.4500 
 38 H       -4.4650   -10.9520    -1.6090 H     1 <1>   0.0800 
 39 H       -4.4370   -11.8710    -0.1200 H     1 <1>   0.0800 
 40 H       -1.8050   -11.4410    -1.4680 H     1 <1>   0.0800 
 41 H       -2.1480   -12.1790     0.0830 H     1 <1>   0.0800 
 42 H       -1.0090   -10.8610    -0.0140 H     1 <1>   0.0800 
 43 H       -6.1080    -7.9640     0.1240 H     1 <1>   0.0800 
 44 H       -5.6510    -8.5080    -1.4600 H     1 <1>   0.0800 
 45 H       -6.4350   -10.4210    -0.2810 H     1 <1>   0.0800 
 46 H       -5.4660   -10.0750     1.1080 H     1 <1>   0.0800 
@<TRIPOS>BOND
  1   1   2  1   
  2   2   3  ar  
  3   2   4  ar  
  4   3   5  ar  
  5   3  23  1   
  6   4   6  ar  
  7   4  24  1   
  8   5   7  ar  
  9   5  25  1   
 10   6   7  ar  
 11   6  26  1   
 12   7   8  1   
 13   8   9  1   
 14   8  27  1   
 15   8  28  1   
 16   9  10  1   
 17   9  11  1   
 18   9  29  1   
 19  10  12  1   
 20  10  30  1   
 21  10  31  1   
 22  11  13  1   
 23  11  32  1   
 24  11  33  1   
 25  12  14  1   
 26  12  15  1   
 27  12  34  1   
 28  13  15  1   
 29  13  35  1   
 30  13  36  1   
 31  14  16  1   
 32  14  17  1   
 33  14  37  1   
 34  15  18  1   
 35  15  19  1   
 36  16  20  1   
 37  16  38  1   
 38  16  39  1   
 39  17  40  1   
 40  17  41  1   
 41  17  42  1   
 42  18  21  ar  
 43  18  22  ar  
 44  19  20  1   
 45  19  43  1   
 46  19  44  1   
 47  20  45  1   
 48  20  46  1   
@<TRIPOS>SUBSTRUCTURE
  1 ****   9 GROUP 4 **** **** 0

# MOE 2024.06 (io_trps.svl 2023.06)
