@<TRIPOS>MOLECULE
NONAME
51 53 1 0 0 
SMALL
USER_CHARGES


@<TRIPOS>ATOM
  1 O        0.0290    -0.5750    -0.0320 O.3   1 <1>  -0.5600 
  2 C        1.2420     0.0760    -0.2640 C.3   1 <1>   0.2640 
  3 C        0.0910    -1.9550    -0.0710 C.3   1 <1>   0.1200 
  4 C        1.0250     1.5740    -0.1340 C.ar  1 <1>  -0.1440 
  5 C       -1.3150    -2.4530     0.2500 C.3   1 <1>  -0.1600 
  6 C        1.7020     2.3050     0.8320 C.ar  1 <1>  -0.1500 
  7 C        0.1500     2.2290    -0.9880 C.ar  1 <1>  -0.1500 
  8 C       -1.3800    -3.9770     0.2270 C.3   1 <1>   0.3430 
  9 C        1.5090     3.6710     0.9390 C.ar  1 <1>  -0.1500 
 10 C       -0.0430     3.5960    -0.8830 C.ar  1 <1>  -0.1500 
 11 N       -2.7250    -4.4330     0.6650 N.4   1 <1>  -0.9590 
 12 C        0.6370     4.3180     0.0810 C.ar  1 <1>  -0.1500 
 13 C       -3.8650    -4.0610    -0.2170 C.3   1 <1>   0.3430 
 14 C       -2.8410    -5.9050     0.8770 C.3   1 <1>   0.3430 
 15 C       -5.0010    -4.9540     0.2810 C.3   1 <1>   0.2000 
 16 C       -4.3010    -6.2840     0.5670 C.3   1 <1>  -0.0800 
 17 O       -5.4410    -4.4340     1.4930 O.3   1 <1>  -0.6800 
 18 C       -4.3920    -7.2460    -0.6340 C.3   1 <1>  -0.0170 
 19 C       -3.4810    -8.4480    -0.4410 C.ar  1 <1>  -0.1440 
 20 C       -2.4050    -8.6900    -1.2730 C.ar  1 <1>  -0.1500 
 21 C       -3.6800    -9.3600     0.5780 C.ar  1 <1>  -0.1500 
 22 C       -1.5900    -9.7860    -1.0380 C.ar  1 <1>   0.1600 
 23 C       -2.8040   -10.4220     0.7270 C.ar  1 <1>   0.1600 
 24 N       -1.7590   -10.6470    -0.0500 N.ar  1 <1>  -0.6200 
 25 H        1.9620    -0.2660     0.4590 H     1 <1>   0.0800 
 26 H        1.5800    -0.1630    -1.2570 H     1 <1>   0.0800 
 27 H        0.4020    -2.2580    -1.0580 H     1 <1>   0.0800 
 28 H        0.8020    -2.2900     0.6660 H     1 <1>   0.0800 
 29 H       -1.5840    -2.0940     1.2280 H     1 <1>   0.0800 
 30 H       -1.9900    -2.0420    -0.4790 H     1 <1>   0.0800 
 31 H        2.3810     1.8150     1.5070 H     1 <1>   0.1500 
 32 H       -0.3870     1.6700    -1.7350 H     1 <1>   0.1500 
 33 H       -0.6320    -4.3700     0.8970 H     1 <1>   0.0800 
 34 H       -1.1700    -4.3390    -0.7670 H     1 <1>   0.0800 
 35 H        2.0370     4.2320     1.6910 H     1 <1>   0.1500 
 36 H       -0.7240     4.0950    -1.5490 H     1 <1>   0.1500 
 37 H       -2.9550    -3.9940     1.5730 H     1 <1>   0.4500 
 38 H        0.4870     5.3800     0.1640 H     1 <1>   0.1500 
 39 H       -4.1230    -3.0170    -0.1300 H     1 <1>   0.0800 
 40 H       -3.6350    -4.2970    -1.2420 H     1 <1>   0.0800 
 41 H       -2.1740    -6.4330     0.2160 H     1 <1>   0.0800 
 42 H       -2.5920    -6.1600     1.8950 H     1 <1>   0.0800 
 43 H       -5.8310    -5.0120    -0.4030 H     1 <1>   0.0800 
 44 H       -4.7380    -6.7720     1.4220 H     1 <1>   0.0800 
 45 H       -6.2830    -4.8520     1.7780 H     1 <1>   0.4000 
 46 H       -4.1210    -6.7380    -1.5440 H     1 <1>   0.0800 
 47 H       -5.4060    -7.5910    -0.7470 H     1 <1>   0.0800 
 48 H       -2.1860    -8.0480    -2.1070 H     1 <1>   0.1500 
 49 H       -4.5060    -9.2640     1.2590 H     1 <1>   0.1500 
 50 H       -0.7560    -9.9650    -1.6960 H     1 <1>   0.1500 
 51 H       -2.9720   -11.1240     1.5270 H     1 <1>   0.1500 
@<TRIPOS>BOND
  1   1   2  1   
  2   1   3  1   
  3   2   4  1   
  4   2  25  1   
  5   2  26  1   
  6   3   5  1   
  7   3  27  1   
  8   3  28  1   
  9   4   6  ar  
 10   4   7  ar  
 11   5   8  1   
 12   5  29  1   
 13   5  30  1   
 14   6   9  ar  
 15   6  31  1   
 16   7  10  ar  
 17   7  32  1   
 18   8  11  1   
 19   8  33  1   
 20   8  34  1   
 21   9  12  ar  
 22   9  35  1   
 23  10  12  ar  
 24  10  36  1   
 25  11  13  1   
 26  11  14  1   
 27  11  37  1   
 28  12  38  1   
 29  13  15  1   
 30  13  39  1   
 31  13  40  1   
 32  14  16  1   
 33  14  41  1   
 34  14  42  1   
 35  15  16  1   
 36  15  17  1   
 37  15  43  1   
 38  16  18  1   
 39  16  44  1   
 40  17  45  1   
 41  18  19  1   
 42  18  46  1   
 43  18  47  1   
 44  19  20  ar  
 45  19  21  ar  
 46  20  22  ar  
 47  20  48  1   
 48  21  23  ar  
 49  21  49  1   
 50  22  24  ar  
 51  22  50  1   
 52  23  24  ar  
 53  23  51  1   
@<TRIPOS>SUBSTRUCTURE
  1 ****   8 GROUP 4 **** **** 0

# MOE 2024.06 (io_trps.svl 2023.06)
