@<TRIPOS>MOLECULE
NONAME
58 61 1 0 0 
SMALL
USER_CHARGES


@<TRIPOS>ATOM
  1 S       -0.6880    -0.7570     1.1240 S.3   1 <1>  -0.3320 
  2 C       -2.1540    -1.7670     1.1480 C.ar  1 <1>   0.7220 
  3 C       -0.4460    -0.3530    -0.6610 C.3   1 <1>   0.2140 
  4 N       -2.5140    -2.1990     2.3440 N.ar  1 <1>  -0.6200 
  5 N       -2.7390    -1.9820    -0.0210 N.ar  1 <1>  -0.6200 
  6 C        0.7480     0.5780    -0.7860 C.ar  1 <1>  -0.1440 
  7 C       -3.5920    -2.9420     2.3640 C.ar  1 <1>   0.1600 
  8 C       -3.8190    -2.7260     0.0340 C.ar  1 <1>   0.1600 
  9 C        2.0000     0.0760    -1.1070 C.ar  1 <1>  -0.1500 
 10 C        0.5930     1.9410    -0.5820 C.ar  1 <1>  -0.1500 
 11 C       -4.3030    -3.2330     1.2200 C.ar  1 <1>  -0.1440 
 12 C        3.0840     0.9280    -1.2290 C.ar  1 <1>  -0.1500 
 13 C        1.6760     2.7940    -0.7040 C.ar  1 <1>  -0.1500 
 14 C       -5.5650    -4.0660     1.2730 C.3   1 <1>   0.4860 
 15 C        2.9230     2.2880    -1.0290 C.ar  1 <1>  -0.1500 
 16 N       -6.7410    -3.1890     1.0340 N.4   1 <1>  -0.9590 
 17 C       -6.8880    -2.0610     2.0020 C.3   1 <1>   0.3430 
 18 C       -8.0190    -3.9200     0.8510 C.3   1 <1>   0.3430 
 19 C       -8.1020    -1.1950     1.6440 C.3   1 <1>  -0.1600 
 20 C       -9.0530    -2.9850     0.2070 C.3   1 <1>  -0.1600 
 21 C       -8.6700    -1.4910     0.2390 C.3   1 <1>   0.2800 
 22 O       -7.6490    -1.3420    -0.7220 O.3   1 <1>  -0.5600 
 23 C       -9.8970    -0.6420    -0.1560 C.3   1 <1>  -0.1600 
 24 C       -7.2280    -0.0390    -1.0290 C.3   1 <1>   0.1200 
 25 C       -9.5680     0.7880    -0.5960 C.3   1 <1>   0.2800 
 26 C       -8.4010     0.7720    -1.5810 C.3   1 <1>  -0.1600 
 27 O       -9.1890     1.5060     0.5110 O.3   1 <1>  -0.6800 
 28 C      -10.7910     1.4980    -1.1710 C.3   1 <1>  -0.2400 
 29 H       -1.3470     0.1170    -1.0120 H     1 <1>   0.0800 
 30 H       -0.2870    -1.2800    -1.1810 H     1 <1>   0.0800 
 31 H       -3.9070    -3.3190     3.3240 H     1 <1>   0.1500 
 32 H       -4.3240    -2.9270    -0.8980 H     1 <1>   0.1500 
 33 H        2.1390    -0.9800    -1.2590 H     1 <1>   0.1500 
 34 H       -0.3710     2.3420    -0.3240 H     1 <1>   0.1500 
 35 H        4.0530     0.5330    -1.4780 H     1 <1>   0.1500 
 36 H        1.5490     3.8500    -0.5450 H     1 <1>   0.1500 
 37 H       -5.6520    -4.5440     2.2360 H     1 <1>   0.0800 
 38 H       -5.5180    -4.8320     0.5170 H     1 <1>   0.0800 
 39 H        3.7650     2.9500    -1.1240 H     1 <1>   0.1500 
 40 H       -6.6160    -2.6960     0.1260 H     1 <1>   0.4500 
 41 H       -6.0040    -1.4430     1.9660 H     1 <1>   0.0800 
 42 H       -6.9940    -2.4360     3.0070 H     1 <1>   0.0800 
 43 H       -8.3810    -4.2600     1.8080 H     1 <1>   0.0800 
 44 H       -7.8750    -4.7790     0.2150 H     1 <1>   0.0800 
 45 H       -7.8320    -0.1630     1.7550 H     1 <1>   0.0800 
 46 H       -8.8740    -1.3740     2.3710 H     1 <1>   0.0800 
 47 H       -9.9840    -3.1270     0.7260 H     1 <1>   0.0800 
 48 H       -9.2210    -3.2860    -0.8120 H     1 <1>   0.0800 
 49 H      -10.6090    -0.6160     0.6490 H     1 <1>   0.0800 
 50 H      -10.3830    -1.1290    -0.9830 H     1 <1>   0.0800 
 51 H       -6.4510    -0.1110    -1.7700 H     1 <1>   0.0800 
 52 H       -6.8200     0.4230    -0.1480 H     1 <1>   0.0800 
 53 H       -8.7160     0.3250    -2.5070 H     1 <1>   0.0800 
 54 H       -8.0840     1.7760    -1.7990 H     1 <1>   0.0800 
 55 H       -9.1990     2.4580     0.2970 H     1 <1>   0.4000 
 56 H      -11.1480     0.9730    -2.0390 H     1 <1>   0.0800 
 57 H      -10.5470     2.5020    -1.4690 H     1 <1>   0.0800 
 58 H      -11.5860     1.5260    -0.4470 H     1 <1>   0.0800 
@<TRIPOS>BOND
  1   1   2  1   
  2   1   3  1   
  3   2   4  ar  
  4   2   5  ar  
  5   3   6  1   
  6   3  29  1   
  7   3  30  1   
  8   4   7  ar  
  9   5   8  ar  
 10   6   9  ar  
 11   6  10  ar  
 12   7  11  ar  
 13   7  31  1   
 14   8  11  ar  
 15   8  32  1   
 16   9  12  ar  
 17   9  33  1   
 18  10  13  ar  
 19  10  34  1   
 20  11  14  1   
 21  12  15  ar  
 22  12  35  1   
 23  13  15  ar  
 24  13  36  1   
 25  14  16  1   
 26  14  37  1   
 27  14  38  1   
 28  15  39  1   
 29  16  17  1   
 30  16  18  1   
 31  16  40  1   
 32  17  19  1   
 33  17  41  1   
 34  17  42  1   
 35  18  20  1   
 36  18  43  1   
 37  18  44  1   
 38  19  21  1   
 39  19  45  1   
 40  19  46  1   
 41  20  21  1   
 42  20  47  1   
 43  20  48  1   
 44  21  22  1   
 45  21  23  1   
 46  22  24  1   
 47  23  25  1   
 48  23  49  1   
 49  23  50  1   
 50  24  26  1   
 51  24  51  1   
 52  24  52  1   
 53  25  26  1   
 54  25  27  1   
 55  25  28  1   
 56  26  53  1   
 57  26  54  1   
 58  27  55  1   
 59  28  56  1   
 60  28  57  1   
 61  28  58  1   
@<TRIPOS>SUBSTRUCTURE
  1 ****   8 GROUP 4 **** **** 0

# MOE 2024.06 (io_trps.svl 2023.06)
