@<TRIPOS>MOLECULE
NONAME
53 55 1 0 0 
SMALL
USER_CHARGES


@<TRIPOS>ATOM
  1 O       -0.4750     0.0000     1.2190 O.2   1 <1>  -0.5700 
  2 C       -1.4420     0.7040     1.0520 C.2   1 <1>   0.5690 
  3 N       -2.6950     0.1780     0.9030 N.am  1 <1>  -0.6600 
  4 C       -1.2210     2.2030     0.9950 C.3   1 <1>  -0.0990 
  5 C       -3.9480     0.9280     0.6510 C.3   1 <1>   0.1400 
  6 C       -2.9320    -1.2790     0.8440 C.3   1 <1>   0.1400 
  7 C       -0.9860     2.6720    -0.4450 C.3   1 <1>  -0.0160 
  8 C       -5.0690    -0.1220     0.6770 C.3   1 <1>  -0.0800 
  9 C       -4.3640    -1.4490     0.3340 C.3   1 <1>  -0.0800 
 10 C       -0.8300     4.1830    -0.4940 C.ar  1 <1>  -0.1440 
 11 C       -6.3330     0.1940    -0.1820 C.3   1 <1>   0.2800 
 12 C       -4.4240    -1.7250    -1.1760 C.3   1 <1>  -0.1600 
 13 C        0.4090     4.7660    -0.2800 C.ar  1 <1>  -0.1500 
 14 C       -1.9260     4.9920    -0.7500 C.ar  1 <1>  -0.1500 
 15 O       -6.0010     1.0150    -1.2440 O.3   1 <1>  -0.6800 
 16 C       -6.8960    -1.1020    -0.7960 C.3   1 <1>  -0.1600 
 17 C       -7.4350     0.9200     0.6200 C.3   1 <1>  -0.1600 
 18 C       -5.8760    -1.8650    -1.6690 C.3   1 <1>  -0.1600 
 19 C        0.5560     6.1420    -0.3210 C.ar  1 <1>  -0.1500 
 20 C       -1.7830     6.3670    -0.7910 C.ar  1 <1>  -0.1500 
 21 C       -7.0360     2.2820     1.2170 C.3   1 <1>  -0.2400 
 22 C       -0.5460     6.9530    -0.5780 C.ar  1 <1>   0.0820 
 23 O       -0.4910     8.3080    -0.6360 O.3   1 <1>  -0.3620 
 24 C        0.7230     9.0000    -0.4520 C.3   1 <1>   0.0400 
 25 H       -2.0590     2.7200     1.4210 H     1 <1>   0.0800 
 26 H       -0.3590     2.4430     1.5900 H     1 <1>   0.0800 
 27 H       -4.1040     1.6780     1.4060 H     1 <1>   0.0800 
 28 H       -3.8640     1.4000    -0.3110 H     1 <1>   0.0800 
 29 H       -2.2130    -1.7550     0.1980 H     1 <1>   0.0800 
 30 H       -2.8360    -1.6830     1.8370 H     1 <1>   0.0800 
 31 H       -1.8110     2.3720    -1.0670 H     1 <1>   0.0800 
 32 H       -0.1000     2.2000    -0.8350 H     1 <1>   0.0800 
 33 H       -5.3830    -0.2160     1.7010 H     1 <1>   0.0800 
 34 H       -4.8280    -2.2720     0.8500 H     1 <1>   0.0800 
 35 H       -3.9550    -0.9060    -1.6960 H     1 <1>   0.0800 
 36 H       -3.8730    -2.6180    -1.4170 H     1 <1>   0.0800 
 37 H        1.2660     4.1470    -0.0790 H     1 <1>   0.1500 
 38 H       -2.8950     4.5550    -0.9180 H     1 <1>   0.1500 
 39 H       -6.7750     1.1120    -1.8270 H     1 <1>   0.4000 
 40 H       -7.1940    -1.7470     0.0130 H     1 <1>   0.0800 
 41 H       -7.7820    -0.8960    -1.3700 H     1 <1>   0.0800 
 42 H       -8.2910     1.0640    -0.0150 H     1 <1>   0.0800 
 43 H       -7.7520     0.2810     1.4250 H     1 <1>   0.0800 
 44 H       -6.1510    -2.9060    -1.6890 H     1 <1>   0.0800 
 45 H       -5.9260    -1.5000    -2.6810 H     1 <1>   0.0800 
 46 H        1.5290     6.5610    -0.1500 H     1 <1>   0.1500 
 47 H       -2.6310     6.9970    -0.9890 H     1 <1>   0.1500 
 48 H       -6.6660     2.9410     0.4510 H     1 <1>   0.0800 
 49 H       -6.2800     2.1650     1.9710 H     1 <1>   0.0800 
 50 H       -7.8930     2.7440     1.6740 H     1 <1>   0.0800 
 51 H        0.5240    10.0530    -0.5470 H     1 <1>   0.0800 
 52 H        1.4200     8.6900    -1.2100 H     1 <1>   0.0800 
 53 H        1.1010     8.7870     0.5320 H     1 <1>   0.0800 
@<TRIPOS>BOND
  1   1   2  2   
  2   2   3  am  
  3   2   4  1   
  4   3   5  1   
  5   3   6  1   
  6   4   7  1   
  7   4  25  1   
  8   4  26  1   
  9   5   8  1   
 10   5  27  1   
 11   5  28  1   
 12   6   9  1   
 13   6  29  1   
 14   6  30  1   
 15   7  10  1   
 16   7  31  1   
 17   7  32  1   
 18   8   9  1   
 19   8  11  1   
 20   8  33  1   
 21   9  12  1   
 22   9  34  1   
 23  10  13  ar  
 24  10  14  ar  
 25  11  15  1   
 26  11  16  1   
 27  11  17  1   
 28  12  18  1   
 29  12  35  1   
 30  12  36  1   
 31  13  19  ar  
 32  13  37  1   
 33  14  20  ar  
 34  14  38  1   
 35  15  39  1   
 36  16  18  1   
 37  16  40  1   
 38  16  41  1   
 39  17  21  1   
 40  17  42  1   
 41  17  43  1   
 42  18  44  1   
 43  18  45  1   
 44  19  22  ar  
 45  19  46  1   
 46  20  22  ar  
 47  20  47  1   
 48  21  48  1   
 49  21  49  1   
 50  21  50  1   
 51  22  23  1   
 52  23  24  1   
 53  24  51  1   
 54  24  52  1   
 55  24  53  1   
@<TRIPOS>SUBSTRUCTURE
  1 ****   5 GROUP 4 **** **** 0

# MOE 2024.06 (io_trps.svl 2023.06)
