@<TRIPOS>MOLECULE
NONAME
57 59 1 0 0 
SMALL
USER_CHARGES


@<TRIPOS>ATOM
  1 O        1.1380    -0.0880    -0.1070 O.2   1 <1>  -0.5700 
  2 C        1.9360    -0.7800     0.4780 C.2   1 <1>   0.5690 
  3 N        3.0020    -0.1970     1.1260 N.am  1 <1>  -0.6600 
  4 C        1.7550    -2.3040     0.4350 C.3   1 <1>  -0.0190 
  5 C        4.2960    -0.8690     1.4500 C.3   1 <1>   0.1400 
  6 C        2.9590     1.2560     1.4460 C.3   1 <1>   0.1400 
  7 C        2.4310    -2.9130    -0.8090 C.3   1 <1>  -0.1600 
  8 C        0.2700    -2.7170     0.4720 C.3   1 <1>  -0.1600 
  9 C        5.3780    -0.6010     0.3790 C.3   1 <1>   0.3430 
 10 C        3.4040     2.0950     0.2430 C.3   1 <1>  -0.1600 
 11 C        2.2750    -4.4400    -0.8420 C.3   1 <1>  -0.1600 
 12 C        0.1050    -4.2440     0.4400 C.3   1 <1>  -0.1600 
 13 N        5.5430     0.8480     0.0090 N.4   1 <1>  -0.9590 
 14 C        4.3530     1.3850    -0.7210 C.3   1 <1>   0.3430 
 15 C        0.7970    -4.8640    -0.7880 C.3   1 <1>  -0.0800 
 16 C        6.7860     1.0760    -0.7690 C.3   1 <1>   0.5240 
 17 C        0.7000    -6.4020    -0.7950 C.3   1 <1>  -0.1600 
 18 C        7.0610     2.5600    -0.7450 C.2   1 <1>  -0.1810 
 19 C       -0.7370    -6.9230    -0.9190 C.3   1 <1>  -0.2400 
 20 C        6.9300     3.4250    -1.8240 C.2   1 <1>   0.1390 
 21 C        7.4640     3.3470     0.2790 C.2   1 <1>  -0.3020 
 22 N        7.2110     4.6460    -1.5000 N.2   1 <1>  -0.7070 
 23 N        7.5520     4.6040    -0.2040 N.pl3 1 <1>   0.3140 
 24 C        7.9650     5.8150     0.5170 C.3   1 <1>   0.0160 
 25 H        2.2040    -2.7230     1.3160 H     1 <1>   0.0800 
 26 H        4.1610    -1.9320     1.5380 H     1 <1>   0.0800 
 27 H        4.6460    -0.5250     2.4080 H     1 <1>   0.0800 
 28 H        3.5910     1.4580     2.2940 H     1 <1>   0.0800 
 29 H        1.9540     1.5340     1.7240 H     1 <1>   0.0800 
 30 H        3.4760    -2.6680    -0.8230 H     1 <1>   0.0800 
 31 H        1.9810    -2.4930    -1.6930 H     1 <1>   0.0800 
 32 H       -0.2440    -2.2920    -0.3730 H     1 <1>   0.0800 
 33 H       -0.1900    -2.3250     1.3630 H     1 <1>   0.0800 
 34 H        5.1280    -1.1650    -0.5040 H     1 <1>   0.0800 
 35 H        6.3140    -0.9850     0.7510 H     1 <1>   0.0800 
 36 H        3.8390     3.0180     0.5820 H     1 <1>   0.0800 
 37 H        2.5220     2.3610    -0.3130 H     1 <1>   0.0800 
 38 H        2.8000    -4.8710    -0.0070 H     1 <1>   0.0800 
 39 H        2.7230    -4.8210    -1.7440 H     1 <1>   0.0800 
 40 H       -0.9470    -4.4680     0.4220 H     1 <1>   0.0800 
 41 H        0.5160    -4.6680     1.3400 H     1 <1>   0.0800 
 42 H        5.6450     1.4170     0.8570 H     1 <1>   0.4500 
 43 H        4.6580     2.0920    -1.4760 H     1 <1>   0.0800 
 44 H        3.8250     0.5810    -1.2110 H     1 <1>   0.0800 
 45 H        0.3100    -4.4920    -1.6750 H     1 <1>   0.0800 
 46 H        6.6740     0.7260    -1.7820 H     1 <1>   0.0800 
 47 H        7.6140     0.5590    -0.3110 H     1 <1>   0.0800 
 48 H        1.1450    -6.7990     0.1020 H     1 <1>   0.0800 
 49 H        1.2640    -6.7810    -1.6300 H     1 <1>   0.0800 
 50 H       -1.3120    -6.6830    -0.0420 H     1 <1>   0.0800 
 51 H       -0.7280    -7.9930    -1.0280 H     1 <1>   0.0800 
 52 H       -1.2190    -6.4960    -1.7810 H     1 <1>   0.0800 
 53 H        6.6320     3.1470    -2.8220 H     1 <1>   0.1500 
 54 H        7.6980     3.1080     1.3010 H     1 <1>   0.1500 
 55 H        8.3700     5.5490     1.4750 H     1 <1>   0.0800 
 56 H        7.1120     6.4550     0.6430 H     1 <1>   0.0800 
 57 H        8.7110     6.3260    -0.0630 H     1 <1>   0.0800 
@<TRIPOS>BOND
  1   1   2  2   
  2   2   3  am  
  3   2   4  1   
  4   3   5  1   
  5   3   6  1   
  6   4   7  1   
  7   4   8  1   
  8   4  25  1   
  9   5   9  1   
 10   5  26  1   
 11   5  27  1   
 12   6  10  1   
 13   6  28  1   
 14   6  29  1   
 15   7  11  1   
 16   7  30  1   
 17   7  31  1   
 18   8  12  1   
 19   8  32  1   
 20   8  33  1   
 21   9  13  1   
 22   9  34  1   
 23   9  35  1   
 24  10  14  1   
 25  10  36  1   
 26  10  37  1   
 27  11  15  1   
 28  11  38  1   
 29  11  39  1   
 30  12  15  1   
 31  12  40  1   
 32  12  41  1   
 33  13  14  1   
 34  13  16  1   
 35  13  42  1   
 36  14  43  1   
 37  14  44  1   
 38  15  17  1   
 39  15  45  1   
 40  16  18  1   
 41  16  46  1   
 42  16  47  1   
 43  17  19  1   
 44  17  48  1   
 45  17  49  1   
 46  18  20  1   
 47  18  21  2   
 48  19  50  1   
 49  19  51  1   
 50  19  52  1   
 51  20  22  2   
 52  20  53  1   
 53  21  23  1   
 54  21  54  1   
 55  22  23  1   
 56  23  24  1   
 57  24  55  1   
 58  24  56  1   
 59  24  57  1   
@<TRIPOS>SUBSTRUCTURE
  1 ****   3 GROUP 4 **** **** 0

# MOE 2024.06 (io_trps.svl 2023.06)
