@<TRIPOS>MOLECULE
NONAME
52 53 1 0 0 
SMALL
USER_CHARGES


@<TRIPOS>ATOM
  1 O       -0.3240    -0.3960     0.3660 O.2   1 <1>  -0.5700 
  2 C       -1.1060     0.5210     0.5140 C.2   1 <1>   0.5690 
  3 N       -2.2100     0.6080    -0.3170 N.am  1 <1>  -0.6600 
  4 C       -0.7960     1.5150     1.6850 C.3   1 <1>   0.3410 
  5 C       -2.3560    -0.3480    -1.4560 C.3   1 <1>   0.3200 
  6 C       -3.3660     1.5580    -0.1420 C.3   1 <1>   0.1400 
  7 O       -1.0400     2.8750     1.3420 O.3   1 <1>  -0.3630 
  8 C       -1.7160     1.2140     2.8810 C.3   1 <1>  -0.2400 
  9 C        0.6530     1.4440     2.2170 C.3   1 <1>  -0.2400 
 10 C       -3.6260    -1.1580    -1.2860 C.2   1 <1>  -0.3320 
 11 C       -3.5910     2.4590    -1.3630 C.3   1 <1>   0.1200 
 12 C       -0.6450     3.5240     0.2090 C.ar  1 <1>   0.0830 
 13 N       -3.8210    -2.0700    -0.3130 N.pl3 1 <1>   0.0480 
 14 C       -4.7580    -1.1350    -2.0240 C.2   1 <1>   0.0770 
 15 O       -4.7110     3.2510    -1.1420 O.3   1 <1>  -0.6800 
 16 C       -1.2030     4.7820    -0.0350 C.ar  1 <1>  -0.1430 
 17 C        0.2530     2.9820    -0.7070 C.ar  1 <1>  -0.1500 
 18 C       -5.0730    -2.5340    -0.5260 C.2   1 <1>   0.0360 
 19 C       -2.8820    -2.4810     0.7480 C.3   1 <1>   0.0160 
 20 N       -5.6700    -1.9960    -1.5400 N.2   1 <1>  -0.5650 
 21 C       -0.8690     5.4710    -1.1990 C.ar  1 <1>  -0.1430 
 22 C       -2.1990     5.3840     0.9590 C.3   1 <1>  -0.0970 
 23 C        0.5900     3.6770    -1.8500 C.ar  1 <1>  -0.1500 
 24 C        0.0300     4.9150    -2.0950 C.ar  1 <1>  -0.1500 
 25 C       -1.4720     6.8290    -1.5360 C.3   1 <1>  -0.0970 
 26 H       -1.5170    -1.0190    -1.5240 H     1 <1>   0.0800 
 27 H       -2.3900     0.2000    -2.3810 H     1 <1>   0.0800 
 28 H       -3.2170     2.1950     0.7060 H     1 <1>   0.0800 
 29 H       -4.2570     0.9830     0.0410 H     1 <1>   0.0800 
 30 H       -2.7510     1.2720     2.6050 H     1 <1>   0.0800 
 31 H       -1.5310     1.9100     3.6810 H     1 <1>   0.0800 
 32 H       -1.5270     0.2200     3.2440 H     1 <1>   0.0800 
 33 H        1.3710     1.6250     1.4420 H     1 <1>   0.0800 
 34 H        0.8500     0.4660     2.6160 H     1 <1>   0.0800 
 35 H        0.8000     2.1660     2.9990 H     1 <1>   0.0800 
 36 H       -3.7720     1.8850    -2.2530 H     1 <1>   0.0800 
 37 H       -2.7500     3.1110    -1.5160 H     1 <1>   0.0800 
 38 H       -4.9730    -0.5330    -2.8910 H     1 <1>   0.1500 
 39 H       -5.5230     2.7060    -1.1210 H     1 <1>   0.4000 
 40 H        0.7050     2.0220    -0.5630 H     1 <1>   0.1500 
 41 H       -5.5170    -3.2850     0.1030 H     1 <1>   0.1500 
 42 H       -1.9130    -2.6610     0.3190 H     1 <1>   0.0800 
 43 H       -3.2370    -3.3790     1.2190 H     1 <1>   0.0800 
 44 H       -2.8080    -1.6960     1.4770 H     1 <1>   0.0800 
 45 H       -2.0590     4.9920     1.9490 H     1 <1>   0.0800 
 46 H       -3.2010     5.1620     0.6400 H     1 <1>   0.0800 
 47 H       -2.0820     6.4490     1.0270 H     1 <1>   0.0800 
 48 H        1.2880     3.2550    -2.5520 H     1 <1>   0.1500 
 49 H        0.3000     5.4440    -2.9920 H     1 <1>   0.1500 
 50 H       -1.0950     7.5750    -0.8600 H     1 <1>   0.0800 
 51 H       -2.5440     6.7880    -1.4560 H     1 <1>   0.0800 
 52 H       -1.2250     7.1240    -2.5390 H     1 <1>   0.0800 
@<TRIPOS>BOND
  1   1   2  2   
  2   2   3  am  
  3   2   4  1   
  4   3   5  1   
  5   3   6  1   
  6   4   7  1   
  7   4   8  1   
  8   4   9  1   
  9   5  10  1   
 10   5  26  1   
 11   5  27  1   
 12   6  11  1   
 13   6  28  1   
 14   6  29  1   
 15   7  12  1   
 16   8  30  1   
 17   8  31  1   
 18   8  32  1   
 19   9  33  1   
 20   9  34  1   
 21   9  35  1   
 22  10  13  1   
 23  10  14  2   
 24  11  15  1   
 25  11  36  1   
 26  11  37  1   
 27  12  16  ar  
 28  12  17  ar  
 29  13  18  1   
 30  13  19  1   
 31  14  20  1   
 32  14  38  1   
 33  15  39  1   
 34  16  21  ar  
 35  16  22  1   
 36  17  23  ar  
 37  17  40  1   
 38  18  20  2   
 39  18  41  1   
 40  19  42  1   
 41  19  43  1   
 42  19  44  1   
 43  21  24  ar  
 44  21  25  1   
 45  22  45  1   
 46  22  46  1   
 47  22  47  1   
 48  23  24  ar  
 49  23  48  1   
 50  24  49  1   
 51  25  50  1   
 52  25  51  1   
 53  25  52  1   
@<TRIPOS>SUBSTRUCTURE
  1 ****   3 GROUP 4 **** **** 0

# MOE 2024.06 (io_trps.svl 2023.06)
