@<TRIPOS>MOLECULE
NONAME
30 31 1 0 0 
SMALL
USER_CHARGES


@<TRIPOS>ATOM
  1 CL       0.3240    -1.0460    -1.6710 Cl    1 <1>  -0.1240 
  2 C       -0.5830    -2.1920    -0.7220 C.2   1 <1>   0.1640 
  3 S       -2.2680    -1.8180    -0.4370 S.3   1 <1>  -0.0800 
  4 C       -0.2210    -3.3510    -0.1480 C.2   1 <1>  -0.1500 
  5 C       -2.4750    -3.3010     0.5030 C.2   1 <1>  -0.0220 
  6 C       -1.3040    -3.9780     0.5470 C.2   1 <1>  -0.1500 
  7 S       -4.1110    -3.6510     1.1930 S.o2  1 <1>   1.5000 
  8 O       -4.0510    -4.9360     1.8550 O.2   1 <1>  -0.6500 
  9 O       -4.5460    -2.4850     1.9330 O.2   1 <1>  -0.6500 
 10 N       -5.0770    -3.7980    -0.1950 N.am  1 <1>  -0.8490 
 11 C       -4.8490    -5.0360    -0.9700 C.3   1 <1>   0.1960 
 12 C       -6.5030    -3.4490    -0.0150 C.3   1 <1>   0.1960 
 13 C       -5.5980    -6.2840    -0.4440 C.3   1 <1>   0.2000 
 14 C       -7.4740    -4.6240    -0.2200 C.3   1 <1>  -0.1600 
 15 O       -5.9110    -7.0420    -1.5560 O.3   1 <1>  -0.6800 
 16 C       -6.8850    -5.9320     0.3330 C.3   1 <1>  -0.1860 
 17 C       -7.9240    -7.0400     0.4510 C.2   1 <1>   0.9060 
 18 O       -8.7550    -6.9570     1.3580 O.co2 1 <1>  -0.9000 
 19 O       -7.9340    -7.9780    -0.3600 O.co2 1 <1>  -0.9000 
 20 H        0.7620    -3.7870    -0.1860 H     1 <1>   0.1500 
 21 H       -1.1630    -4.9170     1.0570 H     1 <1>   0.1500 
 22 H       -5.1870    -4.8450    -1.9740 H     1 <1>   0.0800 
 23 H       -3.7970    -5.2540    -1.0220 H     1 <1>   0.0800 
 24 H       -6.6670    -3.0570     0.9750 H     1 <1>   0.0800 
 25 H       -6.7570    -2.6660    -0.7090 H     1 <1>   0.0800 
 26 H       -4.9560    -6.8840     0.1790 H     1 <1>   0.0800 
 27 H       -8.4020    -4.4060     0.2810 H     1 <1>   0.0800 
 28 H       -7.6950    -4.7440    -1.2660 H     1 <1>   0.0800 
 29 H       -6.7120    -7.5990    -1.2880 H     1 <1>   0.4000 
 30 H       -6.5900    -5.7330     1.3460 H     1 <1>   0.0800 
@<TRIPOS>BOND
  1   1   2  1   
  2   2   3  1   
  3   2   4  2   
  4   3   5  1   
  5   4   6  1   
  6   4  20  1   
  7   5   6  2   
  8   5   7  1   
  9   6  21  1   
 10   7   8  2   
 11   7   9  2   
 12   7  10  am  
 13  10  11  1   
 14  10  12  1   
 15  11  13  1   
 16  11  22  1   
 17  11  23  1   
 18  12  14  1   
 19  12  24  1   
 20  12  25  1   
 21  13  15  1   
 22  13  16  1   
 23  13  26  1   
 24  14  16  1   
 25  14  27  1   
 26  14  28  1   
 27  15  29  1   
 28  16  17  1   
 29  16  30  1   
 30  17  18  ar  
 31  17  19  ar  
@<TRIPOS>SUBSTRUCTURE
  1 ****  10 GROUP 4 **** **** 0

# MOE 2024.06 (io_trps.svl 2023.06)
