@<TRIPOS>MOLECULE
NONAME
48 52 1 0 0 
SMALL
USER_CHARGES


@<TRIPOS>ATOM
  1 O        0.2310     0.9920     0.2960 O.2   1 <1>  -0.5700 
  2 C       -0.3410     2.0460     0.4900 C.2   1 <1>   0.5440 
  3 N       -1.6800     2.0410     0.8160 N.am  1 <1>  -0.6600 
  4 C        0.4010     3.2690     0.3440 C.ar  1 <1>   0.0860 
  5 C       -2.5430     3.2650     0.8610 C.3   1 <1>   0.1400 
  6 C       -2.4210     0.7480     0.9830 C.3   1 <1>   0.1400 
  7 C        0.9460     3.6450    -0.8660 C.ar  1 <1>   0.1600 
  8 C        0.6120     4.1480     1.3870 C.ar  1 <1>   0.1600 
  9 C       -3.5920     3.2460    -0.2740 C.3   1 <1>   0.1440 
 10 C       -3.9250     0.8980     0.6900 C.3   1 <1>  -0.1600 
 11 N        1.5890     4.7790    -1.0440 N.ar  1 <1>  -0.6200 
 12 N        1.2540     5.2870     1.2490 N.ar  1 <1>  -0.6200 
 13 C       -4.6650     4.2610     0.0870 C.ar  1 <1>   0.1670 
 14 C       -4.1660     1.8240    -0.5130 C.3   1 <1>  -0.1600 
 15 C       -3.0140     3.8440    -1.5840 C.3   1 <1>  -0.1600 
 16 C        1.7150     5.5410     0.0320 C.ar  1 <1>   0.5880 
 17 N       -5.6050     4.0920     0.9860 N.ar  1 <1>  -0.6200 
 18 C       -4.5290     5.4110    -0.6360 C.ar  1 <1>  -0.1430 
 19 C       -3.3580     5.3430    -1.5840 C.3   1 <1>  -0.0170 
 20 C        2.4580     6.8580    -0.1510 C.3   1 <1>  -0.0680 
 21 C       -6.4130     5.1320     1.1250 C.ar  1 <1>   0.7200 
 22 C       -5.4310     6.4220    -0.4080 C.ar  1 <1>   0.1600 
 23 C        3.8410     6.8950    -0.7370 C.3   1 <1>  -0.2000 
 24 C        3.6370     7.2110     0.7110 C.3   1 <1>  -0.2000 
 25 N       -6.3920     6.2890     0.4780 N.ar  1 <1>  -0.6200 
 26 N       -7.3940     4.9880     2.0170 N.pl3 1 <1>  -0.9000 
 27 H       -1.9650     4.1680     0.8010 H     1 <1>   0.0800 
 28 H       -3.0520     3.2790     1.8110 H     1 <1>   0.0800 
 29 H       -2.2760     0.3810     1.9840 H     1 <1>   0.0800 
 30 H       -2.0110     0.0200     0.3020 H     1 <1>   0.0800 
 31 H        0.8400     2.9840    -1.7110 H     1 <1>   0.1500 
 32 H        0.2300     3.8990     2.3640 H     1 <1>   0.1500 
 33 H       -4.4240     1.2950     1.5580 H     1 <1>   0.0800 
 34 H       -4.3450    -0.0730     0.4970 H     1 <1>   0.0800 
 35 H       -3.6820     1.3760    -1.3640 H     1 <1>   0.0800 
 36 H       -5.2180     1.8810    -0.7300 H     1 <1>   0.0800 
 37 H       -3.5100     3.3980    -2.4290 H     1 <1>   0.0800 
 38 H       -1.9580     3.6710    -1.6850 H     1 <1>   0.0800 
 39 H       -3.6190     5.6900    -2.5690 H     1 <1>   0.0800 
 40 H       -2.5400     5.9240    -1.1950 H     1 <1>   0.0800 
 41 H        1.7870     7.6520    -0.4180 H     1 <1>   0.1000 
 42 H       -5.3650     7.3460    -0.9560 H     1 <1>   0.1500 
 43 H        4.0860     7.6910    -1.4180 H     1 <1>   0.1000 
 44 H        4.3080     5.9640    -1.0060 H     1 <1>   0.1000 
 45 H        3.9640     6.4980     1.4490 H     1 <1>   0.1000 
 46 H        3.7400     8.2280     1.0460 H     1 <1>   0.1000 
 47 H       -8.1750     5.6290     1.9050 H     1 <1>   0.4000 
 48 H       -7.6180     4.0280     2.2600 H     1 <1>   0.4000 
@<TRIPOS>BOND
  1   1   2  2   
  2   2   3  am  
  3   2   4  1   
  4   3   5  1   
  5   3   6  1   
  6   4   7  ar  
  7   4   8  ar  
  8   5   9  1   
  9   5  27  1   
 10   5  28  1   
 11   6  10  1   
 12   6  29  1   
 13   6  30  1   
 14   7  11  ar  
 15   7  31  1   
 16   8  12  ar  
 17   8  32  1   
 18   9  13  1   
 19   9  14  1   
 20   9  15  1   
 21  10  14  1   
 22  10  33  1   
 23  10  34  1   
 24  11  16  ar  
 25  12  16  ar  
 26  13  17  ar  
 27  13  18  ar  
 28  14  35  1   
 29  14  36  1   
 30  15  19  1   
 31  15  37  1   
 32  15  38  1   
 33  16  20  1   
 34  17  21  ar  
 35  18  19  1   
 36  18  22  ar  
 37  19  39  1   
 38  19  40  1   
 39  20  23  1   
 40  20  24  1   
 41  20  41  1   
 42  21  25  ar  
 43  21  26  1   
 44  22  25  ar  
 45  22  42  1   
 46  23  24  1   
 47  23  43  1   
 48  23  44  1   
 49  24  45  1   
 50  24  46  1   
 51  26  47  1   
 52  26  48  1   
@<TRIPOS>SUBSTRUCTURE
  1 ****   5 GROUP 4 **** **** 0

# MOE 2024.06 (io_trps.svl 2023.06)
