@<TRIPOS>MOLECULE
NONAME
45 47 1 0 0 
SMALL
USER_CHARGES


@<TRIPOS>ATOM
  1 O       -1.3670    -0.2540    -0.5150 O.3   1 <1>  -0.3630 
  2 C       -2.0520    -1.1770     0.1910 C.ar  1 <1>   0.0830 
  3 C       -1.4230     1.1180    -0.1870 C.3   1 <1>   0.0400 
  4 C       -1.9210    -2.4980    -0.1780 C.ar  1 <1>  -0.1500 
  5 C       -2.8830    -0.9020     1.2620 C.ar  1 <1>  -0.1500 
  6 C       -2.6120    -3.4730     0.5190 C.ar  1 <1>   0.1670 
  7 C       -3.5300    -1.9480     1.8920 C.ar  1 <1>   0.1600 
  8 N       -3.4210    -3.2230     1.5440 N.ar  1 <1>  -0.6200 
  9 C       -2.4780    -4.9350     0.1050 C.3   1 <1>   0.4870 
 10 N       -3.8250    -5.5810     0.0760 N.4   1 <1>  -0.9590 
 11 C       -3.7870    -7.0700     0.1190 C.3   1 <1>   0.3430 
 12 C       -4.7310    -5.0270    -0.9600 C.3   1 <1>   0.3430 
 13 C       -5.1580    -7.6810    -0.2010 C.3   1 <1>  -0.1600 
 14 C       -6.1760    -5.4250    -0.6500 C.3   1 <1>  -0.1600 
 15 C       -6.3150    -6.7340     0.1450 C.3   1 <1>   0.4240 
 16 O       -6.1720    -6.4300     1.4810 O.3   1 <1>  -0.6800 
 17 C       -7.7240    -7.3220    -0.0130 C.ar  1 <1>  -0.1430 
 18 C       -7.9650    -8.5460    -0.6320 C.ar  1 <1>  -0.1500 
 19 C       -8.8140    -6.6070     0.4740 C.ar  1 <1>  -0.1500 
 20 C       -9.2540    -9.0370    -0.7540 C.ar  1 <1>  -0.1500 
 21 C      -10.1020    -7.0970     0.3530 C.ar  1 <1>  -0.1500 
 22 C      -10.3230    -8.3140    -0.2610 C.ar  1 <1>  -0.1500 
 23 H       -0.7940     1.6520    -0.8770 H     1 <1>   0.0800 
 24 H       -1.0600     1.2530     0.8170 H     1 <1>   0.0800 
 25 H       -2.4380     1.4600    -0.2800 H     1 <1>   0.0800 
 26 H       -1.2760    -2.7390    -1.0040 H     1 <1>   0.1500 
 27 H       -3.0360     0.1000     1.6160 H     1 <1>   0.1500 
 28 H       -4.1740    -1.7240     2.7280 H     1 <1>   0.1500 
 29 H       -1.8570    -5.4310     0.8310 H     1 <1>   0.0800 
 30 H       -2.0060    -5.0060    -0.8600 H     1 <1>   0.0800 
 31 H       -4.2630    -5.2770     0.9710 H     1 <1>   0.4500 
 32 H       -3.4930    -7.3780     1.1100 H     1 <1>   0.0800 
 33 H       -3.0590    -7.4480    -0.5810 H     1 <1>   0.0800 
 34 H       -4.4470    -5.4120    -1.9260 H     1 <1>   0.0800 
 35 H       -4.6590    -3.9500    -0.9870 H     1 <1>   0.0800 
 36 H       -5.2650    -8.6080     0.3330 H     1 <1>   0.0800 
 37 H       -5.1930    -7.9100    -1.2500 H     1 <1>   0.0800 
 38 H       -6.6880    -5.5320    -1.5900 H     1 <1>   0.0800 
 39 H       -6.6650    -4.6250    -0.1230 H     1 <1>   0.0800 
 40 H       -6.9000    -6.8790     1.9620 H     1 <1>   0.4000 
 41 H       -7.1700    -9.1450    -1.0340 H     1 <1>   0.1500 
 42 H       -8.6730    -5.6530     0.9550 H     1 <1>   0.1500 
 43 H       -9.4270    -9.9850    -1.2340 H     1 <1>   0.1500 
 44 H      -10.9340    -6.5310     0.7360 H     1 <1>   0.1500 
 45 H      -11.3250    -8.6980    -0.3560 H     1 <1>   0.1500 
@<TRIPOS>BOND
  1   1   2  1   
  2   1   3  1   
  3   2   4  ar  
  4   2   5  ar  
  5   3  23  1   
  6   3  24  1   
  7   3  25  1   
  8   4   6  ar  
  9   4  26  1   
 10   5   7  ar  
 11   5  27  1   
 12   6   8  ar  
 13   6   9  1   
 14   7   8  ar  
 15   7  28  1   
 16   9  10  1   
 17   9  29  1   
 18   9  30  1   
 19  10  11  1   
 20  10  12  1   
 21  10  31  1   
 22  11  13  1   
 23  11  32  1   
 24  11  33  1   
 25  12  14  1   
 26  12  34  1   
 27  12  35  1   
 28  13  15  1   
 29  13  36  1   
 30  13  37  1   
 31  14  15  1   
 32  14  38  1   
 33  14  39  1   
 34  15  16  1   
 35  15  17  1   
 36  16  40  1   
 37  17  18  ar  
 38  17  19  ar  
 39  18  20  ar  
 40  18  41  1   
 41  19  21  ar  
 42  19  42  1   
 43  20  22  ar  
 44  20  43  1   
 45  21  22  ar  
 46  21  44  1   
 47  22  45  1   
@<TRIPOS>SUBSTRUCTURE
  1 ****  12 GROUP 4 **** **** 0

# MOE 2024.06 (io_trps.svl 2023.06)
