@<TRIPOS>MOLECULE
NONAME
43 44 1 0 0 
SMALL
USER_CHARGES


@<TRIPOS>ATOM
  1 S       -0.0310    -0.1060    -1.0800 S.o2  1 <1>   1.3330 
  2 O        0.5940     0.1480    -2.3580 O.2   1 <1>  -0.6500 
  3 O       -0.8650    -1.2740    -0.9070 O.2   1 <1>  -0.6500 
  4 N        1.1880    -0.1680     0.1020 N.am  1 <1>  -0.8490 
  5 C       -0.9700     1.3560    -0.6320 C.3   1 <1>  -0.0550 
  6 C        2.4280    -0.7690    -0.4000 C.3   1 <1>   0.1160 
  7 C        0.7710    -0.8410     1.3370 C.3   1 <1>   0.1160 
  8 C       -0.2150     2.6870    -0.8480 C.3   1 <1>  -0.0800 
  9 C       -1.0730     3.9350    -0.6360 C.3   1 <1>   0.2000 
 10 C        0.9930     2.9000     0.0740 C.3   1 <1>   0.1400 
 11 O       -1.8090     3.7890     0.5300 O.3   1 <1>  -0.6800 
 12 C       -0.0500     5.0450    -0.4100 C.3   1 <1>   0.1400 
 13 N        1.0720     4.3690     0.2930 N.am  1 <1>  -0.6600 
 14 C        2.2240     4.9840     0.7290 C.2   1 <1>   0.7160 
 15 O        3.2080     4.3000     0.9340 O.2   1 <1>  -0.5700 
 16 C        2.3000     6.4170     0.9300 C.2   1 <1>  -0.0860 
 17 C        1.3600     7.2200     1.4870 C.2   1 <1>  -0.1100 
 18 C        3.4660     7.1610     0.5530 C.2   1 <1>  -0.1500 
 19 S        1.8720     8.8850     1.5240 S.3   1 <1>  -0.0800 
 20 C        3.4270     8.4990     0.7880 C.2   1 <1>  -0.0450 
 21 C        4.3670     9.5600     0.5580 C.2   1 <1>   0.5940 
 22 O        4.1550    10.7210     0.8000 O.2   1 <1>  -0.5700 
 23 C        5.7170     9.2080    -0.0290 C.3   1 <1>  -0.1790 
 24 H       -1.8580     1.3780    -1.2330 H     1 <1>   0.0800 
 25 H       -1.2830     1.2760     0.3910 H     1 <1>   0.0800 
 26 H        3.1800    -0.7740     0.3710 H     1 <1>   0.0800 
 27 H        2.8050    -0.1970    -1.2310 H     1 <1>   0.0800 
 28 H        2.2480    -1.7790    -0.7280 H     1 <1>   0.0800 
 29 H        1.5450    -0.7620     2.0810 H     1 <1>   0.0800 
 30 H        0.5710    -1.8840     1.1490 H     1 <1>   0.0800 
 31 H       -0.1230    -0.3850     1.7260 H     1 <1>   0.0800 
 32 H        0.1460     2.7110    -1.8620 H     1 <1>   0.0800 
 33 H       -1.7510     4.1380    -1.4490 H     1 <1>   0.0800 
 34 H        1.8980     2.5260    -0.3770 H     1 <1>   0.0800 
 35 H        0.8470     2.4140     1.0240 H     1 <1>   0.0800 
 36 H       -1.1940     3.7880     1.2920 H     1 <1>   0.4000 
 37 H       -0.4740     5.8500     0.1620 H     1 <1>   0.0800 
 38 H        0.3030     5.4190    -1.3550 H     1 <1>   0.0800 
 39 H        0.3920     6.9950     1.8990 H     1 <1>   0.1500 
 40 H        4.3020     6.6420     0.1160 H     1 <1>   0.1500 
 41 H        6.2110     8.4910     0.5990 H     1 <1>   0.0800 
 42 H        6.3280    10.0900    -0.0960 H     1 <1>   0.0800 
 43 H        5.5890     8.7980    -1.0130 H     1 <1>   0.0800 
@<TRIPOS>BOND
  1   1   2  2   
  2   1   3  2   
  3   1   4  am  
  4   1   5  1   
  5   4   6  1   
  6   4   7  1   
  7   5   8  1   
  8   5  24  1   
  9   5  25  1   
 10   6  26  1   
 11   6  27  1   
 12   6  28  1   
 13   7  29  1   
 14   7  30  1   
 15   7  31  1   
 16   8   9  1   
 17   8  10  1   
 18   8  32  1   
 19   9  11  1   
 20   9  12  1   
 21   9  33  1   
 22  10  13  1   
 23  10  34  1   
 24  10  35  1   
 25  11  36  1   
 26  12  13  1   
 27  12  37  1   
 28  12  38  1   
 29  13  14  am  
 30  14  15  2   
 31  14  16  1   
 32  16  17  2   
 33  16  18  1   
 34  17  19  1   
 35  17  39  1   
 36  18  20  2   
 37  18  40  1   
 38  19  20  1   
 39  20  21  1   
 40  21  22  2   
 41  21  23  1   
 42  23  41  1   
 43  23  42  1   
 44  23  43  1   
@<TRIPOS>SUBSTRUCTURE
  1 ****  13 GROUP 4 **** **** 0

# MOE 2024.06 (io_trps.svl 2023.06)
