@<TRIPOS>MOLECULE
NONAME
37 39 1 0 0 
SMALL
USER_CHARGES


@<TRIPOS>ATOM
  1 S        1.8770     0.1520     1.3210 S.3   1 <1>  -0.0800 
  2 C        1.0340    -0.3310    -0.1330 C.2   1 <1>   0.4620 
  3 C        1.6070    -1.4370     1.9640 C.2   1 <1>  -0.1100 
  4 N        0.6080    -1.5350    -0.1220 N.2   1 <1>  -0.5650 
  5 N        0.8960     0.5680    -1.1360 N.pl3 1 <1>  -0.8840 
  6 C        0.9220    -2.1960     1.0780 C.2   1 <1>   0.1410 
  7 C        0.5530    -3.5900     1.3370 C.2   1 <1>   0.7160 
  8 O        1.0780    -4.1700     2.2720 O.2   1 <1>  -0.5700 
  9 N       -0.3670    -4.3080     0.5960 N.am  1 <1>  -0.6600 
 10 C       -1.2520    -3.7870    -0.4780 C.3   1 <1>   0.1400 
 11 C       -0.6040    -5.7590     0.7980 C.3   1 <1>   0.1400 
 12 C       -2.3130    -4.8710    -0.6620 C.3   1 <1>   0.2000 
 13 C       -1.5680    -6.1670    -0.3230 C.3   1 <1>  -0.0800 
 14 O       -3.3180    -4.6570     0.2700 O.3   1 <1>  -0.6800 
 15 C       -2.4710    -7.3610     0.0370 C.3   1 <1>   0.0200 
 16 C       -1.6980    -8.6550     0.2280 C.2   1 <1>  -0.0400 
 17 O       -2.3320    -9.7020     0.6850 O.3   1 <1>  -0.0190 
 18 C       -0.4190    -9.0130     0.0210 C.2   1 <1>  -0.1500 
 19 N       -1.5500   -10.7360     0.8000 N.2   1 <1>  -0.4100 
 20 C       -0.3900   -10.3500     0.4070 C.2   1 <1>   0.1080 
 21 C        0.8340   -11.2380     0.3720 C.3   1 <1>  -0.0590 
 22 H        1.9860    -1.6610     2.9450 H     1 <1>   0.1500 
 23 H        1.3230     1.4940    -1.0960 H     1 <1>   0.4000 
 24 H        0.4630     0.2870    -2.0160 H     1 <1>   0.4000 
 25 H       -1.6940    -2.8410    -0.2140 H     1 <1>   0.0800 
 26 H       -0.6770    -3.6760    -1.3810 H     1 <1>   0.0800 
 27 H        0.3230    -6.3030     0.7480 H     1 <1>   0.0800 
 28 H       -1.0510    -5.9100     1.7660 H     1 <1>   0.0800 
 29 H       -2.7510    -4.8720    -1.6450 H     1 <1>   0.0800 
 30 H       -0.9780    -6.4320    -1.1830 H     1 <1>   0.0800 
 31 H       -2.9100    -4.4630     1.1380 H     1 <1>   0.4000 
 32 H       -3.1950    -7.5110    -0.7450 H     1 <1>   0.0800 
 33 H       -3.0120    -7.1530     0.9430 H     1 <1>   0.0800 
 34 H        0.4140    -8.4470    -0.3500 H     1 <1>   0.1500 
 35 H        1.2100   -11.3030    -0.6320 H     1 <1>   0.0800 
 36 H        0.5800   -12.2250     0.7140 H     1 <1>   0.0800 
 37 H        1.5960   -10.8330     1.0120 H     1 <1>   0.0800 
@<TRIPOS>BOND
  1   1   2  1   
  2   1   3  1   
  3   2   4  2   
  4   2   5  1   
  5   3   6  2   
  6   3  22  1   
  7   4   6  1   
  8   5  23  1   
  9   5  24  1   
 10   6   7  1   
 11   7   8  2   
 12   7   9  am  
 13   9  10  1   
 14   9  11  1   
 15  10  12  1   
 16  10  25  1   
 17  10  26  1   
 18  11  13  1   
 19  11  27  1   
 20  11  28  1   
 21  12  13  1   
 22  12  14  1   
 23  12  29  1   
 24  13  15  1   
 25  13  30  1   
 26  14  31  1   
 27  15  16  1   
 28  15  32  1   
 29  15  33  1   
 30  16  17  1   
 31  16  18  2   
 32  17  19  1   
 33  18  20  1   
 34  18  34  1   
 35  19  20  2   
 36  20  21  1   
 37  21  35  1   
 38  21  36  1   
 39  21  37  1   
@<TRIPOS>SUBSTRUCTURE
  1 ****  11 GROUP 4 **** **** 0

# MOE 2024.06 (io_trps.svl 2023.06)
