@<TRIPOS>MOLECULE
NONAME
41 43 1 0 0 
SMALL
USER_CHARGES


@<TRIPOS>ATOM
  1 O       -2.7140    -1.4530    -0.5600 O.3   1 <1>  -0.5600 
  2 C       -2.4410    -0.0870    -0.6510 C.3   1 <1>   0.1200 
  3 C       -1.5640    -2.2410    -0.5100 C.3   1 <1>   0.0400 
  4 C       -3.7550     0.6960    -0.7220 C.3   1 <1>   0.0960 
  5 N       -4.5150     0.6420     0.5510 N.pl3 1 <1>   0.0480 
  6 C       -5.1950    -0.3770     1.1410 C.2   1 <1>   0.0060 
  7 C       -4.7100     1.6910     1.3710 C.2   1 <1>  -0.3020 
  8 N       -5.7870    -0.0390     2.2480 N.2   1 <1>  -0.5650 
  9 C       -5.2570    -1.7870     0.5750 C.3   1 <1>   0.5230 
 10 C       -5.4800     1.2620     2.3930 C.2   1 <1>   0.0770 
 11 N       -6.4490    -2.4520     1.1490 N.4   1 <1>  -0.8970 
 12 C       -6.6010    -3.9260     0.9430 C.3   1 <1>   0.4720 
 13 C       -7.7220    -2.2190     0.3950 C.3   1 <1>   0.4720 
 14 C       -7.5420    -3.6140    -0.2420 C.3   1 <1>   0.1080 
 15 C       -8.8100    -4.4420    -0.2290 C.ar  1 <1>   0.2020 
 16 N       -9.4500    -4.5170     0.9280 N.ar  1 <1>  -0.6200 
 17 C       -9.2340    -5.0690    -1.3920 C.ar  1 <1>  -0.1500 
 18 C      -10.5580    -5.2450     0.9270 C.ar  1 <1>   0.1600 
 19 C      -10.3880    -5.8220    -1.3780 C.ar  1 <1>  -0.1500 
 20 C      -11.0610    -5.9060    -0.1790 C.ar  1 <1>  -0.1500 
 21 H       -1.8670     0.0840    -1.5470 H     1 <1>   0.0800 
 22 H       -1.8640     0.2190     0.2060 H     1 <1>   0.0800 
 23 H       -1.8600    -3.2740    -0.4460 H     1 <1>   0.0800 
 24 H       -0.9860    -1.9770     0.3600 H     1 <1>   0.0800 
 25 H       -0.9860    -2.0890    -1.4060 H     1 <1>   0.0800 
 26 H       -4.3640     0.3200    -1.5230 H     1 <1>   0.0800 
 27 H       -3.5320     1.7260    -0.9340 H     1 <1>   0.0800 
 28 H       -4.3030     2.6710     1.1960 H     1 <1>   0.1500 
 29 H       -4.3650    -2.3140     0.8720 H     1 <1>   0.0800 
 30 H       -5.3050    -1.7630    -0.5000 H     1 <1>   0.0800 
 31 H       -5.8330     1.8340     3.2370 H     1 <1>   0.1500 
 32 H       -6.5570    -2.1180     2.1200 H     1 <1>   0.4500 
 33 H       -7.0960    -4.3820     1.7810 H     1 <1>   0.0000 
 34 H       -5.6760    -4.3950     0.6610 H     1 <1>   0.0000 
 35 H       -7.6420    -1.4010    -0.2980 H     1 <1>   0.0000 
 36 H       -8.5590    -2.1550     1.0670 H     1 <1>   0.0000 
 37 H       -7.0300    -3.5810    -1.1880 H     1 <1>   0.0000 
 38 H       -8.6750    -4.9750    -2.3070 H     1 <1>   0.1500 
 39 H      -11.0970    -5.3190     1.8580 H     1 <1>   0.1500 
 40 H      -10.7490    -6.3230    -2.2610 H     1 <1>   0.1500 
 41 H      -11.9690    -6.4780    -0.1010 H     1 <1>   0.1500 
@<TRIPOS>BOND
  1   1   2  1   
  2   1   3  1   
  3   2   4  1   
  4   2  21  1   
  5   2  22  1   
  6   3  23  1   
  7   3  24  1   
  8   3  25  1   
  9   4   5  1   
 10   4  26  1   
 11   4  27  1   
 12   5   6  1   
 13   5   7  1   
 14   6   8  2   
 15   6   9  1   
 16   7  10  2   
 17   7  28  1   
 18   8  10  1   
 19   9  11  1   
 20   9  29  1   
 21   9  30  1   
 22  10  31  1   
 23  11  12  1   
 24  11  13  1   
 25  11  32  1   
 26  12  14  1   
 27  12  33  1   
 28  12  34  1   
 29  13  14  1   
 30  13  35  1   
 31  13  36  1   
 32  14  15  1   
 33  14  37  1   
 34  15  16  ar  
 35  15  17  ar  
 36  16  18  ar  
 37  17  19  ar  
 38  17  38  1   
 39  18  20  ar  
 40  18  39  1   
 41  19  20  ar  
 42  19  40  1   
 43  20  41  1   
@<TRIPOS>SUBSTRUCTURE
  1 ****  11 GROUP 4 **** **** 0

# MOE 2024.06 (io_trps.svl 2023.06)
