@<TRIPOS>MOLECULE
NONAME
41 43 1 0 0 
SMALL
USER_CHARGES


@<TRIPOS>ATOM
  1 O       -0.2550    -3.3260     1.6730 O.2   1 <1>  -0.5700 
  2 C        0.8500    -2.9800     1.2860 C.2   1 <1>   0.8410 
  3 N        1.8940    -2.9870     2.1710 N.2   1 <1>  -0.6610 
  4 N        1.0390    -2.6080    -0.0380 N.am  1 <1>  -0.4690 
  5 C        3.0540    -2.6600     1.7300 C.2   1 <1>   0.3760 
  6 C        2.2890    -2.2740    -0.4910 C.2   1 <1>  -0.0410 
  7 C       -0.1280    -2.6010    -0.9770 C.3   1 <1>   0.2010 
  8 C        3.3140    -2.2950     0.3910 C.2   1 <1>  -0.1360 
  9 C       -0.5000    -3.9960    -1.4750 C.2   1 <1>   0.5690 
 10 O       -0.4500    -4.2260    -2.6590 O.2   1 <1>  -0.5700 
 11 N       -0.8830    -4.9410    -0.5790 N.am  1 <1>  -0.7300 
 12 C       -1.2280    -6.3440    -0.8940 C.3   1 <1>   0.2200 
 13 C       -2.5310    -6.7050    -0.2000 C.3   1 <1>  -0.0800 
 14 C       -0.2190    -7.2930    -0.2410 C.3   1 <1>   0.1200 
 15 C       -2.0240    -7.1440     1.1720 C.3   1 <1>   0.1200 
 16 C       -3.2610    -7.8420    -0.9410 C.3   1 <1>  -0.0160 
 17 O       -0.8030    -7.7720     0.9380 O.3   1 <1>  -0.5600 
 18 C       -4.5640    -8.2150    -0.2510 C.ar  1 <1>  -0.1430 
 19 C       -4.6830    -9.3520     0.5220 C.ar  1 <1>  -0.1500 
 20 C       -5.6970    -7.4350    -0.3660 C.ar  1 <1>  -0.1500 
 21 C       -5.8930    -9.6440     1.1280 C.ar  1 <1>   0.1600 
 22 C       -6.8600    -7.8180     0.2820 C.ar  1 <1>   0.1600 
 23 N       -6.9860    -8.9040     1.0270 N.ar  1 <1>  -0.6200 
 24 H        3.8870    -2.6620     2.4120 H     1 <1>   0.0600 
 25 H        2.4140    -2.0090    -1.5300 H     1 <1>   0.1500 
 26 H       -0.9820    -2.1730    -0.4820 H     1 <1>   0.0800 
 27 H        0.0990    -1.9840    -1.8260 H     1 <1>   0.0800 
 28 H        4.3210    -2.0450     0.1120 H     1 <1>   0.1500 
 29 H       -0.8460    -4.7050     0.4250 H     1 <1>   0.3700 
 30 H       -1.2680    -6.4820    -1.9620 H     1 <1>   0.0800 
 31 H       -3.1870    -5.8560    -0.1200 H     1 <1>   0.0800 
 32 H        0.7080    -6.8010    -0.0020 H     1 <1>   0.0800 
 33 H       -0.0290    -8.1410    -0.8740 H     1 <1>   0.0800 
 34 H       -2.6850    -7.8250     1.6790 H     1 <1>   0.0800 
 35 H       -1.8370    -6.2910     1.8020 H     1 <1>   0.0800 
 36 H       -2.6270    -8.7090    -1.0050 H     1 <1>   0.0800 
 37 H       -3.4810    -7.5280    -1.9460 H     1 <1>   0.0800 
 38 H       -3.8450   -10.0120     0.6610 H     1 <1>   0.1500 
 39 H       -5.6870    -6.5350    -0.9520 H     1 <1>   0.1500 
 40 H       -5.9660   -10.5350     1.7290 H     1 <1>   0.1500 
 41 H       -7.7330    -7.1970     0.1810 H     1 <1>   0.1500 
@<TRIPOS>BOND
  1   1   2  2   
  2   2   3  1   
  3   2   4  am  
  4   3   5  2   
  5   4   6  1   
  6   4   7  1   
  7   5   8  1   
  8   5  24  1   
  9   6   8  2   
 10   6  25  1   
 11   7   9  1   
 12   7  26  1   
 13   7  27  1   
 14   8  28  1   
 15   9  10  2   
 16   9  11  am  
 17  11  12  1   
 18  11  29  1   
 19  12  13  1   
 20  12  14  1   
 21  12  30  1   
 22  13  15  1   
 23  13  16  1   
 24  13  31  1   
 25  14  17  1   
 26  14  32  1   
 27  14  33  1   
 28  15  17  1   
 29  15  34  1   
 30  15  35  1   
 31  16  18  1   
 32  16  36  1   
 33  16  37  1   
 34  18  19  ar  
 35  18  20  ar  
 36  19  21  ar  
 37  19  38  1   
 38  20  22  ar  
 39  20  39  1   
 40  21  23  ar  
 41  21  40  1   
 42  22  23  ar  
 43  22  41  1   
@<TRIPOS>SUBSTRUCTURE
  1 ****  11 GROUP 4 **** **** 0

# MOE 2024.06 (io_trps.svl 2023.06)
