@<TRIPOS>MOLECULE
NONAME
44 46 1 0 0 
SMALL
USER_CHARGES


@<TRIPOS>ATOM
  1 O       -1.5350     0.5320     2.7010 O.2   1 <1>  -0.5700 
  2 C       -1.9220     0.9670     1.6340 C.2   1 <1>   0.5440 
  3 N       -2.7190     0.1700     0.8470 N.am  1 <1>  -0.6600 
  4 C       -1.5720     2.3120     1.2160 C.ar  1 <1>   0.0860 
  5 C       -3.5600     0.6590    -0.2710 C.3   1 <1>   0.1400 
  6 C       -3.0890    -1.2210     1.2080 C.3   1 <1>   0.1400 
  7 C       -0.7120     2.5860     0.1400 C.ar  1 <1>  -0.1440 
  8 C       -2.1340     3.3840     1.9040 C.ar  1 <1>  -0.1500 
  9 C       -4.7640    -0.2810    -0.2660 C.3   1 <1>   0.2000 
 10 C       -4.2060    -1.6190     0.2270 C.3   1 <1>  -0.0800 
 11 C       -0.4750     3.9030    -0.2480 C.ar  1 <1>  -0.1440 
 12 C       -0.0290     1.4360    -0.6040 C.3   1 <1>  -0.0960 
 13 C       -1.8880     4.6890     1.5290 C.ar  1 <1>  -0.1500 
 14 O       -5.6690     0.1750     0.6770 O.3   1 <1>  -0.6800 
 15 C       -3.6740    -2.4580    -0.9520 C.3   1 <1>  -0.0170 
 16 C       -1.0640     4.9450     0.4510 C.ar  1 <1>  -0.1500 
 17 C        0.4270     4.2510    -1.4260 C.3   1 <1>  -0.0970 
 18 C       -3.2220    -3.8420    -0.5130 C.ar  1 <1>   0.1670 
 19 N       -1.9230    -4.0110    -0.3230 N.ar  1 <1>  -0.6200 
 20 C       -4.1620    -4.8560    -0.3350 C.ar  1 <1>   0.1600 
 21 C       -1.6310    -5.2430     0.0580 C.ar  1 <1>   0.1600 
 22 N       -3.8730    -6.0890     0.0450 N.ar  1 <1>  -0.6200 
 23 C       -2.5740    -6.2480     0.2360 C.ar  1 <1>   0.1600 
 24 H       -3.8550     1.6860    -0.1400 H     1 <1>   0.0800 
 25 H       -3.0120     0.5560    -1.1910 H     1 <1>   0.0800 
 26 H       -2.2270    -1.8620     1.1420 H     1 <1>   0.0800 
 27 H       -3.4540    -1.2360     2.2210 H     1 <1>   0.0800 
 28 H       -2.7740     3.1820     2.7450 H     1 <1>   0.1500 
 29 H       -5.2660    -0.3350    -1.2170 H     1 <1>   0.0800 
 30 H       -4.9690    -2.1860     0.7330 H     1 <1>   0.0800 
 31 H        0.9890     1.6860    -0.8390 H     1 <1>   0.0800 
 32 H       -0.5550     1.2260    -1.5170 H     1 <1>   0.0800 
 33 H        0.0030     0.5380    -0.0140 H     1 <1>   0.0800 
 34 H       -2.3350     5.5030     2.0730 H     1 <1>   0.1500 
 35 H       -5.1860     0.3510     1.5110 H     1 <1>   0.4000 
 36 H       -2.8520    -1.9520    -1.4280 H     1 <1>   0.0800 
 37 H       -4.4510    -2.5730    -1.6870 H     1 <1>   0.0800 
 38 H       -0.8820     5.9660     0.1640 H     1 <1>   0.1500 
 39 H        0.3430     5.2910    -1.6830 H     1 <1>   0.0800 
 40 H        0.1530     3.6720    -2.2900 H     1 <1>   0.0800 
 41 H        1.4520     4.0460    -1.1750 H     1 <1>   0.0800 
 42 H       -5.2000    -4.6370    -0.5130 H     1 <1>   0.1500 
 43 H       -0.5960    -5.4690     0.2380 H     1 <1>   0.1500 
 44 H       -2.2390    -7.2210     0.5480 H     1 <1>   0.1500 
@<TRIPOS>BOND
  1   1   2  2   
  2   2   3  am  
  3   2   4  1   
  4   3   5  1   
  5   3   6  1   
  6   4   7  ar  
  7   4   8  ar  
  8   5   9  1   
  9   5  24  1   
 10   5  25  1   
 11   6  10  1   
 12   6  26  1   
 13   6  27  1   
 14   7  11  ar  
 15   7  12  1   
 16   8  13  ar  
 17   8  28  1   
 18   9  10  1   
 19   9  14  1   
 20   9  29  1   
 21  10  15  1   
 22  10  30  1   
 23  11  16  ar  
 24  11  17  1   
 25  12  31  1   
 26  12  32  1   
 27  12  33  1   
 28  13  16  ar  
 29  13  34  1   
 30  14  35  1   
 31  15  18  1   
 32  15  36  1   
 33  15  37  1   
 34  16  38  1   
 35  17  39  1   
 36  17  40  1   
 37  17  41  1   
 38  18  19  ar  
 39  18  20  ar  
 40  19  21  ar  
 41  20  22  ar  
 42  20  42  1   
 43  21  23  ar  
 44  21  43  1   
 45  22  23  ar  
 46  23  44  1   
@<TRIPOS>SUBSTRUCTURE
  1 ****   3 GROUP 4 **** **** 0

# MOE 2024.06 (io_trps.svl 2023.06)
