@<TRIPOS>MOLECULE
NONAME
53 56 1 0 0 
SMALL
USER_CHARGES


@<TRIPOS>ATOM
  1 O       -0.3840     0.7240     1.3930 O.2   1 <1>  -0.5700 
  2 C       -1.4260     1.1270     0.9100 C.2   1 <1>   0.5440 
  3 N       -2.5190     0.2860     0.8840 N.am  1 <1>  -0.6600 
  4 C       -1.4870     2.4710     0.3680 C.ar  1 <1>   0.0860 
  5 C       -2.4740    -1.0220     1.6010 C.3   1 <1>   0.1400 
  6 C       -3.7050     0.5510     0.0160 C.3   1 <1>   0.1400 
  7 C       -0.6020     2.8810    -0.6250 C.ar  1 <1>  -0.1500 
  8 C       -2.4320     3.3950     0.8170 C.ar  1 <1>  -0.1500 
  9 C       -3.8830    -1.5070     1.9510 C.3   1 <1>  -0.1600 
 10 C       -4.3130    -0.7670    -0.4580 C.3   1 <1>  -0.1600 
 11 C       -0.6720     4.1540    -1.1580 C.ar  1 <1>   0.0820 
 12 C       -2.5030     4.6720     0.2870 C.ar  1 <1>  -0.1500 
 13 C       -4.8330    -1.5890     0.7360 C.3   1 <1>   0.4240 
 14 O        0.1920     4.5090    -2.1190 O.3   1 <1>  -0.5320 
 15 C       -1.6210     5.0570    -0.7070 C.ar  1 <1>  -0.1500 
 16 O       -6.0230    -0.9730     1.1720 O.3   1 <1>  -0.5600 
 17 C       -5.0640    -3.0630     0.3330 C.ar  1 <1>  -0.1430 
 18 C       -7.2150    -1.3220     0.5370 C.3   1 <1>   0.1200 
 19 C       -6.3270    -3.6360     0.3710 C.ar  1 <1>  -0.1430 
 20 C       -3.9970    -3.8520    -0.0780 C.ar  1 <1>  -0.1500 
 21 C       -7.5090    -2.7940     0.8060 C.3   1 <1>  -0.0170 
 22 C       -6.5110    -4.9640     0.0200 C.ar  1 <1>  -0.1500 
 23 C       -4.1620    -5.1770    -0.4450 C.ar  1 <1>   0.0820 
 24 C       -5.4390    -5.7560    -0.3830 C.ar  1 <1>   0.0820 
 25 O       -3.0140    -5.8010    -0.8380 O.3   1 <1>  -0.3620 
 26 O       -5.6120    -7.0740    -0.6980 O.3   1 <1>  -0.3620 
 27 C       -3.0290    -6.8720    -1.7550 C.3   1 <1>   0.0400 
 28 C       -6.8100    -7.7620    -0.4100 C.3   1 <1>   0.0400 
 29 H       -1.8990    -0.9170     2.5060 H     1 <1>   0.0800 
 30 H       -1.9740    -1.7420     0.9770 H     1 <1>   0.0800 
 31 H       -3.4120     1.1340    -0.8400 H     1 <1>   0.0800 
 32 H       -4.4380     1.1080     0.5760 H     1 <1>   0.0800 
 33 H        0.1480     2.1970    -0.9820 H     1 <1>   0.1500 
 34 H       -3.1150     3.1010     1.5950 H     1 <1>   0.1500 
 35 H       -4.2820    -0.8260     2.6820 H     1 <1>   0.0800 
 36 H       -3.8120    -2.4690     2.4230 H     1 <1>   0.0800 
 37 H       -3.5530    -1.3110    -0.9880 H     1 <1>   0.0800 
 38 H       -5.1030    -0.5780    -1.1580 H     1 <1>   0.0800 
 39 H       -3.2410     5.3660     0.6510 H     1 <1>   0.1500 
 40 H        0.0890     5.4320    -2.4110 H     1 <1>   0.4500 
 41 H       -1.6760     6.0480    -1.1190 H     1 <1>   0.1500 
 42 H       -7.1260    -1.1340    -0.5180 H     1 <1>   0.0800 
 43 H       -7.9970    -0.7030     0.9410 H     1 <1>   0.0800 
 44 H       -3.0050    -3.4450    -0.1240 H     1 <1>   0.1500 
 45 H       -8.3930    -3.0830     0.2660 H     1 <1>   0.0800 
 46 H       -7.6910    -2.9370     1.8560 H     1 <1>   0.0800 
 47 H       -7.5030    -5.3660     0.0690 H     1 <1>   0.1500 
 48 H       -2.0400    -6.9810    -2.1590 H     1 <1>   0.0800 
 49 H       -3.7290    -6.6520    -2.5410 H     1 <1>   0.0800 
 50 H       -3.3100    -7.7700    -1.2340 H     1 <1>   0.0800 
 51 H       -6.6620    -8.8000    -0.6470 H     1 <1>   0.0800 
 52 H       -7.6000    -7.3590    -1.0190 H     1 <1>   0.0800 
 53 H       -7.0320    -7.6540     0.6370 H     1 <1>   0.0800 
@<TRIPOS>BOND
  1   1   2  2   
  2   2   3  am  
  3   2   4  1   
  4   3   5  1   
  5   3   6  1   
  6   4   7  ar  
  7   4   8  ar  
  8   5   9  1   
  9   5  29  1   
 10   5  30  1   
 11   6  10  1   
 12   6  31  1   
 13   6  32  1   
 14   7  11  ar  
 15   7  33  1   
 16   8  12  ar  
 17   8  34  1   
 18   9  13  1   
 19   9  35  1   
 20   9  36  1   
 21  10  13  1   
 22  10  37  1   
 23  10  38  1   
 24  11  14  1   
 25  11  15  ar  
 26  12  15  ar  
 27  12  39  1   
 28  13  16  1   
 29  13  17  1   
 30  14  40  1   
 31  15  41  1   
 32  16  18  1   
 33  17  19  ar  
 34  17  20  ar  
 35  18  21  1   
 36  18  42  1   
 37  18  43  1   
 38  19  21  1   
 39  19  22  ar  
 40  20  23  ar  
 41  20  44  1   
 42  21  45  1   
 43  21  46  1   
 44  22  24  ar  
 45  22  47  1   
 46  23  24  ar  
 47  23  25  1   
 48  24  26  1   
 49  25  27  1   
 50  26  28  1   
 51  27  48  1   
 52  27  49  1   
 53  27  50  1   
 54  28  51  1   
 55  28  52  1   
 56  28  53  1   
@<TRIPOS>SUBSTRUCTURE
  1 ****  10 GROUP 4 **** **** 0

# MOE 2024.06 (io_trps.svl 2023.06)
