@<TRIPOS>MOLECULE
NONAME
45 47 1 0 0 
SMALL
USER_CHARGES


@<TRIPOS>ATOM
  1 O        1.9770     0.6350     1.0730 O.2   1 <1>  -0.5700 
  2 C        2.5140    -0.4460     0.9030 C.2   1 <1>   0.7160 
  3 N        3.8840    -0.4730     1.0000 N.am  1 <1>  -0.6600 
  4 C        1.7570    -1.6210     0.5400 C.2   1 <1>  -0.0860 
  5 C        4.5930     0.4260     1.9850 C.3   1 <1>   0.1400 
  6 C        4.7060    -1.0530    -0.1070 C.3   1 <1>   0.1400 
  7 C        0.5350    -1.7450    -0.0520 C.2   1 <1>  -0.0400 
  8 C        2.1700    -2.9560     0.7470 C.2   1 <1>  -0.1500 
  9 C        5.1250     1.7360     1.3480 C.3   1 <1>   0.4230 
 10 C        5.4410    -0.0070    -0.9850 C.3   1 <1>  -0.0800 
 11 O        0.2180    -3.0050    -0.2170 O.3   1 <1>  -0.2800 
 12 C       -0.4650    -0.7100    -0.5290 C.3   1 <1>  -0.0600 
 13 C        1.1920    -3.7430     0.2620 C.2   1 <1>  -0.0400 
 14 N        4.3050     2.0260     0.1140 N.4   1 <1>  -0.9590 
 15 C        6.6630     1.6700     1.1490 C.3   1 <1>   0.1200 
 16 C        6.9250     0.1420    -0.6200 C.3   1 <1>   0.1200 
 17 C        4.7830     1.3780    -1.1470 C.3   1 <1>   0.3430 
 18 C        1.0580    -5.2480     0.2010 C.3   1 <1>  -0.0600 
 19 C        4.1490     3.5260    -0.0970 C.3   1 <1>   0.2370 
 20 O        7.0860     0.4030     0.7310 O.3   1 <1>  -0.5600 
 21 C        5.4630     4.2840    -0.2850 C.2   1 <1>   0.9060 
 22 O        6.0100     4.7360     0.7240 O.co2 1 <1>  -0.9000 
 23 O        5.9960     4.2520    -1.3970 O.co2 1 <1>  -0.9000 
 24 H        3.9030     0.6960     2.7660 H     1 <1>   0.0800 
 25 H        5.3920    -0.1170     2.4590 H     1 <1>   0.0800 
 26 H        5.4220    -1.7390     0.3160 H     1 <1>   0.0800 
 27 H        4.0630    -1.6290    -0.7500 H     1 <1>   0.0800 
 28 H        3.0930    -3.2520     1.2130 H     1 <1>   0.1500 
 29 H        4.9530     2.5340     2.0510 H     1 <1>   0.0800 
 30 H        5.4610    -0.4200    -1.9770 H     1 <1>   0.0800 
 31 H       -0.1060     0.2870    -0.3610 H     1 <1>   0.0800 
 32 H       -1.3910    -0.8380     0.0020 H     1 <1>   0.0800 
 33 H       -0.6480    -0.8420    -1.5790 H     1 <1>   0.0800 
 34 H        3.3750     1.6240     0.3350 H     1 <1>   0.4500 
 35 H        7.1330     1.8470     2.1000 H     1 <1>   0.0800 
 36 H        7.0300     2.4180     0.4680 H     1 <1>   0.0800 
 37 H        7.4010     0.9270    -1.1880 H     1 <1>   0.0800 
 38 H        7.4450    -0.7790    -0.8220 H     1 <1>   0.0800 
 39 H        3.9450     1.2870    -1.8170 H     1 <1>   0.0800 
 40 H        5.4980     2.0290    -1.6270 H     1 <1>   0.0800 
 41 H        1.9220    -5.7180     0.6320 H     1 <1>   0.0800 
 42 H        0.9600    -5.5610    -0.8230 H     1 <1>   0.0800 
 43 H        0.1830    -5.5550     0.7440 H     1 <1>   0.0800 
 44 H        3.5460     3.7110    -0.9670 H     1 <1>   0.0800 
 45 H        3.6560     3.9600     0.7530 H     1 <1>   0.0800 
@<TRIPOS>BOND
  1   1   2  2   
  2   2   3  am  
  3   2   4  1   
  4   3   5  1   
  5   3   6  1   
  6   4   7  2   
  7   4   8  1   
  8   5   9  1   
  9   5  24  1   
 10   5  25  1   
 11   6  10  1   
 12   6  26  1   
 13   6  27  1   
 14   7  11  1   
 15   7  12  1   
 16   8  13  2   
 17   8  28  1   
 18   9  14  1   
 19   9  15  1   
 20   9  29  1   
 21  10  16  1   
 22  10  17  1   
 23  10  30  1   
 24  11  13  1   
 25  12  31  1   
 26  12  32  1   
 27  12  33  1   
 28  13  18  1   
 29  14  17  1   
 30  14  19  1   
 31  14  34  1   
 32  15  20  1   
 33  15  35  1   
 34  15  36  1   
 35  16  20  1   
 36  16  37  1   
 37  16  38  1   
 38  17  39  1   
 39  17  40  1   
 40  18  41  1   
 41  18  42  1   
 42  18  43  1   
 43  19  21  1   
 44  19  44  1   
 45  19  45  1   
 46  21  22  ar  
 47  21  23  ar  
@<TRIPOS>SUBSTRUCTURE
  1 ****   3 GROUP 4 **** **** 0

# MOE 2024.06 (io_trps.svl 2023.06)
