@<TRIPOS>MOLECULE
NONAME
41 43 1 0 0 
SMALL
USER_CHARGES


@<TRIPOS>ATOM
  1 CL      -1.2740    -0.6140    -1.5620 Cl    1 <1>  -0.1770 
  2 C       -2.1780     0.4900    -0.5550 C.ar  1 <1>   0.1770 
  3 C       -3.0190    -0.0110     0.4300 C.ar  1 <1>  -0.1440 
  4 C       -2.0420     1.8480    -0.7720 C.ar  1 <1>  -0.1500 
  5 C       -3.7390     0.8800     1.2170 C.ar  1 <1>  -0.1500 
  6 C       -3.1440    -1.5070     0.6510 C.3   1 <1>   0.4870 
  7 C       -2.7690     2.7140     0.0200 C.ar  1 <1>   0.1770 
  8 C       -3.6140     2.2450     1.0100 C.ar  1 <1>  -0.1500 
  9 N       -3.8550    -2.1310    -0.5010 N.4   1 <1>  -0.9590 
 10 CL      -2.6200     4.4320    -0.2340 Cl    1 <1>  -0.1770 
 11 C       -5.2650    -1.6310    -0.6090 C.3   1 <1>   0.3430 
 12 C       -3.9400    -3.6140    -0.3200 C.3   1 <1>   0.3430 
 13 C       -6.1240    -2.6650     0.1220 C.3   1 <1>   0.2000 
 14 C       -5.4290    -3.9730    -0.2520 C.3   1 <1>  -0.0800 
 15 O       -6.0080    -2.4420     1.4930 O.3   1 <1>  -0.6800 
 16 C       -5.7180    -5.1940     0.6440 C.3   1 <1>   0.0200 
 17 C       -4.8100    -6.3480     0.2670 C.2   1 <1>  -0.0400 
 18 O       -4.6700    -6.6800    -0.9880 O.3   1 <1>  -0.0190 
 19 C       -4.0350    -7.1630     0.9980 C.2   1 <1>  -0.1500 
 20 N       -3.8310    -7.6590    -1.1390 N.2   1 <1>  -0.4100 
 21 C       -3.4380    -7.9800     0.0420 C.2   1 <1>   0.1080 
 22 C       -2.4610    -9.0970     0.3390 C.3   1 <1>  -0.0590 
 23 H       -1.3870     2.2260    -1.5370 H     1 <1>   0.1500 
 24 H       -4.3970     0.5260     1.9950 H     1 <1>   0.1500 
 25 H       -3.6870    -1.6950     1.5640 H     1 <1>   0.0800 
 26 H       -2.1590    -1.9340     0.7490 H     1 <1>   0.0800 
 27 H       -4.1640     2.9490     1.6120 H     1 <1>   0.1500 
 28 H       -3.3230    -1.8970    -1.3520 H     1 <1>   0.4500 
 29 H       -5.3910    -0.6480    -0.1870 H     1 <1>   0.0800 
 30 H       -5.5550    -1.6070    -1.6470 H     1 <1>   0.0800 
 31 H       -3.4640    -4.1370    -1.1350 H     1 <1>   0.0800 
 32 H       -3.4590    -3.9030     0.6010 H     1 <1>   0.0800 
 33 H       -7.1620    -2.6180    -0.1610 H     1 <1>   0.0800 
 34 H       -5.7320    -4.2270    -1.2540 H     1 <1>   0.0800 
 35 H       -6.7550    -2.8520     1.9820 H     1 <1>   0.4000 
 36 H       -6.7430    -5.5000     0.5220 H     1 <1>   0.0800 
 37 H       -5.5580    -4.9640     1.6830 H     1 <1>   0.0800 
 38 H       -3.8800    -7.2120     2.0610 H     1 <1>   0.1500 
 39 H       -1.6090    -8.7100     0.8660 H     1 <1>   0.0800 
 40 H       -2.1270    -9.5470    -0.5790 H     1 <1>   0.0800 
 41 H       -2.9380    -9.8500     0.9390 H     1 <1>   0.0800 
@<TRIPOS>BOND
  1   1   2  1   
  2   2   3  ar  
  3   2   4  ar  
  4   3   5  ar  
  5   3   6  1   
  6   4   7  ar  
  7   4  23  1   
  8   5   8  ar  
  9   5  24  1   
 10   6   9  1   
 11   6  25  1   
 12   6  26  1   
 13   7   8  ar  
 14   7  10  1   
 15   8  27  1   
 16   9  11  1   
 17   9  12  1   
 18   9  28  1   
 19  11  13  1   
 20  11  29  1   
 21  11  30  1   
 22  12  14  1   
 23  12  31  1   
 24  12  32  1   
 25  13  14  1   
 26  13  15  1   
 27  13  33  1   
 28  14  16  1   
 29  14  34  1   
 30  15  35  1   
 31  16  17  1   
 32  16  36  1   
 33  16  37  1   
 34  17  18  1   
 35  17  19  2   
 36  18  20  1   
 37  19  21  1   
 38  19  38  1   
 39  20  21  2   
 40  21  22  1   
 41  22  39  1   
 42  22  40  1   
 43  22  41  1   
@<TRIPOS>SUBSTRUCTURE
  1 ****   9 GROUP 4 **** **** 0

# MOE 2024.06 (io_trps.svl 2023.06)
