@<TRIPOS>MOLECULE
NONAME
47 48 1 0 0 
SMALL
USER_CHARGES


@<TRIPOS>ATOM
  1 S        0.7410     0.3450     0.1650 S.o2  1 <1>   1.3330 
  2 O       -0.4590     1.1200     0.3860 O.2   1 <1>  -0.6500 
  3 O        0.6550    -0.9280    -0.5150 O.2   1 <1>  -0.6500 
  4 N        1.4440     0.0740     1.6890 N.am  1 <1>  -0.8490 
  5 C        1.9550     1.3550    -0.6860 C.3   1 <1>  -0.0550 
  6 C        0.9440    -1.1530     2.3140 C.3   1 <1>   0.1160 
  7 C        1.2770     1.2030     2.6120 C.3   1 <1>   0.1160 
  8 C        3.2100     0.5850    -1.1510 C.3   1 <1>  -0.0800 
  9 C        4.2220     1.4130    -1.9300 C.3   1 <1>   0.2200 
 10 C        4.0620    -0.0170    -0.0270 C.3   1 <1>   0.1200 
 11 N        4.4340     2.7260    -1.2820 N.am  1 <1>  -0.7300 
 12 C        5.4750     0.5700    -1.7370 C.3   1 <1>   0.1200 
 13 O        5.3980     0.0940    -0.4270 O.3   1 <1>  -0.5600 
 14 C        3.8180     3.9000    -1.6010 C.2   1 <1>   0.5440 
 15 O        3.0690     3.8940    -2.5590 O.2   1 <1>  -0.5700 
 16 C        4.0320     5.1170    -0.8410 C.ar  1 <1>   0.0860 
 17 C        4.4110     5.1330     0.5130 C.ar  1 <1>   0.3930 
 18 C        3.8590     6.3520    -1.4570 C.ar  1 <1>  -0.1500 
 19 O        4.5660     3.9550     1.1570 O.3   1 <1>  -0.3630 
 20 N        4.6300     6.2350     1.2300 N.ar  1 <1>  -0.6200 
 21 C        4.0780     7.4950    -0.7220 C.ar  1 <1>  -0.1500 
 22 C        5.0480     3.8750     2.4820 C.3   1 <1>   0.1200 
 23 C        4.4590     7.3820     0.6010 C.ar  1 <1>   0.1600 
 24 C        5.1710     2.3990     2.8520 C.3   1 <1>  -0.2400 
 25 H        1.4910     1.7820    -1.5550 H     1 <1>   0.0800 
 26 H        2.2390     2.1680    -0.0480 H     1 <1>   0.0800 
 27 H        1.4150    -1.3050     3.2710 H     1 <1>   0.0800 
 28 H        1.1680    -2.0030     1.6920 H     1 <1>   0.0800 
 29 H       -0.1240    -1.0960     2.4480 H     1 <1>   0.0800 
 30 H        1.8080     1.0130     3.5280 H     1 <1>   0.0800 
 31 H        0.2330     1.3550     2.8370 H     1 <1>   0.0800 
 32 H        1.6680     2.1050     2.1740 H     1 <1>   0.0800 
 33 H        2.8920    -0.2260    -1.7830 H     1 <1>   0.0800 
 34 H        3.9600     1.5360    -2.9680 H     1 <1>   0.0800 
 35 H        3.8280    -1.0540     0.1420 H     1 <1>   0.0800 
 36 H        3.9540     0.5340     0.8900 H     1 <1>   0.0800 
 37 H        4.9550     2.6740    -0.3980 H     1 <1>   0.3700 
 38 H        6.3820     1.1340    -1.8680 H     1 <1>   0.0800 
 39 H        5.4700    -0.2790    -2.3980 H     1 <1>   0.0800 
 40 H        3.5590     6.4070    -2.4900 H     1 <1>   0.1500 
 41 H        3.9550     8.4660    -1.1690 H     1 <1>   0.1500 
 42 H        6.0080     4.3620     2.5260 H     1 <1>   0.0800 
 43 H        4.3530     4.3820     3.1300 H     1 <1>   0.0800 
 44 H        4.6310     8.2820     1.1680 H     1 <1>   0.1500 
 45 H        5.8420     1.9000     2.1750 H     1 <1>   0.0800 
 46 H        4.2080     1.9250     2.8210 H     1 <1>   0.0800 
 47 H        5.5640     2.3080     3.8490 H     1 <1>   0.0800 
@<TRIPOS>BOND
  1   1   2  2   
  2   1   3  2   
  3   1   4  am  
  4   1   5  1   
  5   4   6  1   
  6   4   7  1   
  7   5   8  1   
  8   5  25  1   
  9   5  26  1   
 10   6  27  1   
 11   6  28  1   
 12   6  29  1   
 13   7  30  1   
 14   7  31  1   
 15   7  32  1   
 16   8   9  1   
 17   8  10  1   
 18   8  33  1   
 19   9  11  1   
 20   9  12  1   
 21   9  34  1   
 22  10  13  1   
 23  10  35  1   
 24  10  36  1   
 25  11  14  am  
 26  11  37  1   
 27  12  13  1   
 28  12  38  1   
 29  12  39  1   
 30  14  15  2   
 31  14  16  1   
 32  16  17  ar  
 33  16  18  ar  
 34  17  19  1   
 35  17  20  ar  
 36  18  21  ar  
 37  18  40  1   
 38  19  22  1   
 39  20  23  ar  
 40  21  23  ar  
 41  21  41  1   
 42  22  24  1   
 43  22  42  1   
 44  22  43  1   
 45  23  44  1   
 46  24  45  1   
 47  24  46  1   
 48  24  47  1   
@<TRIPOS>SUBSTRUCTURE
  1 ****  11 GROUP 4 **** **** 0

# MOE 2024.06 (io_trps.svl 2023.06)
