@<TRIPOS>MOLECULE
NONAME
45 46 1 0 0 
SMALL
USER_CHARGES


@<TRIPOS>ATOM
  1 S       -0.0470     0.4680    -0.8680 S.o2  1 <1>   1.3330 
  2 O       -0.0670     1.3480    -2.0160 O.2   1 <1>  -0.6500 
  3 O       -0.5740    -0.8700    -1.0090 O.2   1 <1>  -0.6500 
  4 N        1.5470     0.3350    -0.2940 N.am  1 <1>  -0.8490 
  5 C       -0.9260     1.2370     0.5030 C.3   1 <1>  -0.0550 
  6 C        2.5400     1.0070    -1.1400 C.3   1 <1>   0.1160 
  7 C        1.9670    -1.0380     0.0040 C.3   1 <1>   0.1160 
  8 C       -0.7390     2.7490     0.7770 C.3   1 <1>  -0.0800 
  9 C       -1.1180     3.6530    -0.4080 C.3   1 <1>   0.2000 
 10 C        0.6730     3.1830     1.2070 C.3   1 <1>   0.2090 
 11 O       -1.9490     4.6530     0.0750 O.3   1 <1>  -0.6800 
 12 C        0.1910     4.2980    -0.8590 C.3   1 <1>   0.2090 
 13 N        1.0010     4.3730     0.3810 N.pl3 1 <1>  -0.8380 
 14 C        2.2940     4.8640     0.3090 C.ar  1 <1>   0.4100 
 15 N        3.2550     3.9500     0.2270 N.ar  1 <1>  -0.6200 
 16 C        2.5360     6.2460     0.3210 C.ar  1 <1>   0.0730 
 17 C        4.4920     4.3960     0.1530 C.ar  1 <1>   0.1670 
 18 C        1.4330     7.1540     0.4290 C.1   1 <1>   0.4840 
 19 C        3.8450     6.6970     0.2380 C.ar  1 <1>  -0.1440 
 20 C        4.8330     5.7360     0.1530 C.ar  1 <1>  -0.1500 
 21 C        5.5700     3.3370     0.0650 C.3   1 <1>  -0.0970 
 22 N        0.5700     7.8990     0.5020 N.1   1 <1>  -0.5570 
 23 C        4.2090     8.1770     0.2410 C.3   1 <1>  -0.0970 
 24 H       -1.9740     1.0830     0.3320 H     1 <1>   0.0800 
 25 H       -0.6840     0.6990     1.3990 H     1 <1>   0.0800 
 26 H        3.5080     0.9790    -0.6720 H     1 <1>   0.0800 
 27 H        2.2690     2.0380    -1.2820 H     1 <1>   0.0800 
 28 H        2.5940     0.5300    -2.1050 H     1 <1>   0.0800 
 29 H        2.9520    -1.0400     0.4380 H     1 <1>   0.0800 
 30 H        1.9760    -1.6300    -0.8960 H     1 <1>   0.0800 
 31 H        1.2850    -1.4880     0.7060 H     1 <1>   0.0800 
 32 H       -1.3950     2.9710     1.6020 H     1 <1>   0.0800 
 33 H       -1.6350     3.1480    -1.2060 H     1 <1>   0.0800 
 34 H        1.4000     2.4090     1.0510 H     1 <1>   0.0800 
 35 H        0.6870     3.4550     2.2480 H     1 <1>   0.0800 
 36 H       -1.4080     5.2660     0.6170 H     1 <1>   0.4000 
 37 H        0.0250     5.2690    -1.2920 H     1 <1>   0.0800 
 38 H        0.6940     3.6730    -1.5750 H     1 <1>   0.0800 
 39 H        5.8660     6.0260     0.0880 H     1 <1>   0.1500 
 40 H        6.5500     3.7770     0.0790 H     1 <1>   0.0800 
 41 H        5.4520     2.7800    -0.8460 H     1 <1>   0.0800 
 42 H        5.4810     2.6630     0.8970 H     1 <1>   0.0800 
 43 H        5.2720     8.3140     0.1610 H     1 <1>   0.0800 
 44 H        3.8760     8.6380     1.1540 H     1 <1>   0.0800 
 45 H        3.7400     8.6760    -0.5900 H     1 <1>   0.0800 
@<TRIPOS>BOND
  1   1   2  2   
  2   1   3  2   
  3   1   4  am  
  4   1   5  1   
  5   4   6  1   
  6   4   7  1   
  7   5   8  1   
  8   5  24  1   
  9   5  25  1   
 10   6  26  1   
 11   6  27  1   
 12   6  28  1   
 13   7  29  1   
 14   7  30  1   
 15   7  31  1   
 16   8   9  1   
 17   8  10  1   
 18   8  32  1   
 19   9  11  1   
 20   9  12  1   
 21   9  33  1   
 22  10  13  1   
 23  10  34  1   
 24  10  35  1   
 25  11  36  1   
 26  12  13  1   
 27  12  37  1   
 28  12  38  1   
 29  13  14  1   
 30  14  15  ar  
 31  14  16  ar  
 32  15  17  ar  
 33  16  18  1   
 34  16  19  ar  
 35  17  20  ar  
 36  17  21  1   
 37  18  22  3   
 38  19  20  ar  
 39  19  23  1   
 40  20  39  1   
 41  21  40  1   
 42  21  41  1   
 43  21  42  1   
 44  23  43  1   
 45  23  44  1   
 46  23  45  1   
@<TRIPOS>SUBSTRUCTURE
  1 ****  13 GROUP 4 **** **** 0

# MOE 2024.06 (io_trps.svl 2023.06)
