@<TRIPOS>MOLECULE
NONAME
57 59 1 0 0 
SMALL
USER_CHARGES


@<TRIPOS>ATOM
  1 O       -2.2830     0.0490     2.1480 O.2   1 <1>  -0.5700 
  2 C       -2.3600     0.6120     1.0730 C.2   1 <1>   0.5440 
  3 N       -2.9290    -0.0560     0.0140 N.am  1 <1>  -0.6600 
  4 C       -1.8870     1.9780     0.9300 C.ar  1 <1>   0.0860 
  5 C       -2.8540    -1.5570    -0.0130 C.3   1 <1>   0.3640 
  6 C       -4.0290     0.6010    -0.7470 C.3   1 <1>   0.1400 
  7 C       -2.0270     2.9030     1.9610 C.ar  1 <1>  -0.1500 
  8 C       -1.2720     2.4140    -0.2410 C.ar  1 <1>  -0.1500 
  9 C       -1.3750    -1.9470    -0.1190 C.ar  1 <1>  -0.1430 
 10 C       -3.6430    -2.2440    -1.1720 C.3   1 <1>   0.2000 
 11 C       -4.4150    -0.1900    -1.9970 C.3   1 <1>   0.1200 
 12 C       -1.5950     4.2110     1.8300 C.ar  1 <1>   0.0830 
 13 C       -0.8370     3.7170    -0.3950 C.ar  1 <1>   0.0830 
 14 C       -0.8010    -2.7630     0.8460 C.ar  1 <1>  -0.1500 
 15 C       -0.5900    -1.4950    -1.1730 C.ar  1 <1>  -0.1500 
 16 O       -4.7360    -1.4920    -1.6300 O.3   1 <1>  -0.5600 
 17 C       -4.2020    -3.6210    -0.7790 C.3   1 <1>   0.1200 
 18 O       -1.7900     5.0230     2.8990 O.3   1 <1>  -0.3630 
 19 C       -0.9990     4.6260     0.6440 C.ar  1 <1>  -0.1500 
 20 O       -0.2670     4.0250    -1.5870 O.3   1 <1>  -0.3630 
 21 C        0.5280    -3.1400     0.7580 C.ar  1 <1>   0.0830 
 22 C        0.7450    -1.8520    -1.2610 C.ar  1 <1>  -0.1500 
 23 O       -3.2110    -4.4640    -0.2860 O.3   1 <1>  -0.6800 
 24 C       -1.3270     6.3550     2.9130 C.3   1 <1>   0.0400 
 25 C        0.2830     5.3010    -1.8340 C.3   1 <1>   0.0400 
 26 O        1.0110    -3.9730     1.7110 O.3   1 <1>  -0.3630 
 27 C        1.3160    -2.6620    -0.2940 C.ar  1 <1>   0.0830 
 28 C        1.3160    -5.2830     1.2900 C.3   1 <1>   0.0400 
 29 O        2.6350    -2.9500    -0.4180 O.3   1 <1>  -0.3630 
 30 C        3.4790    -2.4370     0.5890 C.3   1 <1>   0.0400 
 31 H       -3.2480    -1.9240     0.9200 H     1 <1>   0.0800 
 32 H       -4.8920     0.6830    -0.1080 H     1 <1>   0.0800 
 33 H       -3.7370     1.5940    -1.0360 H     1 <1>   0.0800 
 34 H       -2.4820     2.5930     2.8860 H     1 <1>   0.1500 
 35 H       -1.1240     1.7210    -1.0490 H     1 <1>   0.1500 
 36 H       -2.9910    -2.3780    -2.0170 H     1 <1>   0.0800 
 37 H       -3.6110    -0.2060    -2.7130 H     1 <1>   0.0800 
 38 H       -5.2840     0.2460    -2.4560 H     1 <1>   0.0800 
 39 H       -1.3860    -3.1180     1.6760 H     1 <1>   0.1500 
 40 H       -1.0140    -0.8540    -1.9250 H     1 <1>   0.1500 
 41 H       -4.6470    -4.0970    -1.6350 H     1 <1>   0.0800 
 42 H       -4.9450    -3.5110    -0.0070 H     1 <1>   0.0800 
 43 H       -0.6670     5.6370     0.5330 H     1 <1>   0.1500 
 44 H        1.3530    -1.4970    -2.0730 H     1 <1>   0.1500 
 45 H       -2.4580    -4.5330    -0.9080 H     1 <1>   0.4000 
 46 H       -1.5690     6.7820     3.8690 H     1 <1>   0.0800 
 47 H       -1.8210     6.9060     2.1320 H     1 <1>   0.0800 
 48 H       -0.2600     6.3550     2.7730 H     1 <1>   0.0800 
 49 H        0.7010     5.2980    -2.8250 H     1 <1>   0.0800 
 50 H        1.0560     5.4940    -1.1120 H     1 <1>   0.0800 
 51 H       -0.4990     6.0370    -1.7700 H     1 <1>   0.0800 
 52 H        1.6280    -5.8480     2.1480 H     1 <1>   0.0800 
 53 H        2.1080    -5.2470     0.5640 H     1 <1>   0.0800 
 54 H        0.4330    -5.7220     0.8600 H     1 <1>   0.0800 
 55 H        4.4980    -2.6130     0.2970 H     1 <1>   0.0800 
 56 H        3.2720    -2.9370     1.5180 H     1 <1>   0.0800 
 57 H        3.3000    -1.3800     0.6880 H     1 <1>   0.0800 
@<TRIPOS>BOND
  1   1   2  2   
  2   2   3  am  
  3   2   4  1   
  4   3   5  1   
  5   3   6  1   
  6   4   7  ar  
  7   4   8  ar  
  8   5   9  1   
  9   5  10  1   
 10   5  31  1   
 11   6  11  1   
 12   6  32  1   
 13   6  33  1   
 14   7  12  ar  
 15   7  34  1   
 16   8  13  ar  
 17   8  35  1   
 18   9  14  ar  
 19   9  15  ar  
 20  10  16  1   
 21  10  17  1   
 22  10  36  1   
 23  11  16  1   
 24  11  37  1   
 25  11  38  1   
 26  12  18  1   
 27  12  19  ar  
 28  13  19  ar  
 29  13  20  1   
 30  14  21  ar  
 31  14  39  1   
 32  15  22  ar  
 33  15  40  1   
 34  17  23  1   
 35  17  41  1   
 36  17  42  1   
 37  18  24  1   
 38  19  43  1   
 39  20  25  1   
 40  21  26  1   
 41  21  27  ar  
 42  22  27  ar  
 43  22  44  1   
 44  23  45  1   
 45  24  46  1   
 46  24  47  1   
 47  24  48  1   
 48  25  49  1   
 49  25  50  1   
 50  25  51  1   
 51  26  28  1   
 52  27  29  1   
 53  28  52  1   
 54  28  53  1   
 55  28  54  1   
 56  29  30  1   
 57  30  55  1   
 58  30  56  1   
 59  30  57  1   
@<TRIPOS>SUBSTRUCTURE
  1 ****   2 GROUP 4 **** **** 0

# MOE 2024.06 (io_trps.svl 2023.06)
