@<TRIPOS>MOLECULE
NONAME
56 58 1 0 0 
SMALL
USER_CHARGES


@<TRIPOS>ATOM
  1 O        0.0390    -0.0230     0.9910 O.2   1 <1>  -0.5700 
  2 C        1.1130    -0.5690     1.1710 C.2   1 <1>   0.7150 
  3 N        2.2220     0.2060     1.3010 N.am  1 <1>  -0.7300 
  4 C        1.2200    -2.0100     1.2320 C.2   1 <1>   0.0550 
  5 C        2.3050     1.6510     1.0340 C.3   1 <1>   0.3640 
  6 O        0.1280    -2.7680     1.2270 O.3   1 <1>  -0.2800 
  7 C        2.3030    -2.8370     1.2940 C.2   1 <1>  -0.1500 
  8 C        3.5290     1.9070     0.1430 C.ar  1 <1>   0.1660 
  9 C        2.4010     2.3820     2.3820 C.3   1 <1>  -0.1600 
 10 C        0.4700    -4.0340     1.2730 C.2   1 <1>  -0.0400 
 11 C        1.8160    -4.1450     1.3180 C.2   1 <1>  -0.1500 
 12 N        4.6490     1.2410     0.4270 N.ar  1 <1>  -0.6200 
 13 C        3.4160     2.8040    -0.9100 C.ar  1 <1>  -0.1500 
 14 C        2.4080     3.9120     2.2400 C.3   1 <1>  -0.2400 
 15 C       -0.6240    -5.0890     1.2640 C.3   1 <1>   0.5230 
 16 C        5.6800     1.4930    -0.3630 C.ar  1 <1>   0.1600 
 17 C        4.4970     3.0540    -1.7280 C.ar  1 <1>  -0.1430 
 18 N       -1.4770    -4.9110     0.0540 N.4   1 <1>  -0.9590 
 19 C        5.6580     2.3720    -1.4320 C.ar  1 <1>  -0.1500 
 20 C        4.4120     4.0300    -2.8870 C.3   1 <1>  -0.0970 
 21 C       -2.4850    -3.8230     0.2480 C.3   1 <1>   0.3430 
 22 C       -2.1080    -6.1870    -0.3800 C.3   1 <1>   0.3430 
 23 C       -3.2280    -3.5720    -1.0640 C.3   1 <1>  -0.1600 
 24 C       -2.8430    -5.9750    -1.7030 C.3   1 <1>  -0.1600 
 25 C       -3.8850    -4.8520    -1.6000 C.3   1 <1>  -0.0800 
 26 C       -4.5370    -4.5930    -2.9620 C.3   1 <1>  -0.2400 
 27 H        3.1560    -0.2110     1.2960 H     1 <1>   0.3700 
 28 H        1.4140     1.9730     0.5210 H     1 <1>   0.0800 
 29 H        3.3430    -2.5610     1.3180 H     1 <1>   0.1500 
 30 H        3.2990     2.0740     2.8870 H     1 <1>   0.0800 
 31 H        1.5570     2.0990     2.9860 H     1 <1>   0.0800 
 32 H        2.4310    -5.0290     1.3640 H     1 <1>   0.1500 
 33 H        2.4830     3.3080    -1.0890 H     1 <1>   0.1500 
 34 H        3.2770     4.2400     1.6960 H     1 <1>   0.0800 
 35 H        2.4300     4.3680     3.2140 H     1 <1>   0.0800 
 36 H        1.5240     4.2490     1.7260 H     1 <1>   0.0800 
 37 H       -1.2200    -5.0050     2.1570 H     1 <1>   0.0800 
 38 H       -0.1610    -6.0620     1.2510 H     1 <1>   0.0800 
 39 H        6.5960     0.9700    -0.1490 H     1 <1>   0.1500 
 40 H       -0.8470    -4.5860    -0.6910 H     1 <1>   0.4500 
 41 H        6.5450     2.5160    -2.0210 H     1 <1>   0.1500 
 42 H        3.4400     3.9830    -3.3440 H     1 <1>   0.0800 
 43 H        5.1490     3.7940    -3.6340 H     1 <1>   0.0800 
 44 H        4.5840     5.0310    -2.5350 H     1 <1>   0.0800 
 45 H       -2.0040    -2.9090     0.5580 H     1 <1>   0.0800 
 46 H       -3.1900    -4.1080     1.0120 H     1 <1>   0.0800 
 47 H       -2.8090    -6.5220     0.3690 H     1 <1>   0.0800 
 48 H       -1.3560    -6.9490    -0.5080 H     1 <1>   0.0800 
 49 H       -2.5390    -3.1710    -1.7870 H     1 <1>   0.0800 
 50 H       -3.9840    -2.8250    -0.8940 H     1 <1>   0.0800 
 51 H       -3.3340    -6.8930    -1.9800 H     1 <1>   0.0800 
 52 H       -2.1270    -5.7490    -2.4750 H     1 <1>   0.0800 
 53 H       -4.6570    -5.1580    -0.9120 H     1 <1>   0.0800 
 54 H       -3.8050    -4.2800    -3.6880 H     1 <1>   0.0800 
 55 H       -5.2840    -3.8230    -2.8800 H     1 <1>   0.0800 
 56 H       -5.0160    -5.4850    -3.3260 H     1 <1>   0.0800 
@<TRIPOS>BOND
  1   1   2  2   
  2   2   3  am  
  3   2   4  1   
  4   3   5  1   
  5   3  27  1   
  6   4   6  1   
  7   4   7  2   
  8   5   8  1   
  9   5   9  1   
 10   5  28  1   
 11   6  10  1   
 12   7  11  1   
 13   7  29  1   
 14   8  12  ar  
 15   8  13  ar  
 16   9  14  1   
 17   9  30  1   
 18   9  31  1   
 19  10  11  2   
 20  10  15  1   
 21  11  32  1   
 22  12  16  ar  
 23  13  17  ar  
 24  13  33  1   
 25  14  34  1   
 26  14  35  1   
 27  14  36  1   
 28  15  18  1   
 29  15  37  1   
 30  15  38  1   
 31  16  19  ar  
 32  16  39  1   
 33  17  19  ar  
 34  17  20  1   
 35  18  21  1   
 36  18  22  1   
 37  18  40  1   
 38  19  41  1   
 39  20  42  1   
 40  20  43  1   
 41  20  44  1   
 42  21  23  1   
 43  21  45  1   
 44  21  46  1   
 45  22  24  1   
 46  22  47  1   
 47  22  48  1   
 48  23  25  1   
 49  23  49  1   
 50  23  50  1   
 51  24  25  1   
 52  24  51  1   
 53  24  52  1   
 54  25  26  1   
 55  25  53  1   
 56  26  54  1   
 57  26  55  1   
 58  26  56  1   
@<TRIPOS>SUBSTRUCTURE
  1 ****   2 GROUP 4 **** **** 0

# MOE 2024.06 (io_trps.svl 2023.06)
