@<TRIPOS>MOLECULE
NONAME
50 53 1 0 0 
SMALL
USER_CHARGES


@<TRIPOS>ATOM
  1 O        0.9310    -1.0170     1.7930 O.3   1 <1>  -0.0190 
  2 N       -0.1060    -1.6670     1.3620 N.2   1 <1>  -0.4100 
  3 C        1.9040    -1.0090     0.9240 C.2   1 <1>  -0.0400 
  4 C        0.1910    -2.1030     0.1700 C.2   1 <1>   0.2350 
  5 C        1.4930    -1.6950    -0.1500 C.2   1 <1>  -0.1500 
  6 C        3.2130    -0.3090     1.2470 C.3   1 <1>   0.2900 
  7 C       -0.6750    -2.8880    -0.6950 C.ar  1 <1>   0.3640 
  8 N        3.2310     1.0940     0.7890 N.3   1 <1>  -0.8100 
  9 N       -0.1830    -3.3280    -1.8620 N.ar  1 <1>  -0.6200 
 10 C       -1.9860    -3.1720    -0.3030 C.ar  1 <1>  -0.1500 
 11 C        4.5650     1.6900     0.9920 C.3   1 <1>   0.2900 
 12 C        2.1640     1.9040     1.4040 C.3   1 <1>   0.0300 
 13 C       -0.9950    -4.0390    -2.6240 C.ar  1 <1>   0.1600 
 14 C       -2.8220    -3.9150    -1.1060 C.ar  1 <1>  -0.1500 
 15 C        4.6930     3.0560     0.3390 C.2   1 <1>  -0.0400 
 16 C       -2.3010    -4.3580    -2.3020 C.ar  1 <1>  -0.1500 
 17 O        4.6790     3.1670    -0.9620 O.3   1 <1>  -0.0190 
 18 C        4.8420     4.2860     0.8560 C.2   1 <1>  -0.1500 
 19 N        4.8130     4.4060    -1.3440 N.2   1 <1>  -0.4100 
 20 C        4.9100     5.1070    -0.2680 C.2   1 <1>   0.1080 
 21 C        5.0760     6.6210    -0.2210 C.3   1 <1>   0.1010 
 22 C        3.8560     7.3270    -0.8390 C.3   1 <1>  -0.1600 
 23 C        6.3710     7.0590    -0.9270 C.3   1 <1>  -0.1600 
 24 C        4.0170     8.8540    -0.8220 C.3   1 <1>  -0.1600 
 25 C        6.5370     8.5860    -0.9100 C.3   1 <1>  -0.1600 
 26 C        5.3140     9.2820    -1.5220 C.3   1 <1>  -0.1600 
 27 H        2.0050    -1.9070    -1.0700 H     1 <1>   0.1500 
 28 H        4.0020    -0.8440     0.7480 H     1 <1>   0.0800 
 29 H        3.3920    -0.3580     2.3080 H     1 <1>   0.0800 
 30 H       -2.3450    -2.8020     0.6400 H     1 <1>   0.1500 
 31 H        5.3140     1.0480     0.5620 H     1 <1>   0.0800 
 32 H        4.7620     1.7810     2.0470 H     1 <1>   0.0800 
 33 H        1.1990     1.5010     1.1520 H     1 <1>   0.0800 
 34 H        2.1970     2.9120     1.0280 H     1 <1>   0.0800 
 35 H        2.2690     1.9220     2.4750 H     1 <1>   0.0800 
 36 H       -0.5970    -4.3900    -3.5610 H     1 <1>   0.1500 
 37 H       -3.8330    -4.1390    -0.8140 H     1 <1>   0.1500 
 38 H       -2.8990    -4.9430    -2.9770 H     1 <1>   0.1500 
 39 H        4.8980     4.6000     1.8810 H     1 <1>   0.1500 
 40 H        5.1430     6.9170     0.8110 H     1 <1>   0.0800 
 41 H        2.9690     7.0490    -0.2980 H     1 <1>   0.0800 
 42 H        3.7350     6.9940    -1.8560 H     1 <1>   0.0800 
 43 H        6.3480     6.7170    -1.9480 H     1 <1>   0.0800 
 44 H        7.2150     6.5970    -0.4460 H     1 <1>   0.0800 
 45 H        4.0300     9.2020     0.1970 H     1 <1>   0.0800 
 46 H        3.1750     9.3090    -1.3150 H     1 <1>   0.0800 
 47 H        7.4190     8.8580    -1.4620 H     1 <1>   0.0800 
 48 H        6.6670     8.9210     0.1050 H     1 <1>   0.0800 
 49 H        5.4300    10.3490    -1.4460 H     1 <1>   0.0800 
 50 H        5.2500     9.0310    -2.5680 H     1 <1>   0.0800 
@<TRIPOS>BOND
  1   1   2  1   
  2   1   3  1   
  3   2   4  2   
  4   3   5  2   
  5   3   6  1   
  6   4   5  1   
  7   4   7  1   
  8   5  27  1   
  9   6   8  1   
 10   6  28  1   
 11   6  29  1   
 12   7   9  ar  
 13   7  10  ar  
 14   8  11  1   
 15   8  12  1   
 16   9  13  ar  
 17  10  14  ar  
 18  10  30  1   
 19  11  15  1   
 20  11  31  1   
 21  11  32  1   
 22  12  33  1   
 23  12  34  1   
 24  12  35  1   
 25  13  16  ar  
 26  13  36  1   
 27  14  16  ar  
 28  14  37  1   
 29  15  17  1   
 30  15  18  2   
 31  16  38  1   
 32  17  19  1   
 33  18  20  1   
 34  18  39  1   
 35  19  20  2   
 36  20  21  1   
 37  21  22  1   
 38  21  23  1   
 39  21  40  1   
 40  22  24  1   
 41  22  41  1   
 42  22  42  1   
 43  23  25  1   
 44  23  43  1   
 45  23  44  1   
 46  24  26  1   
 47  24  45  1   
 48  24  46  1   
 49  25  26  1   
 50  25  47  1   
 51  25  48  1   
 52  26  49  1   
 53  26  50  1   
@<TRIPOS>SUBSTRUCTURE
  1 ****   8 GROUP 4 **** **** 0

# MOE 2024.06 (io_trps.svl 2023.06)
