@<TRIPOS>MOLECULE
NONAME
41 42 1 0 0 
SMALL
USER_CHARGES


@<TRIPOS>ATOM
  1 S        0.3550     0.2160    -0.9070 S.o2  1 <1>   1.3330 
  2 O        0.6020    -1.0970    -1.4610 O.2   1 <1>  -0.6500 
  3 O       -0.6140     1.0840    -1.5350 O.2   1 <1>  -0.6500 
  4 N       -0.1340     0.0100     0.7070 N.am  1 <1>  -0.8490 
  5 C        1.9290     1.0680    -0.7760 C.3   1 <1>  -0.0550 
  6 C       -0.7150     1.2230     1.2950 C.3   1 <1>   0.1160 
  7 C       -1.0700    -1.1090     0.8580 C.3   1 <1>   0.1160 
  8 C        3.0730     0.2060    -0.1980 C.3   1 <1>  -0.0800 
  9 C        4.4420     0.8680    -0.2090 C.3   1 <1>   0.2200 
 10 C        2.9100    -0.2020     1.2710 C.3   1 <1>   0.1200 
 11 N        4.3520     2.2730     0.2540 N.am  1 <1>  -0.7300 
 12 C        5.1520     0.0480     0.8590 C.3   1 <1>   0.1200 
 13 O        4.1870    -0.1700     1.8430 O.3   1 <1>  -0.5600 
 14 C        4.3220     3.3720    -0.5530 C.2   1 <1>   0.5440 
 15 O        4.3280     3.2050    -1.7550 O.2   1 <1>  -0.5700 
 16 C        4.2490     4.6950     0.0100 C.ar  1 <1>   0.0860 
 17 C        3.1970     5.1010     0.8280 C.ar  1 <1>   0.1900 
 18 C        5.2210     5.6650    -0.2230 C.ar  1 <1>   0.1900 
 19 F        2.2430     4.2540     1.1070 F     1 <1>  -0.1900 
 20 C        3.0990     6.3700     1.3720 C.ar  1 <1>  -0.1500 
 21 F        6.2590     5.3680    -0.9550 F     1 <1>  -0.1900 
 22 C        5.1600     6.9460     0.3010 C.ar  1 <1>  -0.1500 
 23 C        4.0890     7.3020     1.1050 C.ar  1 <1>  -0.1500 
 24 H        2.2210     1.3860    -1.7590 H     1 <1>   0.0800 
 25 H        1.8010     1.9510    -0.1840 H     1 <1>   0.0800 
 26 H       -0.9310     1.0610     2.3380 H     1 <1>   0.0800 
 27 H       -1.6270     1.4900     0.7860 H     1 <1>   0.0800 
 28 H       -0.0230     2.0440     1.2170 H     1 <1>   0.0800 
 29 H       -1.3520    -1.2240     1.8910 H     1 <1>   0.0800 
 30 H       -0.6050    -2.0250     0.5330 H     1 <1>   0.0800 
 31 H       -1.9530    -0.9400     0.2640 H     1 <1>   0.0800 
 32 H        3.1400    -0.6980    -0.7800 H     1 <1>   0.0800 
 33 H        4.9310     0.8100    -1.1680 H     1 <1>   0.0800 
 34 H        2.5050    -1.1950     1.3690 H     1 <1>   0.0800 
 35 H        2.2970     0.4950     1.8140 H     1 <1>   0.0800 
 36 H        4.2590     2.3640     1.2690 H     1 <1>   0.3700 
 37 H        6.0000     0.5570     1.2830 H     1 <1>   0.0800 
 38 H        5.4520    -0.9090     0.4700 H     1 <1>   0.0800 
 39 H        2.2590     6.6260     1.9950 H     1 <1>   0.1500 
 40 H        5.9420     7.6510     0.0810 H     1 <1>   0.1500 
 41 H        4.0280     8.2960     1.5180 H     1 <1>   0.1500 
@<TRIPOS>BOND
  1   1   2  2   
  2   1   3  2   
  3   1   4  am  
  4   1   5  1   
  5   4   6  1   
  6   4   7  1   
  7   5   8  1   
  8   5  24  1   
  9   5  25  1   
 10   6  26  1   
 11   6  27  1   
 12   6  28  1   
 13   7  29  1   
 14   7  30  1   
 15   7  31  1   
 16   8   9  1   
 17   8  10  1   
 18   8  32  1   
 19   9  11  1   
 20   9  12  1   
 21   9  33  1   
 22  10  13  1   
 23  10  34  1   
 24  10  35  1   
 25  11  14  am  
 26  11  36  1   
 27  12  13  1   
 28  12  37  1   
 29  12  38  1   
 30  14  15  2   
 31  14  16  1   
 32  16  17  ar  
 33  16  18  ar  
 34  17  19  1   
 35  17  20  ar  
 36  18  21  1   
 37  18  22  ar  
 38  20  23  ar  
 39  20  39  1   
 40  22  23  ar  
 41  22  40  1   
 42  23  41  1   
@<TRIPOS>SUBSTRUCTURE
  1 ****  11 GROUP 4 **** **** 0

# MOE 2024.06 (io_trps.svl 2023.06)
