@<TRIPOS>MOLECULE
NONAME
58 61 1 0 0 
SMALL
USER_CHARGES


@<TRIPOS>ATOM
  1 O        0.4390    -1.3250    -1.1450 O.2   1 <1>  -0.5700 
  2 C        1.1870    -1.9180    -0.4040 C.2   1 <1>   0.5690 
  3 N        0.7290    -2.7880     0.5550 N.am  1 <1>  -0.6600 
  4 C        2.6750    -1.6520    -0.5610 C.3   1 <1>  -0.0990 
  5 C        1.6200    -3.6070     1.4230 C.3   1 <1>   0.1400 
  6 C       -0.7280    -3.0210     0.7290 C.3   1 <1>   0.1400 
  7 C        3.5660    -2.7240     0.0800 C.3   1 <1>  -0.1600 
  8 C        3.0440    -3.0440     1.4820 C.3   1 <1>  -0.1600 
  9 C       -1.1580    -4.2470    -0.0810 C.3   1 <1>  -0.1600 
 10 C       -2.6630    -4.5250     0.0810 C.3   1 <1>  -0.0990 
 11 C       -3.1250    -5.7190    -0.7300 C.2   1 <1>   0.5690 
 12 O       -3.9660    -5.5690    -1.5810 O.2   1 <1>  -0.5700 
 13 N       -2.5950    -6.9350    -0.4600 N.am  1 <1>  -0.7300 
 14 C       -2.9420    -8.1780    -1.1810 C.3   1 <1>   0.2200 
 15 C       -3.9670    -8.9510    -0.3710 C.3   1 <1>  -0.0800 
 16 C       -1.7540    -9.1310    -1.1690 C.3   1 <1>   0.1200 
 17 C       -3.0890    -9.7480     0.6020 C.3   1 <1>   0.1200 
 18 C       -4.8240    -9.8630    -1.2710 C.3   1 <1>  -0.0170 
 19 O       -1.7960    -9.7740     0.0680 O.3   1 <1>  -0.5600 
 20 C       -5.9270   -10.5560    -0.4780 C.ar  1 <1>  -0.1440 
 21 C       -7.0950    -9.8770    -0.0560 C.ar  1 <1>   0.0000 
 22 C       -5.8110   -11.8750    -0.1490 C.ar  1 <1>  -0.1500 
 23 C       -8.0470   -10.6110     0.6930 C.ar  1 <1>   0.3100 
 24 C       -7.3770    -8.5180    -0.3340 C.ar  1 <1>  -0.1500 
 25 C       -6.8160   -12.5090     0.5900 C.ar  1 <1>   0.1600 
 26 N       -7.8930   -11.9230     1.0070 N.ar  1 <1>  -0.6200 
 27 C       -9.2120    -9.9630     1.1350 C.ar  1 <1>  -0.1500 
 28 C       -8.5230    -7.9170     0.1110 C.ar  1 <1>  -0.1500 
 29 C       -9.4530    -8.6450     0.8560 C.ar  1 <1>  -0.1500 
 30 H        2.9030    -1.5720    -1.6090 H     1 <1>   0.0800 
 31 H        2.8790    -0.7000    -0.1080 H     1 <1>   0.0800 
 32 H        1.2160    -3.6470     2.4200 H     1 <1>   0.0800 
 33 H        1.6520    -4.6090     1.0320 H     1 <1>   0.0800 
 34 H       -0.9490    -3.1620     1.7730 H     1 <1>   0.0800 
 35 H       -1.2760    -2.1560     0.3920 H     1 <1>   0.0800 
 36 H        3.5450    -3.6160    -0.5230 H     1 <1>   0.0800 
 37 H        4.5820    -2.3720     0.1300 H     1 <1>   0.0800 
 38 H        3.0480    -2.1540     2.0870 H     1 <1>   0.0800 
 39 H        3.6880    -3.7630     1.9560 H     1 <1>   0.0800 
 40 H       -0.9450    -4.0670    -1.1210 H     1 <1>   0.0800 
 41 H       -0.5960    -5.1050     0.2410 H     1 <1>   0.0800 
 42 H       -3.2200    -3.6620    -0.2410 H     1 <1>   0.0800 
 43 H       -2.8980    -4.7030     1.1140 H     1 <1>   0.0800 
 44 H       -1.9280    -7.0610     0.3040 H     1 <1>   0.3700 
 45 H       -3.2720    -7.9470    -2.1810 H     1 <1>   0.0800 
 46 H       -4.6140    -8.2820     0.1680 H     1 <1>   0.0800 
 47 H       -0.8120    -8.6240    -1.2850 H     1 <1>   0.0800 
 48 H       -1.8600    -9.8810    -1.9320 H     1 <1>   0.0800 
 49 H       -3.4280   -10.7590     0.7420 H     1 <1>   0.0800 
 50 H       -3.0370    -9.2550     1.5570 H     1 <1>   0.0800 
 51 H       -4.1980   -10.6030    -1.7400 H     1 <1>   0.0800 
 52 H       -5.2700    -9.2870    -2.0630 H     1 <1>   0.0800 
 53 H       -4.9560   -12.4570    -0.4420 H     1 <1>   0.1500 
 54 H       -6.6800    -7.9370    -0.9080 H     1 <1>   0.1500 
 55 H       -6.6840   -13.5510     0.8290 H     1 <1>   0.1500 
 56 H       -9.9130   -10.5430     1.7050 H     1 <1>   0.1500 
 57 H       -8.7230    -6.8820    -0.1080 H     1 <1>   0.1500 
 58 H      -10.3510    -8.1610     1.2010 H     1 <1>   0.1500 
@<TRIPOS>BOND
  1   1   2  2   
  2   2   3  am  
  3   2   4  1   
  4   3   5  1   
  5   3   6  1   
  6   4   7  1   
  7   4  30  1   
  8   4  31  1   
  9   5   8  1   
 10   5  32  1   
 11   5  33  1   
 12   6   9  1   
 13   6  34  1   
 14   6  35  1   
 15   7   8  1   
 16   7  36  1   
 17   7  37  1   
 18   8  38  1   
 19   8  39  1   
 20   9  10  1   
 21   9  40  1   
 22   9  41  1   
 23  10  11  1   
 24  10  42  1   
 25  10  43  1   
 26  11  12  2   
 27  11  13  am  
 28  13  14  1   
 29  13  44  1   
 30  14  15  1   
 31  14  16  1   
 32  14  45  1   
 33  15  17  1   
 34  15  18  1   
 35  15  46  1   
 36  16  19  1   
 37  16  47  1   
 38  16  48  1   
 39  17  19  1   
 40  17  49  1   
 41  17  50  1   
 42  18  20  1   
 43  18  51  1   
 44  18  52  1   
 45  20  21  ar  
 46  20  22  ar  
 47  21  23  ar  
 48  21  24  ar  
 49  22  25  ar  
 50  22  53  1   
 51  23  26  ar  
 52  23  27  ar  
 53  24  28  ar  
 54  24  54  1   
 55  25  26  ar  
 56  25  55  1   
 57  27  29  ar  
 58  27  56  1   
 59  28  29  ar  
 60  28  57  1   
 61  29  58  1   
@<TRIPOS>SUBSTRUCTURE
  1 ****  13 GROUP 4 **** **** 0

# MOE 2024.06 (io_trps.svl 2023.06)
