@<TRIPOS>MOLECULE
NONAME
47 48 1 0 0 
SMALL
USER_CHARGES


@<TRIPOS>ATOM
  1 S        1.0750     0.5160    -1.3690 S.o2  1 <1>   1.3330 
  2 O        0.4960     1.6350    -2.0770 O.2   1 <1>  -0.6500 
  3 O        1.4580    -0.6740    -2.0940 O.2   1 <1>  -0.6500 
  4 N        0.0030     0.0680    -0.1310 N.am  1 <1>  -0.8490 
  5 C        2.5300     1.0950    -0.4990 C.3   1 <1>  -0.0550 
  6 C       -0.9360    -0.9710    -0.5640 C.3   1 <1>   0.1160 
  7 C       -0.7400     1.2010     0.4320 C.3   1 <1>   0.1160 
  8 C        3.2530     0.0120     0.3330 C.3   1 <1>  -0.0800 
  9 C        4.6530     0.3960     0.7970 C.3   1 <1>   0.2890 
 10 C        2.5340    -0.3580     1.6380 C.3   1 <1>   0.1200 
 11 N        4.7050     1.8360     1.1620 N.pl3 1 <1>  -0.8690 
 12 C        4.7770    -0.4430     2.0630 C.3   1 <1>   0.1200 
 13 O        3.5080    -0.4200     2.6360 O.3   1 <1>  -0.5600 
 14 C        5.2470     2.8820     0.5420 C.ar  1 <1>   0.4100 
 15 N        5.0860     4.0430     1.1750 N.ar  1 <1>  -0.6200 
 16 C        5.9260     2.8140    -0.6800 C.ar  1 <1>  -0.1500 
 17 C        5.5810     5.1150     0.6300 C.ar  1 <1>   0.5280 
 18 C        6.4320     3.9570    -1.2250 C.ar  1 <1>   0.2180 
 19 N        6.2470     5.1070    -0.5450 N.ar  1 <1>  -0.1790 
 20 C        5.4040     6.4450     1.3540 C.3   1 <1>  -0.0170 
 21 C        7.1800     3.9860    -2.5470 C.3   1 <1>  -0.0970 
 22 C        4.6630     7.5010     0.5180 C.3   1 <1>  -0.2400 
 23 H        3.2180     1.4660    -1.2320 H     1 <1>   0.0800 
 24 H        2.2640     1.9190     0.1350 H     1 <1>   0.0800 
 25 H       -1.5910    -1.2440     0.2450 H     1 <1>   0.0800 
 26 H       -0.3970    -1.8520    -0.8710 H     1 <1>   0.0800 
 27 H       -1.5250    -0.6200    -1.3960 H     1 <1>   0.0800 
 28 H       -1.3380     0.8740     1.2660 H     1 <1>   0.0800 
 29 H       -1.3870     1.6360    -0.3130 H     1 <1>   0.0800 
 30 H       -0.0590     1.9580     0.7810 H     1 <1>   0.0800 
 31 H        3.3360    -0.8840    -0.2570 H     1 <1>   0.0800 
 32 H        5.4140     0.1450     0.0800 H     1 <1>   0.0800 
 33 H        2.0470    -1.3160     1.5660 H     1 <1>   0.0800 
 34 H        1.8160     0.3880     1.9340 H     1 <1>   0.0800 
 35 H        4.2420     2.0140     2.0630 H     1 <1>   0.4000 
 36 H        5.4970    -0.0470     2.7580 H     1 <1>   0.0800 
 37 H        5.0150    -1.4650     1.8270 H     1 <1>   0.0800 
 38 H        6.0370     1.8660    -1.1680 H     1 <1>   0.1500 
 39 H        6.6000     5.9920    -0.9090 H     1 <1>   0.4570 
 40 H        4.8450     6.2720     2.2590 H     1 <1>   0.0800 
 41 H        6.3680     6.8220     1.6480 H     1 <1>   0.0800 
 42 H        7.2460     2.9960    -2.9650 H     1 <1>   0.0800 
 43 H        8.1810     4.3570    -2.4070 H     1 <1>   0.0800 
 44 H        6.6690     4.6140    -3.2560 H     1 <1>   0.0800 
 45 H        3.7000     7.1280     0.2110 H     1 <1>   0.0800 
 46 H        5.2230     7.7880    -0.3540 H     1 <1>   0.0800 
 47 H        4.5010     8.3840     1.1130 H     1 <1>   0.0800 
@<TRIPOS>BOND
  1   1   2  2   
  2   1   3  2   
  3   1   4  am  
  4   1   5  1   
  5   4   6  1   
  6   4   7  1   
  7   5   8  1   
  8   5  23  1   
  9   5  24  1   
 10   6  25  1   
 11   6  26  1   
 12   6  27  1   
 13   7  28  1   
 14   7  29  1   
 15   7  30  1   
 16   8   9  1   
 17   8  10  1   
 18   8  31  1   
 19   9  11  1   
 20   9  12  1   
 21   9  32  1   
 22  10  13  1   
 23  10  33  1   
 24  10  34  1   
 25  11  14  1   
 26  11  35  1   
 27  12  13  1   
 28  12  36  1   
 29  12  37  1   
 30  14  15  ar  
 31  14  16  ar  
 32  15  17  ar  
 33  16  18  ar  
 34  16  38  1   
 35  17  19  ar  
 36  17  20  1   
 37  18  19  ar  
 38  18  21  1   
 39  19  39  1   
 40  20  22  1   
 41  20  40  1   
 42  20  41  1   
 43  21  42  1   
 44  21  43  1   
 45  21  44  1   
 46  22  45  1   
 47  22  46  1   
 48  22  47  1   
@<TRIPOS>SUBSTRUCTURE
  1 ****   5 GROUP 4 **** **** 0

# MOE 2024.06 (io_trps.svl 2023.06)
