@<TRIPOS>MOLECULE
NONAME
47 48 1 0 0 
SMALL
USER_CHARGES


@<TRIPOS>ATOM
  1 S        0.6920     0.0280     0.2630 S.o2  1 <1>   1.3330 
  2 O       -0.2000     0.0930     1.3990 O.2   1 <1>  -0.6500 
  3 O        2.1210     0.0770     0.4690 O.2   1 <1>  -0.6500 
  4 N        0.3390    -1.3810    -0.6160 N.am  1 <1>  -0.8490 
  5 C        0.2220     1.3330    -0.8700 C.3   1 <1>  -0.0550 
  6 C        1.4140    -1.7820    -1.5300 C.3   1 <1>   0.1160 
  7 C       -0.0180    -2.5050     0.2550 C.3   1 <1>   0.1160 
  8 C        0.3430     2.7400    -0.2580 C.3   1 <1>  -0.0800 
  9 C       -0.1590     3.8270    -1.2040 C.3   1 <1>   0.2000 
 10 C        1.7760     3.1680     0.0690 C.3   1 <1>   0.1400 
 11 O       -1.5360     3.9360    -1.1160 O.3   1 <1>  -0.6800 
 12 C        0.5430     5.1090    -0.7600 C.3   1 <1>   0.1400 
 13 N        1.7790     4.6430    -0.0840 N.am  1 <1>  -0.6600 
 14 C        2.8190     5.4220     0.3380 C.2   1 <1>   0.5690 
 15 O        3.8030     4.9370     0.8420 O.2   1 <1>  -0.5700 
 16 C        2.7380     6.9310     0.1620 C.3   1 <1>  -0.0990 
 17 C        3.8970     7.6950     0.8190 C.3   1 <1>  -0.0170 
 18 C        3.7280     9.1910     0.6060 C.ar  1 <1>  -0.1440 
 19 C        3.0260     9.9540     1.5270 C.ar  1 <1>  -0.1500 
 20 C        4.2700     9.8060    -0.5150 C.ar  1 <1>  -0.1500 
 21 C        2.8830    11.3100     1.3010 C.ar  1 <1>   0.1900 
 22 C        4.1160    11.1690    -0.7250 C.ar  1 <1>  -0.1500 
 23 F        2.2190    12.0260     2.1680 F     1 <1>  -0.1900 
 24 C        3.4150    11.9350     0.1900 C.ar  1 <1>  -0.1500 
 25 H        0.8250     1.2740    -1.7540 H     1 <1>   0.0800 
 26 H       -0.7990     1.1780    -1.1610 H     1 <1>   0.0800 
 27 H        1.1010    -2.6240    -2.1230 H     1 <1>   0.0800 
 28 H        2.2990    -2.0530    -0.9770 H     1 <1>   0.0800 
 29 H        1.6590    -0.9710    -2.1950 H     1 <1>   0.0800 
 30 H       -0.2500    -3.3750    -0.3340 H     1 <1>   0.0800 
 31 H       -0.8870    -2.2550     0.8410 H     1 <1>   0.0800 
 32 H        0.7960    -2.7340     0.9230 H     1 <1>   0.0800 
 33 H       -0.2180     2.7790     0.6610 H     1 <1>   0.0800 
 34 H        0.1000     3.6090    -2.2260 H     1 <1>   0.0800 
 35 H        2.4810     2.7440    -0.6260 H     1 <1>   0.0800 
 36 H        2.0590     2.8860     1.0710 H     1 <1>   0.0800 
 37 H       -1.8160     4.0400    -0.1850 H     1 <1>   0.4000 
 38 H       -0.0620     5.6540    -0.0560 H     1 <1>   0.0800 
 39 H        0.7830     5.7260    -1.6080 H     1 <1>   0.0800 
 40 H        2.7290     7.1490    -0.8900 H     1 <1>   0.0800 
 41 H        1.8150     7.2760     0.5870 H     1 <1>   0.0800 
 42 H        4.8330     7.3710     0.3970 H     1 <1>   0.0800 
 43 H        3.9250     7.4770     1.8730 H     1 <1>   0.0800 
 44 H        2.5940     9.5130     2.4070 H     1 <1>   0.1500 
 45 H        4.8180     9.2220    -1.2350 H     1 <1>   0.1500 
 46 H        4.5430    11.6310    -1.5990 H     1 <1>   0.1500 
 47 H        3.2820    12.9930     0.0500 H     1 <1>   0.1500 
@<TRIPOS>BOND
  1   1   2  2   
  2   1   3  2   
  3   1   4  am  
  4   1   5  1   
  5   4   6  1   
  6   4   7  1   
  7   5   8  1   
  8   5  25  1   
  9   5  26  1   
 10   6  27  1   
 11   6  28  1   
 12   6  29  1   
 13   7  30  1   
 14   7  31  1   
 15   7  32  1   
 16   8   9  1   
 17   8  10  1   
 18   8  33  1   
 19   9  11  1   
 20   9  12  1   
 21   9  34  1   
 22  10  13  1   
 23  10  35  1   
 24  10  36  1   
 25  11  37  1   
 26  12  13  1   
 27  12  38  1   
 28  12  39  1   
 29  13  14  am  
 30  14  15  2   
 31  14  16  1   
 32  16  17  1   
 33  16  40  1   
 34  16  41  1   
 35  17  18  1   
 36  17  42  1   
 37  17  43  1   
 38  18  19  ar  
 39  18  20  ar  
 40  19  21  ar  
 41  19  44  1   
 42  20  22  ar  
 43  20  45  1   
 44  21  23  1   
 45  21  24  ar  
 46  22  24  ar  
 47  22  46  1   
 48  24  47  1   
@<TRIPOS>SUBSTRUCTURE
  1 ****  13 GROUP 4 **** **** 0

# MOE 2024.06 (io_trps.svl 2023.06)
