@<TRIPOS>MOLECULE
NONAME
54 57 1 0 0 
SMALL
USER_CHARGES


@<TRIPOS>ATOM
  1 O        1.5000     0.6130    -1.0530 O.2   1 <1>  -0.5700 
  2 C        2.1600    -0.1070    -0.3270 C.2   1 <1>   0.5440 
  3 N        1.6060    -1.2830     0.1380 N.am  1 <1>  -0.6600 
  4 C        3.5010     0.3090     0.0090 C.ar  1 <1>   0.0860 
  5 C        0.1460    -1.5580     0.0140 C.3   1 <1>   0.1400 
  6 C        2.4070    -2.4490     0.6090 C.3   1 <1>   0.1400 
  7 C        4.3580     0.7730    -0.9850 C.ar  1 <1>   0.1600 
  8 C        3.9990     0.2970     1.3080 C.ar  1 <1>  -0.1500 
  9 C       -0.0830    -2.7380    -0.9350 C.3   1 <1>  -0.1600 
 10 C        2.1900    -3.6410    -0.3300 C.3   1 <1>  -0.1600 
 11 N        5.6000     1.1950    -0.8110 N.ar  1 <1>  -0.6200 
 12 C        5.2870     0.7300     1.5110 C.ar  1 <1>  -0.1500 
 13 C        0.7020    -3.9800    -0.4900 C.3   1 <1>  -0.1600 
 14 C        6.0550     1.1730     0.4360 C.ar  1 <1>   0.4100 
 15 N        7.3390     1.6380     0.6290 N.pl3 1 <1>  -0.8380 
 16 C        7.6030     2.7160     1.6320 C.3   1 <1>   0.2090 
 17 C        8.4240     1.2400    -0.3150 C.3   1 <1>   0.2090 
 18 C        8.3820     3.9480     1.0970 C.3   1 <1>   0.4230 
 19 C        8.7980     2.3620    -1.3060 C.3   1 <1>  -0.0800 
 20 N        7.8950     4.5050    -0.2260 N.4   1 <1>  -0.9590 
 21 C        9.9080     3.6840     1.0350 C.3   1 <1>   0.1200 
 22 C       10.2590     2.8430    -1.1620 C.3   1 <1>   0.1200 
 23 C        7.7650     3.5040    -1.3410 C.3   1 <1>   0.3430 
 24 C        6.6320     5.2830    -0.0960 C.3   1 <1>   0.2630 
 25 O       10.4050     3.9000    -0.2580 O.3   1 <1>  -0.5600 
 26 H       -0.2490    -1.7910     0.9870 H     1 <1>   0.0800 
 27 H       -0.3760    -0.6900    -0.3540 H     1 <1>   0.0800 
 28 H        3.4560    -2.2130     0.6340 H     1 <1>   0.0800 
 29 H        2.0950    -2.7080     1.6060 H     1 <1>   0.0800 
 30 H        3.9720     0.7940    -1.9920 H     1 <1>   0.1500 
 31 H        3.3800    -0.0410     2.1220 H     1 <1>   0.1500 
 32 H       -1.1330    -2.9660    -0.9720 H     1 <1>   0.0800 
 33 H        0.2240    -2.4460    -1.9250 H     1 <1>   0.0800 
 34 H        2.6110    -3.4050    -1.2920 H     1 <1>   0.0800 
 35 H        2.7150    -4.4970     0.0550 H     1 <1>   0.0800 
 36 H        5.7140     0.7250     2.4950 H     1 <1>   0.1500 
 37 H        0.5820    -4.7650    -1.2160 H     1 <1>   0.0800 
 38 H        0.3110    -4.3310     0.4500 H     1 <1>   0.0800 
 39 H        6.6610     3.0660     2.0170 H     1 <1>   0.0800 
 40 H        8.1390     2.2900     2.4620 H     1 <1>   0.0800 
 41 H        9.2830     0.9170     0.2480 H     1 <1>   0.0800 
 42 H        8.0880     0.3820    -0.8760 H     1 <1>   0.0800 
 43 H        8.2580     4.7160     1.8420 H     1 <1>   0.0800 
 44 H        8.7480     1.8890    -2.2700 H     1 <1>   0.0800 
 45 H        8.6790     5.1110    -0.5220 H     1 <1>   0.4500 
 46 H       10.1700     2.6920     1.3600 H     1 <1>   0.0800 
 47 H       10.4090     4.3800     1.6850 H     1 <1>   0.0800 
 48 H       10.6110     3.2070    -2.1130 H     1 <1>   0.0800 
 49 H       10.9100     2.0400    -0.8590 H     1 <1>   0.0800 
 50 H        6.7790     3.0740    -1.3180 H     1 <1>   0.0800 
 51 H        7.8600     4.0220    -2.2800 H     1 <1>   0.0800 
 52 H        5.8240     4.6280     0.1910 H     1 <1>   0.0800 
 53 H        6.3790     5.7440    -1.0370 H     1 <1>   0.0800 
 54 H        6.7380     6.0550     0.6480 H     1 <1>   0.0800 
@<TRIPOS>BOND
  1   1   2  2   
  2   2   3  am  
  3   2   4  1   
  4   3   5  1   
  5   3   6  1   
  6   4   7  ar  
  7   4   8  ar  
  8   5   9  1   
  9   5  26  1   
 10   5  27  1   
 11   6  10  1   
 12   6  28  1   
 13   6  29  1   
 14   7  11  ar  
 15   7  30  1   
 16   8  12  ar  
 17   8  31  1   
 18   9  13  1   
 19   9  32  1   
 20   9  33  1   
 21  10  13  1   
 22  10  34  1   
 23  10  35  1   
 24  11  14  ar  
 25  12  14  ar  
 26  12  36  1   
 27  13  37  1   
 28  13  38  1   
 29  14  15  1   
 30  15  16  1   
 31  15  17  1   
 32  16  18  1   
 33  16  39  1   
 34  16  40  1   
 35  17  19  1   
 36  17  41  1   
 37  17  42  1   
 38  18  20  1   
 39  18  21  1   
 40  18  43  1   
 41  19  22  1   
 42  19  23  1   
 43  19  44  1   
 44  20  23  1   
 45  20  24  1   
 46  20  45  1   
 47  21  25  1   
 48  21  46  1   
 49  21  47  1   
 50  22  25  1   
 51  22  48  1   
 52  22  49  1   
 53  23  50  1   
 54  23  51  1   
 55  24  52  1   
 56  24  53  1   
 57  24  54  1   
@<TRIPOS>SUBSTRUCTURE
  1 ****  11 GROUP 4 **** **** 0

# MOE 2024.06 (io_trps.svl 2023.06)
