@<TRIPOS>MOLECULE
NONAME
50 52 1 0 0 
SMALL
USER_CHARGES


@<TRIPOS>ATOM
  1 CL       0.1240    -1.0680     3.1380 Cl    1 <1>  -0.1770 
  2 C       -0.0020    -2.2110     1.8340 C.ar  1 <1>   0.1770 
  3 C       -1.0950    -3.0340     1.7570 C.ar  1 <1>  -0.1500 
  4 C        1.0140    -2.2710     0.8880 C.ar  1 <1>  -0.1500 
  5 C       -1.1970    -3.9540     0.7100 C.ar  1 <1>   0.3610 
  6 C        0.9230    -3.1720    -0.1450 C.ar  1 <1>  -0.1500 
  7 N       -2.2870    -4.8010     0.6140 N.ar  1 <1>  -0.1790 
  8 C       -0.1830    -4.0350    -0.2640 C.ar  1 <1>   0.0000 
  9 C       -2.4620    -5.7190    -0.3410 C.ar  1 <1>   0.4610 
 10 C       -0.3460    -4.9890    -1.3140 C.ar  1 <1>  -0.1430 
 11 N       -3.5560    -6.5180    -0.3090 N.pl3 1 <1>  -0.8380 
 12 C       -1.4510    -5.7870    -1.3360 C.ar  1 <1>  -0.1500 
 13 C        0.7070    -5.1090    -2.4100 C.3   1 <1>  -0.0970 
 14 C       -3.6680    -7.7620    -1.1670 C.3   1 <1>   0.2090 
 15 C       -4.7640    -6.2430     0.5500 C.3   1 <1>   0.2090 
 16 C       -4.3590    -8.9420    -0.4450 C.3   1 <1>   0.0000 
 17 C       -6.0040    -6.9700     0.0380 C.3   1 <1>  -0.1600 
 18 C       -5.8100    -8.4920    -0.0630 C.3   1 <1>   0.2000 
 19 C       -4.3320   -10.1510    -1.4260 C.3   1 <1>   0.1200 
 20 C       -3.5840    -9.3180     0.8620 C.3   1 <1>  -0.1600 
 21 O       -6.7680    -8.9190    -0.9670 O.3   1 <1>  -0.6800 
 22 O       -4.7870   -11.3170    -0.8290 O.3   1 <1>  -0.6800 
 23 C       -2.1090    -9.7270     0.6840 C.3   1 <1>  -0.1600 
 24 C       -1.4790   -10.0790     2.0340 C.3   1 <1>  -0.2400 
 25 H       -1.8580    -2.9550     2.5100 H     1 <1>   0.1500 
 26 H        1.8590    -1.6080     0.9820 H     1 <1>   0.1500 
 27 H        1.7170    -3.2080    -0.8720 H     1 <1>   0.1500 
 28 H       -2.9930    -4.7600     1.3390 H     1 <1>   0.4570 
 29 H       -1.5760    -6.4830    -2.1420 H     1 <1>   0.1500 
 30 H        0.4390    -5.8620    -3.1300 H     1 <1>   0.0800 
 31 H        1.6590    -5.3790    -1.9860 H     1 <1>   0.0800 
 32 H        0.8110    -4.1730    -2.9320 H     1 <1>   0.0800 
 33 H       -4.2240    -7.5190    -2.0580 H     1 <1>   0.0800 
 34 H       -2.6950    -8.0920    -1.4800 H     1 <1>   0.0800 
 35 H       -4.5710    -6.5510     1.5640 H     1 <1>   0.0800 
 36 H       -4.9770    -5.1870     0.5530 H     1 <1>   0.0800 
 37 H       -6.2530    -6.5560    -0.9230 H     1 <1>   0.0800 
 38 H       -6.8280    -6.7720     0.7000 H     1 <1>   0.0800 
 39 H       -6.0750    -8.9460     0.8770 H     1 <1>   0.0800 
 40 H       -3.3320   -10.3410    -1.7740 H     1 <1>   0.0800 
 41 H       -4.9470    -9.9710    -2.2900 H     1 <1>   0.0800 
 42 H       -3.6090    -8.4970     1.5520 H     1 <1>   0.0800 
 43 H       -4.1020   -10.1240     1.3540 H     1 <1>   0.0800 
 44 H       -6.6060    -8.5740    -1.8620 H     1 <1>   0.4000 
 45 H       -4.2610   -11.5350    -0.0360 H     1 <1>   0.4000 
 46 H       -2.0270   -10.5860     0.0400 H     1 <1>   0.0800 
 47 H       -1.5450    -8.9230     0.2470 H     1 <1>   0.0800 
 48 H       -1.9990   -10.9030     2.4910 H     1 <1>   0.0800 
 49 H       -1.5110    -9.2370     2.7020 H     1 <1>   0.0800 
 50 H       -0.4500   -10.3650     1.8970 H     1 <1>   0.0800 
@<TRIPOS>BOND
  1   1   2  1   
  2   2   3  ar  
  3   2   4  ar  
  4   3   5  ar  
  5   3  25  1   
  6   4   6  ar  
  7   4  26  1   
  8   5   7  ar  
  9   5   8  ar  
 10   6   8  ar  
 11   6  27  1   
 12   7   9  ar  
 13   7  28  1   
 14   8  10  ar  
 15   9  11  1   
 16   9  12  ar  
 17  10  12  ar  
 18  10  13  1   
 19  11  14  1   
 20  11  15  1   
 21  12  29  1   
 22  13  30  1   
 23  13  31  1   
 24  13  32  1   
 25  14  16  1   
 26  14  33  1   
 27  14  34  1   
 28  15  17  1   
 29  15  35  1   
 30  15  36  1   
 31  16  18  1   
 32  16  19  1   
 33  16  20  1   
 34  17  18  1   
 35  17  37  1   
 36  17  38  1   
 37  18  21  1   
 38  18  39  1   
 39  19  22  1   
 40  19  40  1   
 41  19  41  1   
 42  20  23  1   
 43  20  42  1   
 44  20  43  1   
 45  21  44  1   
 46  22  45  1   
 47  23  24  1   
 48  23  46  1   
 49  23  47  1   
 50  24  48  1   
 51  24  49  1   
 52  24  50  1   
@<TRIPOS>SUBSTRUCTURE
  1 ****   9 GROUP 4 **** **** 0

# MOE 2024.06 (io_trps.svl 2023.06)
