@<TRIPOS>MOLECULE
NONAME
45 47 1 0 0 
SMALL
USER_CHARGES


@<TRIPOS>ATOM
  1 CL      -0.3500     0.1990     0.4930 Cl    1 <1>  -0.1770 
  2 C       -1.9890     0.6650     0.1240 C.ar  1 <1>   0.1770 
  3 C       -2.2490     1.9450    -0.3230 C.ar  1 <1>  -0.1500 
  4 C       -3.0100    -0.2520     0.2810 C.ar  1 <1>  -0.1500 
  5 C       -3.5520     2.3080    -0.6140 C.ar  1 <1>  -0.1500 
  6 C       -4.3090     0.1220    -0.0150 C.ar  1 <1>  -0.1500 
  7 C       -4.6150     1.4100    -0.4680 C.ar  1 <1>   0.0530 
  8 C       -5.9650     1.8140    -0.7850 C.2   1 <1>   0.0870 
  9 O       -6.1750     2.8380    -1.5760 O.3   1 <1>  -0.0190 
 10 C       -7.1910     1.3390    -0.4350 C.2   1 <1>  -0.0860 
 11 N       -7.4420     3.0840    -1.7750 N.2   1 <1>  -0.4100 
 12 C       -8.0720     2.2050    -1.0900 C.2   1 <1>   0.3720 
 13 C       -7.5550     0.2460     0.4080 C.2   1 <1>   0.7160 
 14 N       -9.4590     2.1940    -1.0750 N.pl3 1 <1>  -0.8520 
 15 O       -7.2020     0.2560     1.5730 O.2   1 <1>  -0.5700 
 16 N       -8.2870    -0.8270    -0.0520 N.am  1 <1>  -0.6600 
 17 C      -10.1040     2.3280     0.2610 C.3   1 <1>   0.2090 
 18 C       -8.9780    -1.7710     0.8740 C.3   1 <1>   0.1400 
 19 C       -8.6160    -1.0740    -1.4880 C.3   1 <1>   0.1400 
 20 C      -11.6160     2.1410     0.1390 C.3   1 <1>   0.1200 
 21 C      -10.4810    -1.8170     0.5560 C.3   1 <1>   0.1200 
 22 C      -10.1370    -1.1790    -1.6840 C.3   1 <1>   0.1200 
 23 O      -12.1710     2.1650     1.4160 O.3   1 <1>  -0.5600 
 24 O      -10.6930    -2.1110    -0.7980 O.3   1 <1>  -0.5600 
 25 C      -13.5500     1.9780     1.4360 C.3   1 <1>   0.0400 
 26 H       -1.4410     2.6440    -0.4380 H     1 <1>   0.1500 
 27 H       -2.7870    -1.2430     0.6320 H     1 <1>   0.1500 
 28 H       -3.7490     3.3080    -0.9590 H     1 <1>   0.1500 
 29 H       -5.0900    -0.6050     0.1100 H     1 <1>   0.1500 
 30 H       -9.7710     2.9580    -1.6840 H     1 <1>   0.4000 
 31 H       -9.8920     3.3030     0.6670 H     1 <1>   0.0800 
 32 H       -9.7210     1.5810     0.9340 H     1 <1>   0.0800 
 33 H       -8.8440    -1.4700     1.8990 H     1 <1>   0.0800 
 34 H       -8.5580    -2.7550     0.7600 H     1 <1>   0.0800 
 35 H       -8.1610    -1.9980    -1.7980 H     1 <1>   0.0800 
 36 H       -8.2300    -0.2920    -2.1170 H     1 <1>   0.0800 
 37 H      -11.8380     1.1890    -0.3090 H     1 <1>   0.0800 
 38 H      -12.0480     2.9390    -0.4390 H     1 <1>   0.0800 
 39 H      -10.9450    -0.8730     0.7830 H     1 <1>   0.0800 
 40 H      -10.9600    -2.5860     1.1370 H     1 <1>   0.0800 
 41 H      -10.3590    -1.5040    -2.6840 H     1 <1>   0.0800 
 42 H      -10.6050    -0.2250    -1.5220 H     1 <1>   0.0800 
 43 H      -13.8780     2.0140     2.4600 H     1 <1>   0.0800 
 44 H      -13.7850     1.0160     1.0130 H     1 <1>   0.0800 
 45 H      -14.0240     2.7660     0.8760 H     1 <1>   0.0800 
@<TRIPOS>BOND
  1   1   2  1   
  2   2   3  ar  
  3   2   4  ar  
  4   3   5  ar  
  5   3  26  1   
  6   4   6  ar  
  7   4  27  1   
  8   5   7  ar  
  9   5  28  1   
 10   6   7  ar  
 11   6  29  1   
 12   7   8  1   
 13   8   9  1   
 14   8  10  2   
 15   9  11  1   
 16  10  12  1   
 17  10  13  1   
 18  11  12  2   
 19  12  14  1   
 20  13  15  2   
 21  13  16  am  
 22  14  17  1   
 23  14  30  1   
 24  16  18  1   
 25  16  19  1   
 26  17  20  1   
 27  17  31  1   
 28  17  32  1   
 29  18  21  1   
 30  18  33  1   
 31  18  34  1   
 32  19  22  1   
 33  19  35  1   
 34  19  36  1   
 35  20  23  1   
 36  20  37  1   
 37  20  38  1   
 38  21  24  1   
 39  21  39  1   
 40  21  40  1   
 41  22  24  1   
 42  22  41  1   
 43  22  42  1   
 44  23  25  1   
 45  25  43  1   
 46  25  44  1   
 47  25  45  1   
@<TRIPOS>SUBSTRUCTURE
  1 ****  10 GROUP 4 **** **** 0

# MOE 2024.06 (io_trps.svl 2023.06)
