@<TRIPOS>MOLECULE
NONAME
38 39 1 0 0 
SMALL
USER_CHARGES


@<TRIPOS>ATOM
  1 O       -0.7600     0.1420     1.6300 O.2   1 <1>  -0.5700 
  2 C       -1.3340     0.5730     0.6590 C.2   1 <1>   0.5690 
  3 N       -2.0140    -0.2470    -0.2010 N.am  1 <1>  -0.6600 
  4 C       -1.2780     2.0690     0.3870 C.3   1 <1>  -0.0990 
  5 C       -2.0270    -1.7360     0.0320 C.3   1 <1>   0.3640 
  6 C       -2.8240     0.2590    -1.3550 C.3   1 <1>   0.1400 
  7 C       -0.5640     2.8460     1.4950 C.3   1 <1>   0.1200 
  8 C       -0.8960    -2.4460    -0.7280 C.ar  1 <1>  -0.1440 
  9 C       -3.4030    -2.3990    -0.3010 C.3   1 <1>   0.2000 
 10 C       -3.5730    -0.8620    -2.0870 C.3   1 <1>   0.1200 
 11 O       -0.5210     4.1850     1.1400 O.3   1 <1>  -0.6800 
 12 C       -0.2400    -1.9060    -1.8290 C.ar  1 <1>  -0.1500 
 13 C       -0.5100    -3.7040    -0.2810 C.ar  1 <1>  -0.1500 
 14 O       -4.2380    -1.6450    -1.1510 O.3   1 <1>  -0.5600 
 15 C       -4.2120    -2.6850     0.9690 C.3   1 <1>   0.1200 
 16 C        0.7610    -2.6120    -2.4750 C.ar  1 <1>  -0.1500 
 17 C        0.4910    -4.4120    -0.9240 C.ar  1 <1>  -0.1500 
 18 O       -3.6340    -3.7330     1.6820 O.3   1 <1>  -0.6800 
 19 C        1.1260    -3.8680    -2.0240 C.ar  1 <1>  -0.1500 
 20 H       -0.7610     2.2200    -0.5420 H     1 <1>   0.0800 
 21 H       -2.2800     2.4440     0.3050 H     1 <1>   0.0800 
 22 H       -1.8340    -1.9160     1.0770 H     1 <1>   0.0800 
 23 H       -3.5520     0.9630    -0.9890 H     1 <1>   0.0800 
 24 H       -2.1830     0.7710    -2.0510 H     1 <1>   0.0800 
 25 H        0.4440     2.4940     1.6380 H     1 <1>   0.0800 
 26 H       -1.1030     2.7610     2.4240 H     1 <1>   0.0800 
 27 H       -3.2300    -3.3340    -0.8040 H     1 <1>   0.0800 
 28 H       -2.9040    -1.4840    -2.6560 H     1 <1>   0.0800 
 29 H       -4.3080    -0.4460    -2.7530 H     1 <1>   0.0800 
 30 H        0.1280     4.3320     0.4260 H     1 <1>   0.4000 
 31 H       -0.4920    -0.9310    -2.1960 H     1 <1>   0.1500 
 32 H       -0.9880    -4.1400     0.5800 H     1 <1>   0.1500 
 33 H       -5.2210    -2.9670     0.7220 H     1 <1>   0.0800 
 34 H       -4.2250    -1.8160     1.6050 H     1 <1>   0.0800 
 35 H        1.2590    -2.1830    -3.3260 H     1 <1>   0.1500 
 36 H        0.7770    -5.3850    -0.5650 H     1 <1>   0.1500 
 37 H       -3.8640    -4.5930     1.2780 H     1 <1>   0.4000 
 38 H        1.9040    -4.4170    -2.5250 H     1 <1>   0.1500 
@<TRIPOS>BOND
  1   1   2  2   
  2   2   3  am  
  3   2   4  1   
  4   3   5  1   
  5   3   6  1   
  6   4   7  1   
  7   4  20  1   
  8   4  21  1   
  9   5   8  1   
 10   5   9  1   
 11   5  22  1   
 12   6  10  1   
 13   6  23  1   
 14   6  24  1   
 15   7  11  1   
 16   7  25  1   
 17   7  26  1   
 18   8  12  ar  
 19   8  13  ar  
 20   9  14  1   
 21   9  15  1   
 22   9  27  1   
 23  10  14  1   
 24  10  28  1   
 25  10  29  1   
 26  11  30  1   
 27  12  16  ar  
 28  12  31  1   
 29  13  17  ar  
 30  13  32  1   
 31  15  18  1   
 32  15  33  1   
 33  15  34  1   
 34  16  19  ar  
 35  16  35  1   
 36  17  19  ar  
 37  17  36  1   
 38  18  37  1   
 39  19  38  1   
@<TRIPOS>SUBSTRUCTURE
  1 ****   5 GROUP 4 **** **** 0

# MOE 2024.06 (io_trps.svl 2023.06)
