@<TRIPOS>MOLECULE
NONAME
37 38 1 0 0 
SMALL
USER_CHARGES


@<TRIPOS>ATOM
  1 S       -0.1530    -0.0850     0.5010 S.o2  1 <1>   1.3330 
  2 O        0.1920    -1.0530     1.5180 O.2   1 <1>  -0.6500 
  3 O       -0.7530     1.1720     0.8850 O.2   1 <1>  -0.6500 
  4 N       -1.1720    -0.8480    -0.6220 N.am  1 <1>  -0.8490 
  5 C        1.3000     0.2840    -0.4820 C.3   1 <1>  -0.0550 
  6 C       -0.9290    -2.2890    -0.7480 C.3   1 <1>   0.1160 
  7 C       -2.5910    -0.6040    -0.3440 C.3   1 <1>   0.1160 
  8 C        2.3580     1.1050     0.2790 C.3   1 <1>  -0.0800 
  9 C        3.4880     1.5370    -0.6450 C.3   1 <1>   0.2200 
 10 C        3.0790     0.2820     1.3610 C.3   1 <1>   0.1200 
 11 N        4.0110     2.8380    -0.1780 N.am  1 <1>  -0.7300 
 12 C        4.5310     0.4590    -0.3910 C.3   1 <1>   0.1200 
 13 O        4.4130     0.1720     0.9640 O.3   1 <1>  -0.5600 
 14 C        3.9300     4.0230    -0.8610 C.2   1 <1>   0.7160 
 15 O        3.4010     4.0000    -1.9580 O.2   1 <1>  -0.5700 
 16 C        4.4560     5.2470    -0.2740 C.2   1 <1>   0.2030 
 17 N        4.7110     6.3650    -0.8900 N.2   1 <1>  -0.4100 
 18 C        4.7780     5.4180     1.0670 C.2   1 <1>  -0.1500 
 19 O        5.1800     7.2580    -0.0530 O.3   1 <1>  -0.0190 
 20 C        5.2160     6.6780     1.1240 C.2   1 <1>  -0.0100 
 21 H        1.7360    -0.6300    -0.8360 H     1 <1>   0.0800 
 22 H        0.9830     0.8490    -1.3380 H     1 <1>   0.0800 
 23 H       -1.5360    -2.6990    -1.5370 H     1 <1>   0.0800 
 24 H       -1.1670    -2.7930     0.1750 H     1 <1>   0.0800 
 25 H        0.1050    -2.4730    -0.9840 H     1 <1>   0.0800 
 26 H       -3.2060    -1.0880    -1.0830 H     1 <1>   0.0800 
 27 H       -2.7980     0.4530    -0.3760 H     1 <1>   0.0800 
 28 H       -2.8510    -0.9760     0.6340 H     1 <1>   0.0800 
 29 H        1.8710     1.9620     0.7140 H     1 <1>   0.0800 
 30 H        3.2020     1.5870    -1.6830 H     1 <1>   0.0800 
 31 H        2.6810    -0.7140     1.4620 H     1 <1>   0.0800 
 32 H        3.0530     0.7750     2.3170 H     1 <1>   0.0800 
 33 H        4.5260     2.7830     0.7020 H     1 <1>   0.3700 
 34 H        5.5330     0.7850    -0.6110 H     1 <1>   0.0800 
 35 H        4.3050    -0.4370    -0.9430 H     1 <1>   0.0800 
 36 H        4.6820     4.6940     1.8540 H     1 <1>   0.1500 
 37 H        5.5720     7.2490     1.9620 H     1 <1>   0.1500 
@<TRIPOS>BOND
  1   1   2  2   
  2   1   3  2   
  3   1   4  am  
  4   1   5  1   
  5   4   6  1   
  6   4   7  1   
  7   5   8  1   
  8   5  21  1   
  9   5  22  1   
 10   6  23  1   
 11   6  24  1   
 12   6  25  1   
 13   7  26  1   
 14   7  27  1   
 15   7  28  1   
 16   8   9  1   
 17   8  10  1   
 18   8  29  1   
 19   9  11  1   
 20   9  12  1   
 21   9  30  1   
 22  10  13  1   
 23  10  31  1   
 24  10  32  1   
 25  11  14  am  
 26  11  33  1   
 27  12  13  1   
 28  12  34  1   
 29  12  35  1   
 30  14  15  2   
 31  14  16  1   
 32  16  17  2   
 33  16  18  1   
 34  17  19  1   
 35  18  20  2   
 36  18  36  1   
 37  19  20  1   
 38  20  37  1   
@<TRIPOS>SUBSTRUCTURE
  1 ****   8 GROUP 4 **** **** 0

# MOE 2024.06 (io_trps.svl 2023.06)
