@<TRIPOS>MOLECULE
NONAME
43 44 1 0 0 
SMALL
USER_CHARGES


@<TRIPOS>ATOM
  1 S       -0.9420    -0.6720    -1.0500 S.3   1 <1>   0.1810 
  2 N       -0.3060     0.8950    -1.0640 N.2   1 <1>  -0.2210 
  3 C        0.4870    -1.3310    -0.3370 C.2   1 <1>  -0.1400 
  4 N        0.8500     0.9150    -0.5680 N.2   1 <1>  -0.2270 
  5 C        1.3270    -0.3080    -0.1420 C.2   1 <1>   0.0460 
  6 C        0.5180    -2.8160    -0.0760 C.3   1 <1>   0.5230 
  7 C        2.7180    -0.3220     0.4880 C.3   1 <1>   0.1010 
  8 N        0.4340    -3.5560    -1.3690 N.4   1 <1>  -0.9590 
  9 C        3.6820    -1.2370    -0.2750 C.3   1 <1>  -0.2400 
 10 C        2.6460    -0.7200     1.9660 C.3   1 <1>  -0.2400 
 11 C        0.2510    -5.0260    -1.1590 C.3   1 <1>   0.4860 
 12 C        1.5140    -3.2180    -2.3450 C.3   1 <1>   0.2630 
 13 C       -1.1270    -5.2870    -0.5510 C.ar  1 <1>   0.1670 
 14 N       -2.0910    -4.4390    -0.8980 N.ar  1 <1>  -0.6200 
 15 C       -1.3050    -6.3530     0.3180 C.ar  1 <1>  -0.1500 
 16 C       -3.2810    -4.6760    -0.3610 C.ar  1 <1>   0.1600 
 17 C       -2.5470    -6.5770     0.8700 C.ar  1 <1>  -0.1500 
 18 C       -3.5620    -5.7130     0.5160 C.ar  1 <1>  -0.1430 
 19 C       -4.9630    -5.8970     1.0800 C.3   1 <1>  -0.0170 
 20 C       -5.1240    -5.1180     2.3860 C.3   1 <1>  -0.2400 
 21 H       -0.3190    -3.0780     0.5530 H     1 <1>   0.0800 
 22 H        1.4270    -3.0740     0.4400 H     1 <1>   0.0800 
 23 H        3.1140     0.6810     0.4390 H     1 <1>   0.0800 
 24 H       -0.4870    -3.2790    -1.7600 H     1 <1>   0.4500 
 25 H        3.4000    -2.2680    -0.1860 H     1 <1>   0.0800 
 26 H        4.6780    -1.1250     0.1200 H     1 <1>   0.0800 
 27 H        3.7040    -0.9600    -1.3150 H     1 <1>   0.0800 
 28 H        2.2960    -1.7270     2.0880 H     1 <1>   0.0800 
 29 H        1.9790    -0.0570     2.4890 H     1 <1>   0.0800 
 30 H        3.6190    -0.6380     2.4190 H     1 <1>   0.0800 
 31 H        1.0230    -5.4190    -0.5190 H     1 <1>   0.0800 
 32 H        0.2980    -5.5340    -2.1070 H     1 <1>   0.0800 
 33 H        2.4760    -3.5180    -1.9630 H     1 <1>   0.0800 
 34 H        1.5330    -2.1550    -2.5290 H     1 <1>   0.0800 
 35 H        1.3410    -3.7200    -3.2840 H     1 <1>   0.0800 
 36 H       -0.4920    -7.0120     0.5690 H     1 <1>   0.1500 
 37 H       -4.0800    -4.0060    -0.6330 H     1 <1>   0.1500 
 38 H       -2.7190    -7.3960     1.5490 H     1 <1>   0.1500 
 39 H       -5.1480    -6.9420     1.2600 H     1 <1>   0.0800 
 40 H       -5.6930    -5.5580     0.3650 H     1 <1>   0.0800 
 41 H       -4.4150    -5.4630     3.1170 H     1 <1>   0.0800 
 42 H       -6.1160    -5.2580     2.7790 H     1 <1>   0.0800 
 43 H       -4.9660    -4.0670     2.2190 H     1 <1>   0.0800 
@<TRIPOS>BOND
  1   1   2  1   
  2   1   3  1   
  3   2   4  2   
  4   3   5  2   
  5   3   6  1   
  6   4   5  1   
  7   5   7  1   
  8   6   8  1   
  9   6  21  1   
 10   6  22  1   
 11   7   9  1   
 12   7  10  1   
 13   7  23  1   
 14   8  11  1   
 15   8  12  1   
 16   8  24  1   
 17   9  25  1   
 18   9  26  1   
 19   9  27  1   
 20  10  28  1   
 21  10  29  1   
 22  10  30  1   
 23  11  13  1   
 24  11  31  1   
 25  11  32  1   
 26  12  33  1   
 27  12  34  1   
 28  12  35  1   
 29  13  14  ar  
 30  13  15  ar  
 31  14  16  ar  
 32  15  17  ar  
 33  15  36  1   
 34  16  18  ar  
 35  16  37  1   
 36  17  18  ar  
 37  17  38  1   
 38  18  19  1   
 39  19  20  1   
 40  19  39  1   
 41  19  40  1   
 42  20  41  1   
 43  20  42  1   
 44  20  43  1   
@<TRIPOS>SUBSTRUCTURE
  1 ****   6 GROUP 4 **** **** 0

# MOE 2024.06 (io_trps.svl 2023.06)
