@<TRIPOS>MOLECULE
NONAME
51 55 1 0 0 
SMALL
USER_CHARGES


@<TRIPOS>ATOM
  1 O       -1.2600     4.5140    -2.4200 O.2   1 <1>  -0.5700 
  2 C       -0.8740     4.4120    -1.2720 C.2   1 <1>   0.5440 
  3 N       -1.7800     4.0760    -0.2880 N.am  1 <1>  -0.6600 
  4 C        0.5200     4.6380    -0.9930 C.ar  1 <1>   0.0860 
  5 C       -3.2460     3.9900    -0.6240 C.3   1 <1>   0.1400 
  6 C       -1.3740     3.5860     1.0670 C.3   1 <1>   0.1400 
  7 C        1.5160     4.0410    -1.7360 C.ar  1 <1>   0.1600 
  8 C        0.9630     5.4680     0.0160 C.ar  1 <1>   0.1600 
  9 C       -4.1420     4.1480     0.6200 C.3   1 <1>   0.1440 
 10 C       -2.3580     2.5350     1.5870 C.3   1 <1>  -0.1600 
 11 N        2.7950     4.2110    -1.4920 N.ar  1 <1>  -0.6200 
 12 N        2.2330     5.6590     0.2870 N.ar  1 <1>  -0.6200 
 13 C       -5.5950     4.1030     0.1730 C.ar  1 <1>   0.1670 
 14 C       -3.8100     3.0490     1.6670 C.3   1 <1>  -0.1600 
 15 C       -4.0260     5.5860     1.2080 C.3   1 <1>  -0.1600 
 16 C        3.1240     5.0200    -0.4800 C.ar  1 <1>   0.6200 
 17 N       -6.2440     3.0260    -0.2140 N.ar  1 <1>  -0.6200 
 18 C       -6.1710     5.3380     0.1960 C.ar  1 <1>  -0.1440 
 19 C       -5.2060     6.4020     0.6510 C.3   1 <1>  -0.0170 
 20 C        4.5390     5.2180    -0.1940 C.ar  1 <1>   0.0000 
 21 C       -7.5040     3.2370    -0.5650 C.ar  1 <1>   0.4770 
 22 C       -7.4840     5.4430    -0.1890 C.ar  1 <1>   0.1600 
 23 C        5.0050     6.1190     0.7600 C.ar  1 <1>  -0.1500 
 24 C        5.5520     4.5230    -0.8500 C.ar  1 <1>  -0.1500 
 25 N       -8.1680     4.3860    -0.5740 N.ar  1 <1>  -0.6200 
 26 C       -8.2730     2.0190    -1.0130 C.3   1 <1>  -0.0970 
 27 C        6.3580     6.2690     0.9950 C.ar  1 <1>   0.1600 
 28 C        6.8800     4.7450    -0.5430 C.ar  1 <1>   0.1600 
 29 N        7.3100     5.6020     0.3670 N.ar  1 <1>  -0.6200 
 30 H       -3.4410     3.0340    -1.0800 H     1 <1>   0.0800 
 31 H       -3.4980     4.7500    -1.3430 H     1 <1>   0.0800 
 32 H       -1.3450     4.4170     1.7510 H     1 <1>   0.0800 
 33 H       -0.3900     3.1490     1.0220 H     1 <1>   0.0800 
 34 H        1.2350     3.4010    -2.5570 H     1 <1>   0.1500 
 35 H        0.2370     5.9900     0.6150 H     1 <1>   0.1500 
 36 H       -2.0450     2.1930     2.5570 H     1 <1>   0.0800 
 37 H       -2.3200     1.6880     0.9240 H     1 <1>   0.0800 
 38 H       -4.4550     2.2020     1.5140 H     1 <1>   0.0800 
 39 H       -4.0160     3.4070     2.6600 H     1 <1>   0.0800 
 40 H       -3.0890     6.0560     0.9730 H     1 <1>   0.0800 
 41 H       -4.1270     5.5580     2.2780 H     1 <1>   0.0800 
 42 H       -4.8950     6.9910    -0.1950 H     1 <1>   0.0800 
 43 H       -5.6390     7.0380     1.4030 H     1 <1>   0.0800 
 44 H       -7.9800     6.3990    -0.1860 H     1 <1>   0.1500 
 45 H        4.3110     6.7120     1.3280 H     1 <1>   0.1500 
 46 H        5.3090     3.8020    -1.6090 H     1 <1>   0.1500 
 47 H       -8.0530     1.1920    -0.3640 H     1 <1>   0.0800 
 48 H       -7.9850     1.7690    -2.0160 H     1 <1>   0.0800 
 49 H       -9.3300     2.2120    -0.9860 H     1 <1>   0.0800 
 50 H        6.6770     6.9760     1.7420 H     1 <1>   0.1500 
 51 H        7.6330     4.1870    -1.0740 H     1 <1>   0.1500 
@<TRIPOS>BOND
  1   1   2  2   
  2   2   3  am  
  3   2   4  1   
  4   3   5  1   
  5   3   6  1   
  6   4   7  ar  
  7   4   8  ar  
  8   5   9  1   
  9   5  30  1   
 10   5  31  1   
 11   6  10  1   
 12   6  32  1   
 13   6  33  1   
 14   7  11  ar  
 15   7  34  1   
 16   8  12  ar  
 17   8  35  1   
 18   9  13  1   
 19   9  14  1   
 20   9  15  1   
 21  10  14  1   
 22  10  36  1   
 23  10  37  1   
 24  11  16  ar  
 25  12  16  ar  
 26  13  17  ar  
 27  13  18  ar  
 28  14  38  1   
 29  14  39  1   
 30  15  19  1   
 31  15  40  1   
 32  15  41  1   
 33  16  20  1   
 34  17  21  ar  
 35  18  19  1   
 36  18  22  ar  
 37  19  42  1   
 38  19  43  1   
 39  20  23  ar  
 40  20  24  ar  
 41  21  25  ar  
 42  21  26  1   
 43  22  25  ar  
 44  22  44  1   
 45  23  27  ar  
 46  23  45  1   
 47  24  28  ar  
 48  24  46  1   
 49  26  47  1   
 50  26  48  1   
 51  26  49  1   
 52  27  29  ar  
 53  27  50  1   
 54  28  29  ar  
 55  28  51  1   
@<TRIPOS>SUBSTRUCTURE
  1 ****   3 GROUP 4 **** **** 0

# MOE 2024.06 (io_trps.svl 2023.06)
