@<TRIPOS>MOLECULE
NONAME
45 46 1 0 0 
SMALL
USER_CHARGES


@<TRIPOS>ATOM
  1 S        0.4260     0.0800     0.5250 S.o2  1 <1>   1.3330 
  2 O       -0.6200     0.0150     1.5200 O.2   1 <1>  -0.6500 
  3 O        1.8050     0.1910     0.9420 O.2   1 <1>  -0.6500 
  4 N        0.2920    -1.2760    -0.4870 N.am  1 <1>  -0.8490 
  5 C        0.0370     1.4380    -0.5760 C.3   1 <1>  -0.0550 
  6 C        1.5120    -1.5540    -1.2530 C.3   1 <1>   0.1160 
  7 C       -0.1210    -2.4770     0.2450 C.3   1 <1>   0.1160 
  8 C        0.0100     2.8010     0.1350 C.3   1 <1>  -0.0800 
  9 C       -0.4590     3.9250    -0.7820 C.3   1 <1>   0.2000 
 10 C        1.3780     3.2780     0.6320 C.3   1 <1>   0.1400 
 11 O       -1.8420     3.9510    -0.8380 O.3   1 <1>  -0.6800 
 12 C        0.1090     5.2020    -0.1710 C.3   1 <1>   0.1400 
 13 N        1.3310     4.7600     0.5450 N.am  1 <1>  -0.6600 
 14 C        2.4670     5.5350     0.6750 C.2   1 <1>   0.7150 
 15 O        3.5310     4.9620     0.8340 O.2   1 <1>  -0.5700 
 16 C        2.3970     6.9800     0.6130 C.2   1 <1>   0.0550 
 17 O        3.3790     7.6910     0.0650 O.3   1 <1>  -0.2800 
 18 C        1.4330     7.8490     1.0350 C.2   1 <1>  -0.1500 
 19 C        3.0740     8.9680     0.1220 C.2   1 <1>  -0.0400 
 20 C        1.8710     9.1330     0.7120 C.2   1 <1>  -0.1500 
 21 C        4.0420     9.9870    -0.4490 C.3   1 <1>   0.2500 
 22 S        5.2680    10.4120     0.8220 S.3   1 <1>  -0.4600 
 23 C        6.5290    11.3320    -0.0970 C.3   1 <1>  -0.0100 
 24 H        0.7480     1.4660    -1.3780 H     1 <1>   0.0800 
 25 H       -0.9310     1.2590    -1.0040 H     1 <1>   0.0800 
 26 H        1.3390    -2.3640    -1.9420 H     1 <1>   0.0800 
 27 H        2.3200    -1.8220    -0.5920 H     1 <1>   0.0800 
 28 H        1.8030    -0.6850    -1.8180 H     1 <1>   0.0800 
 29 H       -0.2120    -3.3120    -0.4290 H     1 <1>   0.0800 
 30 H       -1.0800    -2.3150     0.7080 H     1 <1>   0.0800 
 31 H        0.5970    -2.7150     1.0120 H     1 <1>   0.0800 
 32 H       -0.6410     2.7450     0.9920 H     1 <1>   0.0800 
 33 H       -0.0800     3.8030    -1.7830 H     1 <1>   0.0800 
 34 H        2.1700     2.9110     0.0000 H     1 <1>   0.0800 
 35 H        1.5650     2.9630     1.6460 H     1 <1>   0.0800 
 36 H       -2.2270     3.9570     0.0600 H     1 <1>   0.4000 
 37 H       -0.5810     5.6250     0.5380 H     1 <1>   0.0800 
 38 H        0.3470     5.9190    -0.9380 H     1 <1>   0.0800 
 39 H        0.5100     7.6170     1.5330 H     1 <1>   0.1500 
 40 H        1.3420    10.0480     0.9120 H     1 <1>   0.1500 
 41 H        3.5370    10.8970    -0.7150 H     1 <1>   0.0800 
 42 H        4.5670     9.5850    -1.2960 H     1 <1>   0.0800 
 43 H        7.2920    11.6260     0.6020 H     1 <1>   0.0800 
 44 H        6.0600    12.1940    -0.5370 H     1 <1>   0.0800 
 45 H        6.9330    10.6800    -0.8510 H     1 <1>   0.0800 
@<TRIPOS>BOND
  1   1   2  2   
  2   1   3  2   
  3   1   4  am  
  4   1   5  1   
  5   4   6  1   
  6   4   7  1   
  7   5   8  1   
  8   5  24  1   
  9   5  25  1   
 10   6  26  1   
 11   6  27  1   
 12   6  28  1   
 13   7  29  1   
 14   7  30  1   
 15   7  31  1   
 16   8   9  1   
 17   8  10  1   
 18   8  32  1   
 19   9  11  1   
 20   9  12  1   
 21   9  33  1   
 22  10  13  1   
 23  10  34  1   
 24  10  35  1   
 25  11  36  1   
 26  12  13  1   
 27  12  37  1   
 28  12  38  1   
 29  13  14  am  
 30  14  15  2   
 31  14  16  1   
 32  16  17  1   
 33  16  18  2   
 34  17  19  1   
 35  18  20  1   
 36  18  39  1   
 37  19  20  2   
 38  19  21  1   
 39  20  40  1   
 40  21  22  1   
 41  21  41  1   
 42  21  42  1   
 43  22  23  1   
 44  23  43  1   
 45  23  44  1   
 46  23  45  1   
@<TRIPOS>SUBSTRUCTURE
  1 ****  13 GROUP 4 **** **** 0

# MOE 2024.06 (io_trps.svl 2023.06)
