@<TRIPOS>MOLECULE
NONAME
52 55 1 0 0 
SMALL
USER_CHARGES


@<TRIPOS>ATOM
  1 F       -1.8230    -2.7770    -1.5960 F     1 <1>  -0.1900 
  2 C       -1.9090    -1.6450    -0.9450 C.ar  1 <1>   0.1900 
  3 C       -3.1890    -1.1070    -0.6850 C.ar  1 <1>   0.3100 
  4 C       -0.7420    -1.0520    -0.5420 C.ar  1 <1>  -0.1500 
  5 N       -4.3230    -1.7300    -1.1150 N.ar  1 <1>  -0.6200 
  6 C       -3.2300     0.1000     0.0510 C.ar  1 <1>   0.0000 
  7 C       -0.8050     0.1480     0.1720 C.ar  1 <1>  -0.1500 
  8 C       -5.4720    -1.1920    -0.8230 C.ar  1 <1>   0.1670 
  9 C       -4.4880     0.6470     0.3510 C.ar  1 <1>  -0.1500 
 10 C       -2.0230     0.7060     0.4610 C.ar  1 <1>  -0.1500 
 11 C       -5.6000    -0.0050    -0.0850 C.ar  1 <1>  -0.1500 
 12 C       -6.7440    -1.8930    -1.3060 C.3   1 <1>   0.2540 
 13 N       -7.2610    -2.8800    -0.3240 N.3   1 <1>  -0.8100 
 14 C       -6.2750    -3.9390    -0.0710 C.3   1 <1>   0.1100 
 15 C       -8.5490    -3.4430    -0.7580 C.3   1 <1>   0.1100 
 16 C       -6.9280    -4.9410     0.8920 C.3   1 <1>   0.4230 
 17 C       -9.0060    -4.5970     0.1690 C.3   1 <1>  -0.1600 
 18 N       -6.0060    -5.5820     1.9000 N.4   1 <1>  -0.9590 
 19 C       -7.9870    -5.8550     0.1120 C.3   1 <1>   0.0000 
 20 C       -4.8840    -6.2860     1.2660 C.3   1 <1>   0.3430 
 21 C       -5.5290    -4.5920     2.9140 C.3   1 <1>   0.2630 
 22 C       -6.9650    -7.1040    -0.0270 C.3   1 <1>  -0.1600 
 23 C       -9.1220    -6.7360    -0.6030 C.3   1 <1>   0.1200 
 24 C       -5.4200    -6.9790     0.0300 C.3   1 <1>  -0.1600 
 25 O      -10.0110    -7.1610     0.3820 O.3   1 <1>  -0.6800 
 26 H        0.2100    -1.4970    -0.7690 H     1 <1>   0.1500 
 27 H        0.1100     0.6200     0.4890 H     1 <1>   0.1500 
 28 H       -4.5530     1.5620     0.9140 H     1 <1>   0.1500 
 29 H       -2.0750     1.6290     1.0130 H     1 <1>   0.1500 
 30 H       -6.5840     0.3740     0.1270 H     1 <1>   0.1500 
 31 H       -6.5330    -2.3840    -2.2410 H     1 <1>   0.0800 
 32 H       -7.4980    -1.1490    -1.4910 H     1 <1>   0.0800 
 33 H       -5.9970    -4.4110    -0.9970 H     1 <1>   0.0800 
 34 H       -5.4020    -3.5120     0.3870 H     1 <1>   0.0800 
 35 H       -9.2920    -2.6610    -0.7470 H     1 <1>   0.0800 
 36 H       -8.4660    -3.8100    -1.7690 H     1 <1>   0.0800 
 37 H       -7.4680    -4.2830     1.5450 H     1 <1>   0.0800 
 38 H       -9.1770    -4.2250     1.1670 H     1 <1>   0.0800 
 39 H      -10.0350    -4.7480    -0.1170 H     1 <1>   0.0800 
 40 H       -6.5860    -6.2890     2.3720 H     1 <1>   0.4500 
 41 H       -4.1090    -5.5910     0.9830 H     1 <1>   0.0800 
 42 H       -4.4700    -7.0090     1.9510 H     1 <1>   0.0800 
 43 H       -4.9280    -3.8310     2.4420 H     1 <1>   0.0800 
 44 H       -4.9350    -5.0840     3.6680 H     1 <1>   0.0800 
 45 H       -6.3690    -4.1160     3.3930 H     1 <1>   0.0800 
 46 H       -7.2580    -7.8560     0.6910 H     1 <1>   0.0800 
 47 H       -7.0130    -7.5610    -1.0020 H     1 <1>   0.0800 
 48 H       -8.8710    -7.6450    -1.1200 H     1 <1>   0.0800 
 49 H       -9.6650    -6.2010    -1.3660 H     1 <1>   0.0800 
 50 H       -5.0690    -6.4470    -0.8370 H     1 <1>   0.0800 
 51 H       -4.9770    -7.9590    -0.0250 H     1 <1>   0.0800 
 52 H      -10.7500    -7.6740    -0.0060 H     1 <1>   0.4000 
@<TRIPOS>BOND
  1   1   2  1   
  2   2   3  ar  
  3   2   4  ar  
  4   3   5  ar  
  5   3   6  ar  
  6   4   7  ar  
  7   4  26  1   
  8   5   8  ar  
  9   6   9  ar  
 10   6  10  ar  
 11   7  10  ar  
 12   7  27  1   
 13   8  11  ar  
 14   8  12  1   
 15   9  11  ar  
 16   9  28  1   
 17  10  29  1   
 18  11  30  1   
 19  12  13  1   
 20  12  31  1   
 21  12  32  1   
 22  13  14  1   
 23  13  15  1   
 24  14  16  1   
 25  14  33  1   
 26  14  34  1   
 27  15  17  1   
 28  15  35  1   
 29  15  36  1   
 30  16  18  1   
 31  16  19  1   
 32  16  37  1   
 33  17  19  1   
 34  17  38  1   
 35  17  39  1   
 36  18  20  1   
 37  18  21  1   
 38  18  40  1   
 39  19  22  1   
 40  19  23  1   
 41  20  24  1   
 42  20  41  1   
 43  20  42  1   
 44  21  43  1   
 45  21  44  1   
 46  21  45  1   
 47  22  24  1   
 48  22  46  1   
 49  22  47  1   
 50  23  25  1   
 51  23  48  1   
 52  23  49  1   
 53  24  50  1   
 54  24  51  1   
 55  25  52  1   
@<TRIPOS>SUBSTRUCTURE
  1 ****  14 GROUP 4 **** **** 0

# MOE 2024.06 (io_trps.svl 2023.06)
