@<TRIPOS>MOLECULE
NONAME
51 53 1 0 0 
SMALL
USER_CHARGES


@<TRIPOS>ATOM
  1 CL       2.2370    -0.5660    -0.5790 Cl    1 <1>  -0.1770 
  2 C        1.4370    -2.0010     0.0030 C.ar  1 <1>   0.1770 
  3 C        1.5240    -3.1710    -0.7260 C.ar  1 <1>  -0.1500 
  4 C        0.7270    -1.9500     1.1860 C.ar  1 <1>  -0.1500 
  5 C        0.8880    -4.3160    -0.2710 C.ar  1 <1>  -0.1440 
  6 C        0.0930    -3.0920     1.6380 C.ar  1 <1>  -0.1500 
  7 C        0.1540    -4.2900     0.9230 C.ar  1 <1>   0.0860 
  8 C        0.9990    -5.6040    -1.0770 C.3   1 <1>  -0.0960 
  9 C       -0.5480    -5.4570     1.4220 C.2   1 <1>   0.5440 
 10 O        0.0700    -6.2840     2.0660 O.2   1 <1>  -0.5700 
 11 N       -1.8980    -5.6500     1.1890 N.am  1 <1>  -0.6600 
 12 C       -2.6660    -4.7650     0.2620 C.3   1 <1>   0.2200 
 13 C       -2.6010    -6.8030     1.8330 C.3   1 <1>   0.0600 
 14 C       -3.6320    -3.8440     0.9960 C.3   1 <1>  -0.1600 
 15 C       -3.5530    -5.5060    -0.7360 C.3   1 <1>  -0.1600 
 16 C       -4.6270    -3.3910    -0.0830 C.3   1 <1>  -0.0800 
 17 C       -4.5630    -4.4460    -1.2020 C.3   1 <1>  -0.0800 
 18 C       -6.0850    -3.3430     0.3940 C.3   1 <1>  -0.1600 
 19 C       -5.9890    -4.9830    -1.3790 C.3   1 <1>  -0.1600 
 20 C       -6.6820    -4.6770    -0.0540 C.3   1 <1>   0.4230 
 21 N       -8.1760    -4.6920    -0.1570 N.4   1 <1>  -0.9590 
 22 C       -8.7700    -3.6530    -1.0630 C.3   1 <1>   0.2630 
 23 C       -8.7990    -4.6020     1.1990 C.3   1 <1>   0.2630 
 24 H        2.0910    -3.1740    -1.6400 H     1 <1>   0.1500 
 25 H        0.6780    -1.0300     1.7410 H     1 <1>   0.1500 
 26 H       -0.4590    -3.0690     2.5620 H     1 <1>   0.1500 
 27 H        1.5980    -5.4630    -1.9580 H     1 <1>   0.0800 
 28 H        0.0220    -5.9390    -1.3780 H     1 <1>   0.0800 
 29 H        1.4550    -6.3720    -0.4760 H     1 <1>   0.0800 
 30 H       -1.9920    -4.1510    -0.3100 H     1 <1>   0.0800 
 31 H       -3.6150    -6.5470     2.0750 H     1 <1>   0.0800 
 32 H       -2.1020    -7.0860     2.7450 H     1 <1>   0.0800 
 33 H       -2.5920    -7.6470     1.1660 H     1 <1>   0.0800 
 34 H       -4.1350    -4.3880     1.7750 H     1 <1>   0.0800 
 35 H       -3.1120    -3.0060     1.4270 H     1 <1>   0.0800 
 36 H       -2.9740    -5.8870    -1.5580 H     1 <1>   0.0800 
 37 H       -4.0700    -6.3170    -0.2580 H     1 <1>   0.0800 
 38 H       -4.3220    -2.4300    -0.4670 H     1 <1>   0.0800 
 39 H       -4.2090    -3.9950    -2.1150 H     1 <1>   0.0800 
 40 H       -6.5640    -2.5180    -0.0990 H     1 <1>   0.0800 
 41 H       -6.1530    -3.2070     1.4590 H     1 <1>   0.0800 
 42 H       -5.9980    -6.0350    -1.6050 H     1 <1>   0.0800 
 43 H       -6.4450    -4.4440    -2.1880 H     1 <1>   0.0800 
 44 H       -6.3680    -5.4290     0.6530 H     1 <1>   0.0800 
 45 H       -8.4220    -5.6130    -0.5500 H     1 <1>   0.4500 
 46 H       -8.5640    -2.6630    -0.6900 H     1 <1>   0.0800 
 47 H       -9.8390    -3.7780    -1.1210 H     1 <1>   0.0800 
 48 H       -8.3660    -3.7380    -2.0580 H     1 <1>   0.0800 
 49 H       -8.5740    -3.6500     1.6530 H     1 <1>   0.0800 
 50 H       -8.4230    -5.3850     1.8380 H     1 <1>   0.0800 
 51 H       -9.8700    -4.7040     1.1280 H     1 <1>   0.0800 
@<TRIPOS>BOND
  1   1   2  1   
  2   2   3  ar  
  3   2   4  ar  
  4   3   5  ar  
  5   3  24  1   
  6   4   6  ar  
  7   4  25  1   
  8   5   7  ar  
  9   5   8  1   
 10   6   7  ar  
 11   6  26  1   
 12   7   9  1   
 13   8  27  1   
 14   8  28  1   
 15   8  29  1   
 16   9  10  2   
 17   9  11  am  
 18  11  12  1   
 19  11  13  1   
 20  12  14  1   
 21  12  15  1   
 22  12  30  1   
 23  13  31  1   
 24  13  32  1   
 25  13  33  1   
 26  14  16  1   
 27  14  34  1   
 28  14  35  1   
 29  15  17  1   
 30  15  36  1   
 31  15  37  1   
 32  16  17  1   
 33  16  18  1   
 34  16  38  1   
 35  17  19  1   
 36  17  39  1   
 37  18  20  1   
 38  18  40  1   
 39  18  41  1   
 40  19  20  1   
 41  19  42  1   
 42  19  43  1   
 43  20  21  1   
 44  20  44  1   
 45  21  22  1   
 46  21  23  1   
 47  21  45  1   
 48  22  46  1   
 49  22  47  1   
 50  22  48  1   
 51  23  49  1   
 52  23  50  1   
 53  23  51  1   
@<TRIPOS>SUBSTRUCTURE
  1 ****  12 GROUP 4 **** **** 0

# MOE 2024.06 (io_trps.svl 2023.06)
