@<TRIPOS>MOLECULE
NONAME
43 45 1 0 0 
SMALL
USER_CHARGES


@<TRIPOS>ATOM
  1 S       -1.4260    -0.5270    -1.6670 S.3   1 <1>  -0.0800 
  2 C       -1.6190    -0.9920     0.0210 C.2   1 <1>  -0.1400 
  3 C       -1.5120     1.1760    -1.2550 C.2   1 <1>  -0.1100 
  4 C       -1.7320     0.1030     0.7960 C.2   1 <1>  -0.1500 
  5 C       -1.6330    -2.4720     0.3680 C.3   1 <1>   0.3800 
  6 C       -1.6730     1.3360     0.0700 C.2   1 <1>  -0.1500 
  7 O       -0.4110    -2.9930     0.0100 O.3   1 <1>  -0.6800 
  8 C       -2.7400    -3.2670    -0.3600 C.3   1 <1>  -0.0800 
  9 C       -4.1440    -2.6940    -0.0830 C.3   1 <1>  -0.1600 
 10 C       -2.7220    -4.7640     0.0070 C.3   1 <1>  -0.1600 
 11 C       -5.2290    -3.4950    -0.8010 C.3   1 <1>   0.3430 
 12 C       -3.8290    -5.5350    -0.7090 C.3   1 <1>   0.3430 
 13 N       -5.1560    -4.9260    -0.3930 N.4   1 <1>  -0.9590 
 14 C       -6.2720    -5.7110    -0.9870 C.3   1 <1>   0.4860 
 15 C       -6.3220    -7.0780    -0.3270 C.ar  1 <1>  -0.1430 
 16 C       -6.8340    -7.2230     0.9540 C.ar  1 <1>  -0.1500 
 17 C       -5.8610    -8.2000    -1.0010 C.ar  1 <1>  -0.1500 
 18 C       -6.8730    -8.4700     1.5530 C.ar  1 <1>  -0.1500 
 19 C       -5.9030    -9.4440    -0.3960 C.ar  1 <1>  -0.1500 
 20 C       -6.4080    -9.6000     0.8900 C.ar  1 <1>   0.0730 
 21 C       -6.4480   -10.8920     1.5150 C.1   1 <1>   0.4840 
 22 N       -6.4750   -11.9170     2.0130 N.1   1 <1>  -0.5570 
 23 H       -1.4300     1.8850    -2.0600 H     1 <1>   0.1500 
 24 H       -1.8560     0.1100     1.8660 H     1 <1>   0.1500 
 25 H       -1.7310    -2.5850     1.4350 H     1 <1>   0.0800 
 26 H       -1.7520     2.2810     0.5790 H     1 <1>   0.1500 
 27 H        0.2520    -2.2750     0.0440 H     1 <1>   0.4000 
 28 H       -2.5530    -3.1790    -1.4170 H     1 <1>   0.0800 
 29 H       -4.1950    -1.6760    -0.4300 H     1 <1>   0.0800 
 30 H       -4.3430    -2.6820     0.9750 H     1 <1>   0.0800 
 31 H       -2.8220    -4.8930     1.0710 H     1 <1>   0.0800 
 32 H       -1.7760    -5.1930    -0.2780 H     1 <1>   0.0800 
 33 H       -5.0850    -3.4100    -1.8670 H     1 <1>   0.0800 
 34 H       -6.1960    -3.0860    -0.5550 H     1 <1>   0.0800 
 35 H       -3.8060    -6.5650    -0.3910 H     1 <1>   0.0800 
 36 H       -3.6550    -5.5030    -1.7730 H     1 <1>   0.0800 
 37 H       -5.2680    -4.9780     0.6270 H     1 <1>   0.4500 
 38 H       -6.1290    -5.8170    -2.0500 H     1 <1>   0.0800 
 39 H       -7.2100    -5.2050    -0.8190 H     1 <1>   0.0800 
 40 H       -7.2140    -6.3750     1.5000 H     1 <1>   0.1500 
 41 H       -5.4690    -8.1240    -2.0020 H     1 <1>   0.1500 
 42 H       -7.2750    -8.5720     2.5490 H     1 <1>   0.1500 
 43 H       -5.5430   -10.3090    -0.9290 H     1 <1>   0.1500 
@<TRIPOS>BOND
  1   1   2  1   
  2   1   3  1   
  3   2   4  2   
  4   2   5  1   
  5   3   6  2   
  6   3  23  1   
  7   4   6  1   
  8   4  24  1   
  9   5   7  1   
 10   5   8  1   
 11   5  25  1   
 12   6  26  1   
 13   7  27  1   
 14   8   9  1   
 15   8  10  1   
 16   8  28  1   
 17   9  11  1   
 18   9  29  1   
 19   9  30  1   
 20  10  12  1   
 21  10  31  1   
 22  10  32  1   
 23  11  13  1   
 24  11  33  1   
 25  11  34  1   
 26  12  13  1   
 27  12  35  1   
 28  12  36  1   
 29  13  14  1   
 30  13  37  1   
 31  14  15  1   
 32  14  38  1   
 33  14  39  1   
 34  15  16  ar  
 35  15  17  ar  
 36  16  18  ar  
 37  16  40  1   
 38  17  19  ar  
 39  17  41  1   
 40  18  20  ar  
 41  18  42  1   
 42  19  20  ar  
 43  19  43  1   
 44  20  21  1   
 45  21  22  3   
@<TRIPOS>SUBSTRUCTURE
  1 ****  12 GROUP 4 **** **** 0

# MOE 2024.06 (io_trps.svl 2023.06)
