@<TRIPOS>MOLECULE
NONAME
58 60 1 0 0 
SMALL
USER_CHARGES


@<TRIPOS>ATOM
  1 O       -1.2000     0.2560     2.6630 O.2   1 <1>  -0.5700 
  2 C       -1.6990     0.9770     1.8220 C.2   1 <1>   0.5440 
  3 N       -2.4310     0.4040     0.8110 N.am  1 <1>  -0.6600 
  4 C       -1.5280     2.4140     1.8910 C.ar  1 <1>   0.0860 
  5 C       -3.2890     1.1380    -0.1530 C.3   1 <1>   0.1400 
  6 C       -2.6640    -1.0570     0.7020 C.3   1 <1>   0.1400 
  7 C       -0.5410     3.1040     1.1730 C.ar  1 <1>  -0.1440 
  8 C       -2.3980     3.1440     2.6980 C.ar  1 <1>  -0.1500 
  9 C       -4.4070     0.1490    -0.4760 C.3   1 <1>   0.2000 
 10 C       -3.7100    -1.2160    -0.4090 C.3   1 <1>  -0.0800 
 11 C       -0.4500     4.4950     1.2590 C.ar  1 <1>   0.1170 
 12 C        0.4520     2.3440     0.2860 C.3   1 <1>  -0.0960 
 13 C       -2.3130     4.5180     2.7860 C.ar  1 <1>  -0.1500 
 14 O       -5.3570     0.2320     0.5310 O.3   1 <1>  -0.6800 
 15 C       -4.6440    -2.4250    -0.2160 C.3   1 <1>  -0.0170 
 16 N        0.5560     5.1800     0.5570 N.am  1 <1>  -0.5470 
 17 C       -1.3440     5.1870     2.0680 C.ar  1 <1>  -0.1500 
 18 C       -3.8590    -3.7280    -0.2570 C.ar  1 <1>  -0.1430 
 19 C        0.5780     6.4360     0.0100 C.2   1 <1>   0.5690 
 20 C       -3.4230    -4.3570     0.8910 C.ar  1 <1>  -0.1500 
 21 C       -3.5390    -4.3450    -1.4490 C.ar  1 <1>  -0.1500 
 22 O       -0.3830     7.1670     0.0370 O.2   1 <1>  -0.5700 
 23 C        1.8800     6.9340    -0.6700 C.3   1 <1>   0.0610 
 24 C       -2.7050    -5.5380     0.7940 C.ar  1 <1>   0.1600 
 25 C       -2.8170    -5.5270    -1.4360 C.ar  1 <1>   0.1600 
 26 C        2.9650     5.8390    -0.7830 C.3   1 <1>  -0.2400 
 27 C        1.5750     7.4360    -2.0950 C.3   1 <1>  -0.2400 
 28 C        2.4690     8.1000     0.1440 C.3   1 <1>  -0.2400 
 29 N       -2.3900    -6.1370    -0.3420 N.ar  1 <1>  -0.6200 
 30 H       -3.6750     2.0560     0.2560 H     1 <1>   0.0800 
 31 H       -2.7160     1.3510    -1.0380 H     1 <1>   0.0800 
 32 H       -1.7490    -1.5720     0.4610 H     1 <1>   0.0800 
 33 H       -3.0380    -1.4230     1.6430 H     1 <1>   0.0800 
 34 H       -3.1490     2.6190     3.2630 H     1 <1>   0.1500 
 35 H       -4.8880     0.3420    -1.4200 H     1 <1>   0.0800 
 36 H       -3.1740    -1.3500    -1.3320 H     1 <1>   0.0800 
 37 H        0.2230     1.2970     0.2060 H     1 <1>   0.0800 
 38 H        1.4420     2.4290     0.6940 H     1 <1>   0.0800 
 39 H        0.4450     2.7520    -0.7090 H     1 <1>   0.0800 
 40 H       -2.9960     5.0670     3.4110 H     1 <1>   0.1500 
 41 H       -4.8970     0.1930     1.3930 H     1 <1>   0.4000 
 42 H       -5.3860    -2.4320    -0.9950 H     1 <1>   0.0800 
 43 H       -5.1660    -2.3520     0.7220 H     1 <1>   0.0800 
 44 H        1.4000     4.6370     0.3950 H     1 <1>   0.3700 
 45 H       -1.2810     6.2570     2.1440 H     1 <1>   0.1500 
 46 H       -3.6330    -3.9440     1.8610 H     1 <1>   0.1500 
 47 H       -3.8450    -3.9210    -2.3880 H     1 <1>   0.1500 
 48 H       -2.3710    -6.0140     1.7010 H     1 <1>   0.1500 
 49 H       -2.5770    -5.9950    -2.3750 H     1 <1>   0.1500 
 50 H        3.8390     6.2280    -1.2760 H     1 <1>   0.0800 
 51 H        2.6050     5.0050    -1.3600 H     1 <1>   0.0800 
 52 H        3.2640     5.4920     0.1900 H     1 <1>   0.0800 
 53 H        2.4660     7.7950    -2.5780 H     1 <1>   0.0800 
 54 H        0.8610     8.2420    -2.0620 H     1 <1>   0.0800 
 55 H        1.1550     6.6440    -2.6890 H     1 <1>   0.0800 
 56 H        3.3670     8.4760    -0.3150 H     1 <1>   0.0800 
 57 H        2.7010     7.7800     1.1440 H     1 <1>   0.0800 
 58 H        1.7580     8.9060     0.2060 H     1 <1>   0.0800 
@<TRIPOS>BOND
  1   1   2  2   
  2   2   3  am  
  3   2   4  1   
  4   3   5  1   
  5   3   6  1   
  6   4   7  ar  
  7   4   8  ar  
  8   5   9  1   
  9   5  30  1   
 10   5  31  1   
 11   6  10  1   
 12   6  32  1   
 13   6  33  1   
 14   7  11  ar  
 15   7  12  1   
 16   8  13  ar  
 17   8  34  1   
 18   9  10  1   
 19   9  14  1   
 20   9  35  1   
 21  10  15  1   
 22  10  36  1   
 23  11  16  1   
 24  11  17  ar  
 25  12  37  1   
 26  12  38  1   
 27  12  39  1   
 28  13  17  ar  
 29  13  40  1   
 30  14  41  1   
 31  15  18  1   
 32  15  42  1   
 33  15  43  1   
 34  16  19  am  
 35  16  44  1   
 36  17  45  1   
 37  18  20  ar  
 38  18  21  ar  
 39  19  22  2   
 40  19  23  1   
 41  20  24  ar  
 42  20  46  1   
 43  21  25  ar  
 44  21  47  1   
 45  23  26  1   
 46  23  27  1   
 47  23  28  1   
 48  24  29  ar  
 49  24  48  1   
 50  25  29  ar  
 51  25  49  1   
 52  26  50  1   
 53  26  51  1   
 54  26  52  1   
 55  27  53  1   
 56  27  54  1   
 57  27  55  1   
 58  28  56  1   
 59  28  57  1   
 60  28  58  1   
@<TRIPOS>SUBSTRUCTURE
  1 ****   3 GROUP 4 **** **** 0

# MOE 2024.06 (io_trps.svl 2023.06)
