@<TRIPOS>MOLECULE
NONAME
50 52 1 0 0 
SMALL
USER_CHARGES


@<TRIPOS>ATOM
  1 O       -0.0610    -1.1840     1.4420 O.2   1 <1>  -0.5700 
  2 C        0.3920    -1.6670     0.4340 C.2   1 <1>   0.5690 
  3 N        1.6840    -1.6150     0.0390 N.am  1 <1>  -0.6600 
  4 C       -0.4410    -2.4180    -0.5670 C.3   1 <1>  -0.0990 
  5 C        1.9230    -2.3010    -1.2410 C.3   1 <1>   0.1400 
  6 C        2.7800    -0.9600     0.7860 C.3   1 <1>   0.1400 
  7 C        0.5970    -3.0220    -1.5290 C.3   1 <1>  -0.1600 
  8 C        3.1820     0.3440     0.0890 C.3   1 <1>  -0.1600 
  9 C        4.1730     1.1860     0.9150 C.3   1 <1>  -0.0800 
 10 C        4.4110     2.5410     0.2270 C.3   1 <1>  -0.1600 
 11 C        5.5220     0.4730     1.1200 C.3   1 <1>  -0.1600 
 12 C        5.4200     3.4050     0.9890 C.3   1 <1>   0.2090 
 13 C        6.5230     1.3520     1.8760 C.3   1 <1>   0.2090 
 14 N        6.6940     2.6500     1.1630 N.pl3 1 <1>  -0.8380 
 15 C        7.9200     3.1420     0.7790 C.ar  1 <1>   0.7200 
 16 N        7.9710     4.3920     0.3160 N.ar  1 <1>  -0.6200 
 17 N        8.9780     2.3420     0.9040 N.ar  1 <1>  -0.6200 
 18 C        9.1330     4.8590    -0.0600 C.ar  1 <1>   0.1670 
 19 C       10.1290     2.8250     0.5130 C.ar  1 <1>   0.1600 
 20 C       10.2940     4.0910    -0.0210 C.ar  1 <1>   0.0860 
 21 C        9.1210     6.3100    -0.5140 C.3   1 <1>  -0.0970 
 22 C       11.5970     4.4910    -0.4740 C.2   1 <1>   0.4230 
 23 O       12.5990     4.2490     0.1460 O.2   1 <1>  -0.5700 
 24 C       11.7770     5.1850    -1.8100 C.3   1 <1>  -0.1790 
 25 H       -1.0850    -1.7230    -1.0730 H     1 <1>   0.0800 
 26 H       -1.0260    -3.1750    -0.0780 H     1 <1>   0.0800 
 27 H        2.7390    -2.9990    -1.1530 H     1 <1>   0.0800 
 28 H        2.1400    -1.5740    -2.0040 H     1 <1>   0.0800 
 29 H        3.6160    -1.6340     0.8500 H     1 <1>   0.0800 
 30 H        2.4420    -0.7440     1.7860 H     1 <1>   0.0800 
 31 H        0.3060    -2.9080    -2.5580 H     1 <1>   0.0800 
 32 H        0.7180    -4.0700    -1.3190 H     1 <1>   0.0800 
 33 H        2.2890     0.9240    -0.0700 H     1 <1>   0.0800 
 34 H        3.6140     0.1200    -0.8700 H     1 <1>   0.0800 
 35 H        3.7350     1.3760     1.8810 H     1 <1>   0.0800 
 36 H        3.4840     3.0790     0.1510 H     1 <1>   0.0800 
 37 H        4.7850     2.3870    -0.7710 H     1 <1>   0.0800 
 38 H        5.9510     0.2130     0.1690 H     1 <1>   0.0800 
 39 H        5.3850    -0.4330     1.6810 H     1 <1>   0.0800 
 40 H        5.0280     3.6560     1.9590 H     1 <1>   0.0800 
 41 H        5.5710     4.3220     0.4470 H     1 <1>   0.0800 
 42 H        7.4550     0.8230     1.9710 H     1 <1>   0.0800 
 43 H        6.1580     1.5490     2.8690 H     1 <1>   0.0800 
 44 H       10.9950     2.1920     0.6100 H     1 <1>   0.1500 
 45 H        8.3000     6.8300    -0.0530 H     1 <1>   0.0800 
 46 H        8.9950     6.3610    -1.5800 H     1 <1>   0.0800 
 47 H       10.0260     6.8110    -0.2290 H     1 <1>   0.0800 
 48 H       10.9220     5.0320    -2.4410 H     1 <1>   0.0800 
 49 H       12.6420     4.7800    -2.3050 H     1 <1>   0.0800 
 50 H       11.9350     6.2360    -1.6570 H     1 <1>   0.0800 
@<TRIPOS>BOND
  1   1   2  2   
  2   2   3  am  
  3   2   4  1   
  4   3   5  1   
  5   3   6  1   
  6   4   7  1   
  7   4  25  1   
  8   4  26  1   
  9   5   7  1   
 10   5  27  1   
 11   5  28  1   
 12   6   8  1   
 13   6  29  1   
 14   6  30  1   
 15   7  31  1   
 16   7  32  1   
 17   8   9  1   
 18   8  33  1   
 19   8  34  1   
 20   9  10  1   
 21   9  11  1   
 22   9  35  1   
 23  10  12  1   
 24  10  36  1   
 25  10  37  1   
 26  11  13  1   
 27  11  38  1   
 28  11  39  1   
 29  12  14  1   
 30  12  40  1   
 31  12  41  1   
 32  13  14  1   
 33  13  42  1   
 34  13  43  1   
 35  14  15  1   
 36  15  16  ar  
 37  15  17  ar  
 38  16  18  ar  
 39  17  19  ar  
 40  18  20  ar  
 41  18  21  1   
 42  19  20  ar  
 43  19  44  1   
 44  20  22  1   
 45  21  45  1   
 46  21  46  1   
 47  21  47  1   
 48  22  23  2   
 49  22  24  1   
 50  24  48  1   
 51  24  49  1   
 52  24  50  1   
@<TRIPOS>SUBSTRUCTURE
  1 ****  14 GROUP 4 **** **** 0

# MOE 2024.06 (io_trps.svl 2023.06)
