@<TRIPOS>MOLECULE
NONAME
57 60 1 0 0 
SMALL
USER_CHARGES


@<TRIPOS>ATOM
  1 S       -0.1670     0.1640    -1.0550 S.3   1 <1>  -0.2860 
  2 C       -0.7470     1.2070     0.2830 C.2   1 <1>   0.2420 
  3 C        1.4870    -0.4310    -0.4840 C.3   1 <1>   0.1500 
  4 N       -0.0970     1.3570     1.3800 N.2   1 <1>  -0.5650 
  5 N       -1.9200     1.8870     0.1850 N.pl3 1 <1>   0.0480 
  6 C        2.5190     0.6690    -0.7620 C.3   1 <1>  -0.1600 
  7 C        1.8100    -1.7240    -1.2420 C.3   1 <1>  -0.1600 
  8 C       -0.8790     2.2180     2.0860 C.ar  1 <1>   0.2270 
  9 C       -2.0120     2.5640     1.3650 C.ar  1 <1>  -0.1520 
 10 C       -2.8870     1.8860    -0.9350 C.3   1 <1>   0.1570 
 11 C        3.9390     0.1820    -0.4400 C.3   1 <1>  -0.1600 
 12 C        3.2300    -2.2090    -0.9180 C.3   1 <1>  -0.1600 
 13 C       -0.6720     2.7460     3.3580 C.ar  1 <1>  -0.1500 
 14 C       -2.9570     3.4460     1.8960 C.ar  1 <1>  -0.1500 
 15 C       -4.2920     1.5500    -0.4640 C.2   1 <1>   0.5690 
 16 C        4.2690    -1.1120    -1.1980 C.3   1 <1>  -0.1600 
 17 C       -1.6020     3.6140     3.8870 C.ar  1 <1>  -0.1500 
 18 C       -2.7430     3.9630     3.1550 C.ar  1 <1>  -0.1500 
 19 O       -5.1170     2.4250    -0.5820 O.2   1 <1>  -0.5700 
 20 N       -4.6240     0.3190     0.0570 N.am  1 <1>  -0.6600 
 21 C       -5.9870     0.0690     0.6240 C.3   1 <1>   0.1400 
 22 C       -3.6930    -0.8360     0.2030 C.3   1 <1>   0.1400 
 23 C       -6.6120    -1.1890     0.0030 C.3   1 <1>   0.2000 
 24 C       -4.2990    -2.0830    -0.4500 C.3   1 <1>  -0.1600 
 25 O       -7.8180    -1.4590     0.6340 O.3   1 <1>  -0.6800 
 26 C       -5.6930    -2.4200     0.1220 C.3   1 <1>  -0.0800 
 27 C       -6.3310    -3.6350    -0.5730 C.3   1 <1>   0.1200 
 28 O       -5.5070    -4.7410    -0.4400 O.3   1 <1>  -0.6800 
 29 H        1.4130    -0.6250     0.5720 H     1 <1>   0.0800 
 30 H        2.4680     0.9530    -1.7980 H     1 <1>   0.0800 
 31 H        2.2910     1.5340    -0.1640 H     1 <1>   0.0800 
 32 H        1.0980    -2.4840    -0.9750 H     1 <1>   0.0800 
 33 H        1.7320    -1.5440    -2.3010 H     1 <1>   0.0800 
 34 H       -2.8910     2.8640    -1.3760 H     1 <1>   0.0800 
 35 H       -2.5910     1.1800    -1.6850 H     1 <1>   0.0800 
 36 H        4.6510     0.9460    -0.7010 H     1 <1>   0.0800 
 37 H        4.0210     0.0050     0.6200 H     1 <1>   0.0800 
 38 H        3.2820    -2.4890     0.1210 H     1 <1>   0.0800 
 39 H        3.4580    -3.0800    -1.5070 H     1 <1>   0.0800 
 40 H        0.2130     2.4630     3.8970 H     1 <1>   0.1500 
 41 H       -3.8340     3.7170     1.3330 H     1 <1>   0.1500 
 42 H        5.2450    -1.4590    -0.9080 H     1 <1>   0.0800 
 43 H        4.2940    -0.9080    -2.2550 H     1 <1>   0.0800 
 44 H       -1.4580     4.0320     4.8680 H     1 <1>   0.1500 
 45 H       -3.4560     4.6440     3.5870 H     1 <1>   0.1500 
 46 H       -5.8940    -0.0570     1.6880 H     1 <1>   0.0800 
 47 H       -6.6370     0.9070     0.4370 H     1 <1>   0.0800 
 48 H       -2.7460    -0.6360    -0.2600 H     1 <1>   0.0800 
 49 H       -3.5180    -1.0170     1.2510 H     1 <1>   0.0800 
 50 H       -6.8330    -0.9890    -1.0320 H     1 <1>   0.0800 
 51 H       -4.3650    -1.9220    -1.5120 H     1 <1>   0.0800 
 52 H       -3.6260    -2.9050    -0.2830 H     1 <1>   0.0800 
 53 H       -7.6720    -1.6950     1.5700 H     1 <1>   0.4000 
 54 H       -5.5790    -2.6510     1.1670 H     1 <1>   0.0800 
 55 H       -6.4860    -3.4500    -1.6230 H     1 <1>   0.0800 
 56 H       -7.2770    -3.8800    -0.1200 H     1 <1>   0.0800 
 57 H       -4.6930    -4.6310    -0.9670 H     1 <1>   0.4000 
@<TRIPOS>BOND
  1   1   2  1   
  2   1   3  1   
  3   2   4  2   
  4   2   5  1   
  5   3   6  1   
  6   3   7  1   
  7   3  29  1   
  8   4   8  1   
  9   5   9  1   
 10   5  10  1   
 11   6  11  1   
 12   6  30  1   
 13   6  31  1   
 14   7  12  1   
 15   7  32  1   
 16   7  33  1   
 17   8   9  ar  
 18   8  13  ar  
 19   9  14  ar  
 20  10  15  1   
 21  10  34  1   
 22  10  35  1   
 23  11  16  1   
 24  11  36  1   
 25  11  37  1   
 26  12  16  1   
 27  12  38  1   
 28  12  39  1   
 29  13  17  ar  
 30  13  40  1   
 31  14  18  ar  
 32  14  41  1   
 33  15  19  2   
 34  15  20  am  
 35  16  42  1   
 36  16  43  1   
 37  17  18  ar  
 38  17  44  1   
 39  18  45  1   
 40  20  21  1   
 41  20  22  1   
 42  21  23  1   
 43  21  46  1   
 44  21  47  1   
 45  22  24  1   
 46  22  48  1   
 47  22  49  1   
 48  23  25  1   
 49  23  26  1   
 50  23  50  1   
 51  24  26  1   
 52  24  51  1   
 53  24  52  1   
 54  25  53  1   
 55  26  27  1   
 56  26  54  1   
 57  27  28  1   
 58  27  55  1   
 59  27  56  1   
 60  28  57  1   
@<TRIPOS>SUBSTRUCTURE
  1 ****   5 GROUP 4 **** **** 0

# MOE 2024.06 (io_trps.svl 2023.06)
