@<TRIPOS>MOLECULE
NONAME
57 61 1 0 0 
SMALL
USER_CHARGES


@<TRIPOS>ATOM
  1 S        0.1750    -0.8270     1.0590 S.o2  1 <1>   1.3330 
  2 O       -0.9550    -1.7000     0.8610 O.2   1 <1>  -0.6500 
  3 O        0.9250    -0.8540     2.2910 O.2   1 <1>  -0.6500 
  4 N        1.2190    -1.2790    -0.1710 N.am  1 <1>  -0.9140 
  5 C       -0.2480     0.8490     0.6400 C.3   1 <1>  -0.1350 
  6 C        2.2620    -2.2200     0.2230 C.3   1 <1>   0.1960 
  7 C        1.7060    -3.5900     0.6690 C.3   1 <1>  -0.0800 
  8 C        1.0010    -4.3300    -0.4770 C.3   1 <1>   0.2000 
  9 C        2.7860    -4.6300     1.0500 C.3   1 <1>  -0.0800 
 10 O        2.0800    -4.9610    -1.0560 O.3   1 <1>  -0.5600 
 11 C        0.1910    -5.5310     0.0360 C.3   1 <1>  -0.1600 
 12 C        2.5310    -5.7190     0.0120 C.3   1 <1>   0.2800 
 13 C        4.2800    -4.2880     0.8900 C.3   1 <1>   0.3430 
 14 C        1.2940    -6.5510     0.3430 C.3   1 <1>  -0.1600 
 15 C        3.8940    -6.3440    -0.2800 C.3   1 <1>   0.3430 
 16 N        4.8460    -5.2000    -0.1580 N.4   1 <1>  -0.9590 
 17 C        5.0090    -4.4950    -1.4690 C.3   1 <1>   0.5240 
 18 C        5.9980    -3.3550    -1.2940 C.2   1 <1>   0.0460 
 19 N        7.1440    -3.5360    -0.6070 N.2   1 <1>  -0.5650 
 20 C        5.9160    -2.0830    -1.7090 C.2   1 <1>  -0.0400 
 21 C        7.7020    -2.3610    -0.6270 C.2   1 <1>   0.4250 
 22 O        6.9830    -1.4730    -1.2890 O.3   1 <1>  -0.2800 
 23 C        4.8950    -1.2910    -2.5020 C.3   1 <1>  -0.0600 
 24 C        8.9630    -1.9910    -0.0320 C.ar  1 <1>   0.0530 
 25 C        9.1740    -0.7660     0.6030 C.ar  1 <1>   0.1900 
 26 C       10.0510    -2.8670    -0.0580 C.ar  1 <1>  -0.1500 
 27 F        8.1910     0.0890     0.6960 F     1 <1>  -0.1900 
 28 C       10.3820    -0.4050     1.1680 C.ar  1 <1>  -0.1500 
 29 C       11.2690    -2.5260     0.5050 C.ar  1 <1>  -0.1500 
 30 C       11.4400    -1.2940     1.1170 C.ar  1 <1>  -0.1500 
 31 H        0.6070    -1.7270    -0.8510 H     1 <1>   0.4200 
 32 H       -0.6950     0.8900    -0.3330 H     1 <1>   0.0800 
 33 H        0.6310     1.4640     0.6450 H     1 <1>   0.0800 
 34 H       -0.9440     1.2410     1.3560 H     1 <1>   0.0800 
 35 H        2.9140    -2.3600    -0.6200 H     1 <1>   0.0800 
 36 H        2.8440    -1.7830     1.0190 H     1 <1>   0.0800 
 37 H        1.0340    -3.4570     1.4990 H     1 <1>   0.0800 
 38 H        0.4740    -3.7120    -1.1840 H     1 <1>   0.0800 
 39 H        2.6210    -5.0000     2.0470 H     1 <1>   0.0800 
 40 H       -0.3960    -5.2740     0.9010 H     1 <1>   0.0800 
 41 H       -0.4640    -5.8920    -0.7380 H     1 <1>   0.0800 
 42 H        4.7800    -4.4680     1.8280 H     1 <1>   0.0800 
 43 H        4.4360    -3.2550     0.6290 H     1 <1>   0.0800 
 44 H        1.2220    -7.4010    -0.3140 H     1 <1>   0.0800 
 45 H        1.2790    -6.8810     1.3670 H     1 <1>   0.0800 
 46 H        3.9150    -6.8030    -1.2540 H     1 <1>   0.0800 
 47 H        4.1120    -7.0830     0.4740 H     1 <1>   0.0800 
 48 H        5.8020    -5.4790     0.1140 H     1 <1>   0.4500 
 49 H        5.3950    -5.1810    -2.2050 H     1 <1>   0.0800 
 50 H        4.0650    -4.1120    -1.8180 H     1 <1>   0.0800 
 51 H        4.0760    -1.9130    -2.8120 H     1 <1>   0.0800 
 52 H        5.3630    -0.8750    -3.3770 H     1 <1>   0.0800 
 53 H        4.5150    -0.4830    -1.9030 H     1 <1>   0.0800 
 54 H        9.9370    -3.8280    -0.5300 H     1 <1>   0.1500 
 55 H       10.4900     0.5550     1.6420 H     1 <1>   0.1500 
 56 H       12.0920    -3.2200     0.4670 H     1 <1>   0.1500 
 57 H       12.3900    -1.0330     1.5520 H     1 <1>   0.1500 
@<TRIPOS>BOND
  1   1   2  2   
  2   1   3  2   
  3   1   4  am  
  4   1   5  1   
  5   4   6  1   
  6   4  31  1   
  7   5  32  1   
  8   5  33  1   
  9   5  34  1   
 10   6   7  1   
 11   6  35  1   
 12   6  36  1   
 13   7   8  1   
 14   7   9  1   
 15   7  37  1   
 16   8  10  1   
 17   8  11  1   
 18   8  38  1   
 19   9  12  1   
 20   9  13  1   
 21   9  39  1   
 22  10  12  1   
 23  11  14  1   
 24  11  40  1   
 25  11  41  1   
 26  12  14  1   
 27  12  15  1   
 28  13  16  1   
 29  13  42  1   
 30  13  43  1   
 31  14  44  1   
 32  14  45  1   
 33  15  16  1   
 34  15  46  1   
 35  15  47  1   
 36  16  17  1   
 37  16  48  1   
 38  17  18  1   
 39  17  49  1   
 40  17  50  1   
 41  18  19  1   
 42  18  20  2   
 43  19  21  2   
 44  20  22  1   
 45  20  23  1   
 46  21  22  1   
 47  21  24  1   
 48  23  51  1   
 49  23  52  1   
 50  23  53  1   
 51  24  25  ar  
 52  24  26  ar  
 53  25  27  1   
 54  25  28  ar  
 55  26  29  ar  
 56  26  54  1   
 57  28  30  ar  
 58  28  55  1   
 59  29  30  ar  
 60  29  56  1   
 61  30  57  1   
@<TRIPOS>SUBSTRUCTURE
  1 ****  13 GROUP 4 **** **** 0

# MOE 2024.06 (io_trps.svl 2023.06)
