@<TRIPOS>MOLECULE
NONAME
40 42 1 0 0 
SMALL
USER_CHARGES


@<TRIPOS>ATOM
  1 O        1.8710    -1.2300     2.6330 O.2   1 <1>  -0.5700 
  2 C        1.8600    -1.6890     1.5020 C.2   1 <1>   0.5440 
  3 N        2.0350    -0.7960     0.4600 N.am  1 <1>  -0.6600 
  4 C        1.6910    -3.1330     1.3250 C.ar  1 <1>   0.3960 
  5 C        2.2000    -1.1430    -0.9690 C.3   1 <1>   0.1400 
  6 C        2.1790     0.6610     0.6700 C.3   1 <1>   0.1400 
  7 N        1.0710    -3.6360     0.2420 N.ar  1 <1>  -0.6200 
  8 C        2.1900    -3.9700     2.3300 C.ar  1 <1>   0.1600 
  9 C        2.7350     0.1280    -1.6180 C.3   1 <1>  -0.1600 
 10 C        2.2180     1.2580    -0.7330 C.3   1 <1>  -0.1600 
 11 C        0.9930    -4.9490     0.2390 C.ar  1 <1>   0.4100 
 12 N        2.1340    -5.2960     2.3340 N.ar  1 <1>  -0.6200 
 13 N        0.3370    -5.4480    -0.8540 N.pl3 1 <1>  -0.8690 
 14 C        1.5290    -5.7530     1.2580 C.ar  1 <1>   0.1600 
 15 C       -0.7400    -6.4660    -0.7300 C.3   1 <1>   0.2090 
 16 C       -2.1350    -5.8160    -0.7870 C.3   1 <1>   0.0000 
 17 C       -2.5770    -5.4440    -2.2110 C.3   1 <1>   0.2580 
 18 C       -3.2540    -6.8610    -0.9300 C.3   1 <1>   0.2580 
 19 C       -2.4200    -4.7440     0.2840 C.3   1 <1>  -0.2400 
 20 O       -3.0690    -6.7740    -2.3370 O.3   1 <1>  -0.5160 
 21 H        1.2380    -1.3980    -1.3810 H     1 <1>   0.0800 
 22 H        2.8790    -1.9690    -1.0950 H     1 <1>   0.0800 
 23 H        3.1030     0.8500     1.1900 H     1 <1>   0.0800 
 24 H        1.3560     1.0480     1.2470 H     1 <1>   0.0800 
 25 H        2.6650    -3.5080     3.1780 H     1 <1>   0.1500 
 26 H        2.4100     0.2230    -2.6390 H     1 <1>   0.0800 
 27 H        3.8110     0.1060    -1.5930 H     1 <1>   0.0800 
 28 H        2.8410     2.1330    -0.7770 H     1 <1>   0.0800 
 29 H        1.2170     1.5240    -1.0250 H     1 <1>   0.0800 
 30 H        0.1010    -4.6970    -1.5080 H     1 <1>   0.4000 
 31 H        1.4420    -6.8170     1.1520 H     1 <1>   0.1500 
 32 H       -0.6400    -6.9980     0.1990 H     1 <1>   0.0800 
 33 H       -0.6340    -7.1800    -1.5300 H     1 <1>   0.0800 
 34 H       -1.7810    -5.2680    -2.9130 H     1 <1>   0.0000 
 35 H       -3.3930    -4.7430    -2.2700 H     1 <1>   0.0000 
 36 H       -4.2410    -6.5190    -0.6690 H     1 <1>   0.0000 
 37 H       -3.0130    -7.8490    -0.5790 H     1 <1>   0.0000 
 38 H       -1.7740    -3.8960     0.1470 H     1 <1>   0.0800 
 39 H       -2.2520    -5.1460     1.2670 H     1 <1>   0.0800 
 40 H       -3.4390    -4.4020     0.2230 H     1 <1>   0.0800 
@<TRIPOS>BOND
  1   1   2  2   
  2   2   3  am  
  3   2   4  1   
  4   3   5  1   
  5   3   6  1   
  6   4   7  ar  
  7   4   8  ar  
  8   5   9  1   
  9   5  21  1   
 10   5  22  1   
 11   6  10  1   
 12   6  23  1   
 13   6  24  1   
 14   7  11  ar  
 15   8  12  ar  
 16   8  25  1   
 17   9  10  1   
 18   9  26  1   
 19   9  27  1   
 20  10  28  1   
 21  10  29  1   
 22  11  13  1   
 23  11  14  ar  
 24  12  14  ar  
 25  13  15  1   
 26  13  30  1   
 27  14  31  1   
 28  15  16  1   
 29  15  32  1   
 30  15  33  1   
 31  16  17  1   
 32  16  18  1   
 33  16  19  1   
 34  17  20  1   
 35  17  34  1   
 36  17  35  1   
 37  18  20  1   
 38  18  36  1   
 39  18  37  1   
 40  19  38  1   
 41  19  39  1   
 42  19  40  1   
@<TRIPOS>SUBSTRUCTURE
  1 ****   7 GROUP 4 **** **** 0

# MOE 2024.06 (io_trps.svl 2023.06)
