@<TRIPOS>MOLECULE
NONAME
51 53 1 0 0 
SMALL
USER_CHARGES


@<TRIPOS>ATOM
  1 S       -0.3080    -0.1550     1.9100 S.o2  1 <1>   1.4470 
  2 O       -0.2000    -1.5990     1.9960 O.2   1 <1>  -0.6500 
  3 O       -0.6340     0.6100     3.0900 O.2   1 <1>  -0.6500 
  4 N       -1.5590     0.1050     0.7900 N.am  1 <1>  -0.8490 
  5 C        1.1420     0.5460     1.0770 C.ar  1 <1>  -0.0090 
  6 C       -1.5070    -0.8470    -0.3440 C.3   1 <1>   0.1960 
  7 C       -2.8760     0.1920     1.4670 C.3   1 <1>   0.1960 
  8 C        2.3400    -0.1590     1.0040 C.ar  1 <1>  -0.1500 
  9 C        1.0880     1.8070     0.4890 C.ar  1 <1>  -0.1500 
 10 C       -2.3990    -2.0640    -0.0240 C.3   1 <1>   0.4230 
 11 C       -4.0420    -0.2300     0.5520 C.3   1 <1>  -0.1600 
 12 C        3.4420     0.3680     0.3530 C.ar  1 <1>  -0.1500 
 13 C        2.1830     2.3460    -0.1650 C.ar  1 <1>  -0.1500 
 14 N       -2.0810    -3.3880    -0.6760 N.4   1 <1>  -0.9590 
 15 C       -3.9010    -1.6770    -0.0140 C.3   1 <1>   0.0000 
 16 C        3.3570     1.6160    -0.2310 C.ar  1 <1>   0.1020 
 17 C       -3.1550    -4.4090    -0.4350 C.3   1 <1>   0.3430 
 18 C       -1.7480    -3.2870    -2.1320 C.3   1 <1>   0.2630 
 19 C       -4.5890    -2.7090     0.9170 C.3   1 <1>  -0.1600 
 20 C       -4.6110    -1.7140    -1.3960 C.3   1 <1>   0.1200 
 21 S        4.8270     2.2310    -1.0680 S.3   1 <1>  -0.3320 
 22 C       -3.9430    -4.1200     0.8560 C.3   1 <1>  -0.1600 
 23 O       -3.8660    -1.0620    -2.3670 O.3   1 <1>  -0.6800 
 24 C        4.4210     3.9220    -1.6900 C.3   1 <1>  -0.0100 
 25 H       -1.8540    -0.3440    -1.2280 H     1 <1>   0.0800 
 26 H       -0.4920    -1.1580    -0.5210 H     1 <1>   0.0800 
 27 H       -2.8840    -0.4450     2.3390 H     1 <1>   0.0800 
 28 H       -3.0240     1.2030     1.8100 H     1 <1>   0.0800 
 29 H        2.4160    -1.1310     1.4630 H     1 <1>   0.1500 
 30 H        0.1730     2.3740     0.5440 H     1 <1>   0.1500 
 31 H       -2.1810    -2.2400     1.0160 H     1 <1>   0.0800 
 32 H       -4.9690    -0.1280     1.0880 H     1 <1>   0.0800 
 33 H       -4.0760     0.4880    -0.2510 H     1 <1>   0.0800 
 34 H        4.3650    -0.1820     0.2970 H     1 <1>   0.1500 
 35 H        2.1050     3.3200    -0.6090 H     1 <1>   0.1500 
 36 H       -1.2370    -3.7190    -0.1830 H     1 <1>   0.4500 
 37 H       -3.8440    -4.4070    -1.2620 H     1 <1>   0.0800 
 38 H       -2.7160    -5.3930    -0.3800 H     1 <1>   0.0800 
 39 H       -2.6110    -2.9770    -2.6960 H     1 <1>   0.0800 
 40 H       -1.4210    -4.2430    -2.5080 H     1 <1>   0.0800 
 41 H       -0.9590    -2.5700    -2.2920 H     1 <1>   0.0800 
 42 H       -4.5360    -2.3730     1.9390 H     1 <1>   0.0800 
 43 H       -5.6360    -2.7780     0.6740 H     1 <1>   0.0800 
 44 H       -5.5680    -1.2220    -1.3270 H     1 <1>   0.0800 
 45 H       -4.7800    -2.7190    -1.7380 H     1 <1>   0.0800 
 46 H       -4.7130    -4.8640     0.9710 H     1 <1>   0.0800 
 47 H       -3.2740    -4.2410     1.6920 H     1 <1>   0.0800 
 48 H       -4.4390    -0.7870    -3.1170 H     1 <1>   0.4000 
 49 H        5.2990     4.3070    -2.1780 H     1 <1>   0.0800 
 50 H        4.1570     4.5330    -0.8450 H     1 <1>   0.0800 
 51 H        3.6060     3.8350    -2.3860 H     1 <1>   0.0800 
@<TRIPOS>BOND
  1   1   2  2   
  2   1   3  2   
  3   1   4  am  
  4   1   5  1   
  5   4   6  1   
  6   4   7  1   
  7   5   8  ar  
  8   5   9  ar  
  9   6  10  1   
 10   6  25  1   
 11   6  26  1   
 12   7  11  1   
 13   7  27  1   
 14   7  28  1   
 15   8  12  ar  
 16   8  29  1   
 17   9  13  ar  
 18   9  30  1   
 19  10  14  1   
 20  10  15  1   
 21  10  31  1   
 22  11  15  1   
 23  11  32  1   
 24  11  33  1   
 25  12  16  ar  
 26  12  34  1   
 27  13  16  ar  
 28  13  35  1   
 29  14  17  1   
 30  14  18  1   
 31  14  36  1   
 32  15  19  1   
 33  15  20  1   
 34  16  21  1   
 35  17  22  1   
 36  17  37  1   
 37  17  38  1   
 38  18  39  1   
 39  18  40  1   
 40  18  41  1   
 41  19  22  1   
 42  19  42  1   
 43  19  43  1   
 44  20  23  1   
 45  20  44  1   
 46  20  45  1   
 47  21  24  1   
 48  22  46  1   
 49  22  47  1   
 50  23  48  1   
 51  24  49  1   
 52  24  50  1   
 53  24  51  1   
@<TRIPOS>SUBSTRUCTURE
  1 ****   6 GROUP 4 **** **** 0

# MOE 2024.06 (io_trps.svl 2023.06)
