@<TRIPOS>MOLECULE
NONAME
40 42 1 0 0 
SMALL
USER_CHARGES


@<TRIPOS>ATOM
  1 CL       1.4530     1.4680    -0.6830 Cl    1 <1>  -0.1770 
  2 C        2.2420     0.0380    -0.0610 C.ar  1 <1>   0.1770 
  3 C        3.3060     0.1540     0.8390 C.ar  1 <1>   0.0860 
  4 C        1.7660    -1.1890    -0.4960 C.ar  1 <1>  -0.1500 
  5 C        3.8100     1.4340     1.2870 C.2   1 <1>   0.5440 
  6 C        3.8730    -1.0290     1.3120 C.ar  1 <1>  -0.1500 
  7 C        2.3480    -2.3540    -0.0270 C.ar  1 <1>  -0.1500 
  8 O        3.8570     1.6650     2.4780 O.2   1 <1>  -0.5700 
  9 N        4.2980     2.3980     0.4250 N.am  1 <1>  -0.6600 
 10 C        3.3930    -2.2460     0.8720 C.ar  1 <1>   0.1900 
 11 C        4.3860     3.8240     0.8790 C.3   1 <1>   0.1400 
 12 C        4.7660     2.0890    -0.9500 C.3   1 <1>   0.1400 
 13 F        3.9470    -3.3390     1.3210 F     1 <1>  -0.1900 
 14 C        5.8330     4.3180     1.1080 C.3   1 <1>   0.4230 
 15 C        6.2070     2.5610    -1.2110 C.3   1 <1>  -0.0800 
 16 N        6.4900     4.8660    -0.1340 N.4   1 <1>  -0.9590 
 17 C        6.7750     3.2360     1.6960 C.3   1 <1>   0.1200 
 18 C        7.2460     1.9330    -0.2450 C.3   1 <1>   0.1200 
 19 C        6.2660     4.0900    -1.3930 C.3   1 <1>   0.3430 
 20 C        6.2900     6.3320    -0.3170 C.3   1 <1>   0.2630 
 21 O        7.7150     2.8180     0.7330 O.3   1 <1>  -0.5600 
 22 H        0.9450    -1.2300    -1.1910 H     1 <1>   0.1500 
 23 H        4.6800    -0.9970     2.0230 H     1 <1>   0.1500 
 24 H        2.0030    -3.3230    -0.3430 H     1 <1>   0.1500 
 25 H        3.8830     4.4610     0.1740 H     1 <1>   0.0800 
 26 H        3.8560     3.9280     1.8110 H     1 <1>   0.0800 
 27 H        4.7260     1.0260    -1.1150 H     1 <1>   0.0800 
 28 H        4.0930     2.5450    -1.6570 H     1 <1>   0.0800 
 29 H        5.7730     5.1090     1.8350 H     1 <1>   0.0800 
 30 H        6.4340     2.1540    -2.1800 H     1 <1>   0.0800 
 31 H        7.4880     4.6710     0.0790 H     1 <1>   0.4500 
 32 H        6.2520     2.3830     2.0900 H     1 <1>   0.0800 
 33 H        7.3310     3.6670     2.5090 H     1 <1>   0.0800 
 34 H        8.1110     1.6240    -0.8080 H     1 <1>   0.0800 
 35 H        6.8500     1.0590     0.2460 H     1 <1>   0.0800 
 36 H        5.3490     4.4150    -1.8560 H     1 <1>   0.0800 
 37 H        7.0690     4.3170    -2.0760 H     1 <1>   0.0800 
 38 H        5.2540     6.5460    -0.5240 H     1 <1>   0.0800 
 39 H        6.8880     6.6910    -1.1390 H     1 <1>   0.0800 
 40 H        6.5820     6.8640     0.5750 H     1 <1>   0.0800 
@<TRIPOS>BOND
  1   1   2  1   
  2   2   3  ar  
  3   2   4  ar  
  4   3   5  1   
  5   3   6  ar  
  6   4   7  ar  
  7   4  22  1   
  8   5   8  2   
  9   5   9  am  
 10   6  10  ar  
 11   6  23  1   
 12   7  10  ar  
 13   7  24  1   
 14   9  11  1   
 15   9  12  1   
 16  10  13  1   
 17  11  14  1   
 18  11  25  1   
 19  11  26  1   
 20  12  15  1   
 21  12  27  1   
 22  12  28  1   
 23  14  16  1   
 24  14  17  1   
 25  14  29  1   
 26  15  18  1   
 27  15  19  1   
 28  15  30  1   
 29  16  19  1   
 30  16  20  1   
 31  16  31  1   
 32  17  21  1   
 33  17  32  1   
 34  17  33  1   
 35  18  21  1   
 36  18  34  1   
 37  18  35  1   
 38  19  36  1   
 39  19  37  1   
 40  20  38  1   
 41  20  39  1   
 42  20  40  1   
@<TRIPOS>SUBSTRUCTURE
  1 ****   9 GROUP 4 **** **** 0

# MOE 2024.06 (io_trps.svl 2023.06)
