@<TRIPOS>MOLECULE
NONAME
48 50 1 0 0 
SMALL
USER_CHARGES


@<TRIPOS>ATOM
  1 CL       3.0550     1.2030    -3.3330 Cl    1 <1>  -0.1770 
  2 C        3.3840     1.8360    -1.7400 C.ar  1 <1>   0.1770 
  3 C        3.3230     3.1990    -1.5290 C.ar  1 <1>  -0.1500 
  4 C        3.7020     0.9620    -0.7180 C.ar  1 <1>  -0.1500 
  5 C        3.5880     3.7060    -0.2670 C.ar  1 <1>   0.0830 
  6 C        3.9630     1.4670     0.5460 C.ar  1 <1>  -0.1500 
  7 O        3.5200     5.0520    -0.1280 O.3   1 <1>  -0.3630 
  8 C        3.9060     2.8330     0.7730 C.ar  1 <1>  -0.1500 
  9 C        3.8860     5.6880     1.0880 C.3   1 <1>   0.1810 
 10 C        3.8210     7.2100     0.9730 C.2   1 <1>   0.5690 
 11 O        3.0040     7.7690     1.6680 O.2   1 <1>  -0.5700 
 12 N        4.6790     7.9190     0.1580 N.am  1 <1>  -0.6600 
 13 C        5.6910     7.2820    -0.7410 C.3   1 <1>   0.1400 
 14 C        4.6020     9.4090     0.0910 C.3   1 <1>   0.1400 
 15 C        7.0380     7.0840    -0.0290 C.3   1 <1>   0.1400 
 16 C        5.9710    10.1000     0.1820 C.3   1 <1>  -0.1600 
 17 N        7.7490     8.3760     0.2390 N.am  1 <1>  -0.6600 
 18 C        6.9930     9.3680     1.0590 C.3   1 <1>   0.1400 
 19 C        9.0860     8.5430    -0.1170 C.2   1 <1>   0.6300 
 20 O        9.7240     7.5130    -0.2910 O.2   1 <1>  -0.5700 
 21 C        9.7480     9.8350    -0.2910 C.2   1 <1>   0.3890 
 22 N        9.1360    10.9770    -0.3500 N.2   1 <1>  -0.5120 
 23 C       11.2930     9.8010    -0.3750 C.3   1 <1>  -0.0990 
 24 N        9.8480    12.1420    -0.5360 N.am  1 <1>  -0.3680 
 25 C       11.9030    10.9740    -1.1650 C.3   1 <1>  -0.0990 
 26 C       11.1670    12.2580    -0.8720 C.2   1 <1>   0.5690 
 27 O       11.7180    13.3240    -0.9570 O.2   1 <1>  -0.5700 
 28 H        3.0710     3.8610    -2.3360 H     1 <1>   0.1500 
 29 H        3.7420    -0.0950    -0.9110 H     1 <1>   0.1500 
 30 H        4.2100     0.7950     1.3510 H     1 <1>   0.1500 
 31 H        4.1080     3.1920     1.7650 H     1 <1>   0.1500 
 32 H        4.8850     5.3890     1.3440 H     1 <1>   0.0800 
 33 H        3.2030     5.3630     1.8510 H     1 <1>   0.0800 
 34 H        5.8360     7.8880    -1.6190 H     1 <1>   0.0800 
 35 H        5.3340     6.3280    -1.0800 H     1 <1>   0.0800 
 36 H        3.9930     9.7730     0.9010 H     1 <1>   0.0800 
 37 H        4.1140     9.6950    -0.8260 H     1 <1>   0.0800 
 38 H        7.6460     6.4580    -0.6580 H     1 <1>   0.0800 
 39 H        6.8900     6.5610     0.8980 H     1 <1>   0.0800 
 40 H        5.8100    11.0790     0.5930 H     1 <1>   0.0800 
 41 H        6.3760    10.2450    -0.8040 H     1 <1>   0.0800 
 42 H        6.4990     8.8710     1.8770 H     1 <1>   0.0800 
 43 H        7.6740    10.0800     1.4920 H     1 <1>   0.0800 
 44 H       11.6380     8.8870    -0.8250 H     1 <1>   0.0800 
 45 H       11.6690     9.8270     0.6320 H     1 <1>   0.0800 
 46 H        9.3580    13.0390    -0.4540 H     1 <1>   0.3700 
 47 H       11.8170    10.7820    -2.2190 H     1 <1>   0.0800 
 48 H       12.9440    11.0880    -0.9240 H     1 <1>   0.0800 
@<TRIPOS>BOND
  1   1   2  1   
  2   2   3  ar  
  3   2   4  ar  
  4   3   5  ar  
  5   3  28  1   
  6   4   6  ar  
  7   4  29  1   
  8   5   7  1   
  9   5   8  ar  
 10   6   8  ar  
 11   6  30  1   
 12   7   9  1   
 13   8  31  1   
 14   9  10  1   
 15   9  32  1   
 16   9  33  1   
 17  10  11  2   
 18  10  12  am  
 19  12  13  1   
 20  12  14  1   
 21  13  15  1   
 22  13  34  1   
 23  13  35  1   
 24  14  16  1   
 25  14  36  1   
 26  14  37  1   
 27  15  17  1   
 28  15  38  1   
 29  15  39  1   
 30  16  18  1   
 31  16  40  1   
 32  16  41  1   
 33  17  18  1   
 34  17  19  am  
 35  18  42  1   
 36  18  43  1   
 37  19  20  2   
 38  19  21  1   
 39  21  22  2   
 40  21  23  1   
 41  22  24  1   
 42  23  25  1   
 43  23  44  1   
 44  23  45  1   
 45  24  26  am  
 46  24  46  1   
 47  25  26  1   
 48  25  47  1   
 49  25  48  1   
 50  26  27  2   
@<TRIPOS>SUBSTRUCTURE
  1 ****  15 GROUP 4 **** **** 0

# MOE 2024.06 (io_trps.svl 2023.06)
