@<TRIPOS>MOLECULE
NONAME
55 57 1 0 0 
SMALL
USER_CHARGES


@<TRIPOS>ATOM
  1 O       -2.2990     0.3070     2.5000 O.2   1 <1>  -0.5700 
  2 C       -2.0680     0.9540     1.4980 C.2   1 <1>   0.5440 
  3 N       -1.9650     0.3120     0.2850 N.am  1 <1>  -0.6600 
  4 C       -1.9350     2.3950     1.6020 C.ar  1 <1>   0.0860 
  5 C       -1.9630    -1.1930     0.2000 C.3   1 <1>   0.3640 
  6 C       -2.2140     1.0380    -1.0030 C.3   1 <1>   0.1400 
  7 C       -0.8330     3.0660     1.0770 C.ar  1 <1>  -0.1500 
  8 C       -2.9120     3.1580     2.2380 C.ar  1 <1>  -0.1500 
  9 C       -0.6070    -1.7510    -0.2700 C.ar  1 <1>  -0.1430 
 10 C       -3.1310    -1.7110    -0.6990 C.3   1 <1>   0.2000 
 11 C       -2.6090     0.0910    -2.1460 C.3   1 <1>   0.1200 
 12 C       -0.7140     4.4420     1.1570 C.ar  1 <1>   0.0830 
 13 C       -2.8070     4.5340     2.3280 C.ar  1 <1>  -0.1500 
 14 C       -0.4150    -3.1260    -0.2080 C.ar  1 <1>  -0.1500 
 15 C        0.4420    -0.9630    -0.7350 C.ar  1 <1>  -0.1500 
 16 O       -3.5720    -0.8050    -1.6890 O.3   1 <1>  -0.5600 
 17 C       -4.3560    -2.0700     0.1500 C.3   1 <1>   0.1200 
 18 O        0.3960     4.9890     0.6030 O.3   1 <1>  -0.3630 
 19 C       -1.7110     5.1820     1.7850 C.ar  1 <1>  -0.1500 
 20 C        0.7730    -3.7020    -0.6220 C.ar  1 <1>  -0.1500 
 21 C        1.6310    -1.5350    -1.1510 C.ar  1 <1>  -0.1500 
 22 O       -4.1430    -3.2820     0.8020 O.3   1 <1>  -0.6800 
 23 C        0.6590     6.3730     0.7150 C.3   1 <1>   0.1200 
 24 C        1.7980    -2.9070    -1.0980 C.ar  1 <1>  -0.1500 
 25 C        2.0040     6.6670     0.0620 C.3   1 <1>   0.1200 
 26 O        2.2460     8.0340     0.1670 O.3   1 <1>  -0.5600 
 27 C        3.4520     8.4380    -0.3880 C.3   1 <1>   0.1200 
 28 C        3.5640     9.9440    -0.1930 C.3   1 <1>  -0.2400 
 29 H       -2.1090    -1.6060     1.1830 H     1 <1>   0.0800 
 30 H       -3.0120     1.7460    -0.8600 H     1 <1>   0.0800 
 31 H       -1.3350     1.5870    -1.2890 H     1 <1>   0.0800 
 32 H       -0.0490     2.5040     0.6040 H     1 <1>   0.1500 
 33 H       -3.7620     2.6550     2.6670 H     1 <1>   0.1500 
 34 H       -2.8170    -2.5940    -1.2240 H     1 <1>   0.0800 
 35 H       -1.7610    -0.4630    -2.5110 H     1 <1>   0.0800 
 36 H       -3.0340     0.6480    -2.9620 H     1 <1>   0.0800 
 37 H       -3.5770     5.1010     2.8220 H     1 <1>   0.1500 
 38 H       -1.1970    -3.7630     0.1720 H     1 <1>   0.1500 
 39 H        0.3550     0.1060    -0.7740 H     1 <1>   0.1500 
 40 H       -5.2320    -2.1730    -0.4680 H     1 <1>   0.0800 
 41 H       -4.5270    -1.3130     0.8970 H     1 <1>   0.0800 
 42 H       -1.6530     6.2520     1.8650 H     1 <1>   0.1500 
 43 H        0.9000    -4.7690    -0.5700 H     1 <1>   0.1500 
 44 H        2.4310    -0.9120    -1.5110 H     1 <1>   0.1500 
 45 H       -4.3120    -4.0320     0.1980 H     1 <1>   0.4000 
 46 H       -0.1240     6.9100     0.2090 H     1 <1>   0.0800 
 47 H        0.6900     6.6320     1.7580 H     1 <1>   0.0800 
 48 H        2.7220    -3.3520    -1.4210 H     1 <1>   0.1500 
 49 H        1.9800     6.4000    -0.9800 H     1 <1>   0.0800 
 50 H        2.7900     6.1370     0.5720 H     1 <1>   0.0800 
 51 H        4.2570     7.9290     0.1150 H     1 <1>   0.0800 
 52 H        3.4540     8.1900    -1.4370 H     1 <1>   0.0800 
 53 H        3.5470    10.1820     0.8550 H     1 <1>   0.0800 
 54 H        2.7490    10.4420    -0.6870 H     1 <1>   0.0800 
 55 H        4.4880    10.2990    -0.6110 H     1 <1>   0.0800 
@<TRIPOS>BOND
  1   1   2  2   
  2   2   3  am  
  3   2   4  1   
  4   3   5  1   
  5   3   6  1   
  6   4   7  ar  
  7   4   8  ar  
  8   5   9  1   
  9   5  10  1   
 10   5  29  1   
 11   6  11  1   
 12   6  30  1   
 13   6  31  1   
 14   7  12  ar  
 15   7  32  1   
 16   8  13  ar  
 17   8  33  1   
 18   9  14  ar  
 19   9  15  ar  
 20  10  16  1   
 21  10  17  1   
 22  10  34  1   
 23  11  16  1   
 24  11  35  1   
 25  11  36  1   
 26  12  18  1   
 27  12  19  ar  
 28  13  19  ar  
 29  13  37  1   
 30  14  20  ar  
 31  14  38  1   
 32  15  21  ar  
 33  15  39  1   
 34  17  22  1   
 35  17  40  1   
 36  17  41  1   
 37  18  23  1   
 38  19  42  1   
 39  20  24  ar  
 40  20  43  1   
 41  21  24  ar  
 42  21  44  1   
 43  22  45  1   
 44  23  25  1   
 45  23  46  1   
 46  23  47  1   
 47  24  48  1   
 48  25  26  1   
 49  25  49  1   
 50  25  50  1   
 51  26  27  1   
 52  27  28  1   
 53  27  51  1   
 54  27  52  1   
 55  28  53  1   
 56  28  54  1   
 57  28  55  1   
@<TRIPOS>SUBSTRUCTURE
  1 ****   7 GROUP 4 **** **** 0

# MOE 2024.06 (io_trps.svl 2023.06)
