@<TRIPOS>MOLECULE
NONAME
55 58 1 0 0 
SMALL
USER_CHARGES


@<TRIPOS>ATOM
  1 F       -1.0000    -0.8770    -0.5980 F     1 <1>  -0.3400 
  2 C       -0.7330    -2.0050     0.0450 C.3   1 <1>   1.0200 
  3 F        0.4990    -2.3530    -0.2930 F     1 <1>  -0.3400 
  4 F       -0.7040    -1.7000     1.3350 F     1 <1>  -0.3400 
  5 C       -1.7510    -3.1000    -0.2660 C.3   1 <1>  -0.1600 
  6 C       -3.2020    -2.7330     0.1260 C.3   1 <1>  -0.0990 
  7 C       -4.2150    -3.8190    -0.2050 C.2   1 <1>   0.5690 
  8 O       -3.8160    -4.9050    -0.5530 O.2   1 <1>  -0.5700 
  9 N       -5.5500    -3.5530    -0.1010 N.am  1 <1>  -0.6600 
 10 C       -6.5870    -4.5630    -0.4410 C.3   1 <1>   0.1400 
 11 C       -6.1880    -2.3140     0.4090 C.3   1 <1>   0.1400 
 12 C       -7.9150    -3.9350    -0.0200 C.3   1 <1>   0.2800 
 13 C       -7.5840    -2.7490     0.8820 C.3   1 <1>  -0.0800 
 14 O       -8.5750    -3.2960    -1.0540 O.3   1 <1>  -0.5600 
 15 C       -9.0290    -4.8080     0.5580 C.3   1 <1>  -0.1600 
 16 C       -8.8060    -1.8340     0.6390 C.3   1 <1>  -0.0800 
 17 C       -9.6000    -2.6900    -0.3590 C.3   1 <1>   0.2000 
 18 C      -10.2430    -3.9000     0.3340 C.3   1 <1>  -0.1600 
 19 C       -8.4890    -0.4450     0.0670 C.3   1 <1>   0.1400 
 20 N       -9.7310     0.3510    -0.0500 N.am  1 <1>  -0.7300 
 21 C      -10.2750     1.0840     0.9560 C.2   1 <1>   0.5690 
 22 O       -9.7780     1.1180     2.0550 O.2   1 <1>  -0.5700 
 23 C      -11.5530     1.8730     0.6950 C.3   1 <1>  -0.0190 
 24 C      -12.7380     0.9540     0.3460 C.3   1 <1>  -0.1600 
 25 C      -11.3710     2.9320    -0.4080 C.3   1 <1>  -0.1600 
 26 C      -13.9760     1.7790    -0.0190 C.3   1 <1>   0.1200 
 27 C      -12.7010     3.6230    -0.7230 C.3   1 <1>   0.1200 
 28 O      -13.6500     2.6560    -1.0520 O.3   1 <1>  -0.5600 
 29 H       -1.7090    -3.3090    -1.3190 H     1 <1>   0.0800 
 30 H       -1.4540    -3.9900     0.2580 H     1 <1>   0.0800 
 31 H       -3.4920    -1.8360    -0.3900 H     1 <1>   0.0800 
 32 H       -3.2510    -2.5460     1.1830 H     1 <1>   0.0800 
 33 H       -6.5800    -4.7850    -1.4940 H     1 <1>   0.0800 
 34 H       -6.3990    -5.4600     0.1220 H     1 <1>   0.0800 
 35 H       -5.6230    -1.8820     1.2170 H     1 <1>   0.0800 
 36 H       -6.2430    -1.6180    -0.4080 H     1 <1>   0.0800 
 37 H       -7.5250    -3.0630     1.9090 H     1 <1>   0.0800 
 38 H       -9.1180    -5.7190    -0.0070 H     1 <1>   0.0800 
 39 H       -8.8640    -5.0380     1.5960 H     1 <1>   0.0800 
 40 H       -9.3580    -1.7070     1.5540 H     1 <1>   0.0800 
 41 H      -10.2570    -2.1490    -1.0180 H     1 <1>   0.0800 
 42 H      -10.7330    -3.6230     1.2500 H     1 <1>   0.0800 
 43 H      -10.9540    -4.3650    -0.3260 H     1 <1>   0.0800 
 44 H       -8.0350    -0.5300    -0.9060 H     1 <1>   0.0800 
 45 H       -7.8060     0.0690     0.7240 H     1 <1>   0.0800 
 46 H      -10.1840     0.3490    -0.9650 H     1 <1>   0.3700 
 47 H      -11.7990     2.3910     1.6060 H     1 <1>   0.0800 
 48 H      -12.9640     0.3190     1.1850 H     1 <1>   0.0800 
 49 H      -12.4930     0.3230    -0.4890 H     1 <1>   0.0800 
 50 H      -11.0040     2.4770    -1.3110 H     1 <1>   0.0800 
 51 H      -10.6500     3.6650    -0.0910 H     1 <1>   0.0800 
 52 H      -14.3310     2.3510     0.8210 H     1 <1>   0.0800 
 53 H      -14.7680     1.1400    -0.3680 H     1 <1>   0.0800 
 54 H      -12.5950     4.2810    -1.5670 H     1 <1>   0.0800 
 55 H      -13.0610     4.1880     0.1200 H     1 <1>   0.0800 
@<TRIPOS>BOND
  1   1   2  1   
  2   2   3  1   
  3   2   4  1   
  4   2   5  1   
  5   5   6  1   
  6   5  29  1   
  7   5  30  1   
  8   6   7  1   
  9   6  31  1   
 10   6  32  1   
 11   7   8  2   
 12   7   9  am  
 13   9  10  1   
 14   9  11  1   
 15  10  12  1   
 16  10  33  1   
 17  10  34  1   
 18  11  13  1   
 19  11  35  1   
 20  11  36  1   
 21  12  13  1   
 22  12  14  1   
 23  12  15  1   
 24  13  16  1   
 25  13  37  1   
 26  14  17  1   
 27  15  18  1   
 28  15  38  1   
 29  15  39  1   
 30  16  17  1   
 31  16  19  1   
 32  16  40  1   
 33  17  18  1   
 34  17  41  1   
 35  18  42  1   
 36  18  43  1   
 37  19  20  1   
 38  19  44  1   
 39  19  45  1   
 40  20  21  am  
 41  20  46  1   
 42  21  22  2   
 43  21  23  1   
 44  23  24  1   
 45  23  25  1   
 46  23  47  1   
 47  24  26  1   
 48  24  48  1   
 49  24  49  1   
 50  25  27  1   
 51  25  50  1   
 52  25  51  1   
 53  26  28  1   
 54  26  52  1   
 55  26  53  1   
 56  27  28  1   
 57  27  54  1   
 58  27  55  1   
@<TRIPOS>SUBSTRUCTURE
  1 ****  19 GROUP 4 **** **** 0

# MOE 2024.06 (io_trps.svl 2023.06)
